#------------------------------------------------------------------------------
#$Date: 2019-11-03 12:43:47 +0200 (Sun, 03 Nov 2019) $
#$Revision: 221424 $
#$URL: file:///home/coder/svn-repositories/cod/cif/4/12/83/4128301.cif $
#------------------------------------------------------------------------------
#
# This file is available in the Crystallography Open Database (COD),
# http://www.crystallography.net/
#
# All data on this site have been placed in the public domain by the
# contributors.
#
data_4128301
loop_
_publ_author_name
'Belligund, Kavita'
'Mathew, Thomas'
'Hunt, Jonathan R.'
'Nirmalchandar, Archith'
'Haiges, Ralf'
'Dawlaty, Jahan'
'Prakash, G. K. Surya'
_publ_section_title
;
 Photochemistry of 2-Nitroarenes: 2-Nitrophenyl-\a-trifluoromethyl
 Carbinols as Synthons for Fluoroorganics.
;
_journal_issue                   40
_journal_name_full               'Journal of the American Chemical Society'
_journal_page_first              15921
_journal_page_last               15931
_journal_paper_doi               10.1021/jacs.9b07241
_journal_volume                  141
_journal_year                    2019
_chemical_formula_moiety         'C8 H4 F3 N O3'
_chemical_formula_sum            'C8 H4 F3 N O3'
_chemical_formula_weight         219.12
_space_group_crystal_system      monoclinic
_space_group_IT_number           14
_space_group_name_Hall           '-P 2ybc'
_space_group_name_H-M_alt        'P 1 21/c 1'
_symmetry_space_group_name_Hall  '-P 2ybc'
_symmetry_space_group_name_H-M   'P 1 21/c 1'
_atom_sites_solution_hydrogens   mixed
_cell_angle_alpha                90
_cell_angle_beta                 105.719(2)
_cell_angle_gamma                90
_cell_formula_units_Z            4
_cell_length_a                   6.4041(11)
_cell_length_b                   16.548(3)
_cell_length_c                   8.0820(14)
_cell_measurement_reflns_used    98
_cell_measurement_temperature    100.(2)
_cell_measurement_theta_max      26.5277
_cell_measurement_theta_min      2.9051
_cell_volume                     824.5(3)
_computing_cell_refinement       'APEX2 v2014.11-0 (Bruker AXS, 2014)'
_computing_data_collection
'Bruker Instrument Service v2012.12.0.3 (Bruker AXS, 2012)'
_computing_data_reduction        'SAINT V8.34A (Bruker AXS, 2013)'
_computing_publication_material  'SHELXTL XT 2014/4 (Bruker AXS, 2014)'
_computing_structure_refinement  'SHELXTL XL 2014/7 (Bruker AXS, 2014)'
_computing_structure_solution    'SHELXTL XT 2014/4 (Bruker AXS, 2014)'
_diffrn_ambient_temperature      100.(2)
_diffrn_detector_area_resol_mean 8.3333
_diffrn_measured_fraction_theta_full 0.991
_diffrn_measured_fraction_theta_max 0.991
_diffrn_measurement_device_type  'Bruker APEX II CCD'
_diffrn_measurement_method       'omega- and phi-scans'
_diffrn_radiation_monochromator  'TRIUMPH curved-crystal'
_diffrn_radiation_type           'MoK\a '
_diffrn_radiation_wavelength     0.71073
_diffrn_reflns_av_R_equivalents  0.0365
_diffrn_reflns_av_unetI/netI     0.0212
_diffrn_reflns_limit_h_max       9
_diffrn_reflns_limit_h_min       -8
_diffrn_reflns_limit_k_max       23
_diffrn_reflns_limit_k_min       -23
_diffrn_reflns_limit_l_max       11
_diffrn_reflns_limit_l_min       -11
_diffrn_reflns_number            19479
_diffrn_reflns_theta_full        30.65
_diffrn_reflns_theta_max         30.65
_diffrn_reflns_theta_min         2.46
_diffrn_source                   'fine-focus tube'
_exptl_absorpt_coefficient_mu    0.178
_exptl_absorpt_correction_T_max  0.98
_exptl_absorpt_correction_T_min  0.84
_exptl_absorpt_correction_type   multi-scan
_exptl_absorpt_process_details   'SADABS 2014/5 (Bruker AXS, 2014)'
_exptl_crystal_colour            'clear orange'
_exptl_crystal_density_diffrn    1.765
_exptl_crystal_density_method    'not measured'
_exptl_crystal_description       prism
_exptl_crystal_F_000             440
_exptl_crystal_size_max          0.338
_exptl_crystal_size_mid          0.161
_exptl_crystal_size_min          0.127
_refine_diff_density_max         0.557
_refine_diff_density_min         -0.248
_refine_ls_extinction_method     none
_refine_ls_goodness_of_fit_ref   1.030
_refine_ls_hydrogen_treatment    mixed
_refine_ls_matrix_type           full
_refine_ls_number_parameters     139
_refine_ls_number_reflns         2527
_refine_ls_number_restraints     0
_refine_ls_restrained_S_all      1.030
_refine_ls_R_factor_all          0.0472
_refine_ls_R_factor_gt           0.0375
_refine_ls_shift/su_max          0.000
_refine_ls_shift/su_mean         0.000
_refine_ls_structure_factor_coef Fsqd
_refine_ls_weighting_details
'w=1/[\s^2^(Fo^2^)+(0.0579P)^2^+0.3014P] where P=(Fo^2^+2Fc^2^)/3'
_refine_ls_weighting_scheme      calc
_refine_ls_wR_factor_gt          0.0967
_refine_ls_wR_factor_ref         0.1035
_reflns_number_gt                2114
_reflns_number_total             2527
_reflns_threshold_expression     'I > 2\s(I)'
_cod_data_source_file            ja9b07241_si_006.cif
_cod_data_source_block           I
_cod_original_cell_volume        824.5(2)
_cod_database_code               4128301
_shelx_res_file
;
TITL final_a.res in P2(1)/c
CELL  0.71073   6.4041  16.5482   8.0820   90.000  105.719   90.000
ZERR    4.000   0.0011   0.0029   0.0014    0.000    0.002    0.000
LATT 1
SYMM -X, 1/2+Y, 1/2-Z
SFAC C  H  N  O  F
UNIT 32 16 4 12 12
LIST 4
L.S. 10
ACTA 58
BOND $H
CONF
FMAP 2
PLAN 5
SIZE 0.127 0.161 0.338
TEMP -173.150
WGHT    0.057900    0.301400
FVAR       0.85020
C1    1    0.648056    0.396650    0.673846    11.00000    0.01433    0.01380 =
         0.00998   -0.00115    0.00290   -0.00024
C2    1    0.760497    0.433038    0.576842    11.00000    0.01584    0.01771 =
         0.01055   -0.00155    0.00286   -0.00262
AFIX  43
H2    2    0.891925    0.460866    0.627876    11.00000   -1.20000
AFIX   0
C3    1    0.673088    0.428398    0.387841    11.00000    0.01678    0.01368 =
         0.01049   -0.00083    0.00403    0.00035
C4    1    0.471924    0.382041    0.315061    11.00000    0.01829    0.01578 =
         0.01148   -0.00169    0.00082   -0.00114
AFIX  43
H4    2    0.418289    0.377376    0.193765    11.00000   -1.20000
AFIX   0
C5    1    0.362277    0.346169    0.415795    11.00000    0.01632    0.01552 =
         0.01416   -0.00137    0.00029   -0.00213
AFIX  43
H5    2    0.232599    0.316852    0.367222    11.00000   -1.20000
AFIX   0
C6    1    0.447957    0.353673    0.599708    11.00000    0.01417    0.01328 =
         0.01397   -0.00064    0.00329   -0.00050
C7    1    0.681064    0.390860    0.865130    11.00000    0.01471    0.01478 =
         0.01015   -0.00007    0.00424   -0.00126
C8    1    0.874943    0.336763    0.952859    11.00000    0.01931    0.02041 =
         0.01248   -0.00063    0.00370    0.00270
N1    3    0.358218    0.325201    0.714501    11.00000    0.01675    0.02090 =
         0.01494    0.00022    0.00302   -0.00352
O1    4    0.488896    0.345692    0.878560    11.00000    0.01715    0.02525 =
         0.01183    0.00114    0.00478   -0.00464
O2    4    0.694465    0.465185    0.941132    11.00000    0.02618    0.01566 =
         0.01016   -0.00113    0.00591    0.00040
H2O   2    0.709493    0.460386    1.044930    11.00000   -1.20000
O3    4    0.767420    0.463563    0.293628    11.00000    0.02266    0.02188 =
         0.01201   -0.00002    0.00633   -0.00450
F1    5    0.888606    0.327449    1.119921    11.00000    0.03444    0.03413 =
         0.01217    0.00600    0.00484    0.01287
F2    5    1.060008    0.369284    0.940406    11.00000    0.01431    0.04046 =
         0.02720   -0.00009    0.00363    0.00058
F3    5    0.857178    0.263271    0.881756    11.00000    0.03526    0.01958 =
         0.02751   -0.00465    0.00446    0.00878
HKLF 4

REM  final_a.res in P2(1)/c
REM R1 =  0.0375 for    2114 Fo > 4sig(Fo)  and  0.0472 for all    2527 data
REM    139 parameters refined using      0 restraints

END

WGHT      0.0581      0.3012

REM Highest difference peak  0.557,  deepest hole -0.248,  1-sigma level  0.062
Q1    1   0.7134  0.4302  0.4815  11.00000  0.05    0.56
Q2    1   0.7770  0.3628  0.9043  11.00000  0.05    0.53
Q3    1   0.4028  0.3519  0.5097  11.00000  0.05    0.50
Q4    1   0.5598  0.3736  0.6354  11.00000  0.05    0.48
Q5    1   0.6781  0.3940  0.7681  11.00000  0.05    0.48
;
_shelx_res_checksum              80700
_shelx_hkl_file
;
  -1   0   0 1429.46   49.99
   1   0   0 1528.65   49.80
   1   0   0 1593.64   50.29
   1   0   0 1394.06   50.09
   1   0   0 1393.76   49.99
   1   0   0 1463.05   49.99
  -1   0   0 1315.87   49.90
  -1   0   0 1441.16   49.99
   2   0   0  264.57   10.30
   2   0   0  294.67   10.80
   2   0   0  288.07    9.80
  -2   0   0  273.67   10.10
   2   0   0  282.87   10.10
  -2   0   0  259.77    9.90
  -2   0   0  273.87   10.30
   2   0   0  267.07   10.10
   3   0   0    3.10    1.60
   3   0   0    3.60    0.80
   3   0   0    2.80    1.40
   3   0   0    2.10    1.40
  -3   0   0    3.00    1.60
  -3   0   0    2.10    1.00
  -3   0   0    1.20    1.30
   3   0   0    1.60    1.80
   4   0   0  232.48    9.30
   4   0   0  239.98   10.50
  -4   0   0  218.28    9.00
   4   0   0  223.78    8.40
  -4   0   0  230.58    9.50
   4   0   0  229.38    9.60
  -4   0   0  229.98    8.70
   5   0   0  955.70   34.90
   5   0   0  952.50   36.10
   5   0   0  981.50   34.60
  -5   0   0  952.50   33.90
   6   0   0  120.09    7.30
   6   0   0  122.39    6.90
   6   0   0  120.19    8.40
  -6   0   0  123.49    7.20
  -7   0   0  203.18   10.20
   7   0   0  189.68   11.70
   7   0   0  214.48   10.50
   7   0   0  181.98    9.70
   8   0   0   18.30    4.20
   8   0   0   20.60    3.90
   8   0   0   18.40    5.20
  -8   0   0   21.70    4.50
   0  -1   0    0.00    0.20
   0   1   0   -0.30    0.30
   0   1   0    0.10    0.30
   0   1   0   -0.20    0.20
   0   1   0    0.10    0.20
  -1  -1   0 2134.69   75.99
   1  -1   0 2188.58   75.89
   1  -1   0 2193.78   75.99
  -1  -1   0 2204.58   75.79
  -1  -1   0 2238.08   75.99
   1  -1   0 2302.17   76.89
   1  -1   0 2090.89   75.99
  -1   1   0 2244.88   75.99
   1   1   0 2384.46   76.89
   1   1   0 2132.19   76.09
   1   1   0 2251.37   75.89
   1   1   0 2060.49   75.89
   1   1   0 2211.38   75.79
  -1   1   0 2206.78   75.99
  -1   1   0 2105.29   75.89
   2  -1   0 3410.86  119.49
  -2  -1   0 3326.27  119.49
   2  -1   0 3392.06  119.49
   2  -1   0 3731.43  120.09
  -2  -1   0 3368.96  119.29
  -2  -1   0 3268.67  119.09
   2  -1   0 3568.04  119.19
  -2   1   0 3253.57  119.19
  -2   1   0 3534.55  119.49
   2   1   0 3556.74  119.29
   2   1   0 3681.13  120.09
   2   1   0 3337.57  119.59
   2   1   0 3471.05  119.09
   2   1   0 3426.36  119.39
  -2   1   0 3492.05  119.39
   3  -1   0  276.37   10.50
   3  -1   0  269.47   10.40
   3  -1   0  279.57   11.30
  -3  -1   0  258.47    9.80
  -3  -1   0  252.87   10.40
   3  -1   0  270.47    9.70
  -3  -1   0  268.37   10.10
  -3   1   0  263.07   10.00
   3   1   0  282.37   11.30
  -3   1   0  280.47   10.50
   3   1   0  272.27    9.70
   3   1   0  284.07   10.20
   3   1   0  266.87   10.60
   3   1   0  272.37   10.30
  -3   1   0  267.87   10.30
   4  -1   0   21.80    3.70
   4  -1   0   25.60    1.70
   4  -1   0   24.80    3.00
  -4  -1   0   22.80    2.00
  -4  -1   0   31.10    3.30
  -4  -1   0   24.60    2.60
   4  -1   0   20.70    3.00
   4   1   0   26.60    2.90
  -4   1   0   25.20    2.80
   4   1   0   22.20    1.80
   4   1   0   27.50    3.80
  -4   1   0   26.00    2.30
   4   1   0   22.80    3.20
   4   1   0   24.90    2.90
  -4   1   0   27.60    3.30
   5  -1   0  568.54   23.00
   5  -1   0  577.84   21.80
   5  -1   0  615.34   21.70
  -5  -1   0  572.14   20.80
  -5  -1   0  574.84   21.80
  -5   1   0  569.94   21.80
   5   1   0  597.14   22.00
   5   1   0  570.64   23.00
   5   1   0  569.64   21.50
  -5   1   0  573.44   21.00
  -6  -1   0  210.98   10.10
   6  -1   0  223.28   10.30
   6  -1   0  197.98   11.30
   6  -1   0  221.18    9.90
  -6   1   0  219.48   10.20
   6   1   0  220.88   11.50
   6   1   0  201.58    9.60
   6   1   0  223.98   10.40
  -7  -1   0   89.59    7.00
   7  -1   0   88.99    6.60
   7  -1   0   93.29    6.90
   7  -1   0   90.29    8.30
   7   1   0   86.09    6.30
  -7   1   0   83.19    6.90
   7   1   0   82.79    6.90
   7   1   0   81.09    8.00
  -8  -1   0   12.80    4.00
   8  -1   0   13.70    4.10
   8  -1   0   14.60    5.10
   8  -1   0   23.70    4.00
   8   1   0   16.20    3.50
   8   1   0    7.40    3.90
  -8   1   0   16.80    4.20
   8   1   0   18.70    5.30
   0  -2   0   19.50    1.50
   0  -2   0   21.00    1.50
   0  -2   0   21.10    1.90
   0   2   0   20.70    1.60
   0   2   0   21.60    1.60
   0   2   0   23.40    1.50
   0   2   0   20.00    1.50
  -1  -2   0  624.24   22.20
   1  -2   0  625.74   22.10
   1  -2   0  626.24   22.20
   1   2   0  622.54   22.10
   1   2   0  681.83   22.60
   1   2   0  636.24   22.00
  -1   2   0  639.34   22.20
   1   2   0  585.64   22.00
   1   2   0  612.34   22.30
  -1   2   0  604.44   22.20
  -1   2   0  661.93   22.20
  -2  -2   0 2356.66   86.69
   2  -2   0 2576.74   87.29
   2  -2   0 2489.65   86.69
   2  -2   0 2438.66   86.69
   2  -2   0 2433.16   86.39
  -2  -2   0 2526.65   86.29
   2   2   0 2513.05   86.39
   2   2   0 2666.43   86.49
  -2   2   0 2468.65   86.69
  -2   2   0 2513.25   86.69
   2   2   0 2419.56   86.89
  -2   2   0 2421.16   86.59
   2   2   0 2437.16   86.49
   2   2   0 2786.62   87.39
   3  -2   0 1275.97   45.80
  -3  -2   0 1235.18   45.00
  -3  -2   0 1238.78   44.40
   3  -2   0 1261.07   45.00
   3  -2   0 1319.97   44.40
   3  -2   0 1281.17   45.00
  -3   2   0 1265.77   44.90
   3   2   0 1341.27   45.80
   3   2   0 1274.17   45.20
  -3   2   0 1250.57   44.70
  -3   2   0 1329.67   45.00
   3   2   0 1328.17   44.70
   3   2   0 1258.37   44.40
   3   2   0 1250.37   44.70
   4  -2   0 1037.10   37.00
  -4  -2   0  993.80   36.20
   4  -2   0 1037.10   37.10
  -4  -2   0 1037.70   37.10
   4  -2   0 1043.70   38.10
   4  -2   0 1033.90   36.20
  -4   2   0 1028.00   36.80
   4   2   0 1010.60   37.30
   4   2   0 1020.80   36.70
   4   2   0 1101.29   36.80
   4   2   0 1035.50   36.20
   4   2   0 1047.40   38.10
  -4   2   0 1032.70   36.60
  -4   2   0 1071.99   37.10
   5  -2   0    5.90    2.30
  -5  -2   0    6.40    2.40
   5  -2   0    5.00    2.70
   5  -2   0    7.00    2.30
  -5   2   0    7.20    1.80
  -5   2   0    6.60    2.30
   5   2   0    7.70    2.90
   5   2   0    6.00    2.40
   5   2   0    4.90    2.10
   6  -2   0   25.10    4.50
   6  -2   0   28.50    4.50
   6  -2   0   27.20    3.60
  -6  -2   0   23.10    3.70
  -6   2   0   32.90    4.70
   6   2   0   22.20    3.10
   6   2   0   29.60    4.80
   6   2   0   30.00    5.30
   7  -2   0    5.40    3.20
   7  -2   0    9.50    3.30
  -7  -2   0   13.10    3.60
   7  -2   0    7.60    4.10
  -7   2   0   18.40    3.80
   7   2   0   12.40    3.70
   7   2   0    8.00    2.80
   7   2   0   10.60    4.10
  -8  -2   0   46.40    6.50
   8  -2   0   47.70    8.00
   8  -2   0   37.70    4.80
   8  -2   0   49.70    6.30
   8   2   0   38.00    5.40
   8   2   0   53.19    6.70
   8   2   0   39.50    7.70
  -8   2   0   44.40    5.80
   0  -3   0   -0.50    0.70
   0  -3   0   -0.10    1.10
   0   3   0   -1.90    0.80
   0   3   0   -1.60    0.70
   0   3   0   -2.70    0.70
   0   3   0   -1.90    0.60
   1  -3   0 2949.30   96.99
  -1  -3   0 2678.23   96.19
   1  -3   0 2786.12   96.19
   1  -3   0 2715.23   96.29
   1   3   0 2649.63   96.19
   1   3   0 2704.73   96.39
  -1   3   0 2824.72   96.29
   1   3   0 2708.83   96.19
  -1   3   0 2747.43   96.19
   1   3   0 2914.71   96.79
  -1   3   0 2858.51   96.29
  -1   3   0 2898.41   96.19
   2  -3   0 3004.20  103.69
   2  -3   0 3034.30  103.99
  -2  -3   0 2860.51  103.59
   2  -3   0 2964.10  103.89
  -2  -3   0 2880.81  103.89
   2  -3   0 3342.57  104.89
   2   3   0 3183.28  104.69
  -2   3   0 2996.20  103.89
   2   3   0 3004.30  104.19
   2   3   0 2986.80  103.69
   2   3   0 2969.30  103.69
  -2   3   0 2928.11  103.89
  -2   3   0 2944.91  103.99
   2   3   0 2960.50  103.69
   3  -3   0 2341.37   79.49
  -3  -3   0 2231.28   79.49
   3  -3   0 2347.07   80.99
  -3  -3   0 2277.87   80.09
   3  -3   0 2255.77   80.09
   3  -3   0 2225.18   79.99
  -3   3   0 2364.46   80.09
   3   3   0 2364.06   80.99
  -3   3   0 2244.48   79.89
   3   3   0 2264.17   79.79
  -3   3   0 2304.67   79.99
   3   3   0 2255.87   80.29
   3   3   0 2403.96   79.79
   3   3   0 2317.47   79.59
   4  -3   0  462.15   18.10
  -4  -3   0  432.56   16.10
   4  -3   0  440.76   17.00
   4  -3   0  439.56   16.90
   4  -3   0  454.75   16.10
  -4  -3   0  448.36   17.00
  -4   3   0  465.85   17.00
  -4   3   0  442.76   16.80
   4   3   0  459.25   16.20
   4   3   0  435.66   17.30
   4   3   0  457.85   18.10
   4   3   0  451.65   16.60
  -4   3   0  454.65   16.60
   4   3   0  468.85   16.60
   5  -3   0   42.20    4.20
  -5  -3   0   45.70    4.40
   5  -3   0   43.60    5.10
   5  -3   0   45.00    4.30
  -5   3   0   42.30    3.50
   5   3   0   49.70    4.60
   5   3   0   45.90    5.10
   5   3   0   44.10    3.80
  -5   3   0   46.30    4.40
   6  -3   0   32.10    4.70
  -6  -3   0   30.80    4.90
   6  -3   0   31.00    5.60
   6  -3   0   32.00    4.50
  -6   3   0   39.00    4.10
   6   3   0   30.00    5.50
   6   3   0   28.30    4.10
   6   3   0   31.30    4.70
  -6   3   0   38.60    4.90
   7  -3   0   -1.70    3.30
   7  -3   0    2.10    2.90
   7  -3   0    2.70    3.00
  -7  -3   0    5.80    3.20
   7   3   0   -1.70    3.40
   7   3   0    4.00    3.30
  -7   3   0    1.70    3.10
   7   3   0    2.50    2.40
   8  -3   0   36.40    5.90
   8  -3   0   50.59    8.20
   8  -3   0   49.70    6.40
  -8  -3   0   48.00    6.60
   8   3   0   38.80    5.30
   8   3   0   52.19    6.80
  -8   3   0   46.70    6.90
   8   3   0   35.00    6.50
   0  -4   0 8834.52  314.97
   0  -4   0 9015.70  313.27
   0   4   0 9526.75  313.77
   0   4   0 8585.34  313.07
   0   4   0 8448.05  312.97
   0   4   0 9999.00  314.07
   1  -4   0 2469.45   81.59
   1  -4   0 2396.16   80.69
   1  -4   0 2235.58   80.89
   1   4   0 2208.58   80.89
  -1   4   0 2340.47   80.69
   1   4   0 2255.57   80.69
  -1   4   0 2345.17   80.89
  -1   4   0 2271.97   80.79
   1   4   0 2388.36   81.39
  -1   4   0 2374.16   80.89
   1   4   0 2399.86   80.89
   2  -4   0 3528.35  120.79
   2  -4   0 3494.95  120.59
   2  -4   0 3494.45  120.49
   2  -4   0 3522.75  121.99
  -2  -4   0 3376.76  120.69
   2   4   0 3557.44  120.59
   2   4   0 3343.87  120.99
  -2   4   0 3486.75  120.69
  -2   4   0 3417.16  120.69
  -2   4   0 3592.34  120.69
   2   4   0 3580.34  121.49
   3  -4   0  178.18    7.50
   3  -4   0  177.08    7.20
  -3  -4   0  166.58    7.30
  -3  -4   0  165.38    6.50
   3  -4   0  187.18    8.50
   3  -4   0  181.38    6.70
   3   4   0  180.78    6.90
   3   4   0  181.88    6.90
   3   4   0  184.38    8.40
  -3   4   0  188.48    7.40
  -3   4   0  176.68    7.40
   3   4   0  173.58    6.90
  -3   4   0  176.08    7.20
   3   4   0  171.18    7.70
  -4  -4   0    2.30    1.00
   4  -4   0    4.90    2.30
  -4  -4   0    5.40    1.90
   4  -4   0    6.40    1.10
   4  -4   0    4.90    1.80
   4  -4   0    2.80    1.80
   4   4   0    9.20    1.60
  -4   4   0    4.60    1.70
   4   4   0    4.20    1.20
   4   4   0    3.10    1.90
  -4   4   0    4.60    1.90
   4   4   0   10.20    2.60
  -4   4   0    5.10    1.60
   4   4   0    5.90    1.50
   5  -4   0  162.78    7.80
  -5  -4   0  162.58    7.80
   5  -4   0  165.98    7.70
   5  -4   0  158.08    9.10
  -5   4   0  153.08    7.80
   5   4   0  161.68    7.00
   5   4   0  151.08    8.90
  -5   4   0  159.58    7.20
   5   4   0  161.38    8.20
   6  -4   0   31.70    5.70
  -6  -4   0   26.60    3.70
   6  -4   0   20.10    3.40
   6  -4   0   26.70    4.20
  -6   4   0   22.70    3.60
   6   4   0   22.20    4.40
  -6   4   0   20.40    3.60
   6   4   0   22.70    3.60
   6   4   0   28.10    4.00
   7  -4   0  240.58   11.40
   7  -4   0  235.98   13.40
  -7  -4   0  229.38   11.40
   7  -4   0  235.78   11.40
   7   4   0  226.88   13.10
  -7   4   0  251.57   11.70
   7   4   0  222.18   10.40
   7   4   0  246.58   12.00
   8  -4   0   11.70    4.90
   8  -4   0   11.00    3.60
  -8  -4   0   11.60    4.10
   8   4   0   11.30    4.30
   8   4   0    8.90    3.00
   8   4   0    8.60    4.80
  -8   4   0   13.70    4.30
   0  -5   0   -3.90    1.50
   0  -5   0   -2.70    0.90
   0   5   0   -2.10    1.10
   0   5   0   -2.30    0.90
   0   5   0   -1.50    0.80
   0   5   0   -1.50    1.00
  -1  -5   0 7375.16  277.47
   1  -5   0 8434.46  279.67
   1  -5   0 7520.25  276.77
   1  -5   0 8151.28  276.97
  -1   5   0 8315.07  277.27
  -1   5   0 8265.47  277.27
   1   5   0 8023.70  277.67
  -1   5   0 8348.86  277.27
   1   5   0 7950.50  276.77
  -1   5   0 8051.99  277.07
   1   5   0 7577.64  277.37
   1   5   0 8256.17  279.47
  -2  -5   0 1150.98   42.50
   2  -5   0 1236.38   42.70
   2  -5   0 1218.08   42.40
   2   5   0 1201.88   42.90
  -2   5   0 1220.18   42.60
  -2   5   0 1247.48   42.50
  -2   5   0 1183.68   42.60
   2   5   0 1243.18   43.40
   2   5   0 1249.47   42.50
   2   5   0 1208.08   42.20
   3  -5   0    0.50    0.90
   3  -5   0    4.20    1.40
   3  -5   0    0.10    1.40
  -3  -5   0    2.20    0.80
  -3  -5   0    1.10    1.40
   3  -5   0    5.20    2.40
  -3   5   0    2.80    1.50
   3   5   0    5.00    1.20
  -3   5   0    4.00    1.50
   3   5   0    1.40    1.80
   3   5   0    1.00    1.60
   3   5   0    2.20    1.10
  -3   5   0    0.50    1.50
   3   5   0    1.10    1.10
   4  -5   0    3.60    1.00
   4  -5   0    1.90    1.90
   4  -5   0    0.30    2.10
   4  -5   0    1.40    1.70
  -4  -5   0    0.90    0.90
  -4  -5   0    5.50    1.90
  -4   5   0    4.00    1.70
   4   5   0    2.30    1.20
  -4   5   0    1.70    1.80
   4   5   0    2.80    1.40
   4   5   0    2.40    2.10
  -4   5   0    2.50    1.90
   4   5   0    4.60    2.10
   4   5   0    2.20    1.30
   5  -5   0  164.88    7.70
   5  -5   0  148.79    8.80
  -5  -5   0  149.29    7.70
   5  -5   0  147.89    7.20
  -5   5   0  162.48    7.20
   5   5   0  155.68    8.90
   5   5   0  151.48    8.00
   5   5   0  142.99    6.70
  -5   5   0  147.49    7.60
   6  -5   0   23.40    4.50
  -6  -5   0   21.90    3.60
   6  -5   0   31.40    3.90
   6  -5   0   29.80    4.20
  -6   5   0   26.40    3.70
   6   5   0   29.70    3.60
  -6   5   0   30.80    4.90
   6   5   0   20.30    3.80
   6   5   0   28.70    5.70
   7  -5   0  121.69    9.70
  -7  -5   0  127.09    8.10
   7  -5   0  135.09    8.10
   7  -5   0  133.59    8.10
   7   5   0  125.69    9.80
   7   5   0  111.49    6.70
   7   5   0  126.19    8.50
  -7   5   0  122.69    8.20
   8  -5   0   63.49    7.00
  -8  -5   0   69.99    7.30
   8  -5   0   65.99    9.00
   8   5   0   69.29    8.80
  -8   5   0   54.59    7.40
   8   5   0   60.99    5.50
   0  -6   0 1668.93   60.59
   0  -6   0 1732.93   59.79
   0   6   0 1689.13   59.69
   0   6   0 1745.03   59.89
   0   6   0 1763.22   59.89
   0   6   0 1738.03   59.69
   1  -6   0   92.79    4.20
   1  -6   0   96.89    5.20
   1  -6   0   88.29    3.80
  -1  -6   0   88.19    4.20
   1   6   0   94.29    5.20
  -1   6   0   95.59    4.20
  -1   6   0   91.09    4.10
   1   6   0   86.29    4.00
  -1   6   0   90.29    4.20
  -1   6   0   97.89    4.30
   1   6   0   92.49    3.80
  -1   6   0   97.09    3.90
   1   6   0   98.49    4.30
   2  -6   0 1191.38   42.10
   2  -6   0 1232.58   42.50
  -2  -6   0 1149.98   42.20
   2  -6   0 1107.09   44.00
   2   6   0 1243.28   42.30
   2   6   0 1190.68   42.60
   2   6   0 1228.38   43.30
  -2   6   0 1249.88   42.20
   2   6   0 1198.98   41.90
  -2   6   0 1220.08   42.20
  -2   6   0 1189.48   42.40
  -2   6   0 1257.67   42.40
   3  -6   0  142.89    5.60
   3  -6   0  144.49    7.80
  -3  -6   0  123.79    5.20
   3  -6   0  134.09    5.80
  -3  -6   0  133.39    6.00
   3  -6   0  140.19    6.30
   3   6   0  141.49    5.80
  -3   6   0  135.89    6.10
  -3   6   0  133.79    6.10
   3   6   0  142.89    6.50
   3   6   0  137.99    7.20
  -3   6   0  140.89    6.00
   4  -6   0   39.50    4.70
  -4  -6   0   28.70    2.10
  -4  -6   0   37.00    3.60
   4  -6   0   32.60    3.80
   4  -6   0   38.00    2.40
   4  -6   0   36.30    3.10
  -4   6   0   38.20    3.60
   4   6   0   34.60    4.40
   4   6   0   35.00    2.70
   4   6   0   32.30    3.90
  -4   6   0   33.50    3.30
   4   6   0   44.20    2.80
  -4   6   0   35.40    3.70
   4   6   0   36.80    2.80
   5  -6   0   53.69    4.10
   5  -6   0   62.09    6.00
   5  -6   0   58.19    4.90
  -5  -6   0   53.79    4.80
   5   6   0   53.29    3.70
   5   6   0   51.59    5.00
  -5   6   0   53.19    4.30
  -5   6   0   51.19    4.80
   5   6   0   62.09    6.00
  -6  -6   0   23.20    3.80
   6  -6   0   28.60    6.00
   6  -6   0   20.30    3.20
   6  -6   0   21.20    3.50
   6   6   0   23.90    4.50
  -6   6   0   22.50    3.70
   6   6   0   23.10    3.90
   6   6   0   20.20    2.60
  -6   6   0   21.70    3.10
  -7  -6   0   20.20    3.90
   7  -6   0   18.80    4.90
   7  -6   0   18.70    3.80
   7   6   0   22.10    3.00
   7   6   0   12.60    4.40
   7   6   0   18.20    4.30
  -7   6   0   20.00    4.20
  -8  -6   0   49.40    6.70
   8  -6   0   55.89    8.50
   8   6   0   58.89    5.40
   8   6   0   64.89    8.80
  -8   6   0   63.39    7.50
   0  -7   0    1.30    1.80
   0  -7   0    1.40    1.10
   0   7   0   -1.50    1.20
   0   7   0    1.10    0.90
   0   7   0    2.70    1.00
   0   7   0   -0.10    1.10
   1  -7   0  161.18    7.40
   1  -7   0  147.99    6.20
  -1  -7   0  140.49    6.30
   1  -7   0  149.09    5.90
   1   7   0  144.19    6.00
   1   7   0  152.28    5.80
  -1   7   0  151.38    5.80
   1   7   0  155.58    6.30
  -1   7   0  153.68    6.20
   1   7   0  166.18    7.40
  -1   7   0  150.58    6.20
  -1   7   0  155.28    6.40
  -1   7   0  149.19    6.20
  -2  -7   0 1290.37   48.20
   2  -7   0 1414.96   49.70
  -2  -7   0 1342.97   47.70
   2  -7   0 1349.56   48.00
   2  -7   0 1388.26   47.60
   2   7   0 1395.46   47.90
  -2   7   0 1379.26   48.00
  -2   7   0 1421.06   47.70
   2   7   0 1302.97   47.50
  -2   7   0 1360.66   47.80
   2   7   0 1363.46   48.90
  -2   7   0 1383.26   47.90
   3  -7   0   25.80    3.20
  -3  -7   0   24.70    2.70
   3  -7   0   16.00    3.50
   3  -7   0   18.80    2.20
   3  -7   0   17.50    2.10
   3   7   0   24.20    3.10
  -3   7   0   22.90    2.80
   3   7   0   21.30    2.30
  -3   7   0   24.10    2.60
  -3   7   0   20.70    2.80
   3   7   0   24.90    3.80
  -4  -7   0    5.90    2.10
   4  -7   0    9.80    2.40
   4  -7   0    7.20    2.90
   4  -7   0    7.10    1.40
   4  -7   0    8.00    1.80
   4   7   0    7.50    2.30
  -4   7   0    6.00    2.00
   4   7   0    9.50    1.70
  -4   7   0    8.50    2.10
  -4   7   0    5.70    2.00
   4   7   0    5.10    2.60
   5  -7   0  590.74   22.60
  -5  -7   0  612.14   22.40
   5  -7   0  595.14   24.20
   5  -7   0  587.54   22.00
   5   7   0  575.24   24.00
   5   7   0  588.54   23.00
   5   7   0  571.84   21.50
  -5   7   0  602.34   22.20
  -5   7   0  613.44   22.40
   6  -7   0  104.09    8.40
  -6  -7   0  100.29    6.90
   6  -7   0  105.29    7.10
  -6   7   0   93.39    6.00
   6   7   0  103.49    8.30
   6   7   0  105.29    7.30
  -6   7   0   97.49    6.70
   6   7   0   91.49    5.40
   7  -7   0   36.60    7.40
  -7  -7   0   45.10    6.00
   7   7   0   39.10    4.40
  -7   7   0   40.30    6.10
   7   7   0   43.20    7.50
  -8  -7   0   -1.80    4.70
   8  -7   0    0.90    4.40
  -8  -7   0   -2.10    3.40
   8   7   0    1.10    2.50
  -8   7   0    2.70    3.70
   8   7   0    3.90    4.60
   0  -8   0   62.49    4.60
   0  -8   0   68.49    3.30
   0   8   0   67.49    3.10
   0   8   0   66.49    3.60
   0   8   0   66.49    3.50
   0   8   0   61.79    3.10
   1  -8   0   -0.50    1.20
  -1  -8   0    1.20    1.20
   1  -8   0    1.20    0.90
  -1   8   0    2.60    1.00
  -1   8   0    2.50    1.10
  -1   8   0    4.00    1.40
   1   8   0    0.20    0.90
   1   8   0    1.00    1.00
  -1   8   0   -0.10    1.10
   1   8   0    0.70    1.30
   1   8   0    0.00    2.00
  -1   8   0   -0.10    1.20
   2  -8   0 1218.78   41.20
  -2  -8   0 1078.89   39.00
   2  -8   0 1104.99   39.40
   2  -8   0 1113.49   38.90
  -2  -8   0 1035.00   39.50
  -2   8   0 1127.99   39.00
   2   8   0 1109.89   39.30
  -2   8   0 1122.49   39.40
  -2   8   0 1099.39   39.20
   2   8   0 1130.49   40.50
  -2   8   0 1103.69   39.20
   2   8   0 1108.29   38.90
   3  -8   0   66.39    3.50
   3  -8   0   61.99    4.20
   3  -8   0   63.79    3.40
   3  -8   0   56.49    6.30
  -3  -8   0   62.09    3.80
   3   8   0   63.09    3.70
   3   8   0   62.29    5.30
  -3   8   0   61.39    3.70
  -3   8   0   59.09    4.00
   3   8   0   58.79    3.00
  -3   8   0   64.79    4.10
  -4  -8   0    6.10    2.10
   4  -8   0    9.30    1.60
   4  -8   0   11.70    2.60
   4  -8   0    7.00    1.80
  -4   8   0   13.40    2.40
  -4   8   0    6.10    2.00
   4   8   0    8.60    2.60
   4   8   0    7.10    2.70
  -4   8   0    9.60    2.30
   4   8   0    8.30    1.80
  -5  -8   0    6.60    2.60
   5  -8   0    6.20    2.70
   5  -8   0    3.60    2.10
   5  -8   0    7.90    3.60
  -5   8   0    5.90    2.50
   5   8   0    4.10    3.20
  -5   8   0    9.00    2.50
   5   8   0    1.90    2.80
  -6  -8   0   11.50    3.20
   6  -8   0   21.10    4.60
   6   8   0   11.40    2.20
  -6   8   0   10.20    3.10
   6   8   0   11.10    4.10
  -6   8   0   14.40    3.00
   7  -8   0   -0.30    3.90
  -7  -8   0   -2.90    3.00
   7   8   0   -0.60    2.10
   7   8   0   -2.80    3.70
  -7   8   0    1.90    3.20
  -8  -8   0   92.09    9.50
  -8  -8   0   89.19    7.60
   8  -8   0   75.59   10.00
   8   8   0   73.39    9.40
   8   8   0   70.19    5.70
  -8   8   0   73.19    7.70
   0  -9   0   -0.30    1.00
   0  -9   0    1.80    1.90
   0   9   0   -2.40    1.10
   0   9   0    1.60    1.00
   0   9   0    1.30    1.40
   0   9   0    1.00    1.00
   1  -9   0   63.49    3.10
   1  -9   0   66.79    3.50
   1  -9   0   65.19    4.90
  -1  -9   0   59.09    3.60
  -1   9   0   58.59    3.60
   1   9   0   62.89    2.90
  -1   9   0   65.19    3.70
  -1   9   0   67.39    3.00
  -1   9   0   55.79    3.30
   1   9   0   63.19    3.30
   1   9   0   60.19    4.90
   1   9   0   67.89    3.70
  -1   9   0   63.19    3.40
  -2  -9   0  122.79    6.10
   2  -9   0  124.39    6.00
   2  -9   0  129.69    5.30
  -2  -9   0  125.29    5.40
   2  -9   0  149.29    7.80
  -2   9   0  126.59    5.80
   2   9   0  128.79    5.80
   2   9   0  123.29    5.40
  -2   9   0  140.59    6.00
  -2   9   0  128.29    5.40
   2   9   0  133.79    7.30
  -2   9   0  132.29    5.80
   3  -9   0  623.94   21.90
  -3  -9   0  567.44   21.40
  -3  -9   0  600.24   22.30
   3  -9   0  501.95   24.10
   3  -9   0  595.74   21.20
   3  -9   0  602.94   21.40
   3   9   0  581.94   21.00
   3   9   0  585.24   23.10
  -3   9   0  613.14   21.80
  -3   9   0  604.34   21.40
  -3   9   0  580.04   21.60
   3   9   0  606.84   21.50
  -4  -9   0   12.70    2.40
   4  -9   0   14.90    1.90
   4  -9   0   11.70    3.80
   4  -9   0   13.90    2.10
  -4   9   0   10.40    2.60
  -4   9   0   12.70    2.50
   4   9   0   15.80    3.50
  -4   9   0   14.50    2.30
   4   9   0   16.40    2.20
  -5  -9   0   69.49    5.50
   5  -9   0   81.29    7.50
  -5   9   0   82.49    5.40
   5   9   0   71.59    7.00
  -5   9   0   75.89    5.50
  -6  -9   0    1.80    2.90
   6  -9   0    3.60    3.70
  -6   9   0   -0.40    2.70
   6   9   0    6.00    3.60
  -6   9   0    3.20    2.80
  -7  -9   0   60.59    6.40
   7  -9   0   52.49    8.20
  -7  -9   0   63.69    8.40
   7   9   0   49.99    7.90
  -7   9   0   55.49    6.50
  -8  -9   0   57.79    7.00
   8   9   0   51.19    9.70
  -8   9   0   49.20    7.00
   0 -10   0 3068.79  101.59
   0 -10   0 2952.90  102.99
   0  10   0 2879.21  101.29
   0  10   0 2862.71  101.69
   0  10   0 2919.01  101.69
   0  10   0 2868.31  101.29
   1 -10   0    2.90    2.20
  -1 -10   0    3.00    1.40
   1 -10   0    1.60    1.00
  -1  10   0    1.80    1.00
   1  10   0    1.30    1.20
   1  10   0    2.70    1.50
  -1  10   0    3.60    1.50
  -1  10   0    1.70    1.20
   1  10   0    3.40    1.00
  -1  10   0    2.00    1.20
  -1  10   0    2.30    1.40
   2 -10   0   11.60    2.10
   2 -10   0    9.00    1.40
  -2 -10   0   10.00    1.50
  -2 -10   0    7.60    2.00
   2 -10   0   11.70    3.00
  -2  10   0   11.60    1.60
  -2  10   0   12.20    1.90
  -2  10   0    6.10    1.80
   2  10   0    7.90    1.50
   2  10   0   11.10    2.90
   2  10   0    9.90    1.90
  -2  10   0   11.40    1.90
   3 -10   0  304.17   11.60
   3 -10   0  265.67   14.90
  -3 -10   0  297.97   12.70
  -3 -10   0  301.57   11.80
   3  10   0  315.17   11.50
  -3  10   0  313.17   12.20
  -3  10   0  326.57   11.90
   3  10   0  322.87   12.10
   3  10   0  302.07   13.70
  -3  10   0  318.07   12.30
  -4 -10   0   19.10    3.50
  -4 -10   0   19.70    2.70
   4 -10   0   26.80    2.90
   4 -10   0   41.80    7.00
  -4  10   0   25.30    3.90
  -4  10   0   27.90    3.40
   4  10   0   20.60    4.00
   4  10   0   24.90    3.10
  -4  10   0   20.30    3.00
  -5 -10   0   19.40    3.20
  -5 -10   0   21.30    4.30
   5 -10   0   17.90    4.60
   5  10   0   27.80    5.60
  -5  10   0   25.50    3.30
   5  10   0   19.80    3.90
  -5  10   0   18.70    3.10
   6 -10   0    8.80    4.30
  -6 -10   0   13.30    4.30
  -6 -10   0   14.10    3.30
  -6  10   0   20.90    3.40
   6  10   0   12.20    4.20
  -6  10   0   14.00    3.30
  -7 -10   0    5.10    4.70
   7 -10   0   -2.20    4.20
  -7 -10   0   -0.10    3.30
  -7  10   0   -2.80    2.90
   7  10   0    1.20    4.00
  -7  10   0   -1.00    3.30
  -8 -10   0    9.10    4.10
  -8  10   0   16.90    4.30
   0 -11   0    0.30    1.20
   0 -11   0    3.50    2.30
   0  11   0    3.40    1.50
   0  11   0   -0.10    1.40
   0  11   0    0.50    1.10
  -1 -11   0   10.90    2.90
   1 -11   0    5.20    2.50
   1 -11   0    7.70    1.40
  -1 -11   0    7.50    1.70
   1  11   0    7.50    1.80
  -1  11   0    6.70    1.70
  -1  11   0    7.90    1.50
   1  11   0    8.00    1.60
  -1  11   0    5.90    1.70
  -2 -11   0 1386.66   50.59
   2 -11   0 1428.56   50.49
  -2 -11   0 1422.26   51.39
   2 -11   0 1632.24   53.29
  -2  11   0 1449.76   50.59
   2  11   0 1429.56   52.59
  -2  11   0 1444.56   51.09
  -2  11   0 1412.76   50.99
   2  11   0 1415.76   51.09
   2  11   0 1461.55   50.79
  -2  11   0 1449.35   51.19
   3 -11   0   54.29    7.80
  -3 -11   0   52.09    3.60
  -3 -11   0   63.69    5.00
  -3  11   0   56.59    4.30
  -3  11   0   57.69    3.70
  -3  11   0   61.19    4.50
   3  11   0   54.49    3.30
   3  11   0   56.99    5.80
   3  11   0   50.49    4.00
   4 -11   0   18.50    2.90
   4 -11   0   20.30    5.30
  -4 -11   0   21.90    3.50
  -4 -11   0   32.30    4.90
  -4  11   0   27.90    4.10
   4  11   0   23.20    3.30
  -4  11   0   26.50    4.00
   4  11   0   25.10    5.20
  -4  11   0   22.70    3.40
  -5 -11   0   22.40    3.20
   5 -11   0   25.10    5.30
  -5 -11   0   22.80    4.30
  -5  11   0   23.20    3.40
   5  11   0   24.00    4.60
   5  11   0   22.10    3.40
  -5  11   0   17.90    3.00
   6 -11   0   28.30    5.60
  -6 -11   0   35.30    4.30
  -6 -11   0   35.60    5.30
  -6  11   0   45.10    5.20
   6  11   0   27.70    5.40
  -6  11   0   29.40    4.10
   7 -11   0   26.00    6.20
  -7 -11   0   29.50    4.50
  -7 -11   0   43.10    6.20
   7  11   0   22.30    5.50
  -7  11   0   28.20    4.60
  -7  11   0   26.00    4.20
   0 -12   0   59.59    3.50
   0 -12   0   55.49    5.30
   0  12   0   64.39    4.10
   0  12   0   63.19    3.90
   0  12   0   55.29    3.20
   1 -12   0    4.00    1.30
   1 -12   0    1.20    2.40
  -1 -12   0    2.80    1.60
  -1 -12   0    2.80    2.50
  -1  12   0    2.00    1.60
   1  12   0   -1.30    1.60
  -1  12   0    2.60    1.40
   1  12   0    1.90    1.40
  -1  12   0    1.90    1.60
   2 -12   0   10.30    3.20
  -2 -12   0   11.90    2.40
  -2 -12   0   16.40    2.20
   2  12   0    6.80    3.00
  -2  12   0   13.50    2.30
   2  12   0   12.90    1.80
  -2  12   0   14.10    2.20
   2  12   0   10.60    2.20
  -2  12   0   13.30    2.20
  -2  12   0   11.00    1.70
  -3 -12   0   75.49    5.70
  -3 -12   0   74.89    4.30
   3 -12   0   68.99    9.50
  -3  12   0   87.09    5.10
   3  12   0   82.09    6.80
   3  12   0   77.99    4.10
  -3  12   0   87.29    5.30
   3  12   0   72.39    4.80
  -3  12   0   83.29    4.50
  -4 -12   0  454.55   18.40
  -4 -12   0  456.55   17.10
   4 -12   0  440.46   16.90
   4 -12   0  424.86   21.00
  -4  12   0  437.36   17.40
   4  12   0  444.46   19.40
   4  12   0  451.65   17.10
  -4  12   0  443.56   17.00
  -4  12   0  451.15   17.60
  -5 -12   0    0.10    3.40
  -5 -12   0    1.30    2.50
   5 -12   0    2.40    4.40
   5  12   0    4.50    3.50
   5  12   0    0.10    2.50
  -5  12   0   -0.80    2.80
  -5  12   0    2.10    2.40
  -6 -12   0   50.39    5.80
   6 -12   0   41.70    8.10
  -6 -12   0   44.40    7.30
  -6  12   0   60.39    5.90
   6  12   0   49.20    7.30
  -6  12   0   46.30    5.60
  -7 -12   0    0.40    3.60
  -7 -12   0   -7.60    4.20
   7 -12   0    1.20    4.60
   7  12   0    6.10    4.30
  -7  12   0    0.00    4.00
  -7  12   0    0.60    3.20
   0 -13   0   -0.50    2.40
   0 -13   0   -2.40    1.20
   0  13   0    0.90    1.70
   0  13   0   -1.30    1.40
   0  13   0    0.10    1.10
  -1 -13   0  212.98    8.80
  -1 -13   0  210.98   10.90
   1 -13   0  222.48   10.90
   1 -13   0  197.68    8.30
   1  13   0  197.18    8.70
  -1  13   0  207.28    8.40
  -1  13   0  219.88    9.00
   1  13   0  213.38    9.10
  -1  13   0  205.58    8.90
  -2 -13   0  240.78   10.50
   2 -13   0  271.87   12.50
  -2  13   0  255.37   10.30
  -2  13   0  242.68   10.00
  -2  13   0  239.88   10.30
   2  13   0  238.58    9.80
   2  13   0  234.08   12.00
   2  13   0  234.18   10.20
   3 -13   0  259.37   14.90
  -3 -13   0  288.87   12.20
   3  13   0  294.57   13.70
  -3  13   0  280.17   11.50
   3  13   0  262.27   11.40
  -3  13   0  272.07   11.60
   4 -13   0   20.80    3.10
  -4 -13   0   18.90    3.90
   4 -13   0   13.30    5.90
  -4  13   0   16.70    3.00
   4  13   0   15.30    2.70
   4  13   0   17.00    4.10
  -4  13   0   12.20    3.00
  -5 -13   0    1.70    3.50
   5 -13   0    7.70    5.20
   5  13   0    1.50    3.40
  -5  13   0   -0.70    2.70
   5  13   0   -0.50    2.40
  -5  13   0    4.60    3.70
   6 -13   0   71.99    9.50
  -6 -13   0   65.29    8.00
   6  13   0   73.69    8.30
  -6  13   0   71.89    6.60
   7 -13   0   11.70    5.60
  -7 -13   0    6.50    5.00
  -7  13   0    6.00    3.60
   7  13   0   10.80    4.70
   0 -14   0  446.36   16.20
   0 -14   0  457.95   18.60
   0  14   0  398.06   15.70
   0  14   0  417.56   16.30
   0  14   0  427.16   16.60
  -1 -14   0    7.70    2.00
   1 -14   0   12.70    3.50
  -1 -14   0   12.80    3.60
  -1  14   0   10.60    1.90
   1  14   0   14.30    2.40
  -1  14   0   13.30    2.40
  -1  14   0   13.10    2.30
   1  14   0   11.90    2.10
   2 -14   0  310.27   14.00
  -2 -14   0  286.47   11.80
  -2  14   0  282.77   11.60
  -2  14   0  270.07   11.50
   2  14   0  268.17   11.10
  -2  14   0  262.77   11.20
   2  14   0  281.27   11.70
   3 -14   0   16.80    5.50
  -3 -14   0   25.50    3.60
   3  14   0   23.90    4.50
   3  14   0   27.60    3.90
  -3  14   0   28.30    4.00
  -3  14   0   31.50    4.00
  -4 -14   0  109.89    7.60
   4 -14   0   83.59   11.00
   4 -14   0  106.79    5.80
  -4  14   0  116.59    6.70
   4  14   0  106.09    6.20
  -4  14   0  110.19    6.70
   4  14   0  103.29    8.50
   5 -14   0   27.10    6.20
  -5 -14   0   23.90    4.60
   5  14   0   17.80    4.60
   5  14   0   20.90    4.90
  -5  14   0   17.90    3.60
  -5  14   0   18.50    3.60
  -6 -14   0   32.20    5.60
   6 -14   0   59.09    9.40
   6  14   0   39.10    7.30
  -6  14   0   49.30    6.10
   7  14   0    1.30    7.10
  -7  14   0   -2.50    3.40
   0 -15   0    5.30    3.10
   0 -15   0   -2.40    1.80
   0  15   0    0.90    2.00
   0  15   0    4.60    1.80
   0  15   0    0.40    1.20
  -1 -15   0   93.09    7.60
  -1 -15   0   90.39    5.30
   1 -15   0  105.59    7.90
  -1  15   0  102.39    5.60
   1  15   0   94.49    5.70
  -1  15   0   94.39    5.00
   1  15   0   88.99    5.30
  -1  15   0   99.89    5.80
   2 -15   0    4.70    3.70
  -2 -15   0    6.50    3.70
  -2 -15   0    4.20    2.10
  -2  15   0    6.50    2.40
  -2  15   0    4.10    2.20
   2  15   0    7.60    2.30
  -2  15   0    7.10    2.10
   2  15   0    3.60    1.80
   3 -15   0    0.60    4.50
  -3 -15   0   -0.60    2.30
  -3  15   0   -2.00    2.10
  -3  15   0    1.40    2.20
   3  15   0   -2.90    3.10
   3  15   0    2.30    2.30
   4 -15   0    9.50    2.30
   4 -15   0    6.00    6.60
  -4 -15   0    7.70    3.40
  -4  15   0    4.30    2.80
   4  15   0   10.70    2.70
  -4  15   0    9.70    3.00
   4  15   0   13.30    4.20
   5 -15   0    6.10    5.60
  -5 -15   0    4.90    3.80
   5  15   0   14.80    4.60
  -5  15   0    3.50    3.10
  -5  15   0    4.10    3.00
   6 -15   0   14.30    6.00
  -6 -15   0   17.60    4.90
   6  15   0    4.60    4.30
  -6  15   0    4.60    3.40
   0 -16   0  126.79    8.90
   0  16   0  115.79    5.50
   0  16   0  118.59    6.30
   0  16   0  124.09    6.80
  -1 -16   0  102.39    8.30
   1 -16   0   98.59    8.30
  -1 -16   0   96.39    5.70
   1  16   0  104.99    6.20
  -1  16   0   96.69    5.20
  -1  16   0   95.09    6.10
  -1  16   0   98.69    6.00
   1  16   0  107.89    5.80
   2 -16   0    7.60    3.90
  -2 -16   0    3.90    3.70
  -2 -16   0   -1.50    1.90
  -2  16   0    4.80    2.30
   2  16   0    3.50    1.90
  -2  16   0    7.20    2.40
  -2  16   0    0.50    1.90
   2  16   0    1.50    2.30
   3 -16   0    1.80    4.60
  -3 -16   0    4.60    2.60
  -3  16   0    9.30    2.80
  -3  16   0    7.40    2.60
   3  16   0    8.60    2.60
  -4 -16   0    7.00    3.40
   4 -16   0    3.70    2.10
   4 -16   0    7.40    6.40
   4  16   0    7.90    4.00
  -4  16   0   -2.20    2.60
  -4  16   0    9.80    3.10
   4  16   0   -3.00    2.20
  -5 -16   0   14.20    4.30
   5 -16   0   33.60    7.90
  -5  16   0   17.90    3.60
  -5  16   0   18.80    3.80
   5  16   0   14.80    4.60
  -6 -16   0   -3.20    4.10
   6 -16   0    5.20    5.70
  -6  16   0    2.40    3.50
   6  16   0    4.70    4.50
   0 -17   0   -1.30    3.30
   0  17   0   -0.10    1.50
   0  17   0   -2.40    1.70
   0  17   0    0.20    2.10
  -1 -17   0   57.09    7.30
   1 -17   0   49.40    6.90
   1  17   0   54.89    5.00
  -1  17   0   45.10    4.40
  -1  17   0   50.79    4.90
   1  17   0   46.60    4.20
  -1  17   0   45.00    3.80
  -2 -17   0   41.20    7.00
   2 -17   0   42.70    6.70
  -2 -17   0   22.00    3.40
   2  17   0   40.40    4.60
  -2  17   0   38.60    3.90
  -2  17   0   31.50    3.80
   2  17   0   27.20    3.80
  -2  17   0   28.60    4.30
  -3 -17   0   27.70    4.10
  -3 -17   0   20.70    5.20
   3 -17   0   33.80    7.40
  -3  17   0   35.60    4.80
   3  17   0   30.60    3.90
  -3  17   0   35.60    4.60
  -4 -17   0   51.49    6.40
   4 -17   0   64.59   12.50
   4 -17   0   54.69    4.80
  -4  17   0   62.29    5.80
  -4  17   0   70.39    6.10
   4  17   0   66.69    5.60
   4  17   0   58.69    7.70
   5 -17   0    7.30    6.80
  -5 -17   0    2.50    3.90
   5  17   0    1.20    3.70
  -5  17   0    3.40    3.20
  -5  17   0    2.20    3.20
  -6 -17   0    5.20    4.30
  -6  17   0    6.90    4.10
   0 -18   0   65.49    8.00
   0  18   0   54.19    3.70
   0  18   0   60.39    5.20
   0  18   0   54.69    4.70
   1 -18   0    6.10    3.90
  -1 -18   0    2.60    3.90
  -1  18   0    1.20    1.80
  -1  18   0    5.40    2.30
  -1  18   0    1.60    2.40
   1  18   0    4.70    2.10
   1  18   0    4.40    2.60
   2 -18   0    7.30    4.40
  -2 -18   0    8.00    4.30
  -2  18   0    3.80    2.20
  -2  18   0    1.30    2.40
  -2  18   0    0.50    2.40
   2  18   0    3.60    2.60
   3 -18   0   -1.40    4.90
  -3 -18   0   -2.40    2.60
  -3 -18   0   -5.80    3.80
  -3  18   0    0.70    2.60
  -3  18   0    2.90    2.50
   3  18   0    3.70    2.70
   4 -18   0   48.80   10.50
   4 -18   0   70.09    5.30
  -4 -18   0   59.79    6.90
   4  18   0   61.89    5.70
  -4  18   0   69.69    6.20
  -4  18   0   63.69    5.90
  -5 -18   0   23.00    5.00
   5 -18   0   41.90    9.00
   5  18   0   28.10    6.20
  -5  18   0   23.40    4.00
  -5  18   0   39.70    6.00
   0 -19   0    1.20    3.80
   0  19   0   -3.20    2.30
   0  19   0    2.00    2.20
   0  19   0   -0.90    1.50
  -1 -19   0    8.20    4.40
   1 -19   0    5.30    3.90
   1  19   0    3.10    2.60
  -1  19   0    6.30    2.80
  -1  19   0    6.20    2.50
   1  19   0    3.20    2.20
  -1  19   0    4.60    2.00
   2 -19   0   22.10    5.40
  -2 -19   0   11.30    4.80
   2  19   0   10.60    3.20
  -2  19   0   17.80    2.90
  -2  19   0   17.80    3.30
  -2  19   0   17.30    3.40
   3 -19   0   23.10    7.40
  -3 -19   0   31.80    6.20
   3  19   0   28.50    4.00
  -3  19   0   38.40    5.10
  -3  19   0   29.10    3.70
  -4 -19   0    1.70    4.70
   4 -19   0   -5.00    7.70
   4 -19   0   -1.30    2.30
  -4  19   0   -2.10    2.70
   4  19   0   -0.20    2.70
  -4  19   0   -0.20    2.90
  -5 -19   0   -4.60    3.60
   5  19   0   -3.20    4.20
  -5  19   0    4.70    3.10
   0 -20   0   15.80    5.00
   0  20   0   14.40    3.10
   0  20   0   17.30    3.30
   0  20   0   16.10    2.20
  -1 -20   0   73.39    9.00
   1 -20   0   67.79    8.60
   1  20   0   69.89    5.60
   1  20   0   68.59    6.10
  -1  20   0   69.19    6.10
  -1  20   0   83.09    5.80
  -1  20   0   67.39    4.60
  -2 -20   0   14.30    5.10
   2 -20   0   23.70    6.10
  -2  20   0   16.40    3.40
   2  20   0   21.30    3.80
  -2  20   0   19.90    2.90
  -2  20   0   14.40    3.20
  -3 -20   0    1.70    4.70
   3 -20   0    0.10    5.60
   3 -20   0   -0.40    2.40
  -3  20   0    5.80    2.60
  -3  20   0   -0.80    2.80
   3  20   0    5.20    2.80
   4 -20   0    9.10    8.40
   4 -20   0    0.70    2.40
  -4 -20   0    0.90    4.90
   4  20   0   -1.80    2.60
  -4  20   0    1.40    2.80
  -4  20   0    0.10    3.00
   0 -21   0    0.40    4.20
   0  21   0    2.60    2.60
   0  21   0    0.10    1.60
   0  21   0   -2.30    2.60
   1 -21   0   -0.60    4.10
  -1 -21   0    3.90    4.60
  -1  21   0    1.80    1.80
  -1  21   0   -0.60    2.30
   1  21   0    3.60    2.60
   1  21   0    4.30    3.00
  -1  21   0    8.90    3.10
   2 -21   0   -1.00    4.60
  -2 -21   0    1.60    4.50
  -2  21   0    4.30    2.80
   2  21   0    3.10    2.90
  -2  21   0    2.50    2.20
  -2  21   0   -1.90    2.70
  -3 -21   0   -2.10    4.40
   3 -21   0    0.10    2.60
   3 -21   0    1.10    6.40
  -3  21   0   -2.30    2.40
  -3  21   0   -0.30    2.80
   3  21   0   -2.40    2.80
   4 -21   0   26.60    4.60
   4  21   0   32.10    4.60
  -4  21   0   26.60    4.00
   0 -22   0  126.29   11.40
   0  22   0  103.29    7.10
   0  22   0  111.19    7.90
  -1 -22   0   56.89    9.20
   1 -22   0   64.59    9.60
   1  22   0   50.09    6.80
   1  22   0   42.90    5.80
  -1  22   0   39.90    3.80
  -1  22   0   60.99    6.00
  -1  22   0   47.20    5.70
   2 -22   0    9.80    5.70
  -2 -22   0    3.40    4.60
  -2  22   0    0.90    2.20
   2  22   0    3.40    3.10
  -2  22   0    0.90    2.80
  -2  22   0    2.30    2.90
   3 -22   0    1.80    2.90
   3  22   0    4.00    3.60
   0 -23   0    9.60    5.20
   0  23   0    1.60    3.50
   0  23   0    0.90    2.60
  -1 -23   0   74.09   10.90
   1 -23   0   64.79    9.90
  -1  23   0   52.29    6.10
  -1  23   0   59.89    7.10
   9   0  -1    0.20    3.80
   8   0  -1    1.60    4.10
   8   0  -1    1.30    3.60
   8   0  -1    0.50    2.90
  -8   0   1   -6.60    3.10
   7   0  -1   -1.70    2.50
   7   0  -1   -1.80    3.10
   7   0  -1   -3.70    2.70
  -7   0   1   -2.60    3.10
  -6   0   1    1.80    2.70
   6   0  -1   -0.20    2.70
  -6   0   1    2.00    1.90
   6   0  -1   -1.90    2.30
   6   0  -1    3.20    2.70
  -5   0   1    4.70    2.30
  -5   0   1    1.50    1.50
   5   0  -1    2.30    2.40
   5   0  -1   -0.10    2.00
   5   0  -1    2.70    1.90
  -4   0   1   -1.50    1.20
   4   0  -1    1.00    1.40
   4   0  -1   -0.50    1.70
  -4   0   1    0.10    1.70
  -4   0   1    0.10    1.40
   4   0  -1    1.60    1.80
   4   0  -1    0.00    1.50
   3   0  -1    1.50    1.70
  -3   0   1    0.50    1.10
  -3   0   1    2.40    1.30
   3   0  -1    2.20    1.50
  -3   0   1    1.40    1.50
   3   0  -1    0.90    1.40
   3   0  -1   -1.00    1.20
   2   0  -1   -1.00    1.00
   2   0  -1    0.60    1.10
   2   0  -1   -0.90    1.30
  -2   0   1    0.30    0.90
   2   0  -1   -0.10    1.20
  -2   0   1   -0.30    1.20
  -2   0   1    1.10    1.00
   1   0  -1    1.00    0.90
  -1   0   1   -0.20    0.40
   1   0  -1    0.30    0.60
  -1   0   1    0.70    0.70
   1   0  -1    1.00    0.80
  -1   0   1    0.00    0.80
   1   0  -1   -0.40    0.90
   1   0  -1    0.90    0.80
   0   0  -1   -0.10    0.50
   0   0   1   -0.50    0.50
   0   0   1   -0.30    0.50
   0   0  -1    0.60    0.60
   0   0  -1   -0.50    0.60
   0   0   1    2.80    0.70
  -1   0  -1   -1.50    0.60
  -1   0  -1    2.00    1.10
  -1   0  -1   -0.20    1.10
   1   0   1   -1.50    1.10
   1   0   1   -0.50    0.80
   1   0   1   -0.60    1.20
  -1   0  -1   -1.00    1.10
  -2   0  -1   -1.00    1.10
  -2   0  -1   -0.40    0.80
  -2   0  -1    2.00    1.30
   2   0   1    2.80    1.40
   2   0   1   -0.70    0.90
   2   0   1   -0.80    1.50
   2   0   1   -0.50    1.30
  -3   0  -1    0.20    1.00
  -3   0  -1   -1.30    1.30
   3   0   1   -0.60    1.70
   3   0   1   -0.80    1.40
   3   0   1    0.30    0.90
   3   0   1    0.00    1.40
  -3   0  -1    1.30    1.60
  -4   0  -1   -1.40    1.70
   4   0   1   -0.70    1.00
  -4   0  -1   -0.50    1.10
   4   0   1   -1.10    1.70
  -4   0  -1    0.40    1.80
   4   0   1   -0.60    1.70
   4   0   1   -0.80    1.90
  -5   0  -1   -1.10    2.10
   5   0   1   -1.60    2.10
   5   0   1    2.00    2.20
   5   0   1    2.80    2.60
  -6   0  -1   -4.70    2.60
   6   0   1    2.50    2.70
   6   0   1   -3.70    2.30
   6   0   1    0.30    3.10
  -7   0  -1    3.00    3.40
   7   0   1    2.90    3.70
   7   0   1   -0.10    2.90
   7   0   1    0.50    2.80
   8   0   1   -1.90    2.90
  -8   0  -1    2.90    3.80
   8   0   1   -6.30    3.70
   8  -1  -1   21.10    4.40
  -8  -1   1   17.90    4.20
   8  -1  -1   17.30    4.90
   8  -1  -1   22.00    3.90
  -8   1   1   12.70    4.00
   8   1  -1   19.60    4.30
   8   1  -1   17.60    3.60
   8   1  -1   29.80    5.80
   7  -1  -1   60.49    5.90
   7  -1  -1   51.99    6.90
  -7  -1   1   44.10    6.00
   7  -1  -1   52.69    5.40
  -7   1   1   62.79    6.20
   7   1  -1   56.69    6.10
   7   1  -1   61.49    7.10
   7   1  -1   49.60    5.20
   6  -1  -1    9.10    3.30
   6  -1  -1    6.50    2.80
   6  -1  -1    7.70    2.60
  -6  -1   1    2.80    2.70
  -6   1   1   10.90    2.20
   6   1  -1    6.70    2.30
  -6   1   1    7.00    2.90
   6   1  -1    5.20    3.10
   6   1  -1    7.20    2.80
   5  -1  -1  813.62   30.80
  -5  -1   1  800.12   28.90
   5  -1  -1  822.62   29.40
  -5  -1   1  793.42   29.60
   5  -1  -1  813.62   29.90
  -5   1   1  794.22   29.00
  -5   1   1  828.02   29.70
   5   1  -1  827.22   30.00
   5   1  -1  806.92   30.80
   5   1  -1  822.42   29.30
  -4  -1   1   -0.50    1.10
   4  -1  -1    0.40    1.90
   4  -1  -1   -1.20    1.40
  -4  -1   1   -0.20    1.60
   4  -1  -1    1.80    1.70
   4   1  -1    2.20    1.40
  -4   1   1    1.10    1.70
   4   1  -1    2.60    1.80
  -4   1   1    4.70    1.60
   4   1  -1    3.30    1.50
   4   1  -1    1.40    1.90
  -4   1   1    1.60    1.30
   3  -1  -1    7.00    1.60
   3  -1  -1    7.00    1.70
   3  -1  -1    9.30    2.10
  -3  -1   1    7.60    1.30
  -3  -1   1    8.30    1.70
   3   1  -1    7.20    1.40
   3   1  -1    9.20    1.50
  -3   1   1    6.80    1.50
  -3   1   1    7.80    1.40
  -3   1   1    6.40    1.60
   3   1  -1    8.50    1.80
   3   1  -1    6.00    1.90
   2  -1  -1   15.10    2.40
   2  -1  -1   15.10    1.90
  -2  -1   1   14.50    1.60
   2  -1  -1   12.60    2.00
  -2  -1   1   12.30    2.00
   2   1  -1   13.80    2.40
  -2   1   1   11.60    1.70
   2   1  -1   15.80    1.90
  -2   1   1   12.80    1.90
  -2   1   1   10.40    1.50
   2   1  -1    9.40    1.20
   2   1  -1   13.90    2.10
   1  -1  -1  835.32   29.50
   1  -1  -1  868.51   29.40
  -1  -1   1  848.82   29.30
  -1  -1   1  774.52   29.20
  -1   1   1  844.22   29.40
   1   1  -1  856.21   29.50
  -1   1   1  848.62   29.20
   1   1  -1  831.22   29.20
   1   1  -1  868.31   29.40
  -1   1   1  838.32   29.40
   1   1  -1  864.41   29.30
   0  -1  -1  235.58    8.40
   0  -1   1  242.98    8.40
   0  -1   1  243.08    8.40
   0  -1  -1  235.38    8.40
   0  -1   1  213.88    8.50
   0   1  -1  241.78    8.40
   0   1  -1  240.18    8.50
   0   1  -1  235.58    8.40
   0   1   1  246.08    8.50
   0   1   1  238.18    8.40
   0   1   1  250.97    8.30
   0   1  -1  235.38    8.40
   0   1   1  222.88    8.60
   1  -1   1 1338.37   46.30
  -1  -1  -1 1289.07   46.10
   1  -1   1 1366.66   46.60
   1  -1   1 1420.66   46.10
  -1  -1  -1 1305.67   46.20
   1   1   1 1337.57   46.60
  -1   1  -1 1324.27   46.20
  -1   1  -1 1293.67   46.10
   1   1   1 1276.87   46.30
  -1   1  -1 1364.56   46.30
   1   1   1 1235.88   46.20
   1   1   1 1412.76   46.10
   2  -1   1 1062.39   38.60
  -2  -1  -1 1093.79   38.10
   2  -1   1 1107.79   39.30
   2  -1   1 1144.79   38.40
  -2  -1  -1 1124.19   38.50
  -2  -1  -1 1054.79   38.60
   2  -1   1 1078.09   38.70
  -2   1  -1 1095.79   38.70
   2   1   1 1079.59   38.70
   2   1   1 1134.29   39.30
   2   1   1 1136.59   38.40
   2   1   1 1096.09   38.80
   2   1   1 1109.69   38.60
  -2   1  -1 1106.29   38.60
  -2   1  -1 1104.79   38.30
   3  -1   1    2.00    1.00
   3  -1   1   -0.20    1.40
  -3  -1  -1    1.70    1.30
   3  -1   1    2.20    1.60
   3  -1   1    2.00    1.70
  -3  -1  -1    3.90    1.60
  -3  -1  -1    3.30    0.90
  -3   1  -1    0.80    1.40
  -3   1  -1    2.50    1.60
   3   1   1   -0.10    1.00
   3   1   1    2.90    1.60
   3   1   1    0.50    1.80
   3   1   1   -1.00    1.40
  -3   1  -1    0.60    1.10
   4  -1   1   55.09    4.70
   4  -1   1   41.40    3.60
  -4  -1  -1   45.00    4.00
  -4  -1  -1   50.29    2.60
   4  -1   1   49.50    2.80
   4  -1   1   41.30    3.90
   4   1   1   50.99    4.70
  -4   1  -1   47.30    3.90
   4   1   1   46.00    3.90
  -4   1  -1   49.99    3.60
   4   1   1   44.00    3.70
   4   1   1   50.29    2.80
  -4   1  -1   45.80    2.90
   5  -1   1   86.49    5.50
   5  -1   1   76.89    6.30
   5  -1   1   78.69    5.30
  -5  -1  -1   70.79    5.30
   5   1   1   77.99    5.20
   5   1   1   75.39    6.30
  -5   1  -1   80.09    5.50
   5   1   1   73.99    5.40
  -6  -1  -1   35.80    5.10
   6  -1   1   30.00    3.90
   6  -1   1   24.30    4.50
   6  -1   1   30.90    4.60
   6   1   1   36.10    5.80
   6   1   1   35.80    4.60
  -6   1  -1   30.50    4.00
   6   1   1   28.90    4.80
  -7  -1  -1   -1.30    3.10
   7  -1   1    2.60    3.80
   7  -1   1    1.50    3.00
   7  -1   1   -2.00    2.80
   7   1   1    1.10    2.60
   7   1   1    0.50    3.60
   7   1   1    6.10    3.40
  -7   1  -1    2.20    3.30
  -8  -1  -1   28.40    5.00
   8  -1   1   27.60    5.90
   8  -1   1   25.60    4.30
  -8   1  -1   24.40    4.90
   8   1   1   26.00    4.10
   8   1   1   27.20    6.00
   8  -2  -1   -2.50    3.10
   8  -2  -1   -1.60    2.90
  -8  -2   1   -0.70    3.50
   8  -2  -1    0.60    3.90
   8   2  -1    2.50    4.00
   8   2  -1   -0.20    2.70
   8   2  -1    0.70    3.60
  -8   2   1    5.60    3.70
  -7  -2   1    5.00    3.30
   7  -2  -1    4.90    3.10
   7  -2  -1    5.60    2.90
   7  -2  -1    4.70    3.60
   7   2  -1    3.50    2.60
  -7   2   1    5.90    3.10
   7   2  -1   12.20    4.00
   7   2  -1    5.70    3.30
   6  -2  -1  558.84   21.60
   6  -2  -1  556.44   21.20
   6  -2  -1  565.94   23.10
  -6  -2   1  553.44   21.60
   6   2  -1  537.55   22.70
  -6   2   1  576.14   21.60
   6   2  -1  536.85   20.90
  -6   2   1  553.14   20.70
   6   2  -1  581.04   21.90
  -5  -2   1  201.58    9.10
   5  -2  -1  209.88    8.90
   5  -2  -1  201.18   10.10
   5  -2  -1  207.08    9.20
  -5  -2   1  195.48    8.10
  -5   2   1  203.68    8.40
   5   2  -1  195.08    8.50
   5   2  -1  215.08    9.40
  -5   2   1  220.68    9.20
   5   2  -1  198.78   10.00
  -4  -2   1   37.20    2.50
  -4  -2   1   38.00    3.50
   4  -2  -1   39.70    3.40
   4  -2  -1   40.40    4.10
   4  -2  -1   43.60    3.60
   4   2  -1   38.30    3.60
   4   2  -1   36.80    4.00
  -4   2   1   43.50    3.60
  -4   2   1   41.90    3.20
   4   2  -1   42.40    3.10
   4   2  -1   41.20    3.00
  -4   2   1   37.90    2.90
  -3  -2   1   34.60    3.00
   3  -2  -1   38.10    3.80
   3  -2  -1   33.60    2.80
   3  -2  -1   32.40    3.00
  -3  -2   1   32.90    2.30
   3   2  -1   34.10    1.80
   3   2  -1   34.40    3.10
  -3   2   1   29.60    2.40
   3   2  -1   35.40    3.60
   3   2  -1   34.70    2.60
  -3   2   1   35.30    2.90
  -3   2   1   34.00    2.80
   3   2  -1   33.40    2.50
  -2  -2   1  196.18    7.20
   2  -2  -1  179.78    7.40
   2  -2  -1  185.28    7.50
   2  -2  -1  194.78    8.10
   2   2  -1  204.28    7.20
  -2   2   1  199.38    7.50
   2   2  -1  180.58    7.10
   2   2  -1  213.48    8.00
  -2   2   1  189.58    7.30
  -2   2   1  198.98    7.40
   2   2  -1  190.08    7.00
   2   2  -1  186.18    7.60
   1  -2  -1 1834.02   66.29
   1  -2  -1 1922.21   66.49
   1   2  -1 1875.61   66.19
   1   2  -1 1941.61   66.19
   1   2  -1 1838.22   66.09
   1   2  -1 1980.30   66.09
  -1   2   1 1875.61   65.99
  -1   2   1 1885.71   66.19
  -1   2   1 1917.51   66.19
   1   2  -1 2056.09   66.29
   0  -2  -1 1216.08   43.40
   0  -2   1 1223.68   43.20
   0  -2   1 1210.98   43.40
   0  -2  -1 1248.68   43.30
   0  -2   1 1293.97   43.30
   0   2  -1 1239.08   43.30
   0   2  -1 1306.67   43.40
   0   2   1 1261.67   43.20
   0   2   1 1162.08   43.30
   0   2   1 1226.58   43.30
   0   2  -1 1286.67   43.20
   0   2   1 1282.47   43.40
   0   2  -1 1277.37   43.30
   0   2   1 1182.88   43.60
   0   2  -1 1332.27   43.10
  -1  -2  -1    1.90    1.30
  -1  -2  -1    1.00    1.00
  -1  -2  -1    0.10    1.00
   1  -2   1    2.90    0.90
   1  -2   1    1.80    1.40
   1  -2   1    0.60    0.80
   1  -2   1    1.40    1.20
   1   2   1    1.80    0.90
  -1   2  -1   -0.40    1.00
  -1   2  -1    1.40    1.00
   1   2   1    1.70    0.90
   1   2   1    1.60    1.40
   1   2   1    2.90    1.10
  -1   2  -1    1.30    1.20
   2  -2   1   12.70    1.30
   2  -2   1   10.80    1.50
   2  -2   1   12.20    1.80
  -2  -2  -1   13.70    2.00
   2  -2   1   12.00    2.00
  -2  -2  -1   11.20    1.60
   2   2   1   10.20    2.10
   2   2   1   10.60    1.70
  -2   2  -1   12.10    1.60
   2   2   1   12.10    1.50
  -2   2  -1   12.20    1.70
  -2   2  -1   13.60    1.80
   2   2   1   10.40    1.80
   2   2   1   11.80    1.40
   3  -2   1  654.33   24.70
   3  -2   1  682.03   23.40
  -3  -2  -1  648.24   23.60
  -3  -2  -1  630.74   23.80
   3  -2   1  668.33   23.90
   3  -2   1  666.93   23.80
  -3   2  -1  685.43   24.00
   3   2   1  672.23   23.40
   3   2   1  676.93   23.60
   3   2   1  651.43   24.00
  -3   2  -1  673.43   23.40
   3   2   1  642.44   24.70
   3   2   1  650.13   23.70
  -3   2  -1  646.74   23.70
  -4  -2  -1  111.49    5.70
   4  -2   1  112.29    4.70
  -4  -2  -1  108.09    4.40
   4  -2   1  107.59    6.60
   4  -2   1  115.39    5.80
   4  -2   1  103.19    5.50
   4   2   1  109.29    6.70
   4   2   1  110.59    5.90
  -4   2  -1  110.89    5.00
  -4   2  -1  111.09    5.80
  -4   2  -1  108.89    5.50
   4   2   1  112.99    5.50
   4   2   1  113.99    4.80
   5  -2   1  347.57   15.40
   5  -2   1  343.57   14.00
   5  -2   1  363.36   14.00
  -5  -2  -1  350.76   14.10
   5   2   1  342.57   15.30
  -5   2  -1  333.87   14.00
   5   2   1  350.66   14.30
  -5   2  -1  334.47   13.00
   5   2   1  350.06   13.70
   6  -2   1   91.59    7.80
  -6  -2  -1   89.29    6.40
   6  -2   1   83.39    6.10
   6  -2   1   87.19    6.30
  -6   2  -1   82.99    6.40
   6   2   1   86.69    6.50
   6   2   1   76.29    7.30
   6   2   1   85.49    5.90
   7  -2   1   43.70    5.60
  -7  -2  -1   27.10    4.40
   7  -2   1   26.60    5.20
   7  -2   1   35.80    5.40
   7   2   1   34.20    4.00
   7   2   1   25.50    5.20
  -7   2  -1   32.20    4.80
  -8  -2  -1    8.00    4.00
  -8  -2  -1    3.80    4.20
   8  -2   1    5.40    4.70
   8  -2   1    3.90    3.50
   8   2   1    4.10    4.40
  -8   2  -1    1.00    3.90
   8   2   1    9.60    3.30
   8  -3  -1   19.00    3.90
   8  -3  -1   22.80    4.30
   8  -3  -1   20.10    5.50
  -8  -3   1    8.60    3.90
   8   3  -1   20.40    4.50
   8   3  -1   16.10    3.20
  -8   3   1   12.50    4.10
   8   3  -1   17.70    5.10
  -7  -3   1   20.30    3.80
   7  -3  -1   16.40    3.50
   7  -3  -1   19.80    4.60
   7  -3  -1   20.10    3.70
  -7   3   1   18.20    3.90
   7   3  -1   19.50    4.00
   7   3  -1   17.10    4.30
   7   3  -1   16.00    2.90
   6  -3  -1    2.10    2.50
   6  -3  -1    8.30    3.40
   6  -3  -1    2.90    2.50
  -6  -3   1   11.00    3.00
   6   3  -1    7.20    2.90
  -6   3   1   10.00    2.90
   6   3  -1    3.00    2.10
  -6   3   1    4.40    2.20
   6   3  -1    7.90    3.30
  -5  -3   1  209.08    9.50
   5  -3  -1  231.18    9.50
   5  -3  -1  203.68   10.50
   5  -3  -1  219.08    9.50
  -5  -3   1  202.38    8.40
   5   3  -1  216.58   10.50
  -5   3   1  213.18    8.90
  -5   3   1  222.18    9.50
   5   3  -1  223.88    9.80
   5   3  -1  208.68    8.80
   4  -3  -1  104.09    6.20
  -4  -3   1  106.09    5.40
  -4  -3   1   99.59    4.60
   4  -3  -1   98.99    5.40
   4  -3  -1  105.99    5.50
  -4   3   1   94.09    4.90
   4   3  -1  115.39    4.30
   4   3  -1  108.49    4.90
   4   3  -1  109.99    6.20
   4   3  -1  107.99    5.80
   4   3  -1  109.89    4.90
  -4   3   1  103.49    5.30
  -4   3   1  107.19    5.50
   3  -3  -1 3226.88  109.29
  -3  -3   1 3115.09  108.49
  -3  -3   1 3103.49  107.99
   3  -3  -1 3073.29  108.49
   3  -3  -1 3092.09  108.49
   3  -3  -1 3018.80  107.79
  -3   3   1 3093.59  108.39
  -3   3   1 3163.98  108.39
  -3   3   1 2847.11  108.19
   3   3  -1 3175.98  109.09
   3   3  -1 3189.08  107.89
   3   3  -1 3166.98  108.69
   3   3  -1 3360.36  108.09
   3   3  -1 3132.29  107.99
  -2  -3   1  325.37   12.10
   2  -3  -1  303.17   13.50
   2  -3  -1  343.27   12.50
   2  -3  -1  337.77   12.50
  -2   3   1  338.87   12.30
  -2   3   1  339.27   12.00
  -2   3   1  345.77   12.50
  -2   3   1  352.76   12.30
   2   3  -1  346.67   12.40
   2   3  -1  336.67   12.60
   2   3  -1  357.96   12.90
   2   3  -1  328.97   12.10
   1  -3  -1 4300.37  151.38
   1  -3  -1 4256.27  150.68
   1  -3  -1 4225.78  150.68
  -1   3   1 4300.67  150.48
  -1   3   1 4410.66  151.38
   1   3  -1 4624.94  150.88
   1   3  -1 4251.17  150.68
   1   3  -1 4410.46  151.28
   1   3  -1 4469.15  150.68
  -1   3   1 4467.75  150.68
   1   3  -1 4279.57  150.88
  -1   3   1 4414.86  150.58
   0  -3  -1 1327.87   47.90
   0  -3   1 1378.06   48.00
   0  -3   1 1393.46   47.70
   0  -3  -1 1401.76   47.70
   0   3  -1 1376.26   47.60
   0   3   1 1356.96   47.60
   0   3   1 1359.06   47.70
   0   3  -1 1423.26   47.70
   0   3   1 1358.46   47.70
   0   3  -1 1450.15   47.80
   0   3   1 1271.77   48.10
   0   3  -1 1388.16   47.60
   0   3   1 1405.36   47.70
   1  -3   1 3058.29  101.69
   1  -3   1 2842.72  102.39
  -1  -3  -1 2836.42  101.49
  -1  -3  -1 2874.31  101.79
   1  -3   1 2794.72  101.29
   1  -3   1 2987.30  101.79
  -1  -3  -1 2888.51  101.59
  -1   3  -1 3061.39  101.59
   1   3   1 2883.61  101.49
   1   3   1 2998.30  101.49
   1   3   1 3001.70  101.59
   1   3   1 2947.21  102.09
  -1   3  -1 3046.90  101.59
  -1   3  -1 2912.31  101.59
   2  -3   1  526.15   19.50
   2  -3   1  565.94   19.80
   2  -3   1  552.94   20.40
   2  -3   1  566.64   19.40
  -2  -3  -1  522.95   19.60
  -2   3  -1  558.24   19.70
   2   3   1  539.75   19.40
   2   3   1  556.64   20.50
  -2   3  -1  538.65   19.50
   2   3   1  569.54   19.50
   2   3   1  531.35   19.50
  -2   3  -1  559.24   19.80
   3  -3   1   25.30    2.00
   3  -3   1   22.90    2.40
   3  -3   1   22.50    3.40
  -3  -3  -1   27.60    2.90
   3  -3   1   25.40    3.00
   3   3   1   22.10    3.30
  -3   3  -1   30.20    3.00
   3   3   1   23.80    2.30
  -3   3  -1   25.00    2.30
   3   3   1   20.90    2.50
   3   3   1   25.00    2.10
  -3   3  -1   23.70    2.70
   3   3   1   24.80    2.90
   4  -3   1   33.80    4.20
   4  -3   1   36.90    3.70
  -4  -3  -1   24.50    3.50
   4  -3   1   34.40    2.50
   4  -3   1   37.00    3.30
  -4   3  -1   36.40    2.90
  -4   3  -1   35.50    3.40
  -4   3  -1   35.50    3.70
   4   3   1   35.30    2.50
   4   3   1   36.20    4.30
   4   3   1   35.60    3.70
   4   3   1   34.70    3.20
   5  -3   1  154.78    7.50
   5  -3   1  132.69    8.40
  -5  -3  -1  133.59    7.30
   5  -3   1  144.39    7.00
   5   3   1  145.39    6.90
   5   3   1  133.99    7.60
  -5   3  -1  151.18    7.60
  -5   3  -1  143.19    6.40
   5   3   1  136.69    8.50
   6  -3   1   44.00    4.80
   6  -3   1   49.90    5.40
   6  -3   1   43.30    6.20
  -6  -3  -1   49.60    5.40
   6   3   1   45.60    6.30
   6   3   1   47.60    5.50
   6   3   1   47.70    4.70
  -6   3  -1   44.90    5.50
  -7  -3  -1    8.40    3.40
   7  -3   1    4.70    3.20
   7  -3   1    5.60    4.10
   7  -3   1    1.40    2.90
   7   3   1    5.20    4.10
   7   3   1    2.00    2.70
  -7   3  -1    7.10    3.50
   8  -3   1   16.20    4.20
  -8  -3  -1   22.60    4.70
  -8  -3  -1   18.70    4.80
   8  -3   1   12.70    5.30
  -8   3  -1   20.90    4.80
   8   3   1   19.60    5.60
   8   3   1   18.90    3.70
   8  -4  -1   47.40    8.20
   8  -4  -1   55.09    6.40
   8  -4  -1   45.60    6.20
  -8  -4   1   60.09    7.00
   8   4  -1   64.79    7.40
   8   4  -1   45.20    7.80
   8   4  -1   47.90    5.00
  -8   4   1   53.49    6.90
  -7  -4   1   31.90    4.30
   7  -4  -1   27.60    4.00
   7  -4  -1   18.10    4.60
   7  -4  -1   35.30    5.30
   7   4  -1   26.60    3.20
   7   4  -1   23.40    4.90
   7   4  -1   22.70    4.20
  -7   4   1   28.00    4.10
   6  -4  -1   19.10    3.30
   6  -4  -1   11.30    3.70
  -6  -4   1   13.00    3.10
   6  -4  -1   11.90    3.00
  -6   4   1   11.90    3.00
  -6   4   1   14.40    2.70
   6   4  -1   11.80    2.40
   6   4  -1   11.70    3.70
   6   4  -1   16.30    3.40
   5  -4  -1  110.19    7.30
   5  -4  -1  117.09    6.20
  -5  -4   1  101.49    5.00
   5  -4  -1  111.49    6.20
  -5  -4   1  109.49    6.30
  -5   4   1  117.99    6.20
  -5   4   1  116.79    5.70
   5   4  -1  115.99    7.20
   5   4  -1  107.59    5.30
   5   4  -1  109.99    6.40
   4  -4  -1  223.88    9.30
   4  -4  -1  220.28    8.10
   4  -4  -1  225.88   10.30
  -4  -4   1  217.48    9.30
   4  -4  -1  221.48    9.30
  -4  -4   1  215.28    8.50
   4   4  -1  215.58   10.20
   4   4  -1  228.68    8.70
  -4   4   1  213.38    8.90
   4   4  -1  228.28    9.70
  -4   4   1  221.98    9.20
   4   4  -1  231.18    8.70
   4   4  -1  229.08    8.30
  -4   4   1  237.18    9.30
  -3  -4   1  479.45   18.20
   3  -4  -1  496.65   18.30
   3  -4  -1  542.65   19.40
  -3  -4   1  473.75   17.70
   3  -4  -1  480.45   18.20
   3  -4  -1  481.75   17.50
  -3   4   1  488.65   18.20
   3   4  -1  521.95   18.60
   3   4  -1  524.05   19.00
   3   4  -1  501.35   17.70
  -3   4   1  517.25   18.10
  -3   4   1  468.45   18.00
   2  -4  -1  202.38    8.00
   2  -4  -1  208.08    8.00
   2   4  -1  210.48    8.50
   2   4  -1  209.18    7.90
   2   4  -1  201.98    7.60
  -2   4   1  214.58    7.80
  -2   4   1  190.78    7.60
   2   4  -1  195.98    8.10
  -2   4   1  203.38    8.00
  -2   4   1  204.28    7.90
   1  -4  -1 4981.00  175.78
   1  -4  -1 5068.79  174.98
   1  -4  -1 4985.60  175.98
  -1   4   1 4984.60  174.88
  -1   4   1 5232.68  174.98
   1   4  -1 5127.29  175.18
   1   4  -1 5473.35  175.38
  -1   4   1 5093.29  174.98
   1   4  -1 5087.69  175.08
   1   4  -1 4980.60  174.88
  -1   4   1 5033.70  174.88
   1   4  -1 4803.02  175.78
   0  -4  -1  635.84   22.60
   0  -4   1  657.43   22.80
   0  -4  -1  609.94   22.30
   0   4  -1  676.53   22.40
   0   4  -1  646.54   22.30
   0   4   1  657.33   22.40
   0   4  -1  643.84   22.20
   0   4   1  622.04   22.30
   0   4  -1  669.33   22.40
   0   4  -1  605.34   22.20
   0   4   1  588.54   22.90
   0   4   1  629.64   22.30
   0   4   1  623.34   22.30
   0   4  -1  640.54   22.10
   1  -4   1  386.36   13.20
   1  -4   1  364.56   13.20
   1  -4   1  338.77   14.30
  -1  -4  -1  340.67   13.00
  -1  -4  -1  348.67   13.50
   1   4   1  348.57   13.10
   1   4   1  352.46   12.80
   1   4   1  381.96   13.00
   1   4   1  360.96   13.90
  -1   4  -1  389.76   13.30
   1   4   1  369.86   13.20
  -1   4  -1  390.46   13.30
  -1   4  -1  367.66   13.20
  -2  -4  -1  416.46   16.50
   2  -4   1  455.25   16.70
   2  -4   1  503.05   17.60
   2  -4   1  461.85   16.40
   2  -4   1  434.46   16.20
  -2  -4  -1  453.95   16.90
   2   4   1  441.86   16.40
   2   4   1  455.95   16.30
  -2   4  -1  454.55   16.50
  -2   4  -1  477.95   16.60
   2   4   1  448.26   17.40
   2   4   1  466.25   16.40
  -2   4  -1  470.95   16.60
   3  -4   1   33.60    2.60
   3  -4   1   36.00    2.30
   3  -4   1   32.70    3.80
   3  -4   1   38.70    3.30
  -3  -4  -1   30.00    3.00
  -3   4  -1   28.40    2.60
  -3   4  -1   40.20    3.10
   3   4   1   33.00    2.70
  -3   4  -1   33.90    3.10
   3   4   1   34.80    2.50
   3   4   1   32.00    2.40
   3   4   1   32.70    3.90
   4  -4   1    8.70    1.40
  -4  -4  -1    7.80    2.10
   4  -4   1    6.80    2.30
   4  -4   1   11.20    2.80
   4  -4   1    9.90    1.90
   4   4   1   13.40    2.80
   4   4   1    4.60    1.70
   4   4   1    6.40    2.20
  -4   4  -1    9.00    2.10
   4   4   1   10.10    1.60
  -4   4  -1   11.20    1.90
  -4   4  -1    4.40    2.00
   5  -4   1   15.30    3.60
   5  -4   1   18.10    3.10
   5  -4   1   15.10    2.60
  -5  -4  -1   14.20    2.90
  -5   4  -1   17.60    2.40
   5   4   1   12.40    3.40
   5   4   1   14.40    3.10
   5   4   1   15.40    2.60
  -5   4  -1   10.50    2.80
   5   4   1   11.00    2.30
   6  -4   1   12.70    2.90
  -6  -4  -1   11.00    3.30
   6  -4   1   10.80    4.00
   6  -4   1   16.40    3.40
  -6   4  -1   17.20    3.60
   6   4   1   14.30    4.10
   6   4   1   11.40    2.60
  -7  -4  -1  143.79    8.60
   7  -4   1  137.29   10.40
   7  -4   1  133.19    8.60
   7   4   1  128.29   10.10
   7   4   1  138.89    7.60
  -7   4  -1  134.19    8.80
  -8  -4  -1   43.00    6.70
  -8  -4  -1   18.70    5.10
   8  -4   1   18.60    4.40
   8  -4   1   20.40    5.80
  -8   4  -1   20.20    4.60
   8   4   1   19.20    5.70
   8   4   1   21.30    3.70
   8  -5  -1  192.58   10.60
   8  -5  -1  205.48   13.00
  -8  -5   1  194.28   10.90
   8   5  -1  189.18   12.70
   8   5  -1  178.68    9.10
   8   5  -1  196.88   11.40
  -8   5   1  204.78   11.10
   7  -5  -1   19.00    3.50
   7  -5  -1    9.40    4.30
   7  -5  -1   12.00    3.50
  -7  -5   1    7.90    3.50
  -7   5   1    6.20    3.30
   7   5  -1   12.70    4.20
   7   5  -1   10.60    2.40
   7   5  -1    7.60    3.60
   6  -5  -1    5.10    3.30
  -6  -5   1    0.50    2.70
   6  -5  -1    7.60    2.70
   6  -5  -1    2.60    2.60
   6   5  -1    6.30    3.20
   6   5  -1    3.40    2.80
   6   5  -1    4.70    2.00
  -6   5   1    0.60    2.70
  -6   5   1    6.40    2.40
   5  -5  -1   14.10    2.70
   5  -5  -1   22.20    4.50
   5  -5  -1   23.20    2.90
  -5  -5   1   14.60    1.80
  -5  -5   1   16.40    2.80
   5   5  -1   17.00    2.10
   5   5  -1   13.50    3.20
  -5   5   1   22.40    3.20
   5   5  -1   19.70    3.00
  -5   5   1   18.70    2.80
   4  -5  -1   62.69    5.40
   4  -5  -1   57.29    4.20
   4  -5  -1   58.19    2.80
  -4  -5   1   61.59    4.20
  -4  -5   1   54.19    3.10
   4  -5  -1   52.89    4.00
  -4   5   1   58.49    3.80
   4   5  -1   67.59    4.50
  -4   5   1   59.59    4.10
  -4   5   1   65.69    4.10
   4   5  -1   62.19    3.10
   4   5  -1   61.19    4.90
  -3  -5   1  179.78    7.40
  -3  -5   1  185.98    8.00
   3  -5  -1  188.78    7.90
   3  -5  -1  199.78    9.80
   3  -5  -1  186.78    8.10
   3   5  -1  192.08    8.30
  -3   5   1  209.38    7.90
   3   5  -1  200.68    8.80
  -3   5   1  208.68    8.10
  -3   5   1  205.68    8.00
   3   5  -1  201.28    7.50
   2  -5  -1  155.28    8.20
   2  -5  -1  163.98    6.70
   2  -5  -1  169.38    6.80
   2   5  -1  162.98    7.40
  -2   5   1  171.48    6.50
  -2   5   1  163.38    6.40
   2   5  -1  167.28    6.90
  -2   5   1  164.08    6.70
  -2   5   1  169.38    6.90
   2   5  -1  170.88    6.40
   2   5  -1  165.08    6.50
   2   5  -1  165.08    6.60
   1  -5  -1 1268.97   47.10
   1  -5  -1 1344.27   47.80
   1  -5  -1 1350.26   47.10
   1   5  -1 1436.06   47.60
   1   5  -1 1296.47   47.00
  -1   5   1 1328.87   47.00
   1   5  -1 1345.57   47.00
  -1   5   1 1391.96   47.10
  -1   5   1 1410.46   47.10
   1   5  -1 1364.96   47.00
   1   5  -1 1325.87   47.10
   0  -5  -1  991.10   36.00
   0  -5   1 1049.40   36.60
   0  -5   1 1071.59   35.80
   0  -5  -1 1008.40   36.30
   0   5  -1 1066.09   36.20
   0   5   1  993.30   36.00
   0   5  -1 1035.00   36.20
   0   5   1 1056.79   36.20
   0   5   1 1050.39   36.00
   0   5   1  993.70   36.00
   0   5  -1 1017.10   36.00
   0   5  -1 1035.40   35.90
   0   5  -1 1051.79   35.90
   1  -5   1  512.75   17.40
   1  -5   1  542.45   18.50
  -1  -5  -1  453.15   17.60
  -1  -5  -1  450.85   17.00
   1  -5   1  480.55   17.40
   1   5   1  481.85   17.10
  -1   5  -1  482.45   17.30
   1   5   1  468.95   17.00
  -1   5  -1  507.95   17.30
   1   5   1  504.25   17.40
  -1   5  -1  489.85   17.40
   1   5   1  454.45   17.10
   1   5   1  469.35   18.10
   2  -5   1  795.42   28.80
   2  -5   1  869.11   30.80
   2  -5   1  844.72   29.40
   2  -5   1  820.32   29.10
  -2  -5  -1  776.82   29.10
  -2  -5  -1  788.42   29.60
  -2   5  -1  843.72   29.30
  -2   5  -1  832.12   29.30
   2   5   1  866.51   29.20
   2   5   1  827.42   30.20
   2   5   1  828.22   29.00
   2   5   1  797.22   29.00
  -2   5  -1  842.02   29.30
  -3  -5  -1   97.69    4.70
   3  -5   1   91.79    4.30
   3  -5   1   98.49    4.20
   3  -5   1   86.59    5.70
   3  -5   1   92.49    4.90
  -3   5  -1   92.79    4.80
  -3   5  -1   92.49    4.80
   3   5   1   95.89    5.70
   3   5   1   92.49    4.20
   3   5   1   80.39    4.30
   3   5   1   90.39    4.20
  -3   5  -1   90.79    4.60
   4  -5   1   24.40    4.20
   4  -5   1   34.70    3.90
  -4  -5  -1   31.70    3.50
   4  -5   1   27.20    2.40
   4  -5   1   26.80    2.90
  -4   5  -1   26.70    3.00
  -4   5  -1   31.80    3.60
   4   5   1   34.20    3.00
   4   5   1   27.60    4.40
  -4   5  -1   28.20    3.60
   4   5   1   29.50    2.60
   5  -5   1   99.79    6.20
  -5  -5  -1   97.19    5.90
   5  -5   1   92.39    7.20
   5  -5   1   92.19    5.50
  -5   5  -1  104.39    5.40
   5   5   1   95.19    7.20
   5   5   1   85.49    5.20
  -5   5  -1   96.29    6.10
   5   5   1   95.49    5.00
  -6  -5  -1   23.50    3.70
   6  -5   1   21.30    3.30
   6  -5   1   35.30    5.20
   6  -5   1   19.40    4.30
   6   5   1   26.80    3.90
   6   5   1   26.30    4.80
  -6   5  -1   25.40    3.90
  -7  -5  -1   10.80    4.50
   7  -5   1    8.00    3.40
   7  -5   1   15.00    4.90
  -7  -5  -1   19.00    3.90
  -7   5  -1   17.40    4.00
   7   5   1   12.20    2.90
   7   5   1   12.50    4.70
   8  -5   1    7.10    5.00
  -8  -5  -1   18.40    5.20
  -8  -5  -1    2.90    3.80
  -8   5  -1    4.20    3.90
   8   5   1   -1.00    4.40
   8   5   1    3.70    2.90
   8  -6  -1    5.20    4.60
  -8  -6   1   -2.00    3.60
   8  -6  -1    3.50    3.30
   8   6  -1    2.30    4.30
   8   6  -1    2.30    2.40
   8   6  -1    2.00    3.80
  -8   6   1   10.80    4.10
  -7  -6   1    1.40    3.30
   7  -6  -1    2.10    3.80
   7  -6  -1   -2.30    2.90
   7  -6  -1    3.20    3.00
   7   6  -1    7.80    3.60
   7   6  -1    4.60    3.80
   7   6  -1    5.70    2.20
  -7   6   1   12.60    3.60
  -7   6   1    4.50    2.90
   6  -6  -1    5.00    2.70
   6  -6  -1    1.20    2.50
   6  -6  -1    0.60    3.30
  -6  -6   1   -0.10    2.70
  -6   6   1    2.30    2.40
  -6   6   1    0.40    2.60
   6   6  -1   -1.60    2.90
   6   6  -1   -2.80    2.60
   6   6  -1   -0.20    1.70
   5  -6  -1   -0.50    2.70
   5  -6  -1   -0.20    2.00
   5  -6  -1   -1.30    2.30
  -5  -6   1   -2.90    2.10
   5   6  -1    0.60    2.30
  -5   6   1    0.00    2.10
  -5   6   1   -0.90    2.10
   5   6  -1    1.70    2.50
  -4  -6   1  589.54   21.90
  -4  -6   1  551.94   21.10
   4  -6  -1  596.84   21.80
   4  -6  -1  625.24   23.50
   4  -6  -1  573.74   21.00
   4  -6  -1  600.24   22.00
   4   6  -1  616.04   21.30
  -4   6   1  590.34   21.90
  -4   6   1  611.04   21.80
   4   6  -1  602.84   22.30
  -4   6   1  571.54   21.70
   4   6  -1  598.14   23.00
   3  -6  -1  296.77   14.80
   3  -6  -1  338.67   13.00
  -3  -6   1  334.47   12.60
  -3  -6   1  350.86   13.10
   3  -6  -1  342.17   13.20
   3   6  -1  371.16   12.80
   3   6  -1  334.27   13.40
  -3   6   1  365.56   12.90
  -3   6   1  361.46   13.20
  -3   6   1  339.57   12.60
  -3   6   1  357.66   13.10
   3   6  -1  352.66   14.10
   2  -6  -1   40.30    4.60
   2  -6  -1   42.90    2.90
   2  -6  -1   47.90    3.10
  -2   6   1   48.30    3.20
  -2   6   1   45.40    3.00
   2   6  -1   54.29    4.00
   2   6  -1   40.50    2.80
   2   6  -1   50.19    2.90
  -2   6   1   45.90    2.60
   2   6  -1   42.60    3.10
  -2   6   1   42.00    2.70
   2   6  -1   48.90    2.70
   1  -6  -1  187.78    7.60
   1  -6  -1  188.48    7.70
   1  -6  -1  196.98    8.60
  -1   6   1  197.48    7.70
   1   6  -1  200.58    7.50
   1   6  -1  208.28    8.40
   1   6  -1  190.28    7.40
   1   6  -1  190.08    7.60
  -1   6   1  201.78    7.60
   1   6  -1  197.78    7.60
  -1   6   1  198.08    7.60
   0  -6   1  485.75   17.90
   0  -6  -1  464.15   17.40
   0  -6   1  493.65   16.90
   0   6   1  465.55   17.10
   0   6  -1  495.95   17.00
   0   6   1  477.35   17.30
   0   6  -1  499.45   17.30
   0   6  -1  468.05   17.00
   0   6  -1  479.15   16.90
   0   6   1  451.45   17.10
   0   6   1  480.15   17.10
   0   6  -1  493.25   17.30
  -1  -6  -1   15.80    2.40
  -1  -6  -1   21.50    1.50
   1  -6   1   26.10    3.20
   1  -6   1   15.70    2.30
  -1   6  -1   13.80    2.10
   1   6   1   16.50    2.20
   1   6   1   14.70    1.70
   1   6   1   16.00    1.60
   1   6   1   14.20    1.90
  -1   6  -1   17.20    2.00
   1   6   1   17.00    3.20
  -1   6  -1   17.10    2.10
  -1   6  -1   17.20    2.20
   2  -6   1  693.93   24.50
   2  -6   1  741.63   25.00
   2  -6   1  739.73   25.20
  -2  -6  -1  665.23   25.40
  -2  -6  -1  645.24   24.80
   2  -6   1  643.14   26.70
   2   6   1  716.23   25.00
  -2   6  -1  745.23   25.10
   2   6   1  704.53   24.70
  -2   6  -1  715.63   25.10
  -2   6  -1  693.33   25.10
   2   6   1  705.93   24.70
   2   6   1  685.43   24.40
   2   6   1  713.23   26.20
   3  -6   1   39.90    2.70
  -3  -6  -1   45.60    3.20
  -3  -6  -1   40.10    3.90
   3  -6   1   42.10    4.60
   3  -6   1   42.80    2.70
   3  -6   1   49.20    3.60
   3   6   1   43.80    4.50
   3   6   1   48.10    3.00
   3   6   1   40.80    2.80
   3   6   1   45.20    2.80
  -3   6  -1   36.80    3.30
  -3   6  -1   44.20    3.40
  -3   6  -1   47.30    3.30
  -4  -6  -1   97.99    6.10
  -4  -6  -1   96.49    5.40
   4  -6   1   95.69    4.80
   4  -6   1   87.19    6.50
   4  -6   1   91.59    4.40
   4  -6   1   92.39    5.60
   4   6   1   91.79    4.70
   4   6   1   94.49    4.60
  -4   6  -1   98.39    5.40
  -4   6  -1   87.19    5.00
  -4   6  -1   97.99    5.40
   4   6   1   92.99    6.60
   5  -6   1    3.60    2.50
   5  -6   1    1.80    3.00
   5  -6   1    1.50    2.10
  -5  -6  -1    7.70    2.60
  -5  -6  -1    3.70    3.20
   5   6   1    2.60    1.80
   5   6   1    1.00    2.80
  -5   6  -1   -0.40    2.00
  -5   6  -1    1.20    2.40
   5   6   1    2.50    1.70
   6  -6   1    8.30    4.00
  -6  -6  -1    6.20    3.00
  -6  -6  -1   13.10    4.00
   6  -6   1    5.10    3.00
   6   6   1    9.00    3.80
   6   6   1    9.30    2.40
  -6   6  -1   13.30    3.40
   7  -6   1   26.30    5.50
  -7  -6  -1   33.60    4.50
  -7  -6  -1   46.10    7.00
   7   6   1   29.60    4.60
   7   6   1   26.60    5.50
  -7   6  -1   31.20    4.50
  -8  -6  -1   62.09    8.60
  -8  -6  -1   71.89    7.50
   8  -6   1   52.59    9.80
   8   6   1   60.19    6.40
  -8   6  -1   63.49    7.50
   8   6   1   57.19    8.80
  -8  -7   1    0.00    3.50
   8  -7  -1   -9.80    3.70
   8   7  -1   -0.20    2.20
  -8   7   1   -3.30    3.60
   8   7  -1   -2.00    3.70
   8   7  -1    0.50    4.10
   7  -7  -1   27.70    4.30
   7  -7  -1   33.70    6.90
  -7  -7   1   38.50    5.80
  -7   7   1   30.90    4.40
   7   7  -1   32.00    5.40
   7   7  -1   30.70    3.70
   7   7  -1   37.50    6.20
  -7   7   1   32.10    4.10
   6  -7  -1   -0.50    2.50
   6  -7  -1    1.70    3.40
  -6  -7   1   -2.10    2.60
   6  -7  -1   -0.20    2.50
   6   7  -1    2.60    1.80
  -6   7   1    0.10    2.60
   6   7  -1    2.00    2.90
  -6   7   1   -1.70    2.40
   6   7  -1    0.40    3.20
  -5  -7   1  350.96   14.10
   5  -7  -1  344.47   13.90
   5  -7  -1  362.06   14.30
   5   7  -1  347.77   14.50
   5   7  -1  342.67   15.40
  -5   7   1  351.56   13.90
  -5   7   1  346.47   13.90
  -4  -7   1  200.58    8.70
   4  -7  -1  220.48    8.90
   4  -7  -1  196.38    8.50
   4  -7  -1  217.28   10.60
  -4  -7   1  181.78    7.70
   4  -7  -1  203.58    7.80
  -4   7   1  199.48    8.50
   4   7  -1  197.28    9.80
   4   7  -1  208.28    8.00
   4   7  -1  191.58    9.00
  -4   7   1  203.28    8.70
  -4   7   1  201.78    8.60
   3  -7  -1   16.30    3.80
   3  -7  -1   22.20    2.90
   3  -7  -1   22.70    2.50
  -3  -7   1   19.70    2.70
   3   7  -1   24.60    2.40
  -3   7   1   21.10    3.00
  -3   7   1   21.50    2.50
   3   7  -1   19.00    3.80
  -3   7   1   21.80    2.30
  -3   7   1   21.30    2.70
   3   7  -1   19.80    3.00
   2  -7  -1  213.38    9.40
   2  -7  -1  192.98    8.00
   2  -7  -1  202.78    7.80
   2   7  -1  195.78    7.80
   2   7  -1  187.78    8.00
  -2   7   1  198.58    7.50
  -2   7   1  184.48    7.70
  -2   7   1  196.68    8.00
   2   7  -1  199.38    8.90
   2   7  -1  199.58    7.70
  -2   7   1  194.58    7.90
   2   7  -1  196.18    7.60
   1  -7  -1  109.49    5.10
   1  -7  -1  116.69    5.00
   1  -7  -1  121.09    6.30
  -1   7   1  116.79    5.10
   1   7  -1  112.39    4.80
   1   7  -1  117.29    4.90
   1   7  -1  112.59    5.00
  -1   7   1  121.39    5.10
   1   7  -1  114.69    5.90
   1   7  -1  119.09    5.10
  -1   7   1  113.49    5.00
   0  -7   1  873.31   29.50
   0  -7  -1  839.22   30.00
   0  -7  -1  837.52   30.80
   0  -7   1  849.32   30.60
   0   7  -1  851.91   29.90
   0   7   1  822.72   29.60
   0   7  -1  831.02   29.60
   0   7   1  840.22   29.70
   0   7  -1  869.61   29.90
   0   7   1  806.72   29.60
   0   7   1  842.52   29.90
   0   7  -1  849.02   29.50
   0   7  -1  854.71   29.60
   1  -7   1  524.15   19.00
   1  -7   1  560.84   20.10
  -1  -7  -1  494.55   19.20
   1   7   1  533.85   19.00
   1   7   1  532.15   20.10
   1   7   1  522.75   18.70
  -1   7  -1  544.25   19.00
  -1   7  -1  543.35   18.90
   1   7   1  502.35   18.70
   1   7   1  520.05   18.60
  -1   7  -1  507.75   18.80
  -1   7  -1  526.25   19.10
  -1   7  -1  530.35   19.00
  -2  -7  -1  204.88    8.30
  -2  -7  -1  209.68    9.10
   2  -7   1  189.28   10.90
   2  -7   1  219.98    8.80
   2  -7   1  229.28    8.50
   2   7   1  224.18    8.20
   2   7   1  224.28    8.60
  -2   7  -1  215.78    8.60
   2   7   1  226.88    9.90
  -2   7  -1  226.78    8.60
  -2   7  -1  223.48    8.70
   2   7   1  207.38    7.90
  -3  -7  -1  100.99    5.10
  -3  -7  -1  104.29    5.90
   3  -7   1  105.39    4.70
   3  -7   1  109.59    7.00
   3  -7   1  113.89    4.90
   3  -7   1  113.09    5.60
  -3   7  -1  106.89    5.30
   3   7   1  102.09    4.70
   3   7   1  107.89    4.80
  -3   7  -1  105.89    5.30
   3   7   1  114.09    6.70
   3   7   1  106.69    5.00
  -3   7  -1  114.29    5.40
   4  -7   1   58.89    4.60
   4  -7   1   53.19    5.60
   4  -7   1   53.99    3.30
   4  -7   1   52.59    3.50
  -4  -7  -1   46.90    4.10
  -4  -7  -1   47.60    5.10
   4   7   1   52.89    3.50
   4   7   1   46.50    5.40
  -4   7  -1   53.59    4.30
  -4   7  -1   57.49    4.40
   4   7   1   46.90    3.40
  -4   7  -1   48.00    4.00
  -5  -7  -1    4.70    3.30
   5  -7   1    4.40    3.20
  -5  -7  -1    2.10    2.40
   5  -7   1    1.60    2.50
  -5   7  -1    4.40    2.30
  -5   7  -1    2.90    2.50
   5   7   1    5.80    3.30
   5   7   1    5.70    1.80
   5   7   1    6.80    2.00
   6  -7   1   11.50    4.10
  -6  -7  -1   21.00    4.60
  -6  -7  -1   10.20    3.20
  -6   7  -1   14.10    2.90
   6   7   1   14.70    2.60
  -6   7  -1   16.50    3.40
   6   7   1    9.80    4.20
   7  -7   1   70.99    8.50
  -7  -7  -1   69.89    6.70
  -7  -7  -1   85.59    8.40
  -7   7  -1   74.59    6.90
   7   7   1   55.99    5.30
   7   7   1   65.19    8.20
  -8  -7  -1   10.80    5.70
  -8  -7  -1    0.10    3.60
  -8   7  -1    0.10    3.90
   8  -8  -1    2.00    4.50
  -8  -8   1   -3.40    3.60
   8   8  -1   -7.20    3.90
  -8   8   1   -0.80    3.50
   8   8  -1    5.10    4.20
  -7  -8   1   13.90    3.80
   7  -8  -1   18.50    5.00
   7   8  -1   28.50    4.60
  -7   8   1   24.80    4.10
   7   8  -1   29.50    5.60
  -7   8   1   27.70    4.00
   6  -8  -1   67.19    6.50
  -6  -8   1   65.19    5.90
   6  -8  -1   60.79    5.30
   6  -8  -1   60.39    7.20
  -6   8   1   69.89    5.70
   6   8  -1   64.39    6.90
   6   8  -1   86.09    6.60
  -6   8   1   64.99    5.60
   5  -8  -1    7.20    3.50
   5  -8  -1    2.70    2.60
  -5  -8   1    1.60    2.30
   5  -8  -1    0.50    2.10
   5   8  -1    8.10    2.80
  -5   8   1    4.50    2.30
   5   8  -1    5.90    3.20
  -5   8   1    4.90    2.40
   4  -8  -1   -0.30    1.60
  -4  -8   1   -1.00    1.90
   4  -8  -1    0.20    1.10
   4  -8  -1    5.50    3.50
  -4  -8   1   -0.50    1.00
   4  -8  -1    0.20    1.90
   4   8  -1   -0.90    2.00
   4   8  -1   -1.00    1.30
   4   8  -1   -2.80    2.10
  -4   8   1    2.10    1.90
  -4   8   1   -0.40    1.90
  -4   8   1    1.60    1.80
   3  -8  -1  119.69    5.90
  -3  -8   1  111.29    5.50
   3  -8  -1   88.39    8.00
   3  -8  -1  112.29    5.40
   3   8  -1  126.09    5.10
   3   8  -1  121.79    6.00
  -3   8   1  121.39    5.80
   3   8  -1  120.59    5.40
  -3   8   1  118.49    5.30
  -3   8   1  124.49    5.30
  -3   8   1  122.79    5.70
   3   8  -1  123.09    6.80
   2  -8  -1 2128.99   75.19
   2  -8  -1 2243.88   76.49
   2  -8  -1 2097.89   74.99
  -2   8   1 2088.79   74.99
   2   8  -1 2156.68   74.89
   2   8  -1 2335.77   76.19
  -2   8   1 2133.19   75.09
  -2   8   1 2092.69   74.59
  -2   8   1 2165.28   75.19
   2   8  -1 2168.98   74.89
   2   8  -1 2144.49   75.09
   2   8  -1 2100.59   75.19
  -1  -8   1 2581.24   91.49
   1  -8  -1 2491.05   91.49
  -1  -8   1 2718.33   92.59
   1  -8  -1 2624.04   91.59
   1  -8  -1 2696.23   92.69
   1   8  -1 2729.33   91.69
   1   8  -1 2599.64   91.29
  -1   8   1 2505.75   91.49
   1   8  -1 2714.53   91.59
  -1   8   1 2734.13   91.69
  -1   8   1 2597.64   91.49
  -1   8   1 2654.93   91.59
   0  -8   1  114.79    4.50
   0  -8  -1  110.89    5.10
   0  -8   1  107.79    5.90
   0  -8  -1  115.89    6.30
   0   8  -1  110.29    4.60
   0   8  -1  116.39    5.00
   0   8   1  104.49    4.70
   0   8   1  102.49    5.00
   0   8   1  112.19    4.90
   0   8   1  109.89    4.70
   0   8  -1  115.89    4.60
   0   8  -1  111.59    4.70
   0   8  -1  106.29    5.00
  -1  -8  -1   -0.90    1.50
   1  -8   1    5.80    2.10
   1  -8   1    3.80    1.40
   1   8   1    3.20    1.00
   1   8   1    2.70    1.00
   1   8   1    2.20    2.00
  -1   8  -1    2.70    1.30
   1   8   1    2.60    1.40
  -1   8  -1    1.30    1.20
  -1   8  -1    1.40    1.10
  -1   8  -1    5.20    1.30
  -1   8  -1    4.20    1.40
   1   8   1    2.40    1.10
  -2  -8  -1   67.99    4.60
   2  -8   1   98.59    4.10
  -2  -8  -1   65.39    3.50
   2   8   1   73.19    3.50
   2   8   1   72.89    4.00
   2   8   1   76.89    3.50
   2   8   1   71.49    3.30
   2   8   1   81.19    5.50
   3  -8   1    4.10    1.40
   3  -8   1    2.70    1.80
  -3  -8  -1    0.70    1.50
  -3  -8  -1    7.80    2.40
   3  -8   1    4.80    3.00
   3  -8   1    3.50    1.20
  -3   8  -1    6.10    1.80
   3   8   1    4.30    1.30
  -3   8  -1    5.70    1.80
  -3   8  -1    5.40    1.80
   3   8   1    1.40    2.40
   3   8   1    4.10    1.60
   3   8   1    5.20    1.30
   4  -8   1  244.28   12.10
  -4  -8  -1  249.78   11.20
   4  -8   1  247.78    9.70
  -4  -8  -1  243.18   10.20
   4  -8   1  252.77   10.60
   4   8   1  232.58    9.50
   4   8   1  250.27    9.80
  -4   8  -1  237.68   10.30
  -4   8  -1  242.78   10.20
  -4   8  -1  245.18   10.30
   4   8   1  238.18   11.90
  -5  -8  -1  157.28    9.00
  -5  -8  -1  161.08    7.90
   5  -8   1  151.28    9.70
   5   8   1  158.88    7.00
  -5   8  -1  152.78    7.90
   5   8   1  147.89    7.00
   5   8   1  152.98    9.70
  -5   8  -1  151.48    7.50
   6  -8   1   -1.00    3.50
  -6  -8  -1    1.50    3.70
  -6  -8  -1   -1.40    2.70
  -6   8  -1    3.40    2.60
  -6   8  -1    1.60    2.80
   6   8   1    0.70    2.10
   6   8   1   -2.50    3.40
  -7  -8  -1    6.10    3.40
   7  -8   1    5.10    4.40
  -7  -8  -1   11.00    4.70
   7   8   1   -0.30    3.90
  -7   8  -1    2.50    3.30
   7   8   1    2.70    2.40
  -8  -8  -1   42.40    6.90
  -8  -9   1  213.58   11.80
   8  -9  -1  219.08   14.20
  -8   9   1  207.28   11.40
   8   9  -1  205.98   13.50
   7  -9  -1   14.70    5.00
  -7  -9   1   18.50    4.00
  -7   9   1   17.00    3.90
   7   9  -1   17.20    4.70
   7   9  -1   11.50    3.90
  -7   9   1   11.40    3.50
  -6  -9   1   51.39    5.50
   6  -9  -1   48.50    7.20
  -6   9   1   56.09    5.30
   6   9  -1   51.59    5.80
   6   9  -1   52.59    6.80
  -6   9   1   57.99    5.50
   5  -9  -1    1.90    2.00
  -5  -9   1    5.40    2.50
   5  -9  -1    3.00    3.60
   5   9  -1    5.10    2.80
  -5   9   1    2.90    2.20
  -5   9   1    6.90    2.60
   5   9  -1    1.80    3.00
   4  -9  -1   10.50    1.70
  -4  -9   1    7.40    1.40
  -4  -9   1    4.50    2.10
   4  -9  -1   10.20    2.10
   4  -9  -1    7.30    3.80
   4  -9  -1    9.00    2.40
  -4   9   1    7.60    2.00
   4   9  -1    7.30    2.60
  -4   9   1    7.70    2.20
   4   9  -1    9.60    1.90
  -4   9   1    3.80    2.20
   4   9  -1    6.00    2.90
   3  -9  -1  726.53   26.40
   3  -9  -1  721.43   26.00
  -3  -9   1  704.03   26.00
   3  -9  -1  679.03   28.90
  -3   9   1  754.22   26.30
   3   9  -1  730.53   25.80
   3   9  -1  737.03   26.50
  -3   9   1  721.13   26.30
  -3   9   1  702.83   25.90
   3   9  -1  728.33   27.50
  -3   9   1  737.03   25.80
   3   9  -1  722.33   26.00
   2  -9  -1  574.24   21.40
   2  -9  -1  576.14   21.20
   2  -9  -1  602.64   22.80
   2   9  -1  573.54   21.00
  -2   9   1  564.84   20.80
   2   9  -1  588.54   22.50
  -2   9   1  590.44   21.40
  -2   9   1  614.04   21.30
   2   9  -1  599.04   21.40
  -2   9   1  607.24   21.40
   2   9  -1  566.54   21.10
   1  -9  -1 1072.79   39.40
   1  -9  -1 1143.19   40.80
  -1  -9   1 1130.69   40.60
   1  -9  -1 1134.49   39.40
  -1  -9   1 1110.19   39.40
  -1   9   1 1105.99   39.50
   1   9  -1 1146.99   39.40
  -1   9   1 1076.59   39.40
   1   9  -1 1111.29   39.10
  -1   9   1 1086.49   39.50
  -1   9   1 1146.69   39.40
   1   9  -1 1149.39   39.60
   0  -9  -1   34.30    4.20
   0  -9   1   42.00    2.30
   0  -9  -1   28.90    2.80
   0  -9   1   30.30    3.60
   0   9  -1   35.60    2.30
   0   9   1   41.60    2.90
   0   9  -1   34.20    2.40
   0   9   1   31.40    2.40
   0   9  -1   33.60    2.30
   0   9  -1   42.20    2.90
   0   9   1   36.00    2.60
   0   9   1   32.40    2.40
   0   9  -1   36.20    2.80
  -1  -9  -1  876.91   33.30
   1  -9   1  961.50   34.30
  -1   9  -1  958.80   32.80
  -1   9  -1  998.40   33.30
  -1   9  -1  911.01   32.90
   1   9   1  890.11   32.60
  -1   9  -1  907.91   33.10
   1   9   1  945.91   34.40
   1   9   1  928.91   32.70
   1   9   1  915.21   32.80
  -1   9  -1  926.21   33.00
   1   9   1  965.70   33.20
  -2  -9  -1   17.90    1.90
   2  -9   1   15.60    3.60
   2  -9   1   17.20    2.30
  -2  -9  -1   19.40    3.20
   2  -9   1   18.50    2.40
  -2   9  -1   19.60    2.50
   2   9   1   20.70    3.30
   2   9   1   21.40    2.60
  -2   9  -1   14.10    2.00
   2   9   1   21.30    1.90
  -2   9  -1   17.80    2.60
   2   9   1   17.40    2.00
   2   9   1   20.90    2.00
  -3  -9  -1    9.30    1.80
  -3  -9  -1   11.00    2.70
   3  -9   1    5.50    3.30
   3  -9   1   12.10    1.90
  -3   9  -1   10.30    2.10
   3   9   1    9.80    1.90
   3   9   1   10.00    2.90
  -3   9  -1   14.00    2.10
  -3   9  -1   10.40    2.10
   4  -9   1    1.40    1.50
  -4  -9  -1    3.50    2.80
  -4  -9  -1    1.90    2.00
   4  -9   1    5.90    3.40
  -4   9  -1    0.70    2.00
   4   9   1   -1.60    1.60
   4   9   1    0.50    2.90
  -4   9  -1   -0.90    1.90
   4   9   1    1.50    1.40
  -4   9  -1    1.70    2.10
  -5  -9  -1  235.68   12.00
   5  -9   1  247.88   13.10
  -5  -9  -1  251.37   10.90
   5   9   1  251.07   13.00
   5   9   1  238.18   10.20
   5   9   1  245.18    9.90
  -5   9  -1  249.48   10.70
  -5   9  -1  257.27   11.10
  -6  -9  -1    1.80    4.00
   6  -9   1    6.90    4.20
  -6  -9  -1    7.10    3.10
  -6   9  -1    9.40    3.00
   6   9   1    4.40    2.10
   6   9   1    7.20    4.10
  -6   9  -1   10.40    3.30
  -7  -9  -1   82.19    7.10
  -7  -9  -1   89.39    9.10
   7  -9   1   71.39    9.00
   7   9   1   87.59    9.20
  -7   9  -1   66.09    7.10
   7   9   1   81.39    5.50
  -8 -10   1   49.40    7.20
   8  10  -1   51.29    8.20
  -8  10   1   34.00    5.10
  -7 -10   1    0.30    3.30
   7 -10  -1   -3.60    3.90
   7  10  -1   -5.10    3.40
  -7  10   1   -2.30    3.00
  -7  10   1   -1.00    3.10
   6 -10  -1   96.99    8.90
  -6 -10   1   89.09    6.70
   6  10  -1   91.49    8.10
   6  10  -1   93.29    7.40
  -6  10   1   92.99    6.70
  -6  10   1   88.69    6.30
  -5 -10   1   49.40    5.00
   5 -10  -1   47.90    7.70
  -5  10   1   54.09    5.00
  -5  10   1   53.79    4.50
   5  10  -1   52.89    5.50
   5  10  -1   43.10    6.20
  -4 -10   1  143.79    6.50
   4 -10  -1  172.28   12.20
   4 -10  -1  156.68    6.80
   4 -10  -1  156.08    7.10
  -4 -10   1  152.08    7.30
   4  10  -1  172.08    7.20
  -4  10   1  161.88    7.60
  -4  10   1  164.48    7.70
   4  10  -1  161.78    9.20
   4  10  -1  156.58    8.10
  -4  10   1  152.58    7.00
   3 -10  -1  646.94   24.60
  -3 -10   1  666.33   24.80
  -3  10   1  672.93   24.70
   3  10  -1  711.53   24.90
  -3  10   1  687.23   25.00
   3  10  -1  684.03   26.40
  -3  10   1  698.13   25.10
   3  10  -1  699.33   25.40
   3  10  -1  689.43   24.60
  -3  10   1  684.33   24.50
   2 -10  -1  529.35   20.20
   2 -10  -1  493.15   18.60
   2 -10  -1  488.55   18.30
  -2 -10   1  518.45   18.80
  -2  10   1  518.75   18.70
  -2  10   1  482.35   17.90
  -2  10   1  491.65   18.50
   2  10  -1  490.45   18.20
   2  10  -1  514.75   18.60
   2  10  -1  492.45   18.30
  -2  10   1  494.75   18.50
   2  10  -1  513.55   19.90
  -1 -10   1  122.69    6.80
   1 -10  -1  120.29    7.00
   1 -10  -1  123.09    5.60
  -1 -10   1  126.49    5.60
   1 -10  -1  134.99    5.70
  -1  10   1  125.59    5.70
   1  10  -1  124.99    5.60
   1  10  -1  129.99    5.90
   1  10  -1  123.99    5.30
  -1  10   1  127.59    5.70
  -1  10   1  127.79    5.60
  -1  10   1  115.19    5.40
   0 -10  -1   32.20    4.00
   0 -10   1   44.00    2.40
   0 -10  -1   35.50    3.00
   0 -10   1   32.70    3.90
   0  10   1   30.10    2.60
   0  10  -1   33.00    2.40
   0  10   1   30.00    2.50
   0  10  -1   33.30    2.90
   0  10  -1   36.10    2.90
   0  10   1   34.60    2.90
   0  10  -1   34.00    2.40
   0  10  -1   37.50    2.30
   0  10   1   33.60    2.50
   1 -10   1  927.21   33.00
  -1 -10  -1  852.81   31.90
  -1  10  -1  892.11   31.50
  -1  10  -1  907.21   31.70
   1  10   1  901.81   33.10
   1  10   1  843.92   31.10
  -1  10  -1  951.10   31.80
  -1  10  -1  855.11   31.40
  -1  10  -1  898.91   31.30
   1  10   1  822.72   31.30
   1  10   1  906.91   31.80
   1  10   1  875.81   31.20
  -2 -10  -1  398.46   14.90
  -2 -10  -1  401.06   15.90
   2 -10   1  425.36   15.40
   2 -10   1  427.56   17.90
   2  10   1  388.06   14.80
   2  10   1  409.16   14.90
  -2  10  -1  408.36   15.60
   2  10   1  401.36   17.00
  -2  10  -1  419.56   15.40
  -2  10  -1  417.16   15.20
   2  10   1  412.86   15.50
  -3 -10  -1  186.68    7.70
   3 -10   1  154.28   11.10
  -3 -10  -1  189.38    8.90
   3 -10   1  184.18    7.80
  -3  10  -1  187.18    8.20
   3  10   1  189.48    8.00
   3  10   1  187.48    9.90
  -3  10  -1  190.58    7.90
  -3  10  -1  175.48    8.10
   4 -10   1  251.17   13.00
  -4 -10  -1  223.48   10.00
   4 -10   1  242.78    9.80
  -4 -10  -1  246.48   11.40
  -4  10  -1  242.18   10.40
   4  10   1  239.48   12.20
  -4  10  -1  241.98   10.40
   4  10   1  244.08   10.00
  -4  10  -1  240.18   10.20
   5 -10   1   94.19    8.30
  -5 -10  -1   93.49    6.10
  -5 -10  -1  101.09    7.90
  -5  10  -1   94.69    6.30
   5  10   1   93.09    8.10
  -5  10  -1  101.39    6.20
   5  10   1   93.79    5.40
   6 -10   1   11.40    4.60
  -6 -10  -1   16.50    3.50
  -6 -10  -1   20.80    4.80
  -6  10  -1   15.30    3.70
   6  10   1   12.90    4.40
  -6  10  -1   21.10    3.50
  -7 -10  -1  169.48   11.30
  -7 -10  -1  151.08    9.30
   7 -10   1  142.09   11.70
   7  10   1  159.28   11.70
  -7  10  -1  136.99    9.30
  -7 -11   1   30.40    4.60
   7 -11  -1   20.90    5.50
  -7 -11   1   39.00    6.10
  -7  11   1   31.10    4.50
  -7  11   1   31.00    4.30
   7  11  -1   28.30    5.60
  -6 -11   1    6.80    3.10
   6 -11  -1    2.30    4.10
   6  11  -1    1.20    3.50
  -6  11   1    5.70    3.20
  -6  11   1    8.50    2.90
   5 -11  -1  283.47   14.30
  -5 -11   1  229.88   10.80
  -5  11   1  234.58   10.50
   5  11  -1  232.68   12.50
  -5  11   1  260.57   11.10
   4 -11  -1   13.20    3.00
   4 -11  -1    7.30    4.70
  -4 -11   1    8.30    2.20
  -4 -11   1   13.60    2.20
   4  11  -1   15.00    2.30
  -4  11   1   17.30    2.90
  -4  11   1   12.10    2.60
  -4  11   1   12.80    2.20
   4  11  -1   10.80    3.40
   3 -11  -1  344.27   13.30
  -3 -11   1  341.57   13.30
  -3 -11   1  347.37   14.10
   3 -11  -1  321.17   16.60
   3  11  -1  352.26   13.20
   3  11  -1  343.47   15.20
  -3  11   1  357.16   13.80
  -3  11   1  350.96   13.40
  -3  11   1  353.66   13.00
  -3  11   1  361.76   13.80
   3  11  -1  349.37   13.50
  -2 -11   1    9.90    2.00
   2 -11  -1    7.40    2.60
   2 -11  -1    5.50    1.60
  -2  11   1    8.10    1.90
   2  11  -1    5.40    2.60
   2  11  -1    5.10    1.50
   2  11  -1    7.00    1.60
   2  11  -1    6.20    1.90
  -2  11   1    5.10    1.70
  -2  11   1    4.90    1.70
   1 -11  -1  108.19    6.80
  -1 -11   1  110.99    5.00
   1 -11  -1  108.19    5.00
  -1 -11   1   99.79    6.50
  -1  11   1  108.79    5.30
   1  11  -1   98.29    5.10
  -1  11   1   98.79    5.10
   1  11  -1  102.09    4.60
   1  11  -1  109.19    5.30
  -1  11   1  105.59    5.00
   0 -11   1  184.58    6.90
   0 -11  -1  166.08    8.90
   0 -11   1  187.68    8.90
   0 -11  -1  178.08    7.60
   0  11   1  162.08    7.00
   0  11  -1  173.38    6.90
   0  11   1  164.98    7.00
   0  11  -1  175.28    6.90
   0  11  -1  177.68    7.50
   0  11   1  176.68    7.30
   0  11  -1  176.38    6.90
   0  11  -1  182.08    7.50
   0  11   1  166.08    7.50
   1 -11   1    3.80    2.40
  -1 -11  -1    0.80    1.70
   1  11   1    2.20    1.10
  -1  11  -1    0.40    1.50
   1  11   1    2.80    1.30
   1  11   1    0.40    1.50
   1  11   1    2.30    1.10
  -1  11  -1    1.30    1.70
  -1  11  -1    3.70    1.40
  -1  11  -1    4.20    1.40
  -2 -11  -1   22.20    3.70
   2 -11   1   29.70    5.20
  -2 -11  -1   22.70    2.10
  -2  11  -1   16.70    2.40
  -2  11  -1   22.00    3.00
   2  11   1   23.80    3.10
   2  11   1   21.80    2.30
  -2  11  -1   23.60    2.70
   2  11   1   23.30    4.60
  -3 -11  -1    2.90    2.50
  -3 -11  -1    0.10    1.50
   3 -11   1    1.30    1.60
   3 -11   1   -3.60    3.70
   3  11   1    0.20    2.60
  -3  11  -1    1.70    1.70
  -3  11  -1    4.60    2.10
   3  11   1    1.20    1.80
  -3  11  -1    4.50    2.00
   4 -11   1    3.90    3.90
  -4 -11  -1   -0.60    1.90
  -4 -11  -1    1.30    3.00
   4 -11   1    5.20    1.80
  -4  11  -1    4.10    2.20
   4  11   1    0.90    3.00
  -4  11  -1    4.60    2.40
   4  11   1    1.90    1.90
  -4  11  -1    1.00    2.30
  -5 -11  -1   48.60    5.00
   5 -11   1   58.09    7.70
  -5 -11  -1   47.70    6.80
  -5  11  -1   56.49    5.20
   5  11   1   61.19    7.10
  -5  11  -1   55.29    5.00
   5  11   1   60.99    4.50
  -6 -11  -1   37.50    5.30
   6 -11   1   48.10    7.60
  -6 -11  -1   48.50    7.50
  -6  11  -1   37.70    5.30
  -6  11  -1   42.10    5.50
   6  11   1   50.39    7.50
  -7 -11  -1   -0.80    4.50
   7 -11   1   -2.80    4.30
  -7 -11  -1   -0.10    3.30
   7  11   1    4.90    4.50
  -7  11  -1    0.60    3.30
  -7 -12   1   74.39    7.20
  -7 -12   1   84.59    8.60
   7 -12  -1   75.69    9.30
  -7  12   1   86.99    7.10
   7  12  -1   65.29    8.50
   6 -12  -1   96.29    9.70
  -6 -12   1  102.69    8.70
  -6 -12   1  108.69    7.30
  -6  12   1  114.09    7.40
   6  12  -1   95.39    8.70
   5 -12  -1   17.40    5.40
  -5 -12   1    9.10    3.70
  -5 -12   1   13.30    2.90
  -5  12   1   21.20    3.40
   5  12  -1   13.60    4.00
   4 -12  -1  472.75   24.20
  -4 -12   1  529.25   19.80
  -4 -12   1  532.55   20.80
   4  12  -1  522.95   19.70
  -4  12   1  547.55   20.10
  -4  12   1  540.15   20.20
   4  12  -1  510.45   21.80
  -3 -12   1 1593.84   57.89
  -3 -12   1 1703.33   58.69
   3 -12  -1 1615.04   57.79
   3 -12  -1 1652.53   61.19
  -3  12   1 1657.73   58.39
  -3  12   1 1687.63   58.19
   3  12  -1 1647.34   58.19
  -3  12   1 1663.23   57.99
   3  12  -1 1665.13   57.79
   3  12  -1 1575.54   59.79
   2 -12  -1   88.49    6.70
  -2 -12   1   98.89    5.10
   2 -12  -1   82.59    4.60
  -2  12   1   94.39    5.00
  -2  12   1   83.19    5.00
  -2  12   1   90.09    5.10
   2  12  -1   97.59    5.20
   2  12  -1   86.89    4.80
   2  12  -1   89.89    4.50
   1 -12  -1  225.98   10.90
  -1 -12   1  228.68   10.60
   1 -12  -1  215.68    8.90
  -1 -12   1  222.78    8.80
   1  12  -1  211.08    8.40
  -1  12   1  212.78    8.70
  -1  12   1  216.08    9.10
   1  12  -1  208.78    9.10
  -1  12   1  206.68    9.00
   1  12  -1  226.88    9.00
   0 -12  -1   65.39    4.10
   0 -12   1   70.09    3.50
   0 -12  -1   69.79    5.80
   0 -12   1   69.99    5.70
   0  12   1   64.09    3.60
   0  12  -1   62.69    3.40
   0  12  -1   62.19    4.00
   0  12  -1   71.29    4.20
   0  12  -1   64.89    3.50
   0  12   1   69.29    4.00
   0  12   1   67.89    4.30
   0  12  -1   62.79    3.40
  -1 -12  -1    1.20    1.70
  -1 -12  -1    5.00    2.70
   1 -12   1    3.70    2.50
  -1  12  -1    5.40    1.50
   1  12   1    4.40    1.30
   1  12   1    1.10    1.20
  -1  12  -1    3.50    1.90
  -1  12  -1    3.70    1.50
  -1  12  -1    1.80    1.70
   1  12   1    2.90    1.40
   1  12   1    0.70    1.70
  -2 -12  -1  156.88    8.30
   2 -12   1  184.08   10.30
  -2  12  -1  180.78    7.70
   2  12   1  172.68    9.60
  -2  12  -1  171.88    7.90
  -2  12  -1  182.08    7.50
   2  12   1  174.88    7.30
   2  12   1  177.38    7.90
   3 -12   1  323.77   12.70
   3 -12   1  277.77   16.30
  -3 -12  -1  323.57   13.80
   3  12   1  313.07   14.90
  -3  12  -1  332.47   12.60
   3  12   1  335.27   13.00
  -3  12  -1  322.77   12.90
  -3  12  -1  329.67   13.10
   4 -12   1    4.10    1.90
  -4 -12  -1    0.20    2.60
  -4 -12  -1    3.70    3.20
   4 -12   1    8.40    4.70
  -4  12  -1    5.40    2.40
   4  12   1    6.50    3.50
  -4  12  -1    4.30    2.20
  -4  12  -1    3.30    2.50
   4  12   1    5.90    2.10
  -5 -12  -1   38.50    6.50
   5 -12   1   44.50    8.00
  -5  12  -1   33.70    4.70
   5  12   1   30.50    4.10
   5  12   1   43.20    6.80
  -5  12  -1   37.50    5.00
  -6 -12  -1   49.80    7.40
   6 -12   1   32.40    6.30
   6  12   1   45.50    7.70
  -6  12  -1   42.40    5.60
  -6  12  -1   45.80    5.70
  -7 -12  -1   14.50    5.40
   7 -12   1    7.60    5.20
  -7  12  -1   10.00    3.70
   7  12   1    0.40    4.20
   7 -13  -1  152.58   12.50
  -7 -13   1  201.08   11.80
  -7  13   1  163.38    9.70
   7  13  -1  155.58   11.70
  -6 -13   1   72.69    6.70
   6 -13  -1  110.79   10.90
  -6 -13   1   85.99    8.20
   6  13  -1   77.49    8.10
  -6  13   1   77.59    6.80
   5 -13  -1    7.80    5.60
  -5 -13   1    2.70    2.60
  -5 -13   1    4.90    3.50
  -5  13   1    0.90    2.90
   5  13  -1    1.60    3.20
   4 -13  -1   51.19   10.40
  -4 -13   1   36.50    3.70
  -4 -13   1   28.30    4.10
   4  13  -1   39.70    4.10
   4  13  -1   37.00    6.10
  -4  13   1   40.90    4.60
  -4  13   1   44.90    4.70
  -3 -13   1  924.51   33.10
   3 -13  -1  919.81   35.80
  -3 -13   1  845.32   32.20
  -3  13   1  911.21   32.60
   3  13  -1  899.61   32.70
  -3  13   1  905.91   32.90
  -3  13   1  925.11   32.60
   3  13  -1  857.01   34.40
   3  13  -1  903.21   32.30
  -2 -13   1 1039.30   37.30
   2 -13  -1  992.00   36.80
   2 -13  -1 1028.30   39.10
  -2 -13   1 1079.19   39.20
  -2  13   1 1056.99   37.20
   2  13  -1 1017.80   37.30
  -2  13   1 1062.29   37.10
  -2  13   1 1028.30   37.30
   2  13  -1 1011.70   36.60
   2  13  -1 1041.10   37.00
  -1 -13   1  178.68    9.60
  -1 -13   1  186.58    7.60
   1 -13  -1  176.38    7.60
   1 -13  -1  169.28    9.60
   1  13  -1  170.38    7.70
   1  13  -1  171.58    7.10
  -1  13   1  178.28    7.50
  -1  13   1  186.08    8.00
  -1  13   1  171.58    7.70
   1  13  -1  173.58    8.00
   0 -13   1   73.49    5.90
   0 -13  -1   59.89    4.20
   0 -13  -1   67.19    6.10
   0 -13   1   64.69    3.50
   0  13   1   62.39    3.90
   0  13  -1   60.19    3.40
   0  13  -1   63.89    3.50
   0  13  -1   63.89    4.30
   0  13   1   63.49    3.70
   0  13  -1   61.19    4.20
   0  13   1   59.99    4.30
  -1 -13  -1   27.80    3.50
  -1 -13  -1   32.30    5.40
   1 -13   1   43.90    5.30
  -1  13  -1   31.50    3.50
  -1  13  -1   35.80    3.00
  -1  13  -1   35.90    3.60
  -1  13  -1   33.20    2.80
   1  13   1   32.50    2.60
   1  13   1   35.40    3.70
   1  13   1   34.70    3.00
   2 -13   1   28.20    5.00
  -2 -13  -1   19.00    3.20
   2  13   1   23.90    4.10
  -2  13  -1   25.20    3.50
  -2  13  -1   25.50    3.30
   2  13   1   24.50    3.60
  -2  13  -1   24.00    2.90
   2  13   1   23.20    2.70
   3 -13   1  261.97   10.80
   3 -13   1  226.18   15.60
  -3 -13  -1  261.17   11.90
  -3  13  -1  255.77   11.00
   3  13   1  262.47   11.10
   3  13   1  257.67   13.20
  -3  13  -1  271.67   11.30
  -3  13  -1  279.87   10.80
   4 -13   1   26.10    6.00
   4 -13   1   24.20    3.40
  -4 -13  -1   30.40    4.40
  -4  13  -1   24.40    3.40
   4  13   1   24.10    4.70
   4  13   1   25.20    3.70
  -4  13  -1   29.10    4.00
  -4  13  -1   19.60    3.20
   5 -13   1    0.30    4.40
  -5 -13  -1    0.80    3.70
  -5  13  -1    3.00    2.60
   5  13   1   -0.90    2.10
  -5  13  -1   -2.80    2.60
   5  13   1    0.90    3.50
   6 -13   1   79.59    9.70
  -6 -13  -1   84.79    8.80
   6  13   1   80.39    8.90
  -6  13  -1   79.29    6.60
  -6  13  -1   84.49    6.80
   7 -14  -1   17.40    6.60
  -7 -14   1    8.80    5.00
  -7  14   1   15.20    4.00
   7  14  -1    8.60    4.80
   6 -14  -1   70.39   10.80
  -6 -14   1   53.19    7.40
  -6  14   1   48.80    6.00
   6  14  -1   49.99    7.60
   5 -14  -1   -0.70    5.20
  -5 -14   1   -4.20    3.00
  -5  14   1    4.80    4.60
   5  14  -1   -2.10    3.10
  -5  14   1    4.40    3.10
   4 -14  -1    9.10    6.00
  -4 -14   1    8.00    3.10
   4  14  -1   12.50    2.60
   4  14  -1   10.70    3.80
  -4  14   1   10.10    2.90
  -4  14   1    7.60    2.70
  -3 -14   1  508.25   18.90
   3 -14  -1  477.75   21.80
   3  14  -1  449.76   17.90
  -3  14   1  476.35   18.30
   3  14  -1  471.55   20.40
  -3  14   1  490.15   18.60
  -3  14   1  469.45   18.30
   3  14  -1  476.75   18.40
  -2 -14   1   69.29    4.60
  -2 -14   1   68.29    6.80
   2 -14  -1   63.99    6.60
  -2  14   1   64.69    4.60
  -2  14   1   62.69    4.80
   2  14  -1   64.39    4.40
  -2  14   1   70.39    4.80
   2  14  -1   76.59    5.00
   1 -14  -1  562.84   20.80
  -1 -14   1  607.94   23.00
  -1 -14   1  543.65   20.70
   1 -14  -1  554.64   23.00
  -1  14   1  555.04   21.00
  -1  14   1  533.95   20.60
   1  14  -1  552.24   20.90
   1  14  -1  565.64   21.10
  -1  14   1  570.14   21.10
   0 -14  -1  145.89    8.80
   0 -14   1  146.89    8.60
   0 -14  -1  126.09    6.60
   0  14   1  134.59    6.00
   0  14   1  132.39    6.80
   0  14  -1  134.79    6.70
   0  14   1  139.29    6.40
   0  14  -1  133.99    6.80
   0  14  -1  132.69    5.80
  -1 -14  -1   34.10    3.70
   1 -14   1   35.20    5.80
  -1 -14  -1   28.60    5.50
  -1  14  -1   38.20    3.70
   1  14   1   34.40    3.20
  -1  14  -1   40.10    3.20
  -1  14  -1   36.60    3.70
   1  14   1   34.20    3.70
   1  14   1   37.60    2.80
   2 -14   1  291.07   13.90
  -2 -14  -1  263.37   11.60
  -2  14  -1  258.57   11.20
   2  14   1  263.57   13.20
   2  14   1  257.57   11.10
   2  14   1  255.17   10.40
  -2  14  -1  250.97   10.70
  -3 -14  -1    5.10    2.90
   3 -14   1   -2.00    1.70
   3 -14   1   -1.50    5.10
  -3  14  -1    1.80    2.20
  -3  14  -1    1.10    2.20
   3  14   1    1.70    3.20
   3  14   1    2.90    2.10
  -4 -14  -1   28.40    4.40
   4 -14   1   35.60    6.80
   4 -14   1   29.70    3.60
   4  14   1   29.30    4.10
  -4  14  -1   31.90    4.60
  -4  14  -1   26.40    3.50
   4  14   1   30.50    5.30
  -5 -14  -1   32.20    5.30
   5 -14   1   28.00    6.30
  -5  14  -1   36.10    5.10
   5  14   1   27.00    5.40
  -5  14  -1   23.00    4.10
   5  14   1   31.10    4.20
   6 -14   1   42.60    7.40
  -6 -14  -1   46.30    6.40
   6  14   1   44.10    8.00
  -6  14  -1   47.80    6.10
  -7  15   1  207.08   12.20
  -6 -15   1   -1.00    3.90
   6 -15  -1    8.20    6.20
   6  15  -1   -0.90    3.60
  -6  15   1   -2.60    3.20
  -5 -15   1  446.56   19.00
   5 -15  -1  488.85   23.10
  -5  15   1  457.85   18.30
  -5  15   1  406.26   19.00
   5  15  -1  404.16   20.00
   4 -15  -1   19.60    7.00
  -4 -15   1   22.20    3.90
   4  15  -1   18.90    3.10
  -4  15   1   19.10    3.30
   4  15  -1   22.60    4.60
  -4  15   1   23.20    3.60
  -3 -15   1   -0.10    2.10
   3 -15  -1   -3.10    4.30
  -3  15   1    1.80    2.20
   3  15  -1   -2.50    2.00
   3  15  -1    2.00    1.80
  -3  15   1    1.80    2.20
  -3  15   1    1.50    2.10
  -2 -15   1  224.28   11.80
   2 -15  -1  210.18   11.80
  -2 -15   1  214.68    9.40
   2  15  -1  206.38    9.50
  -2  15   1  212.98    9.50
   2  15  -1  211.68    9.20
  -2  15   1  209.38    9.50
  -2  15   1  206.18    9.20
  -1 -15   1   17.00    3.90
   1 -15  -1    9.20    2.20
   1 -15  -1    8.70    3.60
  -1  15   1    9.60    2.00
   1  15  -1    8.70    2.10
  -1  15   1    9.30    2.40
  -1  15   1   10.50    2.30
   1  15  -1   13.00    2.50
   0 -15  -1  468.25   18.20
   0 -15   1  519.85   20.40
   0 -15  -1  472.15   20.40
   0  15  -1  482.05   18.30
   0  15   1  467.55   18.00
   0  15   1  425.66   17.40
   0  15   1  471.65   18.30
   0  15  -1  473.05   17.30
   0  15  -1  486.25   18.20
   1 -15   1   19.70    4.20
  -1 -15  -1   24.10    4.70
  -1 -15  -1   15.40    2.90
   1  15   1   15.60    2.50
   1  15   1   12.50    2.20
   1  15   1   20.10    2.90
  -1  15  -1   21.70    3.40
  -1  15  -1   20.20    2.90
  -1  15  -1   19.60    2.80
  -2 -15  -1   18.30    3.20
   2 -15   1   33.40    5.60
  -2  15  -1   29.00    3.60
  -2  15  -1   27.80    3.60
   2  15   1   33.10    4.00
   3 -15   1  138.89    7.00
  -3 -15  -1  141.09    8.20
   3 -15   1  131.79   11.80
  -3  15  -1  139.49    7.10
  -3  15  -1  138.39    7.50
   3  15   1  115.29    7.00
   3  15   1  129.39    9.40
   4 -15   1   73.99   10.80
  -4 -15  -1   77.99    7.10
   4 -15   1   64.29    4.90
   4  15   1   61.99    7.70
  -4  15  -1   68.99    5.80
   4  15   1   72.29    5.30
  -4  15  -1   65.29    5.60
  -5 -15  -1   12.40    4.30
   5 -15   1   12.00    5.90
   5  15   1    1.80    2.40
  -5  15  -1    4.50    3.20
  -5  15  -1    3.00    3.00
   5  15   1    2.50    3.90
  -6 -15  -1   46.10    6.50
   6 -15   1   47.70    9.50
  -6  15  -1   51.89    6.30
   6  15   1   50.79    8.40
  -6 -16   1  251.27   13.40
   6 -16  -1  239.38   16.60
   6  16  -1  225.78   14.20
  -6  16   1  247.38   12.30
   5 -16  -1   15.10    7.90
  -5 -16   1    6.50    3.70
  -5  16   1   10.10    3.40
   5  16  -1    9.70    4.40
  -5  16   1   13.60    3.50
  -4 -16   1  363.46   15.90
   4 -16  -1  320.37   20.90
   4  16  -1  380.56   17.80
   4  16  -1  378.56   15.20
  -4  16   1  365.46   15.20
  -4  16   1  384.56   15.60
  -3 -16   1  117.89    9.10
  -3 -16   1  128.49    7.10
   3 -16  -1  134.09   10.70
  -3  16   1  127.19    6.70
  -3  16   1  100.79    6.90
   3  16  -1  115.79    6.80
  -3  16   1  117.29    6.60
   3  16  -1  109.99    7.00
  -2 -16   1  318.27   13.40
   2 -16  -1  358.66   16.30
  -2 -16   1  348.17   16.00
   2  16  -1  323.67   13.60
   2  16  -1  326.37   13.30
  -2  16   1  322.37   13.10
  -2  16   1  300.67   13.40
  -2  16   1  339.67   13.60
  -1 -16   1  331.87   15.60
   1 -16  -1  347.77   16.00
  -1  16   1  315.97   13.30
   1  16  -1  319.27   13.30
   1  16  -1  319.07   13.10
  -1  16   1  304.47   12.60
  -1  16   1  315.17   13.10
   0 -16  -1   37.40    6.40
   0 -16   1   42.00    6.40
   0 -16  -1   37.00    4.00
   0  16  -1   41.20    4.40
   0  16  -1   37.70    4.10
   0  16   1   37.30    3.20
   0  16   1   41.90    4.30
   0  16   1   35.60    3.80
  -1 -16  -1  131.69    9.40
   1 -16   1  151.18    9.40
  -1 -16  -1  128.89    7.00
   1  16   1  117.29    6.30
  -1  16  -1  129.49    6.10
   1  16   1  120.59    7.00
  -1  16  -1  126.19    6.90
  -1  16  -1  131.59    6.90
  -2 -16  -1   -1.10    2.30
  -2 -16  -1   -2.40    3.50
   2 -16   1    3.90    3.70
  -2  16  -1    0.40    2.20
   2  16   1    2.50    2.20
  -2  16  -1    1.20    1.90
   3 -16   1  216.88   15.90
   3 -16   1  274.37   11.40
  -3 -16  -1  265.37   12.40
   3  16   1  268.77   14.20
   3  16   1  257.17   11.50
  -3  16  -1  275.87   11.90
  -3  16  -1  255.47   11.20
   4 -16   1   15.70    2.80
  -4 -16  -1   18.50    4.20
   4 -16   1   19.30    6.80
  -4  16  -1   21.10    3.50
   4  16   1   25.00    5.20
   4  16   1   21.80    3.40
  -4  16  -1   17.30    3.70
   5 -16   1   39.20    7.70
  -5 -16  -1   43.20    7.30
   5  16   1   42.40    7.60
  -5  16  -1   46.90    6.00
  -5  16  -1   46.70    5.80
   5  16   1   33.20    5.00
  -6 -16  -1   11.40    5.20
  -6  16  -1   19.60    4.30
  -6 -17   1   54.09    7.70
   6 -17  -1   46.80   12.90
   6  17  -1   46.50    8.10
  -6  17   1   58.29    6.70
   5 -17  -1  154.38   16.10
  -5 -17   1  127.39    9.00
   5  17  -1  119.79   10.20
  -5  17   1  123.49    8.20
  -5  17   1  143.89    8.60
  -4 -17   1  360.86   15.90
   4 -17  -1  308.37   20.80
  -4  17   1  376.96   15.20
   4  17  -1  361.86   15.10
  -4  17   1  382.26   15.60
  -3 -17   1   50.29    7.70
   3 -17  -1   48.90    9.30
  -3 -17   1   54.29    5.10
  -3  17   1   47.10    4.90
   3  17  -1   53.89    5.10
  -3  17   1   48.80    4.80
  -3  17   1   43.20    5.10
  -2 -17   1   26.60    5.10
   2 -17  -1   40.10    6.60
   2  17  -1   33.10    3.90
  -2  17   1   35.40    3.90
  -2  17   1   40.40    4.60
   2  17  -1   28.90    4.40
  -2  17   1   36.00    4.50
   1 -17  -1  109.09    8.90
  -1 -17   1  105.69    8.70
  -1  17   1   88.19    5.30
   1  17  -1  107.19    6.40
   1  17  -1  103.59    6.00
  -1  17   1  105.69    6.00
  -1  17   1  100.59    6.30
   0 -17   1   31.60    6.50
   0 -17  -1   32.60    6.50
   0  17  -1   29.70    4.00
   0  17   1   26.70    3.00
   0  17   1   29.40    3.70
   0  17  -1   27.10    2.70
   0  17   1   27.30    3.60
   0  17  -1   28.80    4.30
   1 -17   1   13.50    4.10
  -1 -17  -1   10.10    2.80
  -1 -17  -1    7.10    4.00
   1  17   1    9.00    2.70
   1  17   1   10.20    2.30
  -1  17  -1    9.90    2.60
  -1  17  -1   12.70    2.10
  -1  17  -1    7.00    2.50
   2 -17   1    0.70    3.70
  -2 -17  -1    0.10    2.50
  -2 -17  -1    1.70    3.80
  -2  17  -1    2.80    2.10
  -2  17  -1    0.20    2.20
   2  17   1    1.70    2.40
   3 -17   1    2.20    2.20
  -3 -17  -1    3.40    3.10
   3 -17   1    3.20    5.30
  -3  17  -1    4.90    2.70
   3  17   1    0.80    2.40
  -3  17  -1    1.30    2.30
  -4 -17  -1   -4.00    3.10
   4 -17   1   -1.90    6.60
   4 -17   1    0.20    2.20
  -4  17  -1    1.80    3.00
   4  17   1    1.50    3.80
   4  17   1    1.60    2.60
  -4  17  -1   -1.90    2.60
  -5 -17  -1   52.09    7.50
   5 -17   1   40.20    8.30
   5  17   1   58.79    8.50
  -5  17  -1   48.90    6.50
  -5  17  -1   47.20    6.00
   5  17   1   56.09    6.90
   5 -18  -1  171.78   18.00
  -5 -18   1  121.79    9.30
  -5  18   1  151.88    9.00
   5  18  -1  125.89   10.90
  -5  18   1  150.98    8.70
  -4 -18   1   27.50    6.00
   4 -18  -1   15.80    8.50
  -4 -18   1   25.90    4.30
   4  18  -1   23.50    3.80
  -4  18   1   24.70    4.10
  -4  18   1   32.50    5.00
  -3 -18   1    0.60    4.00
   3 -18  -1    7.50    5.20
  -3  18   1   10.90    2.90
  -3  18   1    1.00    2.30
  -3  18   1   -1.20    2.50
   3  18  -1    3.30    2.70
   2 -18  -1  314.27   15.90
  -2 -18   1  303.17   15.60
   2  18  -1  272.67   12.30
   2  18  -1  309.07   13.00
  -2  18   1  290.77   12.70
  -2  18   1  283.57   12.10
  -2  18   1  295.27   12.80
   1 -18  -1  271.57   14.70
  -1 -18   1  310.57   14.90
   1  18  -1  268.47   12.10
  -1  18   1  253.37   11.10
   1  18  -1  276.97   11.70
  -1  18   1  273.57   12.10
  -1  18   1  261.77   11.70
   0 -18   1    2.50    3.60
   0 -18  -1    2.90    3.90
   0  18   1    5.40    2.60
   0  18  -1    2.90    1.50
   0  18  -1    3.50    2.40
   0  18   1    3.50    1.70
   0  18  -1    6.70    2.60
   0  18   1   -1.10    1.90
  -1 -18  -1    3.80    4.10
   1 -18   1    7.00    3.90
  -1  18  -1   10.40    2.80
  -1  18  -1    9.10    2.00
  -1  18  -1    5.20    2.50
   1  18   1   10.60    2.90
   1  18   1    8.80    2.40
  -2 -18  -1   -3.30    2.50
   2 -18   1    4.90    4.20
  -2 -18  -1   -1.90    3.80
   2  18   1   -0.90    2.30
  -2  18  -1   -0.90    2.00
  -2  18  -1   -3.20    2.10
   3 -18   1    2.30    2.30
  -3 -18  -1   -2.50    4.30
  -3 -18  -1    7.00    3.30
   3 -18   1    3.80    5.60
  -3  18  -1    1.40    2.40
  -3  18  -1    0.60    2.80
   3  18   1    6.40    2.80
   4 -18   1   78.79   13.00
  -4 -18  -1   86.79    8.00
   4 -18   1   77.39    5.80
  -4  18  -1   81.49    6.40
   4  18   1   87.69    6.50
   4  18   1   80.29    9.00
  -4  18  -1   87.79    7.20
  -5 -18  -1   29.00    5.50
   5 -18   1   23.10    7.70
   5  18   1   16.70    5.70
  -5  18  -1   22.40    4.00
  -5  18  -1   17.10    4.10
  -5 -19   1   46.00    6.10
   5 -19  -1   80.99   16.10
  -5  19   1   50.69    7.30
  -5  19   1   61.19    6.40
  -4 -19   1  109.29   10.70
   4 -19  -1  130.09    7.30
   4 -19  -1   92.79   15.10
  -4  19   1  127.59    7.70
  -4  19   1  125.99    8.20
   4  19  -1  116.29    7.50
   3 -19  -1  -10.30    4.90
  -3 -19   1    2.80    4.20
   3  19  -1    6.00    2.80
  -3  19   1    2.10    2.40
  -3  19   1   -2.00    2.40
  -3  19   1    3.30    2.80
  -2 -19   1   75.69    8.60
   2 -19  -1   97.59    9.10
   2  19  -1   77.39    6.10
  -2  19   1   72.69    6.10
  -2  19   1   78.09    6.00
  -2  19   1   77.69    5.30
   2  19  -1   77.59    5.70
  -1 -19   1   21.90    5.10
   1 -19  -1   10.90    4.50
  -1  19   1   15.10    2.90
  -1  19   1   11.40    2.50
  -1  19   1   21.70    3.50
   1  19  -1   19.40    3.10
   1  19  -1   16.10    3.20
   0 -19  -1   17.90    5.00
   0 -19   1   14.50    4.70
   0  19  -1   21.10    3.40
   0  19   1   17.80    2.90
   0  19  -1   16.60    3.10
   0  19   1   15.00    2.20
   0  19   1   12.50    3.00
   1 -19   1  112.19    9.20
  -1 -19  -1  109.79    9.80
  -1  19  -1   94.69    5.30
  -1  19  -1   88.59    6.60
   1  19   1   93.09    5.90
  -1  19  -1  100.59    6.60
   1  19   1  101.09    6.90
   2 -19   1  106.69   10.10
   2 -19   1   92.29    6.20
  -2 -19  -1   82.29    9.30
  -2 -19  -1   67.19    9.20
  -2  19  -1   83.69    6.30
  -2  19  -1   85.29    5.40
   2  19   1   87.99    6.50
  -3 -19  -1   14.90    5.40
   3 -19   1   12.10    3.00
   3 -19   1    0.20    6.30
  -3 -19  -1    7.30    3.60
  -3  19  -1   12.10    3.40
   3  19   1   12.60    3.40
  -3  19  -1   12.60    2.90
   4 -19   1   12.70    7.90
  -4 -19  -1    2.30    3.70
   4 -19   1    1.00    2.40
  -4  19  -1    3.30    2.90
  -4  19  -1    8.80    3.50
   4  19   1    5.40    2.90
  -5 -19  -1    6.60    4.60
   4 -20  -1    2.90    3.30
   4 -20  -1    6.80    8.00
  -4 -20   1    3.00    4.60
  -4  20   1    5.70    3.10
  -4  20   1    5.10    3.30
   4  20  -1    6.20    3.20
  -3 -20   1    4.90    4.60
   3 -20  -1   -2.20    5.40
  -3  20   1   10.20    3.10
  -3  20   1    6.30    3.10
  -3  20   1    6.80    2.80
   3  20  -1   10.30    3.10
   2 -20  -1   96.39    9.90
  -2 -20   1   77.59    9.10
   2  20  -1   72.59    5.80
  -2  20   1   81.99    6.20
   2  20  -1   80.79    6.50
  -2  20   1   75.19    5.50
  -2  20   1   80.89    6.40
   1 -20  -1   12.00    4.80
  -1 -20   1    7.90    4.50
  -1  20   1    9.10    2.20
  -1  20   1   16.90    3.50
   1  20  -1    8.80    2.80
  -1  20   1   16.00    3.10
   1  20  -1   13.50    3.30
   0 -20  -1    2.40    4.10
   0 -20   1    4.30    4.10
   0  20  -1   -0.60    2.20
   0  20   1    0.70    2.10
   0  20   1   -1.00    1.60
   0  20  -1    0.30    2.60
   0  20   1    3.80    2.70
   1 -20   1   23.50    5.30
  -1 -20  -1   10.50    5.00
  -1  20  -1   18.70    3.50
   1  20   1   17.10    3.50
  -1  20  -1   16.00    2.30
  -1  20  -1   18.10    3.60
  -2 -20  -1   15.80    5.50
   2 -20   1    9.20    3.00
   2 -20   1   15.20    5.70
   2  20   1   15.70    3.40
  -2  20  -1    9.80    3.10
  -2  20  -1   15.20    2.70
  -3 -20  -1   46.80    9.10
   3 -20   1   41.80    9.80
   3 -20   1   58.99    5.40
   3  20   1   49.80    5.80
  -3  20  -1   60.59    5.10
  -3  20  -1   48.80    5.90
  -4 -20  -1   26.80    4.80
   4 -20   1   44.40   10.20
  -4 -20  -1   17.60    6.30
   4 -20   1   27.20    3.90
   4  20   1   17.50    3.80
  -4  20  -1   25.00    5.50
  -4  20  -1   22.90    3.90
  -4 -21   1   63.39    9.70
   4  21  -1   71.89    6.60
  -4  21   1   76.89    6.50
   3 -21  -1    2.60    6.00
  -3 -21   1   -0.10    4.10
  -3  21   1   -0.70    2.70
  -3  21   1    4.00    3.10
  -3  21   1    2.00    2.60
   3  21  -1    1.70    2.90
   2 -21  -1   11.90    5.20
  -2 -21   1    4.60    4.60
  -2  21   1   15.30    3.40
  -2  21   1   11.20    2.60
   2  21  -1    9.60    3.30
  -2  21   1   15.50    3.70
  -1 -21   1   15.20    5.10
   1 -21  -1    5.30    4.70
  -1  21   1    4.80    2.10
  -1  21   1    6.30    2.70
   1  21  -1    9.70    2.90
   1  21  -1    7.40    3.30
  -1  21   1   12.00    3.40
   0 -21   1   -4.20    3.70
   0 -21  -1   -1.90    4.20
   0  21   1    1.60    2.80
   0  21   1   -1.80    2.30
   0  21  -1    0.50    2.80
   0  21  -1   -0.90    2.40
   0  21   1    0.00    1.60
  -1 -21  -1    7.30    4.90
   1 -21   1   15.90    5.40
  -1  21  -1   11.30    2.20
  -1  21  -1   11.00    3.40
  -1  21  -1   16.00    3.40
   1  21   1    8.30    3.20
   2 -21   1   23.60    6.90
   2 -21   1   22.40    3.80
  -2 -21  -1   21.20    5.80
   2  21   1   24.70    4.10
  -2  21  -1   16.00    2.80
  -2  21  -1   27.30    4.00
   3 -21   1    0.50    6.80
   3 -21   1    0.00    2.60
  -3 -21  -1   -3.40    4.60
   3  21   1   -2.80    2.70
  -3  21  -1   -1.30    2.40
  -3  21  -1   -3.30    2.80
  -3 -22   1   42.30    8.80
  -3  22   1   32.80    4.20
   3  22  -1   47.60    5.90
  -3  22   1   48.00    5.80
  -2 -22   1    0.60    4.50
   2 -22  -1   -1.60    4.70
  -2  22   1   -1.10    2.20
  -2  22   1    0.50    2.90
  -2  22   1    1.50    2.80
   2  22  -1    0.80    3.00
  -1 -22   1    6.10    4.80
   1 -22  -1    9.80    5.20
  -1  22   1    0.00    3.10
  -1  22   1    3.50    2.70
   1  22  -1    9.90    3.00
  -1  22   1    1.50    1.90
   1  22  -1    7.80    3.40
   0 -22   1  113.79   10.50
   0 -22  -1  116.99   11.30
   0  22  -1   94.99    7.20
   0  22   1  100.69    6.80
   0  22  -1  106.89    7.40
   0  22   1   87.29    5.20
   0  22   1   88.09    7.20
   1 -22   1    5.70    4.80
  -1 -22  -1    6.40    5.00
   1  22   1    5.60    3.10
  -1  22  -1    4.20    1.90
  -1  22  -1    7.40    3.10
   2 -22   1   -1.80    5.30
  -2 -22  -1    4.20    5.10
   2 -22   1    4.00    3.00
   2  22   1   -1.30    2.90
  -2  22  -1    1.40    2.80
  -2  22  -1    1.90    2.10
  -2 -23   1    0.90    5.10
  -1 -23   1  116.19   11.20
   1  23  -1   99.69    7.00
  -1  23   1   88.39   10.30
  -1  23   1   91.09    6.90
   0 -23  -1   30.20    9.40
   0 -23   1   31.10    6.40
   0  23   1   23.70    3.90
   0  23  -1   41.40    5.60
   0  23  -1   27.10    6.70
   1 -23   1   79.89   10.50
  -1  23  -1   78.89    7.40
   9   0  -2  104.49    9.00
   9   0  -2  102.39   10.20
   8   0  -2    3.90    4.10
   8   0  -2   -2.90    3.30
   8   0  -2   -0.80    2.80
  -8   0   2    1.90    3.70
   7   0  -2  274.07   12.70
  -7   0   2  268.07   12.40
   7   0  -2  265.77   11.70
   7   0  -2  258.77   13.60
  -6   0   2  375.96   14.60
   6   0  -2  371.36   14.90
   6   0  -2  375.56   16.60
   6   0  -2  387.96   15.80
  -6   0   2  389.16   15.50
  -5   0   2  957.80   33.80
   5   0  -2  887.51   34.60
   5   0  -2  947.41   34.10
  -5   0   2  935.71   33.20
   5   0  -2  925.51   33.40
   4   0  -2   75.69    4.10
   4   0  -2   71.09    4.10
   4   0  -2   79.99    5.00
  -4   0   2   75.39    4.50
   4   0  -2   69.69    4.50
  -4   0   2   73.39    3.90
  -3   0   2  453.85   16.90
   3   0  -2  465.45   17.40
  -3   0   2  464.45   17.00
  -3   0   2  469.45   17.20
   3   0  -2  470.25   17.00
   3   0  -2  490.75   17.00
   3   0  -2  454.75   17.50
  -2   0   2  191.68    7.20
   2   0  -2  182.68    7.50
  -2   0   2  183.68    7.20
   2   0  -2  179.18    7.30
  -2   0   2  198.48    6.70
   2   0  -2  184.78    7.40
   2   0  -2  184.98    7.20
  -1   0   2 4334.67  139.29
   1   0  -2 3950.20  138.89
   1   0  -2 4165.08  139.09
  -1   0   2 4163.38  138.79
  -1   0   2 3939.51  138.89
   1   0  -2 4077.29  139.09
   1   0  -2 3754.52  138.89
   1   0  -2 3826.22  138.89
   0   0  -2  319.57   12.30
   0   0  -2  336.17   12.40
   0   0   2  331.57   12.20
   0   0   2  330.27   12.10
   0   0   2  353.46   12.40
   0   0  -2  328.97   12.20
  -1   0  -2   98.49    4.10
   1   0   2  117.19    5.10
  -1   0  -2  105.69    4.70
   1   0   2  119.99    4.60
  -1   0  -2  109.99    4.60
   1   0   2  104.49    4.70
  -1   0  -2  100.49    4.70
  -2   0  -2  601.14   22.80
  -2   0  -2  628.54   22.70
  -2   0  -2  643.64   22.80
   2   0   2  630.94   22.80
   2   0   2  657.63   23.50
   2   0   2  651.93   22.50
  -2   0  -2  626.24   22.20
   3   0   2  585.24   20.20
   3   0   2  534.45   21.40
  -3   0  -2  555.34   20.60
  -3   0  -2  557.44   20.40
  -3   0  -2  551.54   19.70
   3   0   2  566.94   20.60
  -3   0  -2  573.84   20.70
   4   0   2    1.30    2.30
  -4   0  -2    0.40    1.10
   4   0   2    0.90    1.30
   4   0   2    2.40    2.00
  -4   0  -2   -0.30    1.90
   5   0   2   12.30    1.90
  -5   0  -2   14.40    3.00
   5   0   2   16.40    3.00
   5   0   2   10.30    3.30
   6   0   2   63.49    5.70
  -6   0  -2   58.09    6.00
   6   0   2   55.49    7.00
  -6   0  -2   58.99    6.00
  -7   0  -2    0.20    3.40
  -7   0  -2    3.50    3.70
   7   0   2    2.00    3.80
   7   0   2    6.70    3.20
   8   0   2  103.69   12.90
   8   0   2  100.19    7.90
  -8   0  -2  114.29    9.20
  -8   0  -2  115.79   12.70
   9  -1  -2   88.19    8.20
   9  -1  -2   91.39   10.60
   9  -1  -2   77.89    9.30
   9   1  -2   87.89    9.70
   9   1  -2   80.29    8.50
  -8  -1   2    0.20    3.50
   8  -1  -2    0.50    3.80
   8  -1  -2    2.30    3.30
   8  -1  -2    0.90    2.90
   8   1  -2   -2.00    2.70
   8   1  -2    3.20    3.50
   8   1  -2   -3.40    3.60
  -8   1   2   -3.80    3.40
   7  -1  -2    1.60    3.10
   7  -1  -2    4.80    2.70
   7  -1  -2    0.00    3.20
  -7  -1   2   -1.80    3.00
   7   1  -2    2.80    3.10
   7   1  -2   -1.40    2.30
   7   1  -2    4.60    3.50
  -7   1   2   -0.50    3.00
  -6  -1   2  529.55   19.60
  -6  -1   2  492.65   18.50
   6  -1  -2  490.05   20.60
   6  -1  -2  486.55   18.90
   6  -1  -2  524.75   19.80
  -6   1   2  491.95   19.40
  -6   1   2  486.35   18.60
   6   1  -2  496.65   19.60
   6   1  -2  482.75   18.70
   6   1  -2  478.55   20.50
   5  -1  -2    3.30    2.20
   5  -1  -2    2.40    1.90
  -5  -1   2    1.00    1.60
   5  -1  -2    1.50    2.30
  -5  -1   2    0.10    2.10
  -5   1   2    6.50    1.90
   5   1  -2    2.70    2.30
  -5   1   2   -0.20    2.00
   5   1  -2    6.70    1.90
   5   1  -2    3.30    2.30
  -4  -1   2  161.58    7.00
   4  -1  -2  153.08    6.60
  -4  -1   2  154.18    6.40
   4  -1  -2  160.68    7.60
   4  -1  -2  149.29    7.00
   4  -1  -2  145.59    6.60
   4   1  -2  150.78    6.50
   4   1  -2  150.28    7.40
  -4   1   2  145.99    6.60
  -4   1   2  148.49    6.40
  -4   1   2  156.98    6.90
   4   1  -2  156.18    6.50
   4   1  -2  143.49    7.10
  -3  -1   2   69.59    3.50
   3  -1  -2   65.49    4.00
   3  -1  -2   70.59    3.80
   3  -1  -2   67.49    4.30
   3  -1  -2   68.99    3.70
  -3   1   2   67.59    3.60
   3   1  -2   71.29    4.20
  -3   1   2   73.29    3.80
   3   1  -2   74.29    3.60
   3   1  -2   65.99    4.10
  -3   1   2   68.09    3.90
   3   1  -2   65.99    3.50
   2  -1  -2   66.99    3.70
   2  -1  -2   66.09    3.60
  -2  -1   2   56.19    2.70
  -2  -1   2   70.79    3.30
   2  -1  -2   64.29    3.30
   2  -1  -2   65.09    3.40
   2  -1  -2   72.49    3.80
  -2   1   2   72.59    3.50
  -2   1   2   71.79    2.70
   2   1  -2   72.29    3.50
   2   1  -2   59.99    3.50
  -2   1   2   66.89    3.30
   2   1  -2   63.19    3.70
   2   1  -2   68.99    3.30
   1  -1  -2  266.07    9.70
  -1  -1   2  247.38    9.60
   1  -1  -2  248.68    9.70
   1  -1  -2  272.07   10.00
  -1  -1   2  275.97    9.70
  -1  -1   2  262.67    9.60
   1  -1  -2  273.67    9.70
  -1   1   2  279.57    9.60
  -1   1   2  264.37    9.80
   1   1  -2  258.97    9.80
  -1   1   2  272.67    9.70
   1   1  -2  251.07    9.80
   1   1  -2  274.67    9.70
   1   1  -2  263.87    9.60
   0  -1  -2 2453.35   86.19
   0  -1   2 2520.95   85.99
   0  -1   2 2478.95   85.99
   0  -1  -2 2408.46   85.99
   0  -1  -2 2496.55   85.99
   0  -1   2 2700.23   85.99
   0   1   2 2322.67   86.09
   0   1   2 2536.35   85.89
   0   1   2 2570.84   86.09
   0   1  -2 2409.06   85.89
   0   1  -2 2473.95   85.99
   0   1  -2 2500.25   86.09
   0   1  -2 2488.35   85.99
   0   1   2 2450.15   85.99
  -1  -1  -2   27.30    2.40
  -1  -1  -2   25.60    2.40
   1  -1   2   32.80    2.70
   1  -1   2   30.60    2.20
  -1  -1  -2   26.40    2.70
   1  -1   2   29.60    2.50
   1   1   2   31.30    2.20
  -1   1  -2   26.50    1.90
  -1   1  -2   25.90    2.20
   1   1   2   29.60    2.60
  -1   1  -2   26.20    2.30
  -1   1  -2   27.10    2.50
   1   1   2   26.90    2.80
   2  -1   2    9.10    2.10
   2  -1   2    7.80    1.30
  -2  -1  -2    8.10    1.60
  -2  -1  -2    6.80    1.90
   2  -1   2    9.20    1.80
  -2  -1  -2    6.90    1.10
  -2  -1  -2    6.50    1.60
  -2   1  -2    6.40    1.70
   2   1   2    8.20    1.40
  -2   1  -2    9.00    1.20
  -2   1  -2    9.50    1.70
  -2   1  -2    8.80    1.70
   2   1   2    8.70    2.10
   2   1   2    7.00    1.70
   3  -1   2  101.89    4.40
  -3  -1  -2   94.99    4.70
   3  -1   2   85.79    5.70
   3  -1   2   96.99    5.10
  -3  -1  -2   93.89    3.70
  -3  -1  -2   92.99    5.00
  -3  -1  -2  101.19    5.20
  -3   1  -2   89.69    4.00
  -3   1  -2   90.29    4.70
   3   1   2   91.99    5.80
  -3   1  -2   90.89    4.90
   3   1   2   94.79    4.30
   3   1   2   97.79    4.90
  -3   1  -2   90.19    4.90
   4  -1   2    1.60    2.00
  -4  -1  -2    0.50    2.00
  -4  -1  -2    1.10    2.20
   4  -1   2   -0.10    2.20
   4  -1   2   -0.20    1.20
  -4   1  -2    0.50    1.20
   4   1   2   -0.60    1.80
   4   1   2    0.60    2.20
   4   1   2    1.50    1.30
  -4   1  -2    0.40    1.90
   5  -1   2  274.77   10.90
   5  -1   2  296.57   12.10
   5  -1   2  269.27   13.30
  -5  -1  -2  286.97   12.40
  -5  -1  -2  282.97   12.10
   5   1   2  304.87   12.00
  -5   1  -2  274.57   12.00
   5   1   2  252.07   13.10
   5   1   2  276.87   10.90
  -6  -1  -2   31.00    4.10
   6  -1   2   32.30    4.00
   6  -1   2   26.60    4.90
  -6  -1  -2   26.00    4.20
  -6   1  -2   27.00    4.10
   6   1   2   20.00    4.30
   6   1   2   24.90    3.60
  -6   1  -2   29.60    4.10
  -7  -1  -2   26.60    4.60
  -7  -1  -2   25.20    4.60
   7  -1   2   14.40    3.60
   7  -1   2   20.50    5.20
  -7   1  -2   30.00    4.50
   7   1   2   26.70    5.50
   7   1   2   25.40    3.90
  -7   1  -2   27.80    4.40
   8  -1   2    2.10    7.00
   8  -1   2   -1.60    3.30
  -8  -1  -2    0.00    3.90
  -8  -1  -2    4.20    4.00
   8   1   2    0.30    3.20
  -8   1  -2    0.30    4.70
   8   1   2    1.00    5.60
   9  -2  -2   54.19    7.30
   9  -2  -2   24.80    6.00
   9  -2  -2   25.80    4.70
   9   2  -2   42.20    8.10
   8  -2  -2   27.70    4.80
  -8  -2   2   38.90    5.10
   8  -2  -2   36.40    6.10
   8  -2  -2   39.10    5.60
  -8   2   2   31.10    4.70
   8   2  -2   36.90    7.10
   8   2  -2   44.90    6.60
   8   2  -2   31.10    4.90
   7  -2  -2   26.30    3.60
   7  -2  -2   17.90    3.80
  -7  -2   2   21.10    3.80
   7  -2  -2   19.40    4.40
  -7   2   2   32.10    4.30
  -7   2   2   21.70    3.40
   7   2  -2   16.70    4.20
   7   2  -2   22.40    4.00
   7   2  -2   11.90    2.80
   6  -2  -2   16.50    3.80
   6  -2  -2   20.00    3.40
  -6  -2   2   17.90    3.30
   6  -2  -2   19.30    3.10
  -6  -2   2   24.60    3.30
  -6   2   2   18.30    2.70
  -6   2   2   20.30    3.30
   6   2  -2   19.20    2.60
   6   2  -2   22.20    4.00
   6   2  -2   15.60    3.40
   5  -2  -2    0.50    1.90
   5  -2  -2    5.20    2.50
  -5  -2   2    0.40    2.10
   5  -2  -2    1.20    2.20
  -5  -2   2   -0.40    1.50
   5   2  -2   -2.30    1.60
  -5   2   2    1.30    1.80
   5   2  -2    0.80    2.20
  -5   2   2    2.60    2.20
   5   2  -2   -4.50    2.00
  -4  -2   2  224.18    9.30
   4  -2  -2  224.78    9.20
   4  -2  -2  218.98    9.40
  -4  -2   2  219.88    8.80
   4  -2  -2  233.58   10.00
  -4   2   2  235.88    9.10
  -4   2   2  237.08    9.30
   4   2  -2  221.08    9.50
   4   2  -2  227.88    8.80
  -4   2   2  223.28    9.10
   4   2  -2  214.28    9.80
   4   2  -2  220.58    8.80
  -3  -2   2   93.49    4.40
   3  -2  -2  115.49    5.60
   3  -2  -2   96.29    5.00
   3  -2  -2   91.79    4.70
  -3   2   2   86.99    4.40
   3   2  -2   97.19    4.30
   3   2  -2   90.39    4.90
   3   2  -2   99.29    4.30
   3   2  -2  103.19    4.80
  -3   2   2   89.99    4.70
  -3   2   2   91.99    4.70
   3   2  -2  102.89    5.10
   2  -2  -2  672.13   23.90
   2  -2  -2  663.03   24.00
  -2  -2   2  624.44   23.50
   2  -2  -2  615.24   24.50
  -2  -2   2  670.03   23.80
   2  -2  -2  669.43   24.20
  -2   2   2  675.13   23.50
  -2   2   2  668.93   24.00
   2   2  -2  697.93   23.70
   2   2  -2  678.63   23.70
   2   2  -2  685.03   24.00
  -2   2   2  670.33   23.90
   2   2  -2  753.92   24.10
   2   2  -2  685.23   24.10
   1  -2  -2   31.10    2.40
  -1  -2   2   30.90    2.00
   1  -2  -2   30.80    2.00
   1  -2  -2   34.30    2.30
   1  -2  -2   30.90    2.60
   1   2  -2   29.90    2.40
  -1   2   2   35.70    2.20
  -1   2   2   32.50    2.60
   1   2  -2   36.00    2.00
   1   2  -2   36.10    2.30
   1   2  -2   37.60    2.40
   1   2  -2   36.50    2.20
  -1   2   2   34.10    2.00
   1   2  -2   30.80    1.90
   0  -2   2   -0.70    0.90
   0  -2  -2    0.40    1.00
   0  -2  -2    1.30    1.20
   0  -2  -2    1.70    1.40
   0  -2   2    2.10    1.20
   0  -2   2   -0.80    0.90
   0   2  -2    0.80    1.10
   0   2   2    1.40    1.00
   0   2  -2    2.80    1.00
   0   2   2    2.00    1.30
   0   2   2    2.20    0.80
   0   2  -2    1.50    1.00
   0   2  -2    2.50    1.00
   0   2   2    0.80    1.30
   0   2  -2    0.50    1.20
  -1  -2  -2  451.65   16.30
   1  -2   2  471.85   16.80
   1  -2   2  477.05   16.30
   1  -2   2  465.05   16.40
  -1  -2  -2  443.46   16.30
  -1   2  -2  464.45   16.40
   1   2   2  438.66   15.90
  -1   2  -2  459.85   16.50
   1   2   2  462.35   16.40
  -1   2  -2  460.25   16.20
   1   2   2  434.66   16.90
   1   2   2  469.75   16.30
  -1   2  -2  427.66   16.20
  -2  -2  -2  173.58    7.60
   2  -2   2  186.68    8.00
   2  -2   2  186.48    7.00
  -2  -2  -2  176.38    7.20
   2  -2   2  181.18    7.50
  -2  -2  -2  171.38    7.30
   2   2   2  194.58    7.10
   2   2   2  180.18    8.20
  -2   2  -2  176.08    7.40
  -2   2  -2  169.28    6.90
  -2   2  -2  179.48    7.30
  -2   2  -2  182.28    7.20
   2   2   2  180.68    7.30
   3  -2   2  577.84   20.30
   3  -2   2  546.45   21.60
  -3  -2  -2  568.74   20.50
  -3  -2  -2  548.15   20.70
   3  -2   2  570.14   20.80
  -3  -2  -2  571.74   21.00
   3   2   2  545.45   21.60
  -3   2  -2  548.45   20.10
   3   2   2  570.14   20.30
   3   2   2  583.14   20.60
  -3   2  -2  565.94   20.60
  -4  -2  -2  233.78   10.30
  -4  -2  -2  232.78    9.90
   4  -2   2  247.48   10.10
   4  -2   2  227.28   11.00
   4  -2   2  231.78    9.10
  -4   2  -2  217.98    8.90
  -4   2  -2  228.08    9.90
   4   2   2  231.28    9.70
   4   2   2  235.58    9.10
   4   2   2  233.98   11.00
  -5  -2  -2   43.00    4.80
   5  -2   2   38.90    5.50
  -5  -2  -2   42.40    5.20
   5  -2   2   44.10    3.30
   5  -2   2   44.70    5.00
   5   2   2   42.10    4.60
   5   2   2   37.50    3.40
  -5   2  -2   50.59    4.90
   5   2   2   45.60    5.60
  -6  -2  -2   11.10    3.70
  -6  -2  -2   18.50    3.60
   6  -2   2   20.80    3.60
   6  -2   2   13.10    4.10
  -6   2  -2   10.80    3.40
   6   2   2   16.50    3.20
   6   2   2   12.00    4.10
   7  -2   2    4.30    3.20
  -7  -2  -2    1.30    3.60
  -7  -2  -2    4.40    3.60
   7  -2   2    4.60    4.10
   7   2   2    2.50    4.00
   7   2   2    5.30    3.00
  -7   2  -2    4.90    3.60
  -7   2  -2   -1.00    4.50
  -8  -2  -2    6.20    4.10
   8  -2   2    0.80    3.30
   8  -2   2    1.40    7.00
  -8  -2  -2    0.30    4.00
   8   2   2    6.60    3.40
   9  -3  -2    4.70    3.80
   9  -3  -2    4.60    3.70
   9  -3  -2   -1.00    6.90
   9   3  -2    3.90    4.80
   8  -3  -2   96.59    7.50
  -8  -3   2  100.09    8.00
   8  -3  -2   96.19    7.90
   8  -3  -2   96.39    9.10
  -8   3   2  101.59    7.80
   8   3  -2   92.79    6.60
   8   3  -2  112.19    9.70
   8   3  -2  117.89    8.70
  -7  -3   2   33.80    4.40
   7  -3  -2   35.00    6.30
   7  -3  -2   35.80    5.20
   7  -3  -2   37.20    5.30
   7   3  -2   27.10    5.00
   7   3  -2   31.90    4.20
  -7   3   2   44.30    4.60
  -7   3   2   38.70    5.60
   7   3  -2   42.00    5.80
  -6  -3   2  243.28   10.10
  -6  -3   2  248.48   11.30
   6  -3  -2  243.88   12.40
   6  -3  -2  272.77   11.10
   6  -3  -2  258.57   11.50
   6   3  -2  242.78   10.30
   6   3  -2  240.88   12.20
   6   3  -2  250.47   11.60
  -6   3   2  252.27   11.20
  -6   3   2  253.47   10.60
   5  -3  -2  208.28    9.50
   5  -3  -2  210.78   10.30
   5  -3  -2  213.78    9.20
  -5  -3   2  221.08    8.50
  -5  -3   2  212.68    9.30
   5   3  -2  191.48   10.00
   5   3  -2  205.78    8.50
  -5   3   2  207.08    8.80
   5   3  -2  226.38    9.60
  -5   3   2  205.28    9.20
   4  -3  -2  222.98    9.50
   4  -3  -2  225.48    9.20
  -4  -3   2  223.08    9.30
   4  -3  -2  231.48   10.10
  -4  -3   2  218.78    8.70
  -4   3   2  215.48    9.10
   4   3  -2  226.28    9.90
   4   3  -2  219.48    8.70
  -4   3   2  236.08    9.30
   4   3  -2  234.58    8.70
  -4   3   2  214.18    9.00
   4   3  -2  225.98    9.60
   3  -3  -2 1393.96   47.50
   3  -3  -2 1321.77   46.70
   3  -3  -2 1247.48   46.80
  -3  -3   2 1348.27   46.50
   3   3  -2 1379.96   46.20
   3   3  -2 1328.67   47.00
  -3   3   2 1350.46   46.60
   3   3  -2 1344.97   46.70
   3   3  -2 1319.47   47.10
  -3   3   2 1279.47   46.60
  -3   3   2 1260.57   46.60
   3   3  -2 1367.46   46.30
   2  -3  -2  164.08    7.00
   2  -3  -2  171.88    6.90
  -2  -3   2  168.28    6.60
  -2  -3   2  161.08    6.40
   2  -3  -2  135.29    7.80
   2   3  -2  175.58    6.90
   2   3  -2  185.68    7.10
  -2   3   2  182.48    6.80
  -2   3   2  174.38    6.90
   2   3  -2  178.78    7.00
  -2   3   2  175.88    6.40
   1  -3  -2  203.78    8.30
   1  -3  -2  210.58    8.50
  -1  -3   2  198.58    7.90
   1  -3  -2  210.78    7.80
   1   3  -2  229.38    8.10
  -1   3   2  205.98    8.10
  -1   3   2  212.08    7.90
   1   3  -2  217.48    8.10
   1   3  -2  220.78    7.80
   1   3  -2  224.68    7.70
  -1   3   2  225.78    8.00
   1   3  -2  212.78    8.00
   1   3  -2  200.88    8.00
   0  -3  -2  303.37   11.40
   0  -3   2  317.17   11.50
   0  -3  -2  319.77   11.90
   0  -3  -2  326.77   11.60
   0  -3   2  313.27   11.60
   0   3   2  302.37   11.60
   0   3  -2  344.17   11.40
   0   3  -2  319.07   11.50
   0   3   2  331.37   11.70
   0   3  -2  316.17   11.50
   0   3  -2  312.37   11.60
   0   3   2  318.57   11.40
   0   3   2  311.27   12.10
   0   3  -2  331.87   11.70
   1  -3   2  629.54   22.20
  -1  -3  -2  599.94   22.00
   1  -3   2  651.03   22.60
  -1  -3  -2  618.54   22.00
   1  -3   2  648.64   22.10
   1   3   2  636.14   22.10
  -1   3  -2  638.24   22.20
   1   3   2  642.84   22.10
  -1   3  -2  630.74   22.10
  -1   3  -2  599.74   21.80
   1   3   2  588.84   22.60
  -1   3  -2  586.24   22.00
   1   3   2  587.84   21.60
   2  -3   2    7.30    1.30
  -2  -3  -2    8.20    2.00
  -2  -3  -2    6.80    1.50
   2  -3   2    6.90    1.80
  -2  -3  -2    9.60    1.60
   2  -3   2    5.60    1.90
   2   3   2    6.30    1.50
  -2   3  -2    5.70    1.30
  -2   3  -2    4.80    1.60
   2   3   2    4.80    2.00
  -2   3  -2    4.40    1.50
  -2   3  -2    8.10    1.40
   2   3   2    6.10    1.30
   2   3   2    5.70    1.30
   3  -3   2  160.38    8.10
   3  -3   2  182.68    7.60
  -3  -3  -2  151.48    6.90
  -3  -3  -2  165.58    7.70
  -3  -3  -2  162.48    7.30
   3  -3   2  170.08    6.80
  -3   3  -2  169.88    7.20
   3   3   2  162.98    7.10
   3   3   2  175.98    6.80
  -3   3  -2  175.88    7.40
   3   3   2  157.78    8.20
   3   3   2  173.98    7.00
  -3   3  -2  163.48    6.80
  -4  -3  -2   32.50    4.20
  -4  -3  -2   30.00    3.80
   4  -3   2   30.50    4.00
   4  -3   2   29.90    4.40
   4  -3   2   28.80    2.60
  -4   3  -2   29.40    3.50
   4   3   2   26.00    3.50
   4   3   2   26.40    2.70
  -4   3  -2   26.40    2.70
   4   3   2   21.10    4.30
  -4   3  -2   29.20    3.70
  -5  -3  -2   97.19    6.90
   5  -3   2  102.19    5.20
  -5  -3  -2   98.99    6.40
   5  -3   2  101.19    6.70
   5  -3   2  100.99    7.60
   5   3   2   97.59    5.10
   5   3   2   93.89    7.40
  -5   3  -2  114.79    6.60
   5   3   2  105.99    6.10
  -6  -3  -2    6.30    3.20
   6  -3   2    5.60    3.80
  -6  -3  -2    5.00    3.50
   6  -3   2    4.00    2.90
   6   3   2    5.70    3.70
  -6   3  -2    8.50    3.40
   6   3   2    6.20    2.70
  -7  -3  -2    9.70    3.80
  -7  -3  -2   12.90    4.40
   7  -3   2    7.30    4.30
   7  -3   2    5.80    3.30
  -7   3  -2    8.70    4.00
   7   3   2    6.70    4.40
   7   3   2   10.10    3.20
  -8  -3  -2   45.50    6.10
   8  -3   2   32.60    4.90
  -8  -3  -2   57.49    7.40
   8   3   2   56.39    6.20
   8  -4  -2   17.80    5.00
  -8  -4   2    6.70    4.00
   8  -4  -2    7.00    3.70
   8  -4  -2   10.90    3.40
  -8   4   2    5.90    3.90
   8   4  -2    6.70    2.70
   8   4  -2    6.80    4.40
   8   4  -2   13.90    4.30
   7  -4  -2    9.30    3.30
  -7  -4   2    4.80    3.30
   7  -4  -2    6.80    3.10
   7  -4  -2    4.40    3.70
   7   4  -2    5.70    3.60
  -7   4   2   10.30    3.30
   7   4  -2    7.60    2.40
   7   4  -2   -0.10    2.90
  -7   4   2    7.70    2.80
   6  -4  -2  221.68   11.90
  -6  -4   2  230.08   10.80
   6  -4  -2  243.38   10.90
   6  -4  -2  252.07   10.70
   6   4  -2  241.38   11.10
  -6   4   2  223.08   10.60
   6   4  -2  222.08    9.60
  -6   4   2  241.58   10.20
   6   4  -2  233.18   11.80
  -5  -4   2   23.00    2.70
   5  -4  -2   15.20    3.20
  -5  -4   2   13.00    2.70
   5  -4  -2   19.00    2.70
   5  -4  -2   18.60    2.90
  -5   4   2   14.70    2.70
   5   4  -2   16.80    2.80
  -5   4   2   16.20    2.50
   5   4  -2   16.50    2.60
   5   4  -2   15.90    3.10
   4  -4  -2    0.60    1.60
  -4  -4   2    4.40    1.90
   4  -4  -2    0.50    2.10
   4  -4  -2    3.20    1.80
  -4  -4   2    1.50    1.40
  -4   4   2    2.70    1.70
   4   4  -2    4.00    2.00
  -4   4   2    3.00    1.70
  -4   4   2    2.20    1.60
   4   4  -2    2.80    2.00
   4   4  -2    1.80    0.90
   4   4  -2    4.40    1.30
   3  -4  -2  512.55   19.10
   3  -4  -2  519.55   19.20
   3  -4  -2  531.25   20.30
  -3  -4   2  506.25   18.70
   3   4  -2  523.45   18.50
   3   4  -2  526.65   19.10
  -3   4   2  517.55   19.00
  -3   4   2  503.05   18.40
  -3   4   2  514.65   19.10
  -3   4   2  534.95   18.90
   3   4  -2  542.65   19.30
   3   4  -2  538.15   19.60
   2  -4  -2  351.56   13.80
   2  -4  -2  375.86   14.60
   2  -4  -2  373.66   13.70
  -2   4   2  358.16   13.30
   2   4  -2  400.76   13.90
  -2   4   2  357.16   13.70
  -2   4   2  380.06   13.40
   2   4  -2  350.66   13.60
  -2   4   2  377.56   13.60
   2   4  -2  375.96   13.80
   1  -4  -2   16.60    2.20
  -1  -4   2   18.30    1.80
   1  -4  -2   17.40    2.80
   1  -4  -2   21.10    2.20
   1  -4  -2   18.30    1.60
   1   4  -2   20.10    2.20
   1   4  -2   25.60    2.10
   1   4  -2   21.80    2.00
  -1   4   2   20.70    2.00
  -1   4   2   22.80    2.50
  -1   4   2   22.00    2.00
   0  -4  -2   63.99    3.70
   0  -4  -2   66.49    2.90
   0  -4   2   69.69    3.30
   0  -4   2   63.29    3.60
   0  -4  -2   68.39    3.40
   0   4   2   68.09    3.30
   0   4  -2   74.79    2.80
   0   4  -2   71.09    3.60
   0   4   2   67.89    4.10
   0   4  -2   70.49    3.10
   0   4   2   69.99    3.00
   0   4  -2   69.19    3.40
   0   4  -2   65.19    3.10
   0   4   2   64.99    3.50
  -1  -4  -2 3843.32  136.59
   1  -4   2 4187.08  136.79
   1  -4   2 4247.27  137.49
  -1  -4  -2 3947.41  137.09
  -1  -4  -2 3861.81  136.59
   1  -4   2 3974.20  136.79
   1   4   2 3910.51  136.69
   1   4   2 3776.02  136.29
   1   4   2 3915.51  136.69
   1   4   2 3816.62  137.39
   1   4   2 4007.60  136.69
  -1   4  -2 3983.30  136.79
  -1   4  -2 4008.90  136.69
  -1   4  -2 3897.21  136.69
  -2  -4  -2  664.43   24.40
   2  -4   2  685.63   25.30
  -2  -4  -2  689.33   24.90
   2  -4   2  703.73   24.70
  -2  -4  -2  654.73   24.30
   2  -4   2  692.03   24.30
   2   4   2  702.23   24.40
  -2   4  -2  690.73   24.60
  -2   4  -2  699.03   24.50
  -2   4  -2  675.43   24.10
   2   4   2  684.43   25.40
   2   4   2  661.83   24.40
   2   4   2  681.23   24.30
  -2   4  -2  677.23   24.30
  -3  -4  -2   89.39    4.70
  -3  -4  -2   92.69    5.40
  -3  -4  -2   83.09    4.50
   3  -4   2   91.19    4.20
   3  -4   2   96.79    5.20
   3  -4   2   81.59    5.60
   3   4   2   84.79    4.60
  -3   4  -2   98.09    5.00
   3   4   2   97.99    4.40
  -3   4  -2   87.09    4.30
   3   4   2   80.89    4.80
  -3   4  -2   94.69    4.80
   3   4   2   85.69    5.80
   4  -4   2   32.00    4.10
  -4  -4  -2   39.00    3.90
  -4  -4  -2   37.90    4.40
   4  -4   2   34.10    4.60
   4  -4   2   40.20    2.90
  -4   4  -2   33.70    3.80
  -4   4  -2   37.90    3.10
  -4   4  -2   40.00    4.10
   4   4   2   39.30    3.00
   4   4   2   32.70    4.70
   4   4   2   28.00    3.50
  -5  -4  -2   10.30    2.80
   5  -4   2   14.40    3.20
   5  -4   2   10.30    2.20
  -5  -4  -2   13.50    3.50
   5  -4   2   10.30    3.40
   5   4   2   13.30    2.10
   5   4   2   13.50    2.60
   5   4   2    7.90    3.30
  -5   4  -2    8.20    2.90
  -6  -4  -2   35.00    5.40
   6  -4   2   38.30    6.40
   6  -4   2   24.50    4.00
  -6  -4  -2   29.50    4.60
   6   4   2   34.30    4.60
   6   4   2   29.20    5.30
  -6   4  -2   27.50    4.20
  -7  -4  -2    8.80    3.80
   7  -4   2    8.30    4.70
   7  -4   2    8.80    3.60
  -7  -4  -2    2.60    4.00
   7   4   2    3.40    4.30
   7   4   2    3.40    3.00
  -7   4  -2   11.40    3.90
  -8  -4  -2   11.10    5.20
  -8  -4  -2    9.80    4.70
  -8  -5   2  112.29    8.30
   8  -5  -2   92.99    7.60
   8  -5  -2   89.89    9.20
   8  -5  -2  102.89    7.80
   8   5  -2   79.09    5.90
  -8   5   2  106.69    7.80
   8   5  -2  121.89    8.80
   8   5  -2   99.49    9.40
   7  -5  -2   50.29    5.80
   7  -5  -2   56.09    5.90
  -7  -5   2   53.79    6.10
   7  -5  -2   48.10    6.90
  -7   5   2   52.59    5.20
   7   5  -2   62.19    7.10
   7   5  -2   51.29    6.10
   7   5  -2   48.10    4.30
  -7   5   2   45.40    5.70
   6  -5  -2   -4.00    2.20
   6  -5  -2    2.10    3.00
   6  -5  -2   -0.20    2.40
  -6  -5   2   -0.40    2.50
   6   5  -2    2.50    2.90
   6   5  -2   -2.00    2.50
  -6   5   2   -0.80    2.30
  -6   5   2    6.90    2.90
   6   5  -2   -0.30    1.70
  -5  -5   2   29.70    3.00
   5  -5  -2   32.20    4.00
   5  -5  -2   30.80    4.00
  -5  -5   2   26.10    4.00
   5  -5  -2   28.30    4.80
   5   5  -2   30.30    4.50
   5   5  -2   32.00    2.80
   5   5  -2   31.00    4.10
  -5   5   2   39.10    4.00
  -5   5   2   32.70    3.90
  -4  -5   2 1366.46   47.70
   4  -5  -2 1373.46   48.30
   4  -5  -2 1309.87   47.30
   4  -5  -2 1355.36   48.40
  -4  -5   2 1349.86   48.30
   4  -5  -2 1409.66   49.50
   4   5  -2 1367.36   47.40
  -4   5   2 1353.26   48.10
   4   5  -2 1346.87   49.00
  -4   5   2 1402.16   48.10
   4   5  -2 1340.07   48.50
  -4   5   2 1372.46   48.20
   3  -5  -2   13.60    2.00
  -3  -5   2   15.30    2.10
   3  -5  -2   28.00    5.50
   3  -5  -2   20.00    2.70
  -3   5   2   19.20    2.60
   3   5  -2   16.60    2.60
  -3   5   2   17.40    1.80
   3   5  -2   14.70    1.80
  -3   5   2   17.30    2.20
   3   5  -2   14.90    2.20
   3   5  -2   18.50    3.20
  -3   5   2   18.00    2.80
   2  -5  -2  447.56   16.10
   2  -5  -2  461.65   17.00
   2  -5  -2  405.96   16.10
  -2   5   2  423.16   15.60
   2   5  -2  428.06   16.00
   2   5  -2  415.06   15.70
  -2   5   2  450.25   16.10
   2   5  -2  469.25   16.40
   2   5  -2  431.06   15.90
  -2   5   2  441.36   15.90
   2   5  -2  445.06   15.80
  -2   5   2  423.76   15.60
   1  -5  -2  172.68    7.00
   1  -5  -2  171.18    7.70
  -1  -5   2  166.08    6.80
  -1  -5   2  158.08    7.10
   1  -5  -2  162.88    7.10
   1   5  -2  181.38    7.00
  -1   5   2  183.18    6.90
   1   5  -2  182.38    7.00
  -1   5   2  181.18    7.10
  -1   5   2  177.28    6.80
   1   5  -2  189.78    6.80
   0  -5  -2  299.27   10.90
   0  -5  -2  285.37   11.20
   0  -5   2  296.87   10.90
   0  -5   2  289.57   11.20
   0   5   2  287.37   10.60
   0   5   2  297.27   10.90
   0   5  -2  290.57   10.70
   0   5  -2  303.27   10.90
   0   5  -2  293.47   10.60
   0   5  -2  306.37   10.90
   0   5   2  289.07   10.90
   0   5   2  269.97   11.60
   1  -5   2  369.56   12.50
   1  -5   2  334.77   12.50
  -1  -5  -2  338.27   12.20
  -1  -5  -2  320.57   12.90
   1  -5   2  314.97   13.70
  -1   5  -2  346.87   12.40
   1   5   2  324.57   12.00
   1   5   2  342.67   12.40
  -1   5  -2  358.26   12.60
  -1   5  -2  335.27   12.50
   1   5   2  336.17   12.50
   1   5   2  331.07   13.40
   1   5   2  324.07   12.40
  -2  -5  -2  943.01   34.40
   2  -5   2 1036.20   34.70
   2  -5   2 1009.00   35.50
  -2  -5  -2  970.00   35.00
   2  -5   2  995.70   34.40
   2   5   2  955.90   35.50
   2   5   2  973.00   34.30
   2   5   2  950.00   34.40
   2   5   2  974.70   34.40
  -2   5  -2  943.71   34.00
  -2   5  -2  980.10   34.60
  -2   5  -2  945.81   34.40
  -2   5  -2  998.30   34.50
   3  -5   2   14.60    2.30
   3  -5   2   17.50    3.50
  -3  -5  -2   17.30    2.80
   3  -5   2   16.50    2.20
  -3  -5  -2    9.00    2.50
   3   5   2   15.40    2.90
  -3   5  -2   16.80    2.60
  -3   5  -2   16.10    2.30
   3   5   2   15.50    2.40
  -3   5  -2   22.40    3.00
   3   5   2   15.60    2.00
  -4  -5  -2   20.30    3.30
   4  -5   2   26.20    4.10
  -4  -5  -2   20.20    2.80
   4  -5   2   24.80    2.50
   4  -5   2   26.30    4.60
   4   5   2   21.20    2.80
  -4   5  -2   19.10    2.40
   4   5   2   23.50    2.60
  -4   5  -2   23.50    3.80
  -4   5  -2   23.10    2.80
   4   5   2   23.40    3.80
   5  -5   2   15.30    3.30
  -5  -5  -2    7.00    2.80
   5  -5   2   13.70    2.60
   5  -5   2    9.60    3.60
  -5  -5  -2   17.60    3.70
  -5   5  -2   11.10    3.10
   5   5   2   18.30    2.80
  -5   5  -2   14.30    2.40
   5   5   2   11.90    2.10
   5   5   2   13.90    3.90
  -6  -5  -2    4.40    3.70
  -6  -5  -2    3.40    3.10
   6  -5   2   -4.10    2.80
   6  -5   2   -3.10    3.30
   6   5   2   -2.20    3.40
   6   5   2   -0.40    2.40
  -6   5  -2    0.30    2.90
  -7  -5  -2  267.97   13.80
   7  -5   2  272.47   15.30
  -7  -5  -2  269.17   13.00
   7   5   2  255.37   15.10
   7   5   2  265.67   12.10
  -7   5  -2  266.07   13.00
  -8  -5  -2   11.00    5.40
   8  -6  -2   -7.50    3.20
  -8  -6   2    3.50    3.60
   8  -6  -2    2.00    4.20
   8  -6  -2    8.00    3.30
   8   6  -2   -0.10    3.70
   8   6  -2    3.60    2.30
  -8   6   2    3.40    3.40
   8   6  -2    3.60    4.10
   7  -6  -2   -0.10    2.90
   7  -6  -2    2.90    3.00
  -7  -6   2   -1.10    3.00
   7  -6  -2    3.40    3.50
   7   6  -2    3.00    3.30
   7   6  -2    0.60    1.90
   7   6  -2    4.30    3.70
  -7   6   2   -0.10    2.90
  -7   6   2    1.70    2.80
   6  -6  -2   61.39    5.30
   6  -6  -2   48.20    6.50
  -6  -6   2   55.99    5.50
   6  -6  -2   68.19    5.60
  -6   6   2   62.49    5.40
   6   6  -2   57.59    3.90
  -6   6   2   69.19    5.20
   6   6  -2   55.19    6.30
   6   6  -2   62.49    5.90
   5  -6  -2   70.69    6.30
   5  -6  -2   49.20    4.70
  -5  -6   2   52.09    3.60
  -5  -6   2   56.69    4.70
   5  -6  -2   53.29    4.60
  -5   6   2   56.49    4.40
  -5   6   2   55.49    4.50
   5   6  -2   49.99    5.40
   5   6  -2   55.59    4.80
  -4  -6   2  239.48   10.20
   4  -6  -2  269.47   11.80
   4  -6  -2  242.38   10.30
   4  -6  -2  252.27   10.30
  -4  -6   2  239.08    9.60
   4   6  -2  247.68    9.40
   4   6  -2  259.87   11.10
  -4   6   2  255.47   10.00
  -4   6   2  240.88   10.20
  -4   6   2  252.37   10.10
   4   6  -2  234.18   10.50
   3  -6  -2  447.26   17.10
  -3  -6   2  433.96   16.60
   3  -6  -2  445.86   17.10
  -3   6   2  466.85   16.70
   3   6  -2  487.65   17.00
   3   6  -2  467.95   16.60
   3   6  -2  474.85   17.70
  -3   6   2  451.35   17.10
   3   6  -2  481.25   17.30
  -3   6   2  444.26   16.50
  -3   6   2  448.96   17.00
   2  -6  -2  127.69    5.90
   2  -6  -2  118.39    7.20
   2  -6  -2  137.79    5.90
  -2   6   2  123.49    5.40
  -2   6   2  130.19    5.20
   2   6  -2  143.39    6.40
   2   6  -2  140.69    5.70
   2   6  -2  139.59    5.80
   2   6  -2  130.19    5.50
  -2   6   2  139.09    6.00
   2   6  -2  126.89    5.70
  -2   6   2  130.99    5.70
   1  -6  -2  289.37   12.10
   1  -6  -2  295.27   11.30
   1  -6  -2  285.37   11.50
  -1  -6   2  276.77   11.60
  -1   6   2  301.47   11.20
   1   6  -2  323.47   11.10
   1   6  -2  303.57   11.30
  -1   6   2  311.57   11.30
   1   6  -2  308.17   11.30
  -1   6   2  319.77   11.40
   0  -6   2   85.89    4.40
   0  -6  -2   73.99    3.80
   0  -6  -2   76.79    4.20
   0  -6   2   79.89    3.90
   0   6   2   77.49    3.90
   0   6  -2   72.89    3.50
   0   6  -2   84.79    4.00
   0   6   2   72.29    4.90
   0   6   2   80.29    3.50
   0   6   2   75.09    3.90
   0   6   2   74.89    3.70
   0   6  -2   82.09    3.90
   0   6  -2   77.69    3.50
   1  -6   2  413.66   19.70
   1  -6   2  511.35   17.90
  -1  -6  -2  486.25   17.50
  -1  -6  -2  478.55   18.30
   1  -6   2  540.15   17.90
   1   6   2  497.15   17.90
   1   6   2  497.15   17.70
   1   6   2  487.15   18.80
  -1   6  -2  508.05   17.90
   1   6   2  481.15   17.70
  -1   6  -2  522.15   17.90
   1   6   2  474.65   17.40
  -1   6  -2  488.35   17.70
  -2  -6  -2  882.31   33.30
  -2  -6  -2  914.11   32.70
   2  -6   2  991.60   34.20
   2  -6   2  928.51   33.00
   2  -6   2  948.71   32.80
  -2   6  -2  922.71   32.90
  -2   6  -2  941.41   32.90
   2   6   2  942.91   32.70
   2   6   2  914.61   34.00
   2   6   2  864.91   32.70
   2   6   2  926.51   32.80
  -2   6  -2  925.61   32.90
   3  -6   2  109.39    5.70
  -3  -6  -2   99.69    5.20
   3  -6   2  103.59    4.90
  -3  -6  -2  104.69    6.00
   3  -6   2  110.09    6.60
  -3   6  -2   98.29    5.10
   3   6   2  106.59    6.60
   3   6   2  105.39    5.00
   3   6   2   99.39    5.10
  -3   6  -2  103.59    5.50
  -3   6  -2  106.39    5.40
   4  -6   2   12.20    2.60
  -4  -6  -2   10.80    3.00
   4  -6   2   13.80    1.90
  -4  -6  -2    9.70    2.40
   4  -6   2    8.40    3.10
   4   6   2   13.40    3.40
   4   6   2   14.30    2.20
  -4   6  -2   10.50    2.50
   4   6   2    9.60    2.00
  -4   6  -2   14.60    2.20
  -4   6  -2    8.10    2.40
   5  -6   2  292.37   14.30
   5  -6   2  298.47   12.90
  -5  -6  -2  298.77   12.60
  -5  -6  -2  303.27   13.60
   5   6   2  294.67   11.70
   5   6   2  283.87   14.20
   5   6   2  294.37   12.00
  -5   6  -2  292.37   11.90
  -5   6  -2  288.87   12.60
  -6  -6  -2   12.30    4.10
  -6  -6  -2   12.20    3.30
   6  -6   2   13.10    4.30
   6   6   2    6.00    2.70
  -6   6  -2   11.90    3.60
   6   6   2   13.00    4.30
  -7  -6  -2   40.10    5.00
   7  -6   2   25.40    5.60
  -7  -6  -2   38.90    5.70
  -7   6  -2   28.40    4.90
   7   6   2   40.40    5.10
   7   6   2   32.80    6.10
   8  -7  -2    6.10    4.50
  -8  -7   2   12.90    4.20
   8  -7  -2   15.40    5.10
  -8   7   2   11.40    4.10
   8   7  -2   14.10    4.40
   8   7  -2   11.60    4.60
   7  -7  -2   57.29    7.30
   7  -7  -2   50.29    6.20
   7  -7  -2   56.69    6.00
  -7  -7   2   61.39    6.50
  -7   7   2   65.39    5.70
   7   7  -2   58.69    6.90
   7   7  -2   42.40    6.30
  -7   7   2   45.60    5.70
   6  -7  -2   -0.20    2.60
   6  -7  -2    4.40    2.80
  -6  -7   2    0.20    2.70
   6  -7  -2    5.50    3.40
  -6   7   2    3.20    2.70
   6   7  -2   -1.80    2.70
  -6   7   2    0.50    2.60
   6   7  -2    3.00    3.10
  -5  -7   2  422.56   16.40
   5  -7  -2  423.66   16.50
   5  -7  -2  442.76   16.50
   5  -7  -2  416.76   18.00
  -5  -7   2  390.06   15.40
  -5   7   2  426.66   16.20
   5   7  -2  417.56   16.80
   5   7  -2  406.16   17.50
  -5   7   2  405.66   16.10
   4  -7  -2   22.30    3.40
  -4  -7   2   20.90    2.50
   4  -7  -2   26.60    5.20
   4  -7  -2   19.50    3.30
  -4  -7   2   16.90    2.50
  -4   7   2   24.10    3.20
  -4   7   2   21.20    2.70
   4   7  -2   17.90    2.30
  -4   7   2   24.70    3.00
  -4   7   2   20.50    2.20
   4   7  -2   23.40    4.10
   4   7  -2   23.70    3.40
   3  -7  -2   -0.90    1.50
   3  -7  -2   -0.20    2.90
   3  -7  -2    0.30    1.50
  -3   7   2    3.00    1.70
  -3   7   2   -2.80    1.40
  -3   7   2    0.00    1.30
   3   7  -2    0.90    1.60
   3   7  -2   -1.60    1.40
   3   7  -2    0.70    1.20
  -3   7   2    0.10    1.10
   3   7  -2    3.20    2.00
   2  -7  -2    1.60    1.40
   2  -7  -2    1.80    1.50
   2  -7  -2    2.00    1.90
  -2   7   2   -1.70    1.30
   2   7  -2    2.70    1.40
  -2   7   2    2.90    1.00
  -2   7   2    0.70    1.20
   2   7  -2    1.50    1.30
   2   7  -2    3.60    1.40
   2   7  -2    1.80    1.20
   2   7  -2    1.00    1.80
  -2   7   2    0.40    1.40
   1  -7  -2 2065.59   72.89
   1  -7  -2 2009.10   73.79
  -1  -7   2 1965.40   73.29
   1  -7  -2 2042.30   73.09
  -1   7   2 2076.09   72.79
  -1   7   2 2192.88   72.89
  -1   7   2 2027.50   72.79
   1   7  -2 2136.19   72.79
   1   7  -2 2250.77   72.69
   1   7  -2 2114.89   72.89
   1   7  -2 2141.29   72.89
   0  -7   2  429.46   16.20
   0  -7  -2  416.66   15.90
   0  -7   2  431.36   15.50
   0   7  -2  427.66   15.20
   0   7  -2  449.76   15.60
   0   7  -2  441.46   15.50
   0   7   2  413.36   15.30
   0   7   2  396.76   15.30
   0   7   2  428.76   15.60
   0   7  -2  410.36   15.10
   0   7   2  414.06   15.40
  -1  -7  -2   97.89    5.30
   1  -7   2  113.89    4.80
   1  -7   2   99.99    4.80
   1  -7   2  109.49    6.40
  -1   7  -2   92.69    4.50
  -1   7  -2   97.89    4.50
  -1   7  -2  107.69    4.80
   1   7   2  104.49    4.50
   1   7   2   93.19    5.80
  -1   7  -2   98.59    4.80
   1   7   2   97.79    4.60
   1   7   2   96.49    4.10
   1   7   2  102.39    4.80
   2  -7   2  350.46   15.30
   2  -7   2  376.86   13.60
  -2  -7  -2  348.87   14.20
   2  -7   2  364.26   13.80
  -2  -7  -2  346.57   13.40
  -2   7  -2  374.86   13.80
  -2   7  -2  391.46   13.80
   2   7   2  368.86   13.40
  -2   7  -2  356.56   13.60
   2   7   2  334.07   13.40
   2   7   2  372.76   13.70
   2   7   2  367.46   15.00
   3  -7   2  452.45   16.30
  -3  -7  -2  423.36   17.20
   3  -7   2  450.35   16.80
  -3  -7  -2  420.86   16.40
   3  -7   2  440.46   18.00
  -3   7  -2  456.75   16.60
  -3   7  -2  455.35   16.50
   3   7   2  420.36   16.20
  -3   7  -2  446.76   16.60
   3   7   2  420.36   17.90
   3   7   2  434.46   16.30
  -4  -7  -2  892.21   33.70
   4  -7   2  948.21   32.60
  -4  -7  -2  916.61   32.90
   4  -7   2  902.31   34.60
   4  -7   2  943.91   33.50
   4   7   2  911.31   32.50
  -4   7  -2  870.61   32.90
   4   7   2  900.91   34.70
   4   7   2  866.71   32.50
  -4   7  -2  886.21   32.70
  -4   7  -2  941.31   33.00
  -5  -7  -2   23.70    4.20
   5  -7   2   29.20    5.80
  -5  -7  -2   29.60    3.70
   5   7   2   37.00    3.50
  -5   7  -2   36.00    4.10
   5   7   2   29.20    5.90
  -5   7  -2   34.80    4.90
   5   7   2   27.90    3.90
  -6  -7  -2    1.20    3.70
  -6  -7  -2   -2.00    2.80
   6  -7   2    2.70    3.80
  -6   7  -2    0.00    3.10
   6   7   2   -0.20    2.20
   6   7   2   -2.30    3.50
   7  -7   2    9.20    4.80
  -7  -7  -2    8.90    4.60
  -7  -7  -2   10.10    3.90
   7   7   2   10.90    4.90
  -7   7  -2    8.80    4.00
   7   7   2    7.60    2.90
  -8  -8   2    3.30    3.80
   8  -8  -2    0.90    4.30
  -8   8   2    5.30    3.70
   8   8  -2    1.40    3.90
   8   8  -2   -4.00    3.60
   7  -8  -2  160.68   10.80
   7  -8  -2  155.98    9.50
  -7  -8   2  149.69    9.10
  -7   8   2  151.08    8.70
  -7   8   2  163.28    8.70
   7   8  -2  146.89   10.20
   7   8  -2  145.79    9.60
  -6  -8   2  118.29    7.50
   6  -8  -2  117.89    7.20
   6  -8  -2  113.09    7.40
   6  -8  -2  130.59    9.10
   6   8  -2  105.69    8.30
  -6   8   2  124.29    7.20
  -6   8   2  128.99    7.10
   6   8  -2  127.89    7.70
  -5  -8   2   -1.20    2.30
  -5  -8   2   -3.00    1.50
   5  -8  -2    0.60    2.30
   5  -8  -2    1.20    3.30
   5  -8  -2    1.90    2.20
  -5   8   2    1.50    2.10
  -5   8   2   -0.60    2.30
   5   8  -2   -0.10    2.60
   5   8  -2   -1.60    2.20
   4  -8  -2  290.57   11.60
   4  -8  -2  304.37   15.00
  -4  -8   2  281.57   11.00
  -4  -8   2  301.17   11.70
   4  -8  -2  298.67   11.90
   4   8  -2  276.27   11.00
  -4   8   2  281.07   10.90
  -4   8   2  289.47   11.30
  -4   8   2  283.57   11.70
  -4   8   2  284.87   11.60
   4   8  -2  287.07   12.80
   4   8  -2  285.37   12.00
   3  -8  -2    7.10    3.30
   3  -8  -2    7.30    1.80
   3  -8  -2    9.10    2.10
  -3   8   2   10.70    1.60
  -3   8   2    8.50    1.60
   3   8  -2    8.40    1.60
   3   8  -2    9.40    2.10
   3   8  -2    8.80    1.60
  -3   8   2    3.10    1.80
   3   8  -2    8.90    2.50
  -3   8   2    6.60    1.80
   3   8  -2    7.80    1.80
   2  -8  -2  918.81   32.90
   2  -8  -2  882.31   32.80
   2  -8  -2  913.31   33.90
   2   8  -2  911.41   32.70
  -2   8   2  888.01   32.50
   2   8  -2  889.11   32.60
   2   8  -2  919.21   32.60
  -2   8   2  918.51   32.80
  -2   8   2  945.61   32.80
   2   8  -2  995.80   33.60
   2   8  -2  936.21   32.60
   1  -8  -2  488.55   18.70
  -1  -8   2  514.45   19.40
   1  -8  -2  507.85   19.90
   1  -8  -2  494.15   18.90
  -1   8   2  514.25   18.70
  -1   8   2  501.15   18.70
   1   8  -2  534.45   18.80
  -1   8   2  533.85   18.70
   1   8  -2  529.05   18.40
   1   8  -2  518.05   18.70
   1   8  -2  516.05   18.60
   0  -8  -2    9.90    2.00
   0  -8  -2    8.30    1.50
   0  -8  -2    4.60    2.30
   0  -8   2    4.70    1.80
   0   8  -2    8.20    1.20
   0   8  -2    9.80    1.70
   0   8   2    6.60    1.50
   0   8   2    8.40    1.60
   0   8  -2    7.30    1.20
   0   8  -2    8.70    1.60
   0   8   2   10.40    1.40
   0   8   2   12.40    1.90
   1  -8   2    2.60    1.40
  -1  -8  -2    2.50    1.80
   1  -8   2   -1.50    2.10
   1  -8   2    1.90    1.30
  -1   8  -2    1.80    1.20
   1   8   2    0.60    1.20
   1   8   2    0.60    1.20
  -1   8  -2    1.70    1.40
   1   8   2   -0.60    2.00
  -1   8  -2    1.00    1.20
   1   8   2   -1.30    1.00
  -1   8  -2    0.60    1.40
   1   8   2    1.00    0.90
   2  -8   2  247.68    9.70
  -2  -8  -2  219.88   10.00
   2  -8   2  252.27    9.40
  -2  -8  -2  233.58    9.10
   2  -8   2  217.88   11.50
  -2   8  -2  249.18    9.60
  -2   8  -2  242.68    9.40
  -2   8  -2  254.87    9.50
   2   8   2  220.98    9.10
   2   8   2  232.48    9.10
   2   8   2  233.18    9.40
   2   8   2  224.28    8.60
   2   8   2  238.68   10.90
  -3  -8  -2  128.69    6.90
   3  -8   2  125.39    7.70
   3  -8   2  127.49    5.80
  -3  -8  -2  118.29    5.80
  -3   8  -2  127.29    6.20
   3   8   2  115.09    5.60
  -3   8  -2  122.99    6.00
   3   8   2  128.59    7.70
   3   8   2  126.49    5.90
  -3   8  -2  124.19    6.20
  -4  -8  -2   32.20    3.90
   4  -8   2   34.90    3.20
  -4  -8  -2   30.30    4.90
   4  -8   2   36.00    5.50
  -4   8  -2   31.40    4.20
   4   8   2   30.30    5.20
   4   8   2   38.30    3.50
   4   8   2   30.40    3.40
  -4   8  -2   30.30    3.80
  -4   8  -2   39.70    4.20
   5  -8   2   33.70    6.20
  -5  -8  -2   36.00    6.10
  -5  -8  -2   36.00    4.70
   5   8   2   33.70    4.00
   5   8   2   41.20    6.40
   5   8   2   37.20    3.80
  -5   8  -2   32.80    5.00
  -5   8  -2   47.30    4.30
  -6  -8  -2   15.50    4.70
   6  -8   2   27.50    5.40
  -6  -8  -2   27.40    4.10
   6   8   2   25.00    5.40
   6   8   2   21.70    3.20
  -6   8  -2   27.60    4.40
   7  -8   2    7.50    4.90
  -7  -8  -2    0.90    3.40
  -7  -8  -2    4.70    4.60
  -7   8  -2    0.60    3.70
   7   8   2    9.30    2.90
   7   8   2    6.40    4.80
  -8  -9   2   28.20    5.10
   8  -9  -2   28.50    6.40
  -8   9   2   20.90    4.60
   8   9  -2   21.80    5.20
  -8   9   2   24.90    5.20
   8   9  -2   32.50    5.40
  -7  -9   2  104.99    7.80
   7  -9  -2  104.09    9.30
  -7   9   2  112.19    7.60
   7   9  -2  113.59    9.10
  -7   9   2  110.89    7.60
   7   9  -2  107.19    8.40
  -6  -9   2  137.59    8.00
   6  -9  -2  138.29    9.80
   6  -9  -2  135.69    7.70
  -6   9   2  140.09    7.70
  -6   9   2  160.98    8.10
   6   9  -2  138.89    8.50
   6   9  -2  142.69    9.40
   5  -9  -2   15.50    2.80
  -5  -9   2   17.00    2.80
  -5  -9   2   14.10    2.90
   5  -9  -2   12.50    2.90
   5  -9  -2   16.30    4.50
  -5   9   2   13.50    2.90
   5   9  -2   14.10    3.00
   5   9  -2   14.90    3.60
  -5   9   2   13.80    2.60
   4  -9  -2    9.20    2.20
  -4  -9   2    5.70    2.10
   4  -9  -2    3.30    2.30
   4  -9  -2    6.80    4.10
  -4  -9   2    1.10    1.40
  -4   9   2    8.30    2.30
  -4   9   2    4.80    1.90
   4   9  -2    5.20    1.70
   4   9  -2    4.70    2.60
   4   9  -2    2.70    2.20
  -4   9   2    6.90    1.70
  -4   9   2    6.10    2.20
   3  -9  -2   28.20    3.00
   3  -9  -2   22.60    3.40
   3  -9  -2   24.00    4.30
   3   9  -2   25.20    2.90
   3   9  -2   23.80    3.20
   3   9  -2   26.80    4.00
   3   9  -2   18.50    2.60
  -3   9   2   27.30    3.20
  -3   9   2   26.20    3.40
  -3   9   2   24.40    2.70
   3   9  -2   20.60    2.50
  -3   9   2   18.80    2.40
   2  -9  -2   -0.50    2.00
   2  -9  -2    0.10    1.50
   2  -9  -2   -0.60    1.30
  -2   9   2    0.50    1.50
  -2   9   2    1.00    1.40
   2   9  -2    1.30    1.30
   2   9  -2   -0.10    1.20
   2   9  -2    1.00    1.40
   2   9  -2   -0.80    1.30
  -2   9   2   -2.00    1.50
   2   9  -2    1.60    2.00
  -1  -9   2  395.76   15.90
   1  -9  -2  401.36   16.40
   1  -9  -2  383.46   15.30
   1  -9  -2  397.96   15.10
   1   9  -2  419.16   15.20
  -1   9   2  390.86   15.00
  -1   9   2  405.76   15.10
   1   9  -2  422.46   15.20
   1   9  -2  402.26   14.70
  -1   9   2  416.86   15.10
   1   9  -2  421.66   15.00
   0  -9   2 2157.98   73.09
   0  -9  -2 2064.99   73.49
   0  -9  -2 2034.00   72.49
   0   9   2 1937.11   71.89
   0   9  -2 2064.99   71.69
   0   9  -2 2164.28   72.19
   0   9   2 1969.90   71.89
   0   9   2 2062.19   72.19
   0   9   2 2034.10   71.89
   0   9  -2 2136.19   71.79
   0   9  -2 2099.39   71.99
   1  -9   2    3.30    2.10
   1  -9   2   -0.20    1.30
  -1  -9  -2    0.10    1.70
   1   9   2    0.00    1.10
  -1   9  -2    0.70    1.40
  -1   9  -2    0.70    1.20
   1   9   2   -0.30    1.30
  -1   9  -2    0.90    1.40
   1   9   2   -0.10    1.10
   1   9   2   -1.10    2.00
  -1   9  -2    2.00    1.20
   1   9   2   -0.20    0.90
   2  -9   2   76.69    7.40
   2  -9   2  105.59    4.90
  -2  -9  -2   80.09    4.20
  -2  -9  -2   91.89    5.60
   2   9   2   98.59    4.90
  -2   9  -2   87.39    4.80
   2   9   2   89.29    6.30
   2   9   2   86.19    4.30
   2   9   2   89.79    4.40
   2   9   2   91.29    3.80
  -2   9  -2   89.29    4.70
  -2   9  -2   92.99    4.70
  -3  -9  -2   68.69    5.60
   3  -9   2   74.09    6.80
   3  -9   2   73.19    4.20
  -3  -9  -2   72.99    4.30
   3   9   2   70.09    4.10
  -3   9  -2   83.99    4.80
  -3   9  -2   68.79    4.70
   3   9   2   74.29    4.50
  -3   9  -2   69.39    4.70
   3   9   2   80.09    6.40
   4  -9   2   -1.50    1.60
   4  -9   2    7.30    3.50
  -4  -9  -2   -1.20    2.70
  -4  -9  -2    0.20    2.00
   4   9   2    2.10    3.10
   4   9   2    1.60    1.80
  -4   9  -2   -0.30    2.20
  -4   9  -2   -3.40    2.10
   4   9   2    1.50    1.70
  -4   9  -2   -0.40    2.10
  -5  -9  -2  119.89    6.90
  -5  -9  -2  108.49    8.40
   5  -9   2  123.39    9.00
   5   9   2  110.19    6.00
  -5   9  -2  113.99    7.10
   5   9   2  113.49    6.00
  -5   9  -2  105.29    6.50
   5   9   2  110.89    8.80
   6  -9   2   39.80    7.40
  -6  -9  -2   49.90    5.80
  -6  -9  -2   41.90    7.00
  -6   9  -2   32.20    4.50
   6   9   2   31.00    5.80
   6   9   2   37.90    4.40
   7  -9   2   18.60    5.80
  -7  -9  -2   23.80    5.60
  -7  -9  -2   17.10    4.20
  -7   9  -2   14.30    4.10
   7   9   2   14.50    5.40
   7   9   2   16.90    3.20
   8 -10  -2    3.50    4.70
  -8 -10   2    1.20    3.80
   8  10  -2    2.30    5.10
   8  10  -2   -1.40    3.80
  -8  10   2    3.00    3.60
  -8  10   2    5.30    3.80
  -7 -10   2    0.20    3.30
   7 -10  -2    1.20    4.00
  -7  10   2    3.40    3.20
  -7  10   2    2.50    3.30
   7  10  -2   -3.60    3.20
   7  10  -2    0.40    3.70
  -6 -10   2    7.30    3.10
   6 -10  -2    7.50    4.30
  -6  10   2    3.30    2.70
   6  10  -2    7.80    3.60
   6  10  -2   12.40    3.40
  -6  10   2    3.90    2.90
   5 -10  -2   90.49    5.80
   5 -10  -2  112.79    9.20
  -5 -10   2   94.39    6.10
   5  10  -2   86.29    7.00
  -5  10   2   89.19    6.10
  -5  10   2   88.59    5.50
   5  10  -2   93.49    6.50
  -4 -10   2  279.07   11.30
  -4 -10   2  301.07   11.90
   4 -10  -2  290.37   11.80
   4 -10  -2  258.47   16.80
   4  10  -2  293.57   11.50
  -4  10   2  290.57   12.10
   4  10  -2  300.07   13.40
   4  10  -2  287.77   12.30
  -4  10   2  306.57   12.10
  -4  10   2  290.57   11.30
  -4  10   2  294.97   11.40
   3 -10  -2   59.99    6.40
   3 -10  -2   56.79    4.50
   3 -10  -2   53.49    3.90
   3  10  -2   59.79    3.90
  -3  10   2   58.89    3.80
   3  10  -2   55.29    3.60
  -3  10   2   53.39    3.20
  -3  10   2   61.59    4.30
   3  10  -2   63.89    5.40
   3  10  -2   60.19    4.30
  -3  10   2   53.19    4.10
   3  10  -2   52.59    3.70
   2 -10  -2   76.59    5.80
   2 -10  -2   64.19    4.20
   2 -10  -2   66.19    4.30
  -2  10   2   65.89    4.10
  -2  10   2   73.89    4.30
   2  10  -2   74.39    4.10
  -2  10   2   75.69    4.40
   2  10  -2   72.89    4.00
   2  10  -2   77.09    4.20
   2  10  -2   75.49    4.20
   1 -10  -2   13.30    2.00
  -1 -10   2    9.80    2.30
  -1 -10   2   13.00    1.70
   1 -10  -2   12.20    2.10
   1 -10  -2   10.40    2.80
  -1  10   2   10.60    1.90
  -1  10   2    9.00    1.70
  -1  10   2   14.80    2.10
   1  10  -2   10.80    1.80
   1  10  -2    8.90    1.80
   1  10  -2   12.00    1.90
   0 -10  -2  559.14   21.90
   0 -10   2  568.94   21.40
   0 -10  -2  546.25   20.70
   0  10  -2  551.24   20.10
   0  10  -2  549.54   19.80
   0  10  -2  553.44   19.90
   0  10  -2  591.34   20.50
   0  10   2  539.45   20.10
   0  10   2  587.54   20.50
   0  10   2  526.15   20.10
   0  10   2  516.65   20.00
   0  10  -2  585.34   20.50
  -1 -10  -2  231.78   10.40
   1 -10   2  295.77   11.70
   1 -10   2  257.57   10.00
   1  10   2  239.28   11.40
   1  10   2  247.08    9.40
  -1  10  -2  247.58    9.60
   1  10   2  241.88   10.00
   1  10   2  229.58    9.50
  -1  10  -2  251.97   10.00
  -1  10  -2  252.67    9.80
   1  10   2  236.28    9.50
  -2 -10  -2   -1.10    2.10
   2  10   2    3.20    2.60
   2  10   2    2.20    1.00
   2  10   2    0.50    1.30
   2  10   2    2.60    1.60
   3 -10   2   26.80    4.80
   3 -10   2   28.60    3.20
  -3 -10  -2   29.30    3.10
  -3 -10  -2   26.30    4.40
   3  10   2   25.10    3.30
   3  10   2   28.90    2.80
  -3  10  -2   28.10    3.70
   3  10   2   26.70    4.20
  -3  10  -2   29.70    3.60
  -3  10  -2   30.60    3.80
  -4 -10  -2    5.90    2.30
  -4 -10  -2    6.20    3.30
   4 -10   2    7.00    1.90
   4 -10   2    4.00    3.60
   4  10   2    4.80    1.80
   4  10   2    6.60    3.50
  -4  10  -2    6.60    2.40
  -4  10  -2    6.10    2.60
  -4  10  -2   10.00    2.60
   4  10   2    4.20    2.00
  -5 -10  -2   11.30    4.00
  -5 -10  -2   11.90    3.00
   5 -10   2    6.90    4.10
  -5  10  -2   12.70    3.00
  -5  10  -2    7.50    3.00
   5  10   2    5.40    2.30
   5  10   2    6.50    3.90
   5  10   2    6.40    2.20
  -6 -10  -2   81.39    6.70
   6 -10   2   73.59    8.50
  -6 -10  -2   80.99    8.10
   6  10   2   78.89    8.70
   6  10   2   64.39    5.10
  -6  10  -2   71.29    6.60
   7 -10   2    0.80    4.70
  -7 -10  -2    8.30    4.90
  -7 -10  -2    4.30    3.60
   7  10   2    5.80    2.70
   7  10   2    8.40    4.90
  -7  10  -2    5.40    3.90
  -8 -11   2   60.89    7.70
   8  11  -2   69.19    8.60
  -8  11   2   89.39    7.50
   7 -11  -2    4.60    4.50
  -7 -11   2    5.50    3.70
   7  11  -2    4.50    3.70
   7  11  -2    3.50    3.90
  -7  11   2    5.40    3.60
  -6 -11   2   84.19    6.60
   6 -11  -2   86.79    9.10
   6  11  -2   71.89    7.50
  -6  11   2   84.39    6.70
   6  11  -2   85.09    6.90
   5 -11  -2    9.70    2.70
   5 -11  -2   15.40    5.00
  -5 -11   2    6.60    2.80
  -5  11   2   12.50    3.00
   5  11  -2   13.80    3.30
   5  11  -2   10.30    3.60
  -5  11   2    5.70    2.90
   4 -11  -2  223.08    9.40
  -4 -11   2  219.08    9.50
   4 -11  -2  166.78   13.10
  -4  11   2  219.18    9.80
  -4  11   2  206.98    9.00
   4  11  -2  223.38   11.10
   4  11  -2  234.48   10.10
   4  11  -2  225.98    9.20
  -4  11   2  227.68    9.80
  -4  11   2  212.58   10.60
   3 -11  -2    4.00    1.80
   3 -11  -2    1.90    3.60
   3  11  -2    3.80    2.70
   3  11  -2    4.40    1.80
   3  11  -2    6.60    2.10
   3  11  -2    5.30    1.90
  -3  11   2    4.80    1.90
  -3  11   2    6.30    2.20
  -3  11   2    3.50    2.00
   3  11  -2    3.60    1.60
   2 -11  -2   14.70    3.20
  -2 -11   2   23.50    3.90
   2 -11  -2   14.50    2.20
  -2  11   2   11.00    2.10
   2  11  -2   16.30    2.10
  -2  11   2   17.10    2.40
   2  11  -2   14.20    2.10
  -2  11   2   14.40    2.40
   2  11  -2   11.60    2.00
   1 -11  -2  328.77   14.60
   1 -11  -2  319.67   13.10
  -1 -11   2  343.27   12.70
  -1 -11   2  340.97   14.10
  -1  11   2  347.87   13.00
   1  11  -2  353.26   12.80
  -1  11   2  328.17   13.10
   1  11  -2  339.87   13.10
   1  11  -2  348.27   13.10
  -1  11   2  318.17   12.90
   0 -11  -2    3.70    1.90
   0 -11  -2    7.00    2.80
   0 -11   2    5.40    2.40
   0  11  -2    7.40    1.80
   0  11  -2    7.30    1.70
   0  11  -2    5.40    1.30
   0  11   2    3.20    1.40
   0  11  -2    5.10    1.20
   0  11   2    2.70    1.40
   0  11  -2    4.90    1.50
   0  11   2    6.70    1.80
  -1 -11  -2   26.30    3.60
   1 -11   2   43.70    4.80
   1 -11   2   31.20    3.20
   1  11   2   31.10    3.30
  -1  11  -2   31.60    3.20
   1  11   2   31.20    2.60
   1  11   2   31.10    2.70
  -1  11  -2   23.80    2.90
   1  11   2   31.50    4.70
  -1  11  -2   33.00    2.80
  -2 -11  -2  162.58    8.20
   2 -11   2  149.29   10.30
   2 -11   2  163.68    7.40
  -2  11  -2  181.58    7.60
  -2  11  -2  162.08    7.20
  -2  11  -2  169.48    7.20
   2  11   2  154.68    9.20
   2  11   2  166.58    7.40
   2  11   2  149.09    6.70
  -3 -11  -2   21.40    3.60
   3 -11   2   24.10    3.20
   3 -11   2   30.40    5.20
  -3 -11  -2   18.80    2.50
   3  11   2   26.50    3.50
  -3  11  -2   21.70    3.10
  -3  11  -2   22.20    3.40
   3  11   2   22.80    4.20
   3  11   2   21.50    2.80
  -3  11  -2   20.50    2.90
  -4 -11  -2   58.69    4.70
   4 -11   2   68.99    7.70
   4 -11   2   65.29    4.50
  -4 -11  -2   65.59    6.60
  -4  11  -2   62.49    5.10
  -4  11  -2   63.49    5.20
   4  11   2   60.29    4.10
  -4  11  -2   60.59    5.20
   4  11   2   58.49    6.90
   4  11   2   64.99    4.70
  -5 -11  -2   -0.20    2.80
   5 -11   2    1.10    3.70
  -5 -11  -2   -3.70    3.20
   5  11   2    4.40    2.00
   5  11   2    0.70    2.10
  -5  11  -2   -3.60    2.60
   5  11   2   -1.70    3.50
  -5  11  -2    5.00    2.80
   6 -11   2  265.07   14.90
  -6 -11  -2  260.47   13.70
   6  11   2  234.98   10.40
   6  11   2  236.68   14.30
  -6  11  -2  234.38   11.30
  -6  11  -2  241.28   11.80
   7 -11   2   65.59   10.80
  -7  11  -2   79.99    7.50
   7 -12  -2   40.20    8.20
  -7 -12   2   54.99    6.60
  -7  12   2   46.30    6.50
   7  12  -2   47.60    7.30
   6 -12  -2    7.10    4.80
  -6 -12   2    2.70    3.10
   6  12  -2    8.80    3.40
   6  12  -2    4.90    3.70
  -6  12   2    4.50    3.30
  -5 -12   2   -1.50    2.30
   5 -12  -2   -1.90    4.80
  -5  12   2    2.60    2.70
   5  12  -2   -0.60    2.90
   5  12  -2    2.60    2.70
   4 -12  -2   -0.30    1.90
  -4 -12   2    3.70    2.10
   4 -12  -2    6.00    5.40
   4  12  -2    3.80    2.40
   4  12  -2    3.10    2.80
  -4  12   2    0.10    2.20
  -4  12   2    0.40    2.30
   4  12  -2    4.60    2.00
  -4  12   2    4.30    2.00
   3 -12  -2   48.40    8.00
   3 -12  -2   53.99    4.10
  -3  12   2   62.39    4.50
   3  12  -2   66.39    4.20
   3  12  -2   65.29    6.00
   3  12  -2   58.89    4.00
  -3  12   2   53.89    4.20
   3  12  -2   53.39    4.10
  -3  12   2   51.29    4.60
   2 -12  -2   -2.50    2.50
  -2 -12   2    0.10    1.70
   2 -12  -2    0.40    1.70
  -2 -12   2    0.00    2.40
   2  12  -2    3.20    1.70
  -2  12   2    0.80    1.80
   2  12  -2    0.40    1.50
  -2  12   2    2.30    1.90
  -2  12   2    1.80    1.90
   2  12  -2    2.00    1.80
   1 -12  -2   43.80    5.30
  -1 -12   2   46.40    3.10
  -1 -12   2   37.10    4.50
   1 -12  -2   45.80    3.70
  -1  12   2   38.50    3.60
  -1  12   2   41.70    3.40
   1  12  -2   38.90    3.10
  -1  12   2   39.10    3.40
   1  12  -2   47.60    3.60
   1  12  -2   38.40    3.60
   0 -12  -2    9.20    2.30
   0 -12   2   12.60    2.90
   0 -12  -2    8.30    3.00
   0  12   2    8.60    1.70
   0  12   2    6.90    1.70
   0  12  -2    8.30    1.40
   0  12  -2   11.10    1.80
   0  12  -2   12.00    2.10
   0  12  -2    9.60    2.00
   0  12  -2    7.90    1.70
   0  12   2    8.20    2.00
   1 -12   2   20.40    3.00
   1 -12   2   19.50    3.60
  -1 -12  -2   20.20    3.00
   1  12   2   18.60    2.50
  -1  12  -2   24.50    2.70
  -1  12  -2   19.80    2.80
   1  12   2   21.50    2.50
  -1  12  -2   19.40    2.60
   1  12   2   29.30    3.20
  -2 -12  -2   30.30    4.50
   2  12   2   34.90    2.90
   2  12   2   41.40    5.50
   2  12   2   28.90    3.70
  -2  12  -2   51.89    3.70
   3 -12   2  437.06   21.40
   3 -12   2  495.75   18.00
  -3 -12  -2  477.45   19.10
  -3  12  -2  482.85   18.30
   3  12   2  450.55   20.10
  -3  12  -2  482.85   18.00
   3  12   2  475.35   18.10
  -3  12  -2  472.75   17.90
   3  12   2  444.26   17.20
   4 -12   2   31.00    5.60
   4 -12   2   25.50    3.50
  -4 -12  -2   28.50    4.50
   4  12   2   34.70    6.10
  -4  12  -2   29.40    4.40
  -4  12  -2   25.50    3.60
  -4  12  -2   30.70    4.50
   4  12   2   28.00    3.90
  -5 -12  -2   11.20    4.10
   5 -12   2    3.90    4.20
   5  12   2    7.30    2.10
   5  12   2    7.50    4.20
  -5  12  -2    7.40    3.00
  -5  12  -2   13.30    3.30
   5  12   2    2.30    2.30
  -6 -12  -2    0.50    4.20
   6 -12   2    0.20    4.40
  -6  12  -2    4.90    3.30
  -6  12  -2   -1.40    3.00
   6  12   2    0.00    4.10
  -7  12  -2    8.30    3.90
  -7 -13   2   48.50    6.60
   7 -13  -2   44.30    8.90
  -7  13   2   47.90    6.70
   7  13  -2   43.10    7.40
   6 -13  -2    7.90    5.60
  -6 -13   2   -0.20    2.90
  -6  13   2   -0.50    3.10
   6  13  -2    0.60    3.30
   5 -13  -2   30.30    7.40
  -5 -13   2   31.40    4.40
  -5  13   2   34.80    5.10
   5  13  -2   34.20    5.90
   4 -13  -2   13.20    6.60
  -4 -13   2   17.90    2.70
   4  13  -2   15.30    3.90
  -4  13   2   31.50    4.50
  -4  13   2   14.50    2.90
   4  13  -2   17.30    2.50
  -4  13   2   18.20    2.60
   4  13  -2   19.00    2.70
   3 -13  -2  319.27   13.50
   3 -13  -2  370.76   16.70
  -3 -13   2  350.86   14.00
  -3  13   2  366.76   14.00
   3  13  -2  332.07   13.40
  -3  13   2  344.67   13.70
   3  13  -2  337.57   13.50
   3  13  -2  331.17   13.70
   3  13  -2  352.56   15.40
  -3  13   2  344.27   14.00
   2 -13  -2  127.89    8.50
  -2 -13   2  135.89    6.40
   2 -13  -2  130.09    6.30
  -2 -13   2  137.89    8.00
  -2  13   2  125.09    6.60
   2  13  -2  118.89    6.30
   2  13  -2  122.29    6.30
  -2  13   2  133.79    6.40
   2  13  -2  118.19    6.00
  -2  13   2  127.59    6.50
  -1 -13   2  125.39    7.50
   1 -13  -2  115.59    6.00
  -1 -13   2  119.59    5.40
   1 -13  -2  106.99    7.70
  -1  13   2  113.99    6.00
   1  13  -2  116.19    5.50
   1  13  -2  118.79    6.00
  -1  13   2  107.29    5.80
   1  13  -2  111.39    6.00
  -1  13   2  108.19    5.60
   0 -13   2   31.00    4.70
   0 -13  -2   22.50    3.60
   0 -13  -2   23.50    4.20
   0  13  -2   21.20    3.30
   0  13   2   22.40    2.80
   0  13   2   23.90    2.80
   0  13   2   18.60    2.60
   0  13  -2   22.00    2.40
   0  13  -2   19.10    2.80
   0  13  -2   21.50    3.20
   1 -13   2    0.80    2.50
   1 -13   2    3.70    1.80
  -1 -13  -2   -0.10    2.90
  -1 -13  -2    1.70    2.30
  -1  13  -2    0.60    1.90
   1  13   2    0.90    1.30
   1  13   2    6.40    2.00
  -1  13  -2    0.60    1.60
   1  13   2    3.90    1.50
  -1  13  -2    0.70    1.50
  -2 -13  -2   13.30    3.00
   2 -13   2   11.50    2.30
   2 -13   2   14.70    4.50
   2  13   2   11.40    2.40
  -2  13  -2   11.00    2.40
   2  13   2   11.90    3.50
  -2  13  -2   17.20    2.50
   2  13   2   11.30    1.90
  -2  13  -2   15.70    2.30
   3 -13   2    0.50    1.80
  -3 -13  -2   -1.00    2.80
   3 -13   2    3.90    5.10
  -3  13  -2    4.50    2.20
   3  13   2    4.20    1.70
  -3  13  -2    1.00    2.20
  -3  13  -2    3.80    2.40
   3  13   2    3.10    2.20
   3  13   2   -0.10    3.20
   4 -13   2  132.39   10.50
  -4 -13  -2  129.89    8.80
   4 -13   2  129.09    6.80
   4  13   2  125.39    6.10
  -4  13  -2  134.19    7.40
   4  13   2  130.89    7.00
  -4  13  -2  134.29    7.50
   4  13   2  130.09    9.60
  -4  13  -2  126.29    7.10
  -5 -13  -2    2.10    3.90
   5 -13   2    0.00    4.10
  -5  13  -2   -0.60    2.70
   5  13   2    1.40    3.80
   5  13   2    0.10    2.30
  -5  13  -2   -1.40    2.80
  -6 -13  -2   11.20    5.00
   6 -13   2   -2.90    4.20
   6  13   2    5.40    4.50
  -6  13  -2    4.00    3.30
  -6  13  -2   -3.40    3.00
  -7 -14   2   64.59    8.40
   7 -14  -2   63.29   10.00
  -7  14   2   73.39    7.30
   7  14  -2   68.99    8.30
   6 -14  -2   64.39   10.80
  -6 -14   2   36.70    5.50
  -6 -14   2   39.80    4.90
  -6  14   2   50.29    6.30
   6  14  -2   35.40    6.90
  -5 -14   2    7.20    3.50
   5 -14  -2   25.30    7.10
  -5 -14   2   19.70    3.20
   5  14  -2   12.50    4.20
  -5  14   2   14.90    3.50
  -4 -14   2    5.20    2.20
  -4 -14   2    8.90    2.80
   4 -14  -2   -4.70    5.00
  -4  14   2    5.40    2.60
   4  14  -2    3.30    2.20
  -4  14   2    3.10    2.60
  -4  14   2    5.60    2.30
   4  14  -2    4.30    2.70
   4  14  -2    4.10    3.40
  -3 -14   2  236.48   10.00
   3 -14  -2  255.97   13.30
   3 -14  -2  203.48   10.50
  -3  14   2  220.28    9.90
  -3  14   2  209.68    9.90
  -3  14   2  220.38    9.60
   3  14  -2  216.88    9.40
   3  14  -2  205.18    9.60
   3  14  -2  213.28    9.30
   2 -14  -2   -2.90    1.60
  -2 -14   2   -0.30    2.70
   2 -14  -2   -1.10    2.80
  -2 -14   2    3.70    1.90
   2  14  -2    0.70    1.90
  -2  14   2    2.30    2.10
   2  14  -2    1.30    1.70
  -2  14   2   -0.40    1.90
   2  14  -2    0.90    1.80
  -2  14   2    4.20    2.10
  -1 -14   2  279.37   12.70
   1 -14  -2  275.77   11.10
   1 -14  -2  250.67   13.00
  -1  14   2  249.97   10.60
  -1  14   2  248.38   10.80
  -1  14   2  261.57   11.00
   1  14  -2  268.87   10.40
   1  14  -2  259.67   11.00
   1  14  -2  268.67   11.00
   0 -14  -2  320.77   12.90
   0 -14  -2  293.47   14.50
   0 -14   2  334.07   14.30
   0  14   2  302.17   12.10
   0  14  -2  308.57   12.60
   0  14  -2  304.97   11.60
   0  14   2  291.47   12.50
   0  14   2  280.67   11.90
   0  14  -2  320.07   12.00
   0  14  -2  320.07   12.60
  -1 -14  -2    4.10    2.40
   1 -14   2   11.70    3.40
   1 -14   2    5.50    2.10
  -1 -14  -2    8.00    3.70
   1  14   2    7.10    1.70
   1  14   2    4.70    1.70
   1  14   2    9.30    2.40
  -1  14  -2    9.60    2.10
  -1  14  -2    6.90    2.30
  -1  14  -2    9.30    1.80
   2 -14   2    6.10    2.10
   2 -14   2   -2.40    4.00
  -2 -14  -2    1.60    2.50
  -2  14  -2    2.80    2.00
   2  14   2    0.50    2.10
  -2  14  -2    5.80    2.40
  -2  14  -2    5.20    2.10
   2  14   2    0.90    3.20
   2  14   2    5.50    1.60
  -3 -14  -2   78.79    6.80
   3 -14   2   66.29    9.60
   3 -14   2   84.39    5.20
   3  14   2   81.49    5.60
   3  14   2   75.29    7.60
  -3  14  -2   89.39    5.90
  -3  14  -2   83.39    5.50
  -3  14  -2   80.99    5.40
  -4 -14  -2   19.30    4.30
   4 -14   2   23.60    5.80
   4 -14   2   19.70    3.00
  -4  14  -2   23.80    3.40
   4  14   2   21.60    4.90
   4  14   2   14.00    3.00
  -4  14  -2   21.90    3.60
  -4  14  -2   19.20    3.20
  -5 -14  -2   36.40    5.60
   5 -14   2   43.20    8.70
   5  14   2   34.40    6.10
  -5  14  -2   23.70    4.10
  -5  14  -2   32.80    5.20
   5  14   2   35.10    4.60
  -6 -14  -2    8.00    4.80
   6 -14   2   10.90    5.40
  -6  14  -2   11.00    3.60
   6  14   2   11.80    5.10
  -7 -15   2   18.40    5.70
  -7  15   2   14.50    5.40
   7  15  -2   12.20    4.90
  -6 -15   2    4.10    4.00
   6 -15  -2    1.40    6.10
   6  15  -2    0.30    3.70
  -6  15   2    1.20    3.50
  -5 -15   2    2.60    3.20
   5 -15  -2    6.60    6.80
  -5  15   2    4.90    3.20
   5  15  -2    7.00    3.80
   4 -15  -2   63.29   11.50
  -4 -15   2   85.39    6.10
   4  15  -2   76.79    7.50
  -4  15   2   78.89    5.40
   4  15  -2   77.49    5.40
  -4  15   2   71.99    6.00
  -4  15   2   67.29    5.70
   3 -15  -2   75.49    8.40
  -3 -15   2   66.19    5.10
  -3 -15   2   66.19    6.90
  -3  15   2   66.89    5.00
   3  15  -2   67.39    5.10
  -3  15   2   60.19    5.40
  -3  15   2   64.79    5.20
   3  15  -2   66.49    4.80
   2 -15  -2   51.79    4.30
  -2 -15   2   51.89    5.90
   2 -15  -2   44.60    6.40
  -2  15   2   51.79    4.60
   2  15  -2   49.99    4.60
   2  15  -2   37.50    4.10
  -2  15   2   55.69    4.60
  -2  15   2   45.50    4.20
  -1 -15   2    1.10    2.90
   1 -15  -2   -1.00    3.10
   1 -15  -2    4.80    2.10
  -1  15   2    6.80    2.00
  -1  15   2    2.70    2.10
   1  15  -2    3.80    2.10
   1  15  -2    4.60    2.20
  -1  15   2    1.70    1.90
   0 -15   2    6.60    3.10
   0 -15  -2    5.90    2.40
   0 -15  -2    5.40    3.40
   0  15  -2    4.00    2.20
   0  15   2    5.00    2.20
   0  15   2    4.80    1.80
   0  15  -2    5.70    1.50
   0  15   2    4.80    1.90
   0  15  -2    4.80    2.10
   1 -15   2    9.10    3.50
  -1 -15  -2    6.50    3.70
  -1 -15  -2    6.30    2.70
   1 -15   2    9.50    2.40
   1  15   2    8.60    1.80
  -1  15  -2    9.20    2.00
   1  15   2    6.60    1.90
  -1  15  -2    7.80    2.50
   1  15   2    3.90    2.30
   2 -15   2   52.19    8.30
   2 -15   2   52.49    4.50
  -2 -15  -2   48.00    5.20
  -2  15  -2   45.30    4.70
  -2  15  -2   41.80    4.10
   2  15   2   51.39    3.40
   2  15   2   49.00    4.60
   3 -15   2    2.50    5.00
   3 -15   2   -4.30    1.80
  -3 -15  -2   -2.60    3.00
  -3  15  -2   -0.90    2.10
   3  15   2   -1.50    2.20
   3  15   2    4.20    3.80
  -3  15  -2   -0.90    2.50
   4 -15   2   19.90    3.00
   4 -15   2   11.00    5.30
  -4 -15  -2    9.90    4.10
  -4  15  -2   16.00    3.10
   4  15   2   12.60    4.40
  -4  15  -2    7.10    3.10
   4  15   2   21.70    3.20
  -5 -15  -2    4.10    4.20
   5 -15   2   -0.10    4.80
   5  15   2    4.50    4.30
  -5  15  -2   -0.70    3.90
   5  15   2    1.90    2.40
  -5  15  -2    2.30    3.10
   6 -15   2    9.70    7.00
  -6  15  -2    8.60    3.60
  -6 -16   2   -2.20    3.70
   6 -16  -2   10.90    6.80
  -6  16   2   -2.00    3.50
   6  16  -2   -5.40    3.30
  -5 -16   2   45.70    6.00
   5 -16  -2   55.89   10.80
  -5  16   2   50.99    5.90
   5  16  -2   48.00    7.20
   4 -16  -2   44.30    8.50
  -4 -16   2   44.30    5.10
  -4  16   2   53.69    5.60
   4  16  -2   45.70    4.90
  -4  16   2   40.00    4.50
  -4  16   2   41.10    5.00
   3 -16  -2   15.40    4.90
  -3 -16   2   14.00    3.00
  -3 -16   2    7.50    3.70
   3  16  -2   14.00    3.00
   3  16  -2    8.60    2.30
  -3  16   2   12.30    2.80
  -3  16   2    7.50    2.90
  -3  16   2   10.90    2.70
  -2 -16   2  122.69    8.70
   2 -16  -2  125.99    9.40
   2  16  -2  141.49    7.20
  -2  16   2  124.39    7.00
  -2  16   2  131.49    7.10
   2  16  -2  129.79    6.90
  -2  16   2  124.79    6.80
   1 -16  -2   13.40    4.10
   1 -16  -2   10.30    2.70
  -1 -16   2   11.50    3.70
  -1  16   2   11.40    2.40
   1  16  -2   12.00    2.70
  -1  16   2   11.20    2.30
   1  16  -2   10.10    2.60
  -1  16   2   14.10    2.80
   0 -16  -2   -0.30    3.40
   0 -16   2    1.60    3.10
   0 -16  -2    4.70    2.50
   0  16   2    3.40    2.30
   0  16  -2    4.40    1.50
   0  16  -2    1.10    2.10
   0  16   2    2.10    1.90
   0  16  -2    3.20    2.20
   0  16   2    2.50    1.70
  -1 -16  -2  126.59    7.10
  -1 -16  -2  118.79    9.40
   1 -16   2  114.09    6.50
   1 -16   2  128.49    8.80
  -1  16  -2  115.39    5.60
   1  16   2  105.89    6.60
   1  16   2  111.79    5.80
   1  16   2  104.49    5.50
  -1  16  -2  109.59    6.60
  -2 -16  -2    7.60    3.20
   2 -16   2   11.00    4.70
  -2 -16  -2    5.20    4.20
   2 -16   2    5.70    2.30
  -2  16  -2   10.60    2.40
   2  16   2    8.30    2.70
  -2  16  -2   12.50    2.80
   3 -16   2   15.00    2.80
  -3 -16  -2    7.30    3.50
   3 -16   2   15.40    6.40
  -3  16  -2   19.70    3.10
  -3  16  -2   13.30    3.20
   3  16   2   15.30    4.60
   3  16   2   16.90    3.10
   4 -16   2    3.60    5.60
   4 -16   2    6.50    2.60
  -4 -16  -2    6.40    3.90
  -4  16  -2    3.80    2.70
   4  16   2    6.70    2.80
  -4  16  -2    6.60    3.20
   4  16   2    2.70    4.10
  -5 -16  -2  226.28   12.90
   5 -16   2  233.18   15.10
   5  16   2  212.28   10.60
  -5  16  -2  218.18   11.20
  -5  16  -2  219.18   11.20
   5  16   2  209.38   13.80
   6 -17  -2   27.40    8.60
  -6 -17   2   10.60    4.40
  -6  17   2   13.40    4.10
   6  17  -2   14.50    5.10
  -5 -17   2   -4.20    3.00
   5 -17  -2   18.60    8.80
  -5  17   2    5.50    3.30
   5  17  -2    0.50    3.60
  -4 -17   2    6.70    3.10
  -4 -17   2    4.50    3.90
   4 -17  -2    3.00    6.50
   4  17  -2    8.10    2.80
  -4  17   2   10.60    2.80
  -4  17   2    2.40    2.70
  -4  17   2    2.80    2.90
   3 -17  -2  132.69   11.30
  -3 -17   2  119.19    9.40
   3  17  -2  127.89    7.40
  -3  17   2  116.79    7.60
   3  17  -2  135.49    7.10
  -3  17   2  136.99    7.40
  -3  17   2  149.88    7.50
  -2 -17   2   60.19    6.90
   2 -17  -2   77.39    7.90
  -2  17   2   64.69    5.20
  -2  17   2   68.99    5.10
  -2  17   2   64.19    5.40
   2  17  -2   68.89    5.50
   2  17  -2   69.09    5.20
  -1 -17   2    0.60    3.20
   1 -17  -2    5.20    3.70
   1  17  -2    6.60    2.50
  -1  17   2    9.60    2.80
  -1  17   2    6.80    2.10
  -1  17   2    2.00    2.10
   1  17  -2    9.00    2.50
   0 -17   2   16.80    4.20
   0 -17  -2   11.60    4.30
   0 -17  -2   10.50    2.90
   0  17  -2   12.00    2.70
   0  17   2    9.70    2.80
   0  17   2   16.00    2.40
   0  17   2   10.80    2.50
   0  17  -2   13.40    2.90
   1 -17   2   80.59    7.70
   1 -17   2   73.69    5.30
  -1 -17  -2   63.19    5.70
  -1 -17  -2   68.39    7.90
  -1  17  -2   68.59    5.60
  -1  17  -2   56.79    4.10
   1  17   2   57.69    4.10
   1  17   2   60.29    5.20
   2 -17   2    7.90    2.50
  -2 -17  -2   11.30    3.30
  -2 -17  -2   10.40    4.60
   2 -17   2    7.40    5.20
  -2  17  -2    7.00    2.80
  -2  17  -2    7.20    2.30
   2  17   2   13.60    3.00
  -3 -17  -2   -2.50    3.10
   3 -17   2   -1.00    2.20
   3 -17   2   -1.40    5.30
  -3  17  -2   -0.10    2.70
  -3  17  -2   -1.00    2.30
   3  17   2    1.20    3.80
   3  17   2    1.30    2.40
  -4 -17  -2   76.59    7.80
   4 -17   2   75.39    5.60
   4 -17   2   92.89   11.70
  -4  17  -2   74.29    6.40
   4  17   2   69.79    8.60
  -4  17  -2   77.59    6.20
   4  17   2   72.49    6.10
   5 -17   2   -2.70    5.40
  -5 -17  -2    6.70    4.50
   5  17   2    2.40    4.60
   5  17   2    2.50    2.60
  -5  17  -2   -2.90    3.10
  -5  17  -2    1.60    3.10
  -5 -18   2   -4.60    3.70
   5 -18  -2   19.50    9.80
  -5  18   2   10.10    3.60
   4 -18  -2    9.50    8.30
  -4 -18   2   16.90    5.00
  -4  18   2   23.00    3.90
   4  18  -2   20.60    3.60
  -4  18   2   19.90    3.50
  -4  18   2   18.20    3.30
   3 -18  -2   40.60    8.50
  -3 -18   2   34.80    6.90
   3  18  -2   47.40    5.20
   3  18  -2   46.80    4.70
  -3  18   2   42.30    5.20
  -3  18   2   49.40    4.80
  -3  18   2   52.59    5.20
   2 -18  -2   -3.90    3.60
  -2 -18   2    1.50    3.40
   2  18  -2    1.50    2.30
  -2  18   2    3.20    2.50
  -2  18   2   -2.00    2.10
   2  18  -2   -2.40    2.30
  -2  18   2   -0.30    2.50
  -1 -18   2    6.40    3.90
   1 -18  -2    6.70    4.20
   1  18  -2    5.40    2.50
   1  18  -2    3.60    2.40
  -1  18   2    2.40    2.20
  -1  18   2    1.60    2.60
  -1  18   2    1.80    2.00
   0 -18  -2   34.50    7.20
   0 -18  -2   32.50    5.20
   0 -18   2   38.80    6.30
   0  18  -2   38.50    4.90
   0  18   2   35.10    4.70
   0  18  -2   28.60    2.90
   0  18   2   30.70    3.90
   0  18  -2   38.60    4.50
   0  18   2   30.30    3.30
   1 -18   2  135.39    9.70
  -1 -18  -2  114.69    7.40
  -1 -18  -2  104.99    9.80
   1 -18   2  109.79    6.80
  -1  18  -2  105.49    5.60
  -1  18  -2  109.19    6.90
   1  18   2  108.99    6.90
   1  18   2   95.29    5.40
  -2 -18  -2   18.20    3.70
   2 -18   2   17.90    3.20
  -2 -18  -2   18.70    5.60
   2 -18   2   18.50    5.50
  -2  18  -2   19.00    2.80
   2  18   2   17.60    3.40
  -2  18  -2   25.40    3.80
   3 -18   2   22.00    7.30
   3 -18   2   19.00    3.30
  -3 -18  -2   14.90    3.90
  -3  18  -2   22.00    3.70
   3  18   2   18.10    3.50
  -3  18  -2   16.30    3.10
   4 -18   2    8.80    2.90
  -4 -18  -2    7.90    4.10
   4 -18   2   13.70    7.20
   4  18   2   13.40    3.20
   4  18   2   11.00    5.10
  -4  18  -2    8.40    3.20
  -4  18  -2   12.60    3.60
  -5 -18  -2   38.10    9.00
  -5  18  -2   25.30    4.40
   5  18   2   29.10    5.90
  -5 -19   2   13.60    5.20
   5 -19  -2   15.80   10.70
  -5  19   2   12.50    4.20
   4 -19  -2    7.20    7.80
  -4 -19   2    7.30    4.40
   4  19  -2    7.20    2.90
  -4  19   2    7.20    3.00
  -4  19   2    1.60    3.00
  -4  19   2   10.40    3.40
   3 -19  -2   -7.40    5.00
  -3 -19   2   -0.40    3.70
  -3  19   2    3.00    2.80
   3  19  -2    1.30    2.80
  -3  19   2    1.90    2.50
  -3  19   2    4.20    2.90
  -2 -19   2   95.19    8.90
   2 -19  -2   72.79    8.60
   2  19  -2   78.29    6.10
   2  19  -2   85.79    6.00
  -2  19   2   71.79    5.40
  -2  19   2   78.49    6.20
  -2  19   2   83.69    6.30
   1 -19  -2  172.58   12.00
  -1 -19   2  180.88   11.30
  -1  19   2  151.48    7.80
   1  19  -2  155.18    8.60
   1  19  -2  171.98    8.80
  -1  19   2  172.38    8.90
  -1  19   2  168.58    8.40
   0 -19  -2    2.80    4.00
   0 -19   2    6.30    3.80
   0  19   2    3.90    2.20
   0  19   2    4.60    2.90
   0  19  -2    4.90    2.70
   0  19   2    6.90    2.10
   1 -19   2    4.80    3.80
  -1 -19  -2    5.40    3.10
  -1 -19  -2    1.30    4.10
   1 -19   2    4.80    2.60
   1  19   2    0.80    1.70
  -1  19  -2    5.20    2.80
   1  19   2   -0.70    2.50
  -1  19  -2    0.00    1.70
  -2 -19  -2   21.40    5.70
  -2 -19  -2   26.50    4.40
   2 -19   2   38.90    4.60
   2 -19   2   33.90    7.20
  -2  19  -2   34.40    4.00
  -2  19  -2   35.40    4.40
   2  19   2   28.30    3.90
   3 -19   2    7.20    2.90
  -3 -19  -2   -1.10    3.30
   3 -19   2   -3.90    5.70
  -3 -19  -2    3.70    4.70
   3  19   2    4.10    2.90
  -3  19  -2   -1.70    2.40
  -3  19  -2    3.30    3.10
   4 -19   2   25.30    7.80
  -4 -19  -2   23.70    4.90
   4 -19   2   22.40    3.70
  -4  19  -2   24.30    4.30
   4  19   2   28.20    4.10
  -4  19  -2   19.60    3.70
   4 -20  -2   36.60   10.00
  -4 -20   2   38.60    6.70
   4  20  -2   57.89    5.70
  -4  20   2   40.60    5.30
  -4  20   2   38.60    5.10
  -3 -20   2    0.60    4.20
   3 -20  -2    0.30    5.40
   3  20  -2   -0.40    2.60
  -3  20   2    0.10    2.70
  -3  20   2   -2.80    2.40
  -3  20   2   -3.60    2.60
   2 -20  -2  144.19   11.50
  -2 -20   2  157.88   11.40
  -2  20   2  125.89    7.30
   2  20  -2  149.49    8.20
   2  20  -2  132.79    7.90
  -2  20   2  133.49    8.10
  -2  20   2  131.59    8.00
  -1 -20   2   70.79    8.40
   1 -20  -2   69.09    8.90
  -1  20   2   58.49    5.50
   1  20  -2   70.39    5.70
  -1  20   2   74.29    6.30
  -1  20   2   66.59    4.90
   1  20  -2   68.79    6.00
   0 -20  -2    4.40    4.40
   0 -20   2    1.40    3.50
   0  20   2    2.10    2.80
   0  20  -2   -0.70    2.50
   0  20   2   -2.20    1.70
   0  20   2    3.30    2.20
  -1 -20  -2    3.00    4.40
   1 -20   2    8.10    3.00
   1 -20   2    7.00    4.50
  -1  20  -2    4.00    2.80
  -1  20  -2    2.90    1.90
   1  20   2    4.60    3.00
  -2 -20  -2   47.10    6.10
  -2 -20  -2   41.00    8.50
   2 -20   2   56.79   10.00
   2 -20   2   51.29    5.40
   2  20   2   53.79    5.70
  -2  20  -2   38.70    5.70
  -2  20  -2   41.40    4.30
   3 -20   2   -1.40    6.50
  -3 -20  -2    3.70    5.00
  -3 -20  -2    8.30    3.90
   3 -20   2    6.70    3.00
   3  20   2    5.20    3.10
  -3  20  -2    9.80    3.50
  -3  20  -2    7.50    2.80
   4 -20   2   24.90    3.80
  -4 -20  -2   19.90    5.00
   4  20   2   25.90    4.20
  -4  20  -2   20.60    4.40
  -4 -21   2   -1.00    4.40
  -4  21   2   -5.80    2.50
   4  21  -2   -2.10    2.60
   3 -21  -2   -0.80    5.80
  -3 -21   2    0.10    4.30
  -3  21   2   -4.60    2.30
  -3  21   2    2.70    3.00
  -3  21   2    1.70    2.90
   3  21  -2    3.40    2.90
  -2 -21   2   39.40    7.90
   2 -21  -2   37.50    7.00
  -2  21   2   25.30    3.50
   2  21  -2   34.30    4.50
  -2  21   2   41.20    5.50
   2  21  -2   28.50    4.10
  -2  21   2   31.60    4.80
  -1 -21   2    3.10    4.40
   1 -21  -2    2.50    4.50
  -1  21   2    2.40    2.90
   1  21  -2    6.00    3.00
   1  21  -2    3.80    2.70
  -1  21   2    0.00    2.00
  -1  21   2    3.70    2.60
   0 -21  -2    5.00    4.90
   0 -21   2    2.10    3.90
   0  21  -2    4.20    2.90
   0  21   2    6.40    3.10
   0  21   2    1.30    2.90
   0  21   2    1.20    1.90
   1 -21   2   40.20    5.50
   1 -21   2   46.90    8.30
  -1 -21  -2   30.00    6.30
  -1  21  -2   45.60    5.80
   1  21   2   37.90    5.60
  -1  21  -2   33.20    3.70
  -2 -21  -2  167.08   13.00
   2 -21   2  152.08   13.70
   2 -21   2  144.99    8.80
  -2  21  -2  147.59    7.70
  -2  21  -2  176.48    9.40
   2  21   2  147.69    9.10
  -3 -21  -2   12.70    5.20
   3 -21   2    3.70    7.00
   3 -21   2   13.00    3.30
   3  21   2    7.80    3.70
  -3  21  -2    8.90    4.90
  -3 -22   2    1.50    4.50
   3  22  -2   -4.50    2.60
  -3  22   2   -1.60    2.80
  -3  22   2   -2.00    2.60
   2 -22  -2   10.10    5.40
  -2 -22   2    5.70    4.90
   2  22  -2    0.90    2.90
  -2  22   2   14.60    3.60
  -2  22   2    9.70    2.80
  -2  22   2   11.70    3.30
   2  22  -2    6.70    3.10
   1 -22  -2    3.80    4.80
  -1 -22   2    2.50    4.30
  -1  22   2    0.20    2.00
  -1  22   2    4.30    2.60
  -1  22   2    2.20    3.00
   1  22  -2    0.70    2.60
   0 -22   2   11.60    3.30
   0 -22  -2    9.40    5.30
   0 -22   2   14.70    4.90
   0  22   2   -1.30    2.80
   0  22  -2   15.50    3.60
   0  22   2    9.10    2.30
  -1 -22  -2   -2.40    4.50
   1 -22   2    9.50    4.70
   1 -22   2    2.90    3.00
  -1  22  -2    2.30    3.10
   1  22   2    1.20    2.90
  -1  22  -2    1.80    1.90
   2 -22   2   16.80    7.00
   2 -22   2   38.20    6.10
  -1 -23   2  137.09   11.20
   1  23  -2  107.29    7.60
  -1  23   2  107.29    7.20
   0 -23   2  139.69   11.30
   0  23  -2  121.39    8.80
   1 -23   2   35.00    7.90
   9   0  -3   -1.70    4.00
   9   0  -3   -1.40    3.90
   8   0  -3   -6.40    2.50
   8   0  -3   -2.30    3.40
   8   0  -3    0.80    3.50
  -8   0   3   -1.90    3.40
   7   0  -3   -3.00    3.00
  -7   0   3    3.90    2.60
   7   0  -3   -0.80    2.40
  -7   0   3    2.00    3.10
   7   0  -3    0.00    3.10
   6   0  -3    1.30    2.70
   6   0  -3   -4.40    2.40
  -6   0   3   -0.30    2.50
   6   0  -3    2.80    2.30
  -6   0   3    1.20    2.10
  -5   0   3    1.80    2.20
   5   0  -3    1.90    2.20
   5   0  -3   -1.10    1.80
  -5   0   3   -0.30    1.80
   5   0  -3    1.40    2.20
   4   0  -3    0.50    1.50
   4   0  -3    0.20    1.70
  -4   0   3   -0.10    1.70
   4   0  -3   -1.40    1.70
   4   0  -3   -0.50    1.50
  -4   0   3    0.40    1.50
   3   0  -3    1.60    1.50
  -3   0   3    1.60    1.40
   3   0  -3   -1.10    1.30
   3   0  -3    1.30    1.60
   3   0  -3    1.10    1.40
   3   0  -3    1.10    1.30
  -3   0   3    0.10    1.30
   2   0  -3   -0.10    0.90
   2   0  -3   -1.80    1.20
   2   0  -3    0.50    1.40
   2   0  -3   -0.30    1.30
  -2   0   3    1.40    1.20
  -2   0   3   -0.10    0.90
  -2   0   3    1.40    1.30
   2   0  -3   -0.60    1.10
   1   0  -3   -0.70    1.20
   1   0  -3   -0.10    1.40
  -1   0   3   -0.80    1.00
  -1   0   3    0.50    1.10
  -1   0   3    0.60    1.40
   1   0  -3   -0.60    1.20
   0   0  -3    0.80    1.40
   0   0  -3   -0.40    1.30
   0   0   3    0.30    1.00
   0   0   3   -2.90    1.40
   0   0  -3   -1.80    1.30
   0   0   3   -0.20    1.10
   0   0   3   -0.30    1.10
   1   0   3    2.00    1.50
  -1   0  -3   -0.10    1.40
  -1   0  -3    2.10    1.50
  -1   0  -3    3.10    1.60
   1   0   3    0.10    1.20
   1   0   3   -0.70    1.50
  -1   0  -3    0.60    1.00
   2   0   3   -1.80    1.50
   2   0   3   -2.00    1.10
   2   0   3   -1.90    1.60
  -2   0  -3   -2.60    1.50
  -2   0  -3    2.00    1.60
  -2   0  -3    0.10    0.90
  -2   0  -3    1.50    1.50
   3   0   3   -1.50    2.00
  -3   0  -3   -0.40    1.90
   3   0   3    0.50    2.00
   3   0   3   -0.60    1.30
  -3   0  -3    2.10    1.00
  -3   0  -3    4.00    2.00
  -3   0  -3    0.40    1.80
   4   0   3    1.80    2.60
  -4   0  -3    2.00    2.30
   4   0   3    2.00    1.60
  -4   0  -3    0.50    2.30
   4   0   3    0.70    2.20
   5   0   3    0.00    1.80
   5   0   3    1.60    3.10
   5   0   3    3.80    2.70
  -5   0  -3    0.20    2.60
  -5   0  -3    0.60    2.80
   6   0   3    0.20    2.80
  -6   0  -3    5.10    3.40
   6   0   3   -1.40    3.30
  -6   0  -3   -4.00    3.00
   7   0   3    2.50    4.10
  -7   0  -3   -4.50    3.40
   7   0   3    1.80    3.20
  -7   0  -3   -5.30    3.30
   9  -1  -3   26.10    5.40
   9  -1  -3   32.80    5.40
   9  -1  -3   21.30    5.60
   9   1  -3   30.90    6.10
   9   1  -3   23.40    5.10
   8  -1  -3    0.10    3.70
   8  -1  -3   -0.40    2.70
  -8  -1   3    0.80    3.50
   8  -1  -3    1.40    3.60
  -8   1   3   -0.80    3.50
   8   1  -3    0.40    3.70
   8   1  -3   -0.10    3.70
   8   1  -3   -3.70    2.50
   7  -1  -3  220.98   10.00
  -7  -1   3  205.88    9.50
   7  -1  -3  204.88   11.60
   7  -1  -3  208.58   10.90
  -7  -1   3  210.88   10.60
   7   1  -3  188.78   11.20
   7   1  -3  206.28    9.60
  -7   1   3  208.98    9.60
  -7   1   3  210.78   10.50
   7   1  -3  232.98   11.00
  -6  -1   3    7.00    2.30
  -6  -1   3    7.00    2.80
   6  -1  -3   14.20    3.50
   6  -1  -3   12.10    2.70
   6  -1  -3   11.50    3.10
   6   1  -3    8.90    3.10
  -6   1   3    8.90    2.60
  -6   1   3   10.50    2.90
   6   1  -3    9.10    3.00
   6   1  -3    8.40    2.40
   5  -1  -3   23.10    3.90
   5  -1  -3   26.30    3.50
  -5  -1   3   24.10    3.10
  -5  -1   3   23.60    3.10
   5  -1  -3   22.00    4.00
   5   1  -3   22.80    3.90
   5   1  -3   22.90    3.20
  -5   1   3   21.70    3.20
   5   1  -3   22.80    2.60
  -5   1   3   25.70    3.80
   4  -1  -3    4.10    1.70
   4  -1  -3    3.70    1.90
   4  -1  -3    5.10    1.90
  -4  -1   3    4.30    1.70
   4   1  -3    3.50    1.60
   4   1  -3    2.40    1.80
  -4   1   3    5.90    1.80
  -4   1   3    5.70    1.80
   4   1  -3    6.00    2.10
   4   1  -3    4.10    1.60
  -4   1   3    5.20    1.70
  -3  -1   3  619.84   20.70
   3  -1  -3  597.74   21.40
   3  -1  -3  554.34   21.70
   3  -1  -3  559.24   21.40
   3  -1  -3  595.64   21.70
   3  -1  -3  584.74   21.30
  -3  -1   3  589.74   21.30
  -3   1   3  598.14   20.70
   3   1  -3  573.44   21.50
  -3   1   3  588.14   21.40
   3   1  -3  620.94   21.60
  -3   1   3  606.44   21.40
   3   1  -3  584.14   21.20
   3   1  -3  613.54   21.20
   3   1  -3  605.04   21.80
  -2  -1   3  788.82   27.50
   2  -1  -3  800.62   27.80
  -2  -1   3  776.82   27.10
   2  -1  -3  731.43   27.40
   2  -1  -3  798.72   27.50
   2  -1  -3  731.13   27.40
  -2   1   3  816.02   27.10
   2   1  -3  723.33   27.50
   2   1  -3  760.12   27.20
   2   1  -3  772.02   27.30
  -2   1   3  806.22   27.50
   2   1  -3  795.52   27.70
  -2   1   3  774.12   27.50
   1  -1  -3  758.92   26.80
   1  -1  -3  734.43   26.60
   1  -1  -3  718.53   26.70
   1  -1  -3  797.32   27.10
  -1  -1   3  765.32   26.70
  -1  -1   3  801.52   26.80
  -1  -1   3  776.32   26.80
   1   1  -3  699.73   26.80
  -1   1   3  781.52   26.80
  -1   1   3  747.73   26.90
  -1   1   3  758.12   26.70
   1   1  -3  774.32   27.00
   1   1  -3  802.32   26.70
   1   1  -3  704.83   26.70
   0  -1   3 1703.93   57.39
   0  -1   3 1688.83   57.19
   0  -1   3 1630.54   57.29
   0  -1  -3 1608.34   57.29
   0  -1  -3 1643.04   57.49
   0  -1  -3 1637.94   57.29
   0   1  -3 1633.94   57.19
   0   1   3 1671.03   57.29
   0   1  -3 1671.43   57.29
   0   1   3 1708.23   57.39
   0   1   3 1538.45   57.29
   0   1   3 1704.73   57.09
   0   1  -3 1619.14   57.29
   0   1  -3 1580.14   57.39
  -1  -1  -3 1450.35   50.79
  -1  -1  -3 1438.36   50.99
   1  -1   3 1507.05   51.19
  -1  -1  -3 1385.76   50.79
   1  -1   3 1481.75   50.69
   1  -1   3 1490.75   50.89
   1   1   3 1419.36   51.19
  -1   1  -3 1363.26   50.49
   1   1   3 1514.25   50.79
  -1   1  -3 1474.75   50.79
   1   1   3 1486.35   50.89
   1   1   3 1422.26   50.29
  -1   1  -3 1445.86   50.79
   2  -1   3    1.00    1.20
  -2  -1  -3    1.40    1.70
   2  -1   3    1.30    1.60
  -2  -1  -3    2.00    1.60
   2  -1   3    3.90    1.90
  -2  -1  -3    1.30    1.50
  -2   1  -3    0.70    1.60
   2   1   3    1.00    1.30
  -2   1  -3    1.20    1.00
   2   1   3    2.90    1.90
   2   1   3    1.00    1.70
  -2   1  -3    3.30    1.60
  -2   1  -3    3.10    1.60
  -3  -1  -3 1229.38   42.90
   3  -1   3 1212.48   42.30
  -3  -1  -3 1176.08   42.70
   3  -1   3 1221.48   42.80
   3  -1   3 1215.88   43.70
  -3  -1  -3 1158.38   42.50
   3   1   3 1249.07   42.40
   3   1   3 1162.98   43.70
  -3   1  -3 1152.58   41.80
  -3   1  -3 1237.58   42.70
  -3   1  -3 1188.38   42.50
   3   1   3 1188.88   42.70
  -3   1  -3 1190.88   42.70
   4  -1   3   -0.20    1.50
   4  -1   3    1.40    2.20
  -4  -1  -3    2.10    2.30
  -4  -1  -3    3.20    2.40
   4  -1   3    1.20    2.60
  -4   1  -3    1.60    2.30
   4   1   3   -0.70    2.20
   4   1   3    0.30    2.40
   4   1   3    0.80    1.50
  -4   1  -3   -4.00    2.00
   5  -1   3   38.70    3.70
  -5  -1  -3   42.80    5.50
   5  -1   3   44.30    6.30
  -5  -1  -3   45.60    5.30
   5  -1   3   50.69    5.40
  -5   1  -3   45.20    5.30
   5   1   3   43.10    5.10
  -5   1  -3   35.80    4.90
   5   1   3   49.50    3.90
   5   1   3   41.60    6.10
  -6  -1  -3    3.00    3.50
   6  -1   3    9.90    3.40
  -6  -1  -3   12.80    3.70
   6  -1   3    9.70    4.00
   6   1   3    8.10    4.10
  -6   1  -3    3.90    3.30
  -6   1  -3    6.00    3.40
   6   1   3    9.60    3.10
   7  -1   3    6.80    4.30
   7  -1   3   18.30    4.00
  -7  -1  -3    9.50    4.30
  -7  -1  -3   18.00    4.20
   7   1   3    5.60    4.50
  -7   1  -3   10.20    3.90
   7   1   3   11.00    3.60
   9  -2  -3   13.20    5.20
   9  -2  -3    9.00    3.70
   9  -2  -3   11.80    4.40
   9   2  -3    4.10    4.70
  -8  -2   3   39.00    6.30
   8  -2  -3   34.90    6.90
   8  -2  -3   39.70    5.20
   8  -2  -3   34.40    4.40
   8   2  -3   36.20    5.30
  -8   2   3   32.70    4.90
   8   2  -3   29.80    4.70
   8   2  -3   26.30    5.20
   7  -2  -3   30.20    4.90
   7  -2  -3   41.20    5.60
  -7  -2   3   32.70    4.50
   7  -2  -3   34.00    5.00
   7   2  -3   32.30    4.20
   7   2  -3   34.80    5.60
  -7   2   3   29.00    3.70
   7   2  -3   27.70    5.70
  -7   2   3   35.90    5.60
  -6  -2   3  117.59    7.10
   6  -2  -3  127.99    7.30
   6  -2  -3  123.89    6.60
  -6  -2   3  105.49    6.00
   6  -2  -3  120.49    7.80
  -6   2   3  114.19    6.90
   6   2  -3  105.09    7.40
   6   2  -3  109.49    7.10
   6   2  -3  102.19    6.00
  -6   2   3  112.59    6.30
   5  -2  -3    5.40    2.30
   5  -2  -3    5.90    2.50
  -5  -2   3    6.70    2.00
   5  -2  -3    5.20    2.40
  -5  -2   3    7.80    2.50
   5   2  -3    7.00    2.50
   5   2  -3    3.80    1.80
  -5   2   3    7.00    2.30
  -5   2   3    9.40    2.20
   5   2  -3    6.20    2.40
   4  -2  -3 1385.16   49.40
  -4  -2   3 1357.06   48.50
   4  -2  -3 1381.26   49.20
   4  -2  -3 1371.06   48.70
   4   2  -3 1453.75   49.30
  -4   2   3 1388.46   48.80
   4   2  -3 1328.67   48.40
   4   2  -3 1347.97   49.20
   4   2  -3 1448.26   48.40
  -4   2   3 1379.46   48.70
  -4   2   3 1355.46   48.60
   3  -2  -3   74.29    4.10
   3  -2  -3   74.09    4.00
  -3  -2   3   63.59    3.10
   3  -2  -3   69.49    4.30
  -3  -2   3   81.59    4.00
   3  -2  -3   76.49    4.50
  -3   2   3   72.79    3.10
   3   2  -3   78.89    4.10
   3   2  -3   70.49    4.30
   3   2  -3   74.49    3.70
   3   2  -3   75.79    4.10
   3   2  -3   78.59    3.70
  -3   2   3   74.59    3.90
  -3   2   3   72.39    4.00
   2  -2  -3  941.31   34.20
  -2  -2   3  957.20   33.90
  -2  -2   3  963.30   34.10
   2  -2  -3  944.31   34.50
   2  -2  -3  957.40   34.10
  -2   2   3 1027.90   34.20
   2   2  -3  998.40   33.90
   2   2  -3  948.81   34.30
  -2   2   3 1026.40   33.90
  -2   2   3  948.11   34.20
   2   2  -3  971.50   33.90
   2   2  -3  946.41   34.20
  -1  -2   3    8.10    1.70
   1  -2  -3    9.20    1.60
   1  -2  -3   11.00    2.00
  -1  -2   3   10.20    1.40
   1  -2  -3    9.10    1.40
   1  -2  -3   11.60    1.80
   1   2  -3   12.70    2.00
   1   2  -3    6.20    1.50
  -1   2   3    9.80    1.80
  -1   2   3    8.90    1.30
  -1   2   3    9.00    1.30
   1   2  -3    7.70    1.40
   1   2  -3   10.60    1.60
   0  -2   3 1775.82   59.19
   0  -2  -3 1648.64   59.19
   0  -2   3 1714.83   59.19
   0  -2   3 1721.63   59.19
   0  -2  -3 1702.23   59.49
   0  -2  -3 1732.83   59.29
   0   2   3 1721.63   59.19
   0   2  -3 1691.33   59.19
   0   2  -3 1632.74   59.29
   0   2   3 1758.82   59.39
   0   2  -3 1645.54   59.19
   0   2   3 1616.94   59.39
   0   2  -3 1738.53   59.19
   0   2   3 1727.13   58.99
  -1  -2  -3    5.30    1.60
   1  -2   3    6.00    1.40
   1  -2   3    5.80    1.70
   1  -2   3    5.00    1.60
  -1  -2  -3    3.60    1.50
  -1  -2  -3    3.60    1.80
   1   2   3    6.90    1.70
  -1   2  -3    5.80    1.40
   1   2   3    6.00    1.90
  -1   2  -3    2.60    1.40
   1   2   3    6.90    1.20
  -1   2  -3    1.20    1.50
  -1   2  -3    4.10    1.20
   1   2   3    5.70    1.30
  -2  -2  -3   65.99    3.80
  -2  -2  -3   65.99    4.20
   2  -2   3   68.39    3.60
   2  -2   3   64.49    4.10
   2  -2   3   63.49    4.50
  -2  -2  -3   56.79    3.90
  -2   2  -3   56.69    3.20
  -2   2  -3   53.39    3.80
   2   2   3   64.79    3.50
  -2   2  -3   61.59    3.70
   2   2   3   69.59    4.10
   2   2   3   64.19    4.70
  -2   2  -3   69.49    3.80
   3  -2   3  970.90   33.60
  -3  -2  -3  899.91   33.40
   3  -2   3  915.01   34.40
  -3  -2  -3  902.31   33.30
  -3  -2  -3  960.60   33.80
   3  -2   3  931.81   33.10
  -3   2  -3  915.81   33.50
  -3   2  -3  956.40   33.30
   3   2   3  958.50   33.10
   3   2   3  895.91   34.50
   3   2   3  934.41   33.40
  -3   2  -3  925.01   33.30
  -3   2  -3  916.51   32.70
  -4  -2  -3  464.15   18.30
  -4  -2  -3  457.15   18.00
   4  -2   3  470.55   17.30
   4  -2   3  450.15   19.20
   4  -2   3  458.55   18.10
  -4   2  -3  475.25   17.90
   4   2   3  457.45   19.30
   4   2   3  454.85   17.90
  -4   2  -3  465.25   18.10
   4   2   3  495.95   17.40
   5  -2   3  195.48    9.60
   5  -2   3  171.58   10.60
  -5  -2  -3  196.88    9.50
  -5  -2  -3  183.18    9.80
   5  -2   3  183.28    8.20
  -5   2  -3  182.98    9.20
   5   2   3  196.48    8.40
   5   2   3  192.78    9.30
   5   2   3  194.28   10.90
  -5   2  -3  199.08    9.50
  -6  -2  -3   10.20    3.40
   6  -2   3   16.20    3.80
   6  -2   3    7.40    4.00
  -6  -2  -3   17.10    4.10
  -6   2  -3   10.50    4.10
   6   2   3   16.70    3.50
  -6   2  -3   13.70    3.60
   6   2   3   13.60    4.40
  -7  -2  -3    4.60    3.70
   7  -2   3   -4.30    3.80
  -7  -2  -3    4.90    4.10
   7  -2   3    2.80    3.30
  -7   2  -3   -1.50    3.40
   7   2   3    3.40    3.10
   7   2   3    2.10    4.00
   9  -3  -3   10.40    3.90
   9  -3  -3    9.70    5.00
   9  -3  -3    9.70    4.50
   9   3  -3    9.10    5.10
   8  -3  -3    2.70    4.00
   8  -3  -3   -5.10    2.90
  -8  -3   3   -0.10    3.60
   8  -3  -3    0.80    3.40
   8   3  -3    6.30    2.70
   8   3  -3    2.50    3.70
  -8   3   3   -1.00    3.60
   8   3  -3    1.70    3.80
   7  -3  -3   41.50    5.30
   7  -3  -3   43.00    5.70
  -7  -3   3   37.20    5.70
   7  -3  -3   40.80    6.30
   7   3  -3   30.80    5.90
  -7   3   3   50.89    5.70
  -7   3   3   39.50    4.80
   7   3  -3   43.70    5.80
   7   3  -3   35.20    4.30
   6  -3  -3   68.29    6.30
   6  -3  -3   62.89    5.20
  -6  -3   3   65.19    5.70
   6  -3  -3   63.69    5.70
  -6  -3   3   58.59    4.50
   6   3  -3   54.79    5.90
   6   3  -3   65.59    4.40
  -6   3   3   71.49    5.10
   6   3  -3   53.89    5.50
  -6   3   3   71.99    5.50
  -5  -3   3  431.06   16.00
  -5  -3   3  437.56   16.70
   5  -3  -3  421.76   16.90
   5  -3  -3  423.06   16.40
   5  -3  -3  400.46   17.30
  -5   3   3  438.06   16.60
  -5   3   3  443.96   16.30
   5   3  -3  440.76   17.30
   5   3  -3  410.76   15.80
   5   3  -3  416.66   16.90
   4  -3  -3   96.49    5.50
   4  -3  -3  103.79    5.90
   4  -3  -3  104.39    6.10
  -4  -3   3  106.49    5.20
  -4   3   3  109.89    5.60
   4   3  -3  110.79    5.00
  -4   3   3   98.39    5.30
   4   3  -3  117.39    5.00
   4   3  -3  111.89    5.60
   4   3  -3  120.49    6.00
   4   3  -3  112.39    5.90
   3  -3  -3   58.59    4.40
   3  -3  -3   38.50    3.50
  -3  -3   3   39.20    2.90
  -3  -3   3   36.30    2.20
   3  -3  -3   36.50    3.10
   3   3  -3   44.20    2.60
   3   3  -3   40.20    3.20
  -3   3   3   38.00    3.30
   3   3  -3   37.30    3.20
   3   3  -3   40.60    2.60
  -3   3   3   42.10    3.10
  -3   3   3   37.10    2.20
   3   3  -3   38.20    3.50
   2  -3  -3   85.09    3.90
  -2  -3   3   77.29    3.60
  -2  -3   3   78.99    3.90
   2  -3  -3   77.29    4.50
   2  -3  -3   69.99    4.80
   2  -3  -3   80.69    4.10
   2   3  -3   85.69    4.20
  -2   3   3   85.09    4.00
   2   3  -3   79.49    4.30
  -2   3   3   84.59    4.30
   2   3  -3   87.29    3.70
  -2   3   3   86.19    3.70
   2   3  -3   82.39    3.80
   1  -3  -3  324.67   12.10
   1  -3  -3  302.87   12.00
  -1  -3   3  312.27   11.60
   1  -3  -3  291.67   11.50
   1  -3  -3  334.47   11.80
  -1   3   3  341.17   11.90
   1   3  -3  313.17   11.70
   1   3  -3  302.87   11.80
   1   3  -3  332.67   11.50
   1   3  -3  314.87   11.50
   1   3  -3  307.77   11.70
  -1   3   3  314.37   11.60
  -1   3   3  322.57   11.60
   0  -3  -3  186.38    7.40
   0  -3   3  191.88    7.40
   0  -3   3  197.48    7.60
   0  -3  -3  199.98    8.00
   0  -3  -3  198.68    7.60
   0  -3   3  204.88    7.60
   0   3  -3  197.08    7.40
   0   3   3  184.78    7.50
   0   3   3  179.68    7.90
   0   3  -3  180.68    7.40
   0   3  -3  189.28    7.50
   0   3   3  203.38    7.80
   0   3  -3  194.88    7.80
   0   3  -3  185.98    7.40
   0   3   3  188.98    7.20
   1  -3   3   82.59    3.90
   1  -3   3   74.59    4.20
  -1  -3  -3   71.29    3.90
  -1  -3  -3   74.69    4.50
  -1  -3  -3   73.29    4.00
   1  -3   3   80.99    4.10
   1   3   3   73.99    4.60
   1   3   3   72.39    3.00
  -1   3  -3   72.49    4.10
   1   3   3   74.89    4.10
  -1   3  -3   71.09    3.70
  -1   3  -3   69.09    3.50
  -1   3  -3   75.19    3.90
   1   3   3   74.09    3.80
  -2  -3  -3  731.83   26.70
  -2  -3  -3  742.73   27.10
   2  -3   3  736.53   27.50
  -2  -3  -3  720.63   26.70
   2  -3   3  766.82   26.60
   2  -3   3  756.22   26.90
   2   3   3  736.93   27.70
  -2   3  -3  723.83   26.40
  -2   3  -3  755.12   26.50
   2   3   3  742.93   26.60
   2   3   3  751.82   26.80
  -2   3  -3  779.12   26.80
  -2   3  -3  739.93   26.90
   3  -3   3  144.09    6.70
   3  -3   3  133.09    5.80
   3  -3   3  117.79    7.10
  -3  -3  -3  123.29    6.30
  -3  -3  -3  129.99    6.80
   3   3   3  142.99    6.00
  -3   3  -3  123.69    6.40
  -3   3  -3  118.49    6.00
  -3   3  -3  125.69    6.20
   3   3   3  136.49    7.40
   3   3   3  133.19    6.40
  -3   3  -3  124.89    5.60
   4  -3   3   62.19    5.10
   4  -3   3   54.39    3.60
  -4  -3  -3   48.20    4.50
   4  -3   3   47.30    5.50
  -4  -3  -3   47.50    5.10
   4   3   3   52.49    5.60
   4   3   3   44.20    4.50
   4   3   3   54.19    3.80
  -4   3  -3   46.10    4.70
  -4   3  -3   47.40    4.30
  -4   3  -3   45.40    3.30
   5  -3   3  869.81   31.90
   5  -3   3  862.51   30.90
  -5  -3  -3  857.31   31.80
  -5  -3  -3  868.81   32.30
   5  -3   3  829.12   33.40
  -5   3  -3  861.41   31.90
   5   3   3  865.01   31.60
   5   3   3  875.61   31.00
   5   3   3  834.22   33.50
  -5   3  -3  829.72   31.50
   6  -3   3   54.09    6.00
  -6  -3  -3   60.39    6.20
  -6  -3  -3   55.99    6.90
   6  -3   3   50.39    7.30
   6   3   3   56.89    7.40
  -6   3  -3   52.99    6.20
   6   3   3   51.19    5.70
   7  -3   3    5.00    4.60
  -7  -3  -3    6.40    3.60
  -7  -3  -3   -1.60    3.80
   7   3   3    5.10    4.40
   7   3   3    4.00    3.00
  -7   3  -3    6.30    3.90
   9  -4  -3    6.60    4.90
   9  -4  -3   -0.60    3.40
   9  -4  -3    4.20    4.00
   9   4  -3    1.30    4.40
   8  -4  -3   81.39    7.60
  -8  -4   3   89.29    7.70
   8  -4  -3   96.99    7.30
   8  -4  -3   88.69    8.90
  -8   4   3   92.39    7.50
   8   4  -3   85.49    5.90
   8   4  -3   86.09    8.70
   8   4  -3  104.89    8.30
   7  -4  -3   12.80    3.40
   7  -4  -3   22.70    4.00
  -7  -4   3   27.40    4.10
   7  -4  -3   20.50    4.40
  -7   4   3   14.10    3.30
  -7   4   3   23.10    3.80
   7   4  -3   20.90    2.80
   7   4  -3   21.20    4.20
   7   4  -3   18.30    4.30
   6  -4  -3  135.99    8.60
  -6  -4   3  130.39    7.80
   6  -4  -3  137.49    7.40
   6  -4  -3  135.99    7.80
  -6  -4   3  127.69    6.60
  -6   4   3  153.08    7.40
  -6   4   3  140.19    7.50
   6   4  -3  118.69    6.30
   6   4  -3  135.19    8.30
   6   4  -3  140.09    7.90
   5  -4  -3  117.09    6.60
  -5  -4   3  111.89    5.60
   5  -4  -3  102.59    6.90
  -5  -4   3  102.59    6.30
   5  -4  -3  106.79    6.10
   5   4  -3  106.59    5.10
   5   4  -3  112.29    6.70
  -5   4   3  117.09    6.10
  -5   4   3  114.39    6.00
   5   4  -3  107.19    6.50
   4  -4  -3  100.29    5.40
   4  -4  -3  103.99    6.30
  -4  -4   3  100.59    4.90
   4  -4  -3  106.79    5.70
  -4   4   3  100.09    5.40
   4   4  -3   97.69    5.70
   4   4  -3   97.09    5.70
   4   4  -3  103.69    5.40
  -4   4   3   99.69    5.20
  -4   4   3  103.59    5.20
  -3  -4   3  203.28    7.90
   3  -4  -3  183.58    8.40
  -3  -4   3  193.78    7.50
   3  -4  -3  173.78    9.40
   3  -4  -3  206.28    8.30
  -3   4   3  195.08    8.20
  -3   4   3  211.98    8.00
  -3   4   3  201.78    8.10
   3   4  -3  207.88    8.30
  -3   4   3  194.18    7.40
   3   4  -3  207.58    8.40
   3   4  -3  206.28    8.40
   2  -4  -3  913.41   33.70
   2  -4  -3  941.71   33.40
  -2  -4   3  905.21   33.40
   2  -4  -3  936.31   34.40
   2  -4  -3  959.20   34.00
   2   4  -3  959.10   33.80
  -2   4   3 1021.70   33.70
   2   4  -3  945.71   33.60
   2   4  -3  948.21   33.70
  -2   4   3  983.00   33.80
  -2   4   3  972.30   33.40
   1  -4  -3  973.70   34.30
  -1  -4   3  948.61   33.80
   1  -4  -3  964.30   33.90
  -1  -4   3  882.71   33.60
   1  -4  -3  948.41   34.20
   1  -4  -3  906.31   33.50
  -1   4   3  955.90   34.00
  -1   4   3  984.70   33.80
   1   4  -3 1002.70   33.60
  -1   4   3  963.00   33.80
   1   4  -3  966.10   33.80
   1   4  -3  990.20   33.60
   1   4  -3  977.50   33.90
   1   4  -3  994.40   34.00
   0  -4   3  870.81   31.40
   0  -4  -3  867.81   31.20
   0  -4  -3  927.61   31.90
   0  -4  -3  896.01   31.50
   0  -4   3  813.02   31.70
   0  -4   3  910.11   31.50
   0   4   3  924.91   31.60
   0   4  -3  897.91   31.30
   0   4   3  874.71   31.20
   0   4  -3  833.82   31.40
   0   4   3  857.01   32.00
   0   4  -3  942.91   31.70
   0   4   3  905.71   31.50
   0   4  -3  955.30   31.20
   1  -4   3 1296.87   46.40
  -1  -4  -3 1283.87   45.90
  -1  -4  -3 1364.96   46.50
   1  -4   3 1319.67   46.10
   1  -4   3 1378.26   46.00
  -1  -4  -3 1303.47   45.80
  -1   4  -3 1251.97   45.90
  -1   4  -3 1332.47   45.90
   1   4   3 1307.47   46.00
  -1   4  -3 1343.47   46.20
   1   4   3 1322.27   46.00
   1   4   3 1286.17   45.40
  -1   4  -3 1286.97   45.60
   1   4   3 1272.87   46.70
  -2  -4  -3  926.61   33.10
  -2  -4  -3  881.81   33.00
   2  -4   3  947.51   33.00
   2  -4   3  961.80   33.30
   2  -4   3  905.41   33.80
  -2  -4  -3  939.81   33.60
  -2   4  -3  894.61   32.90
   2   4   3  941.01   33.00
  -2   4  -3  941.61   33.30
   2   4   3  937.41   34.20
  -2   4  -3  949.51   33.10
   2   4   3  935.31   33.10
  -2   4  -3  927.71   32.70
   3  -4   3  197.08    9.70
   3  -4   3  199.98    8.30
  -3  -4  -3  211.28    9.40
   3  -4   3  212.48    9.00
  -3  -4  -3  199.08    8.70
   3   4   3  197.48   10.00
   3   4   3  207.78    8.40
  -3   4  -3  205.08    8.20
   3   4   3  203.38    8.70
  -3   4  -3  205.08    8.90
  -3   4  -3  201.88    8.30
   4  -4   3   26.10    2.90
   4  -4   3   18.80    3.10
  -4  -4  -3   24.90    3.90
   4  -4   3   19.20    3.60
  -4  -4  -3   16.10    3.30
   4   4   3   24.90    4.90
   4   4   3   24.90    3.10
  -4   4  -3   22.40    2.90
  -4   4  -3   19.60    3.60
  -4   4  -3   23.50    3.50
   4   4   3   24.50    3.00
  -4   4  -3   19.10    3.10
   5  -4   3    1.40    2.80
  -5  -4  -3    5.10    3.30
   5  -4   3    0.90    1.80
   5  -4   3   -2.30    3.00
  -5  -4  -3   -1.20    2.50
   5   4   3   -0.10    2.40
   5   4   3   -3.50    3.00
   5   4   3   -0.50    1.80
  -5   4  -3   -1.10    2.80
  -6  -4  -3   10.50    4.00
  -6  -4  -3    8.20    3.40
   6  -4   3   -0.50    3.40
   6   4   3   10.70    4.40
   6   4   3    5.70    3.00
  -6   4  -3    9.50    3.60
  -7  -4  -3   41.50    6.40
  -7  -4  -3   32.70    5.50
   7  -4   3   39.00    7.90
   7   4   3   24.30    5.90
  -7   4  -3   40.80    6.60
   7   4   3   29.20    4.30
   8  -5  -3    8.90    3.90
  -8  -5   3    4.30    3.90
   8  -5  -3   14.60    5.00
   8  -5  -3    6.00    3.50
  -8   5   3   14.90    4.10
  -8   5   3    7.80    4.10
   8   5  -3   14.20    4.30
   8   5  -3   11.30    4.50
   8   5  -3   11.60    2.60
   7  -5  -3   66.59    6.20
  -7  -5   3   76.49    6.60
   7  -5  -3   68.99    7.30
   7  -5  -3   78.69    6.50
   7   5  -3   56.59    4.60
   7   5  -3   69.09    6.50
  -7   5   3   70.79    6.20
  -7   5   3   71.09    6.00
   7   5  -3   65.59    7.10
  -6  -5   3    2.80    2.80
   6  -5  -3    3.50    2.60
   6  -5  -3   -0.70    2.90
   6  -5  -3   -1.10    2.60
  -6  -5   3    4.30    2.10
   6   5  -3   -0.60    2.70
  -6   5   3   -0.80    2.50
   6   5  -3    0.10    1.70
   6   5  -3   -1.40    2.60
  -6   5   3   -0.30    2.50
   5  -5  -3    7.50    2.90
   5  -5  -3    8.70    2.60
  -5  -5   3    7.40    2.00
   5  -5  -3   12.10    2.50
  -5  -5   3    3.40    2.40
   5   5  -3    7.20    2.60
   5   5  -3    2.30    2.30
  -5   5   3    7.30    2.30
  -5   5   3    4.70    2.30
  -4  -5   3  166.78    7.00
   4  -5  -3  160.08    8.50
  -4  -5   3  145.69    6.30
   4  -5  -3  163.98    7.50
   4  -5  -3  156.78    7.50
  -4   5   3  161.98    7.30
  -4   5   3  167.58    7.20
   4   5  -3  170.28    7.40
  -4   5   3  160.68    6.20
  -4   5   3  153.08    7.40
   4   5  -3  175.38    7.90
   4   5  -3  165.48    7.70
  -3  -5   3  329.67   12.70
  -3  -5   3  341.47   13.10
   3  -5  -3  345.57   13.40
   3  -5  -3  339.77   13.60
  -3   5   3  335.07   12.70
   3   5  -3  361.06   13.40
  -3   5   3  357.86   13.40
  -3   5   3  357.76   13.30
   3   5  -3  364.86   13.60
  -3   5   3  359.66   13.10
   3   5  -3  352.16   13.50
   2  -5  -3  891.71   32.60
  -2  -5   3  849.22   31.70
   2  -5  -3  888.01   31.60
   2  -5  -3  893.51   32.00
   2  -5  -3  862.21   32.20
   2   5  -3  888.91   32.00
  -2   5   3  952.30   32.00
   2   5  -3  882.21   32.00
  -2   5   3  965.80   32.10
  -2   5   3  917.31   31.70
   2   5  -3  896.31   32.00
   2   5  -3  925.21   32.00
  -1  -5   3  250.27   10.40
   1  -5  -3  262.67   10.80
  -1  -5   3  271.27   10.40
   1  -5  -3  273.07   11.20
   1  -5  -3  264.57   10.00
   1   5  -3  287.37   10.60
   1   5  -3  291.37   10.30
   1   5  -3  298.47   10.10
  -1   5   3  273.97   10.60
   1   5  -3  279.87   10.10
  -1   5   3  280.97   10.40
   1   5  -3  282.07   10.50
  -1   5   3  280.17   10.40
   0  -5  -3  145.79    7.00
   0  -5  -3  160.38    6.60
   0  -5   3  158.58    6.50
   0  -5  -3  150.58    6.00
   0   5  -3  152.18    6.50
   0   5   3  150.88    6.40
   0   5   3  166.58    6.70
   0   5  -3  169.98    5.90
   0   5  -3  167.08    6.70
   0   5  -3  140.79    6.20
   0   5  -3  152.58    6.20
   0   5   3  157.48    6.10
   0   5   3  155.28    7.30
   1  -5   3  288.27   10.90
  -1  -5  -3  285.77   10.70
   1  -5   3  289.77   11.00
   1  -5   3  303.07   11.60
  -1  -5  -3  279.67   10.90
  -1  -5  -3  295.57   11.50
   1   5   3  275.77   11.00
  -1   5  -3  292.37   10.90
   1   5   3  280.87   10.30
   1   5   3  284.47   10.90
   1   5   3  286.07   11.80
  -1   5  -3  272.57   10.80
  -2  -5  -3   85.19    4.40
  -2  -5  -3   81.59    4.40
   2  -5   3   86.89    5.30
   2  -5   3   88.89    4.30
   2  -5   3   86.89    4.80
  -2  -5  -3   76.39    5.20
   2   5   3   86.69    4.30
   2   5   3   84.59    4.60
  -2   5  -3   83.79    4.30
  -2   5  -3   79.39    3.80
  -2   5  -3   87.79    4.80
   2   5   3   76.49    5.50
  -3  -5  -3    5.60    2.00
  -3  -5  -3   -0.80    2.20
   3  -5   3    0.90    1.90
   3  -5   3   -0.90    2.10
   3  -5   3   -0.50    1.40
   3   5   3   -0.30    1.70
   3   5   3    3.70    1.70
  -3   5  -3   -1.20    1.80
   3   5   3   -1.20    2.30
  -3   5  -3   -1.00    1.90
  -3   5  -3    0.70    1.50
  -3   5  -3    1.80    1.60
   4  -5   3    2.00    2.80
  -4  -5  -3    4.00    2.90
  -4  -5  -3    1.90    2.10
   4  -5   3    2.90    1.70
   4  -5   3    0.70    2.60
   4   5   3    2.60    1.80
   4   5   3    2.00    2.80
  -4   5  -3    3.10    2.40
  -4   5  -3    4.20    2.40
   4   5   3    0.20    2.10
  -4   5  -3    2.00    1.80
  -5  -5  -3   17.30    3.30
  -5  -5  -3   23.20    4.10
   5  -5   3   20.90    3.20
   5  -5   3   20.40    4.50
  -5   5  -3   23.10    3.70
   5   5   3   19.30    2.70
   5   5   3   21.10    3.20
   5   5   3   15.30    4.30
  -6  -5  -3   16.80    3.60
   6  -5   3   15.10    4.40
  -6  -5  -3   18.20    4.50
   6   5   3    8.00    4.30
  -6   5  -3   13.10    3.60
   6   5   3   18.40    3.30
  -7  -5  -3    3.30    3.40
   7  -5   3    0.70    4.30
  -7  -5  -3    1.80    4.00
  -7   5  -3    6.20    3.90
   7   5   3   -3.70    2.60
   7   5   3   -0.50    4.00
   8  -6  -3   93.29    7.80
   8  -6  -3   88.39    7.50
   8  -6  -3   88.39    9.10
  -8  -6   3   95.99    8.10
   8   6  -3   74.89    5.30
  -8   6   3   99.19    7.50
  -8   6   3   93.79    7.50
   8   6  -3  102.39    8.40
   8   6  -3   87.19    8.60
   7  -6  -3   14.40    3.40
  -7  -6   3    9.80    3.50
   7  -6  -3   16.10    4.40
   7  -6  -3   14.00    3.70
  -7   6   3   13.80    3.50
  -7   6   3   15.40    3.60
   7   6  -3   13.80    3.60
   7   6  -3   13.70    4.20
  -6  -6   3    0.70    2.70
  -6  -6   3    3.30    2.10
   6  -6  -3   -0.80    2.70
   6  -6  -3    0.00    2.70
   6  -6  -3    2.30    3.00
  -6   6   3    2.00    2.60
   6   6  -3   -0.30    2.70
  -6   6   3    3.20    2.70
   6   6  -3   -0.50    2.80
   5  -6  -3   58.59    6.00
   5  -6  -3   56.09    4.90
  -5  -6   3   55.29    4.90
  -5  -6   3   58.99    4.00
   5  -6  -3   54.39    4.90
  -5   6   3   53.59    4.50
   5   6  -3   45.00    4.70
   5   6  -3   66.19    5.50
  -5   6   3   62.79    4.80
   4  -6  -3   23.80    3.40
   4  -6  -3   28.50    3.60
  -4  -6   3   23.90    2.20
  -4  -6   3   26.20    2.90
   4  -6  -3   30.50    5.10
   4   6  -3   31.60    3.90
  -4   6   3   27.20    2.20
  -4   6   3   30.30    3.60
   4   6  -3   20.30    3.40
   4   6  -3   23.00    3.40
  -4   6   3   27.80    3.40
  -4   6   3   29.70    3.10
   3  -6  -3  123.69    6.30
   3  -6  -3  104.79    7.70
  -3  -6   3  131.59    5.80
  -3  -6   3  124.59    5.40
   3  -6  -3  136.59    6.30
  -3   6   3  135.29    6.20
   3   6  -3  142.29    6.50
  -3   6   3  130.29    6.00
   3   6  -3  132.59    6.20
  -3   6   3  127.29    5.40
   3   6  -3  135.29    6.10
  -3   6   3  136.19    5.70
   2  -6  -3 1143.19   42.60
   2  -6  -3 1188.98   42.00
  -2  -6   3 1126.29   41.70
   2  -6  -3 1151.18   42.20
   2   6  -3 1184.08   42.00
  -2   6   3 1196.78   41.90
  -2   6   3 1195.68   41.70
   2   6  -3 1207.88   41.90
   2   6  -3 1245.08   41.90
   2   6  -3 1205.18   41.90
  -2   6   3 1221.98   42.00
  -1  -6   3  158.48    7.30
  -1  -6   3  181.18    7.30
   1  -6  -3  175.48    7.70
   1  -6  -3  175.98    8.20
  -1   6   3  186.78    7.50
   1   6  -3  189.58    6.90
   1   6  -3  189.88    6.90
  -1   6   3  178.38    7.20
   1   6  -3  187.88    7.00
   1   6  -3  179.18    7.40
  -1   6   3  175.78    7.20
   1   6  -3  185.48    7.40
   0  -6  -3   21.70    3.00
   0  -6   3   16.70    3.00
   0  -6   3   17.80    2.30
   0  -6  -3   17.00    2.60
   0   6  -3   22.40    2.10
   0   6  -3   21.00    2.40
   0   6   3   17.70    2.30
   0   6   3   18.20    1.90
   0   6  -3   19.80    2.70
   0   6  -3   21.20    2.00
   0   6   3   17.60    2.70
   0   6   3   19.80    3.40
  -1  -6  -3  196.08    7.60
  -1  -6  -3  186.88    7.90
   1  -6   3  203.38    8.00
  -1  -6  -3  191.38    8.50
   1  -6   3  214.08    9.20
   1  -6   3  199.48    8.00
   1   6   3  186.98    9.00
  -1   6  -3  215.98    8.20
   1   6   3  184.68    7.90
  -1   6  -3  192.78    8.00
  -1   6  -3  189.78    7.80
   1   6   3  195.48    7.90
   1   6   3  193.68    7.30
   2  -6   3 1216.38   44.00
  -2  -6  -3 1206.68   42.80
   2  -6   3 1268.07   43.00
   2  -6   3 1256.57   43.20
  -2  -6  -3 1281.57   43.70
   2   6   3 1206.48   42.90
   2   6   3 1158.68   42.90
  -2   6  -3 1230.68   43.20
  -2   6  -3 1149.08   42.90
  -2   6  -3 1214.78   43.00
   2   6   3 1187.88   44.20
  -3  -6  -3   13.20    3.00
   3  -6   3   14.30    3.10
   3  -6   3   17.60    2.80
   3  -6   3   18.50    2.60
  -3  -6  -3   16.30    2.30
   3   6   3   15.50    2.30
   3   6   3   13.50    2.10
   3   6   3   17.10    3.50
  -3   6  -3   14.20    2.50
  -3   6  -3   11.30    2.40
  -3   6  -3   11.90    2.10
  -4  -6  -3   22.20    3.80
   4  -6   3   26.70    3.10
  -4  -6  -3   30.60    4.00
   4  -6   3   28.10    5.20
  -4   6  -3   35.40    4.40
   4   6   3   35.80    4.10
  -4   6  -3   31.30    4.30
  -4   6  -3   30.30    3.40
   4   6   3   28.70    5.40
   4   6   3   31.60    3.40
   5  -6   3  249.48   10.50
   5  -6   3  259.77   13.30
  -5  -6  -3  250.07   11.40
  -5  -6  -3  253.27   12.40
   5   6   3  253.07   11.10
  -5   6  -3  253.97   11.60
   5   6   3  255.17   10.60
   5   6   3  249.78   13.40
  -6  -6  -3   15.10    4.40
  -6  -6  -3   20.30    3.70
   6  -6   3   20.20    5.00
   6   6   3   22.80    5.40
  -6   6  -3   10.20    3.60
   6   6   3   21.30    3.50
  -7  -6  -3   56.69    7.90
  -7  -6  -3   57.19    6.90
   7  -6   3   61.39    8.80
   7   6   3   47.10    8.40
   7   6   3   57.09    6.00
  -7   6  -3   53.59    7.00
   8  -7  -3    0.60    3.30
   8  -7  -3   -6.30    3.50
  -8  -7   3   -3.50    3.50
   8  -7  -3   -1.20    3.30
   8   7  -3    8.30    4.00
  -8   7   3    3.80    3.60
   8   7  -3    2.20    4.00
  -8   7   3   -1.40    3.20
   7  -7  -3    9.70    3.50
   7  -7  -3    9.90    4.00
  -7  -7   3    1.70    3.30
   7  -7  -3    7.30    3.30
   7   7  -3   12.70    4.10
  -7   7   3   -0.60    2.90
   7   7  -3    5.00    3.40
  -7   7   3    6.30    3.20
   6  -7  -3    2.40    3.20
  -6  -7   3   -1.20    2.60
  -6  -7   3    5.10    2.80
   6  -7  -3    1.10    2.60
   6  -7  -3    0.80    2.70
   6   7  -3    6.10    3.30
  -6   7   3   10.10    2.90
  -6   7   3    4.80    2.60
   6   7  -3    1.60    2.70
  -5  -7   3  438.76   16.40
   5  -7  -3  432.56   17.30
   5  -7  -3  456.95   17.20
  -5  -7   3  428.76   17.20
   5  -7  -3  427.16   18.60
  -5   7   3  438.36   16.80
  -5   7   3  456.65   17.10
   5   7  -3  412.56   17.80
   5   7  -3  433.26   17.40
  -4  -7   3   19.90    2.20
   4  -7  -3   16.60    2.60
   4  -7  -3   16.10    2.60
  -4  -7   3   21.30    2.90
   4  -7  -3   17.90    4.20
  -4   7   3   14.60    2.40
   4   7  -3   21.40    3.80
  -4   7   3   17.80    2.90
  -4   7   3   17.50    2.70
   4   7  -3   21.90    3.50
   4   7  -3   19.30    2.70
  -4   7   3   17.30    2.30
   3  -7  -3  196.08    8.60
   3  -7  -3  207.98    8.60
  -3  -7   3  180.38    7.70
   3  -7  -3  178.68   10.00
   3   7  -3  205.18    8.80
  -3   7   3  196.78    8.50
   3   7  -3  199.88    8.40
  -3   7   3  196.88    7.80
  -3   7   3  202.68    8.40
   3   7  -3  203.88    8.40
  -3   7   3  203.38    7.80
   2  -7  -3  342.87   13.70
   2  -7  -3  362.56   13.60
  -2  -7   3  338.97   13.20
   2  -7  -3  349.57   14.40
  -2   7   3  350.86   13.40
   2   7  -3  358.46   13.40
   2   7  -3  361.56   13.40
  -2   7   3  359.76   13.50
   2   7  -3  367.76   13.50
  -2   7   3  358.66   13.20
  -1  -7   3   60.29    3.40
  -1  -7   3   51.89    3.60
   1  -7  -3   50.59    3.80
   1  -7  -3   55.49    4.60
   1  -7  -3   54.69    3.60
  -1   7   3   52.39    3.40
   1   7  -3   59.49    3.00
  -1   7   3   58.89    3.70
   1   7  -3   57.09    3.50
  -1   7   3   59.79    3.20
   1   7  -3   57.19    3.60
   0  -7  -3   16.00    2.50
   0  -7   3   18.10    2.60
   0  -7  -3   18.40    2.60
   0  -7   3   17.50    2.40
   0   7  -3   18.60    2.60
   0   7  -3   17.50    2.00
   0   7   3   19.30    2.60
   0   7  -3   21.90    2.70
   0   7   3   17.30    2.00
   0   7   3   18.50    3.50
   0   7  -3   21.50    2.00
   0   7   3   17.60    2.50
   1  -7   3  250.47   11.80
   1  -7   3  293.27   10.40
  -1  -7  -3  254.37    9.80
  -1  -7  -3  270.07   11.00
   1  -7   3  264.97   10.40
  -1  -7  -3  257.67   10.20
  -1   7  -3  263.97   10.40
   1   7   3  246.78   10.20
   1   7   3  262.67   10.20
  -1   7  -3  283.77   10.50
   1   7   3  258.77    9.70
  -1   7  -3  270.47   10.20
   1   7   3  276.17   10.40
   1   7   3  258.07   11.50
  -2  -7  -3  364.36   13.70
   2  -7   3  369.36   15.20
   2  -7   3  371.66   14.20
  -2  -7  -3  384.36   14.80
   2  -7   3  387.36   14.00
   2   7   3  350.16   15.30
   2   7   3  360.66   14.00
  -2   7  -3  381.26   14.20
   2   7   3  350.26   13.90
  -2   7  -3  354.16   13.90
  -2   7  -3  366.36   14.00
   3  -7   3    6.40    2.80
  -3  -7  -3   11.10    2.10
  -3  -7  -3    8.40    2.80
   3  -7   3    7.90    1.90
  -3   7  -3    9.30    2.20
  -3   7  -3    6.90    2.30
  -3   7  -3    9.50    2.10
   3   7   3    9.90    2.00
   3   7   3    8.90    2.00
   3   7   3    8.70    3.10
   4  -7   3   83.99    7.30
   4  -7   3   95.29    5.20
  -4  -7  -3  109.89    7.10
  -4  -7  -3   91.69    5.70
  -4   7  -3   97.29    5.50
  -4   7  -3   93.89    6.20
   4   7   3  102.89    5.80
   4   7   3   99.09    7.90
  -4   7  -3   92.79    6.00
   4   7   3   99.59    5.40
  -5  -7  -3  421.76   18.10
  -5  -7  -3  439.76   17.10
   5  -7   3  413.36   19.10
   5  -7   3  411.76   16.30
   5   7   3  428.46   19.40
   5   7   3  404.46   16.60
  -5   7  -3  429.66   17.30
   5   7   3  435.76   16.50
   6  -7   3   39.20    6.40
  -6  -7  -3   47.50    7.30
  -6  -7  -3   41.40    5.70
  -6   7  -3   46.40    6.00
   6   7   3   46.50    5.20
   6   7   3   36.90    6.40
  -7  -7  -3    8.90    3.90
   7  -7   3    5.00    4.60
  -7  -7  -3    8.50    4.90
   7   7   3    9.90    3.30
   7   7   3   13.00    5.40
  -7   7  -3   15.80    4.50
  -8  -8   3   44.80    6.90
   8  -8  -3   30.20    6.00
   8   8  -3   29.60    5.60
  -8   8   3   30.20    4.80
  -8   8   3   40.00    6.00
   8   8  -3   36.50    5.60
   7  -8  -3    7.40    3.30
   7  -8  -3    7.60    4.00
  -7  -8   3    7.60    3.50
   7  -8  -3    4.00    3.30
  -7   8   3    2.30    3.30
   7   8  -3    6.50    3.70
   7   8  -3    4.00    3.50
  -7   8   3    3.40    3.00
  -6  -8   3   73.49    6.10
   6  -8  -3   64.79    5.80
   6  -8  -3   73.09    6.00
   6  -8  -3   57.49    6.90
   6   8  -3   52.79    5.80
  -6   8   3   71.09    5.90
  -6   8   3   66.49    5.40
   6   8  -3   59.29    6.40
   5  -8  -3  163.48    8.30
  -5  -8   3  161.28    8.30
   5  -8  -3  175.08    8.30
  -5  -8   3  148.29    7.20
   5  -8  -3  194.78   11.00
  -5   8   3  156.78    7.60
   5   8  -3  154.98    8.90
   5   8  -3  152.98    8.20
  -5   8   3  158.98    8.00
   4  -8  -3  610.14   23.90
   4  -8  -3  607.14   26.80
   4  -8  -3  668.43   24.00
  -4  -8   3  630.64   23.40
   4   8  -3  666.43   24.70
  -4   8   3  647.24   23.00
  -4   8   3  654.53   23.30
   4   8  -3  651.33   24.10
  -4   8   3  651.83   23.80
   4   8  -3  645.84   23.70
  -4   8   3  626.84   23.90
   3  -8  -3   28.90    5.50
   3  -8  -3   31.00    3.50
   3  -8  -3   34.20    3.60
  -3   8   3   31.30    2.60
   3   8  -3   43.50    4.10
  -3   8   3   30.70    2.80
  -3   8   3   31.40    3.40
   3   8  -3   39.00    3.30
   3   8  -3   41.10    3.50
  -3   8   3   33.30    3.70
   3   8  -3   36.40    3.10
   2  -8  -3   26.90    3.10
  -2  -8   3   32.60    3.40
  -2  -8   3   27.90    2.60
   2  -8  -3   38.10    3.30
   2  -8  -3   33.90    4.10
   2   8  -3   30.90    2.90
  -2   8   3   34.00    3.10
   2   8  -3   26.20    3.00
   2   8  -3   30.30    2.60
  -2   8   3   29.60    2.80
  -2   8   3   38.40    3.30
   1  -8  -3  597.64   22.50
  -1  -8   3  619.64   22.50
   1  -8  -3  616.14   23.60
  -1  -8   3  562.94   22.80
   1  -8  -3  626.44   22.90
  -1   8   3  623.14   22.50
   1   8  -3  644.34   22.10
   1   8  -3  658.23   22.60
   1   8  -3  645.94   22.60
  -1   8   3  614.54   22.60
  -1   8   3  622.14   22.40
   0  -8  -3  234.38    9.40
   0  -8   3  251.27    9.60
   0  -8   3  252.17   10.20
   0  -8  -3  235.98   10.00
   0   8  -3  245.38    9.60
   0   8  -3  227.28    9.00
   0   8   3  232.78    9.10
   0   8  -3  245.88    9.10
   0   8   3  227.88    9.40
   0   8   3  224.88    9.40
   0   8  -3  246.58    9.50
   1  -8   3    1.50    2.60
   1  -8   3    2.10    2.60
  -1  -8  -3    1.20    2.00
  -1  -8  -3   -0.30    1.10
   1  -8   3    2.40    1.50
  -1   8  -3    0.00    1.50
  -1   8  -3    0.40    1.30
  -1   8  -3    1.00    1.60
   1   8   3    1.90    2.20
   1   8   3    1.60    1.00
   1   8   3    1.50    1.50
   1   8   3   -0.30    1.30
  -2  -8  -3   99.79    4.80
   2  -8   3   98.99    5.00
   2  -8   3  107.59    6.70
  -2  -8  -3   91.79    6.00
  -2   8  -3   95.99    5.40
   2   8   3  110.19    6.90
  -2   8  -3  104.29    5.20
  -2   8  -3   95.79    5.20
   2   8   3  102.29    5.20
   2   8   3   93.79    5.00
   3  -8   3  226.58   11.50
  -3  -8  -3  239.48    9.80
   3  -8   3  236.88    9.80
  -3  -8  -3  233.18   10.90
  -3   8  -3  246.98   10.10
   3   8   3  230.58    9.80
   3   8   3  235.78    9.90
  -3   8  -3  251.57   10.30
   3   8   3  234.78   11.80
  -3   8  -3  244.18   10.00
  -4  -8  -3  150.98    7.40
   4  -8   3  147.99    7.10
   4  -8   3  156.68    9.40
  -4  -8  -3  159.68    9.10
   4   8   3  156.18    9.70
   4   8   3  158.78    7.30
  -4   8  -3  144.99    7.30
   4   8   3  143.09    7.30
  -4   8  -3  149.99    7.90
  -4   8  -3  157.28    7.90
   5  -8   3    1.10    3.60
   5  -8   3    4.10    2.10
  -5  -8  -3    4.90    3.70
  -5  -8  -3    9.50    3.00
  -5   8  -3    3.90    2.40
   5   8   3    1.60    3.70
   5   8   3    4.40    2.30
   5   8   3    5.50    2.50
  -5   8  -3    8.10    3.20
   6  -8   3   59.79    8.20
  -6  -8  -3   60.89    7.90
  -6  -8  -3   63.89    6.30
   6   8   3   65.69    5.60
  -6   8  -3   77.79    6.90
   6   8   3   63.79    8.60
   7  -8   3    7.60    5.10
  -7  -8  -3   26.10    4.50
  -7  -8  -3   20.90    5.50
   7   8   3   11.80    5.40
   7   8   3   18.20    3.70
  -7   8  -3   17.40    4.60
   8  -9  -3   24.00    5.70
  -8  -9   3   32.10    5.20
  -8   9   3   26.10    4.70
   8   9  -3   22.70    5.20
  -8   9   3   23.10    4.50
   8   9  -3   27.90    5.10
  -7  -9   3   -0.70    3.30
   7  -9  -3    4.20    3.10
   7  -9  -3   -0.60    3.70
   7   9  -3    2.80    3.40
  -7   9   3   -0.60    3.20
   7   9  -3    0.80    3.40
  -7   9   3   -6.10    2.80
  -6  -9   3  186.18    9.40
   6  -9  -3  171.48   11.10
   6  -9  -3  162.98    9.00
   6   9  -3  178.28   10.30
  -6   9   3  163.78    8.60
   6   9  -3  175.78    9.60
  -6   9   3  211.78    9.50
   5  -9  -3   27.10    4.30
   5  -9  -3   34.40    4.70
  -5  -9   3   35.40    4.60
  -5  -9   3   21.00    3.40
   5  -9  -3   39.30    7.00
  -5   9   3   38.60    4.50
   5   9  -3   27.30    5.10
   5   9  -3   30.90    4.50
  -5   9   3   31.00    3.80
   4  -9  -3   23.00    5.90
  -4  -9   3   29.20    3.20
   4  -9  -3   23.90    3.50
   4  -9  -3   37.50    4.20
   4   9  -3   25.60    3.70
  -4   9   3   23.50    3.70
  -4   9   3   30.90    2.90
   4   9  -3   33.70    4.60
   4   9  -3   28.60    3.90
  -4   9   3   31.30    3.20
  -4   9   3   35.60    4.10
   3  -9  -3    7.60    2.10
   3  -9  -3    8.50    3.10
   3  -9  -3    8.10    2.10
   3   9  -3   10.00    2.10
  -3   9   3    9.10    1.80
   3   9  -3    9.80    2.60
  -3   9   3    8.90    1.60
   3   9  -3    7.80    2.00
  -3   9   3   11.00    2.10
  -3   9   3    8.90    2.40
   3   9  -3    9.30    1.90
   2  -9  -3 1089.19   40.80
  -2  -9   3 1048.20   39.40
  -2  -9   3 1122.39   40.30
   2  -9  -3 1088.59   39.60
   2  -9  -3 1080.99   39.80
  -2   9   3 1113.79   39.40
   2   9  -3 1133.59   39.40
  -2   9   3 1116.59   39.60
   2   9  -3 1162.18   39.60
   2   9  -3 1137.79   39.60
  -2   9   3 1144.89   39.60
  -1  -9   3  250.57    9.90
   1  -9  -3  244.58   11.30
   1  -9  -3  239.08   10.30
   1  -9  -3  241.08    9.90
  -1  -9   3  257.67   10.50
   1   9  -3  257.67    9.90
   1   9  -3  255.77    9.40
  -1   9   3  234.48    9.70
   1   9  -3  269.07   10.00
  -1   9   3  243.28    9.90
  -1   9   3  238.68    9.90
   0  -9   3    6.40    1.70
   0  -9  -3    5.80    2.20
   0  -9  -3    5.60    2.70
   0  -9   3    5.50    1.90
   0   9   3    6.70    1.70
   0   9   3    7.90    1.70
   0   9  -3    2.50    1.60
   0   9  -3    6.10    1.70
   0   9   3    7.70    1.40
   0   9  -3    5.90    1.30
   0   9  -3    4.30    1.20
  -1  -9  -3    7.40    2.30
   1  -9   3    6.90    1.70
   1  -9   3   11.00    3.30
   1   9   3    4.20    1.60
   1   9   3    3.20    2.40
   1   9   3    6.30    1.20
   1   9   3    5.30    1.70
  -1   9  -3    8.90    2.00
  -1   9  -3    1.50    1.60
  -1   9  -3    6.00    1.50
   2  -9   3   80.09    6.50
   2  -9   3   67.09    4.40
  -2  -9  -3   78.19    5.60
  -2  -9  -3   82.49    4.20
   2   9   3   74.09    4.30
  -2   9  -3   74.59    4.60
  -2   9  -3   82.99    4.80
  -2   9  -3   73.59    4.60
   2   9   3   72.49    6.10
   2   9   3   75.09    4.50
  -3  -9  -3  151.48    6.90
   3  -9   3  156.58    8.90
  -3  -9  -3  159.38    8.40
   3  -9   3  147.89    7.00
   3   9   3  148.89    7.10
   3   9   3  147.79    6.90
  -3   9  -3  149.29    7.30
  -3   9  -3  148.39    7.30
  -3   9  -3  145.29    7.40
   3   9   3  150.18    9.10
   4  -9   3   55.29    4.30
  -4  -9  -3   66.39    6.40
  -4  -9  -3   51.29    4.60
   4  -9   3   55.89    6.70
   4   9   3   53.19    6.80
   4   9   3   58.79    4.60
   4   9   3   57.99    4.50
  -4   9  -3   58.09    5.30
  -4   9  -3   56.19    4.70
  -4   9  -3   59.79    5.20
  -5  -9  -3   -0.50    2.50
   5  -9   3    5.10    3.90
   5  -9   3    2.30    2.30
  -5  -9  -3    1.20    3.60
   5   9   3   -2.90    2.10
  -5   9  -3   -3.20    2.70
   5   9   3    0.40    3.60
  -5   9  -3   -0.60    2.40
   5   9   3   -2.80    2.20
   6  -9   3   79.69    9.10
  -6  -9  -3   75.59    6.60
  -6  -9  -3   92.59    8.50
   6   9   3   78.89    9.30
   6   9   3   71.29    5.80
  -6   9  -3   82.09    7.10
   7  -9   3  107.99   12.30
  -7  -9  -3  121.79   14.80
  -7  -9  -3  100.29    8.10
  -7   9  -3  108.49    8.60
   8 -10  -3   20.40    5.80
  -8 -10   3   32.40    5.30
   8  10  -3   20.70    5.20
  -8  10   3   23.60    4.70
   7 -10  -3   22.70    5.20
  -7 -10   3   26.90    4.50
   7  10  -3   23.20    4.40
  -7  10   3   24.30    4.20
   7  10  -3   17.80    4.60
   6 -10  -3    6.10    4.40
   6 -10  -3    8.10    3.00
  -6 -10   3   10.00    3.40
   6  10  -3    1.20    3.00
   6  10  -3   10.20    3.60
  -6  10   3    7.60    3.20
  -6  10   3    7.10    3.10
  -5 -10   3   97.39    6.30
  -5 -10   3   78.29    5.00
   5 -10  -3   94.49    9.80
   5 -10  -3   83.89    6.00
   5  10  -3   82.69    6.20
  -5  10   3  105.69    6.20
   5  10  -3   87.79    7.00
  -5  10   3   79.39    5.20
   4 -10  -3  159.28    7.70
  -4 -10   3  154.18    7.20
   4 -10  -3  132.89   11.80
   4  10  -3  161.98    7.90
   4  10  -3  159.28    8.80
  -4  10   3  154.88    7.00
   4  10  -3  166.98    7.70
  -4  10   3  153.78    7.10
  -4  10   3  166.58    7.80
  -4  10   3  166.08    8.00
   3 -10  -3  414.36   18.90
   3 -10  -3  407.56   17.00
   3 -10  -3  475.35   19.80
   3  10  -3  492.45   18.00
   3  10  -3  448.66   16.70
  -3  10   3  414.16   16.50
   3  10  -3  478.65   17.10
  -3  10   3  456.85   17.10
   3  10  -3  452.05   16.80
  -3  10   3  405.46   16.90
   2 -10  -3    1.90    1.80
   2 -10  -3    0.80    2.20
   2 -10  -3    3.20    2.40
  -2 -10   3    6.00    2.20
   2  10  -3   -0.90    1.50
  -2  10   3    1.70    1.60
  -2  10   3   -0.70    1.60
  -2  10   3    4.40    1.80
   2  10  -3    1.60    1.40
   2  10  -3    3.30    1.70
  -1 -10   3    0.50    1.70
   1 -10  -3   -1.10    2.40
  -1 -10   3   -0.90    1.40
   1 -10  -3    0.60    1.80
   1  10  -3    2.10    1.60
  -1  10   3    0.40    1.40
  -1  10   3    0.70    1.50
  -1  10   3    2.00    1.60
   1  10  -3    1.50    1.60
   1  10  -3    1.00    1.00
   0 -10  -3 2032.10   70.69
   0 -10  -3 1987.10   71.69
   0 -10   3 2024.10   70.19
   0 -10   3 2099.39   71.09
   0  10  -3 2062.99   70.29
   0  10  -3 2024.60   69.79
   0  10  -3 2030.90   70.09
   0  10   3 1940.61   69.99
   0  10  -3 1951.00   69.59
   0  10   3 1921.41   70.19
   0  10   3 1945.41   69.79
  -1 -10  -3   66.69    5.30
   1 -10   3   77.99    6.30
   1 -10   3   75.19    4.40
   1  10   3   67.79    3.60
   1  10   3   60.89    4.20
   1  10   3   71.29    4.00
   1  10   3   72.69    5.90
  -1  10  -3   73.19    4.00
  -1  10  -3   70.29    4.40
  -1  10  -3   75.09    4.40
  -2 -10  -3   32.00    3.10
   2 -10   3   30.00    3.30
   2 -10   3   29.80    5.60
  -2 -10  -3   32.30    4.30
   2  10   3   32.40    3.40
   2  10   3   26.70    5.00
  -2  10  -3   29.80    3.60
  -2  10  -3   31.50    3.60
   2  10   3   32.20    3.20
  -2  10  -3   37.80    3.50
   3 -10   3   18.40    4.10
  -3 -10  -3   17.20    3.40
  -3 -10  -3   16.80    2.40
   3 -10   3   13.60    2.30
  -3  10  -3   16.00    2.70
   3  10   3   15.20    3.80
  -3  10  -3   19.80    2.80
  -3  10  -3   17.80    2.80
   3  10   3   16.10    2.60
   3  10   3   13.10    2.30
   4 -10   3   75.69    5.10
  -4 -10  -3   76.39    7.00
   4 -10   3   90.19    7.70
  -4 -10  -3   81.99    5.40
  -4  10  -3   88.89    6.10
   4  10   3   82.39    7.80
  -4  10  -3   88.79    6.00
  -4  10  -3   86.59    5.70
   4  10   3   80.69    5.20
   4  10   3   77.89    5.30
   5 -10   3   81.09    8.30
   5 -10   3   80.89    7.50
  -5 -10  -3   76.29    8.00
  -5 -10  -3   82.69    6.10
   5  10   3   76.59    8.40
  -5  10  -3   85.29    6.60
   5  10   3   79.59    5.50
   5  10   3   73.29    5.30
  -5  10  -3   72.19    5.80
  -6 -10  -3   97.79    9.20
   6 -10   3   86.39    9.20
   6  10   3   80.89    6.00
  -6  10  -3   72.69    7.10
   6  10   3   99.79    9.60
   8 -11  -3    3.60    4.60
  -8 -11   3   14.90    4.50
  -8  11   3    7.80    4.10
   7 -11  -3   16.10    5.10
  -7 -11   3   16.10    4.00
   7  11  -3   21.40    4.70
  -7  11   3   11.80    4.00
   7  11  -3   17.90    4.40
   6 -11  -3  114.89    7.70
  -6 -11   3  111.69    7.50
   6 -11  -3  110.99    9.80
  -6  11   3  120.59    7.70
   6  11  -3  118.69    7.90
   6  11  -3  104.49    8.40
   5 -11  -3  134.59    7.60
  -5 -11   3  148.59    7.90
  -5 -11   3  131.19    6.80
   5 -11  -3  148.59   11.90
  -5  11   3  148.49    7.90
   5  11  -3  148.89    8.10
   5  11  -3  144.69    9.00
   4 -11  -3   74.29   11.80
  -4 -11   3  100.59    5.50
   4 -11  -3   97.99    6.00
   4  11  -3  103.79    7.30
   4  11  -3  107.49    6.30
  -4  11   3  111.59    6.40
  -4  11   3  106.09    6.30
  -4  11   3  100.59    5.50
   4  11  -3  106.39    5.50
   4  11  -3  105.59    6.00
   3 -11  -3  138.49    7.10
   3 -11  -3  152.68    9.30
   3  11  -3  132.19    6.70
  -3  11   3  131.79    7.10
   3  11  -3  150.68    6.90
  -3  11   3  146.89    7.30
   3  11  -3  156.28    7.10
   3  11  -3  162.58    8.40
   3  11  -3  150.48    7.00
  -3  11   3  149.09    6.80
   2 -11  -3   59.49    5.90
  -2 -11   3   60.09    5.00
   2 -11  -3   59.29    4.40
   2  11  -3   65.99    4.20
  -2  11   3   63.29    4.20
   2  11  -3   72.79    4.30
  -2  11   3   55.09    4.10
   2  11  -3   71.29    3.90
  -2  11   3   60.79    4.40
   1 -11  -3  353.96   15.50
   1 -11  -3  350.46   14.40
  -1 -11   3  369.06   14.80
  -1 -11   3  358.76   13.90
  -1  11   3  335.67   13.70
   1  11  -3  376.96   13.80
  -1  11   3  365.66   14.00
  -1  11   3  349.47   13.80
   1  11  -3  384.56   14.10
   0 -11   3   14.40    2.20
   0 -11  -3   14.60    2.80
   0 -11  -3   18.60    3.60
   0 -11   3   20.30    3.70
   0  11  -3   17.60    2.50
   0  11   3   15.60    2.50
   0  11   3   22.60    2.80
   0  11  -3   18.10    2.20
   0  11   3   19.40    2.50
   0  11  -3   16.10    2.30
   1 -11   3   52.19    6.00
  -1 -11  -3   36.70    4.50
   1 -11   3   43.00    3.80
  -1  11  -3   50.39    3.80
   1  11   3   42.30    3.30
  -1  11  -3   38.10    3.20
  -1  11  -3   47.20    3.90
   1  11   3   47.20    2.90
   1  11   3   41.00    3.70
   1  11   3   35.40    5.20
   2 -11   3   52.79    4.20
  -2 -11  -3   52.19    5.30
   2 -11   3   54.89    7.80
   2  11   3   63.99    6.30
  -2  11  -3   53.19    4.40
  -2  11  -3   70.99    4.80
  -2  11  -3   62.19    4.30
   2  11   3   62.49    4.40
   2  11   3   61.09    4.00
   3 -11   3   45.10    6.50
   3 -11   3   54.99    4.20
  -3 -11  -3   44.20    5.80
  -3  11  -3   56.49    4.80
   3  11   3   47.10    4.40
   3  11   3   57.39    6.50
  -3  11  -3   58.89    4.80
  -3  11  -3   56.29    4.70
   3  11   3   50.09    3.90
   4 -11   3   47.90    4.20
  -4 -11  -3   49.80    6.30
   4 -11   3   43.20    6.80
   4  11   3   58.79    7.10
   4  11   3   50.89    4.30
  -4  11  -3   49.80    5.00
   4  11   3   46.80    4.60
  -4  11  -3   55.29    5.20
  -4  11  -3   50.59    5.20
   5 -11   3   19.90    4.90
  -5 -11  -3   29.40    5.00
   5  11   3   23.30    3.30
   5  11   3   23.30    5.20
  -5  11  -3   17.90    3.70
   5  11   3   21.30    2.90
  -5  11  -3   21.10    3.50
  -6 -11  -3    0.90    4.30
   6 -11   3    3.00    4.60
   6  11   3    0.00    4.40
  -6  11  -3    8.40    3.60
   6  11   3    1.00    2.40
  -7 -12   3    8.80    3.70
   7 -12  -3    3.40    4.70
  -7  12   3    9.90    3.90
   7  12  -3    3.70    3.60
   7  12  -3    5.60    3.90
  -6 -12   3    7.10    3.30
   6 -12  -3    5.40    4.80
   6  12  -3    6.90    3.30
  -6  12   3    5.60    3.10
   6  12  -3    0.40    3.30
  -5 -12   3   -0.30    2.10
   5 -12  -3    2.50    2.60
   5 -12  -3    6.80    5.80
  -5 -12   3   -1.90    2.40
  -5  12   3    3.20    2.70
   5  12  -3    2.00    2.70
   5  12  -3   -1.70    2.90
   4 -12  -3   -2.40    4.80
   4 -12  -3   -1.90    2.00
   4  12  -3    0.40    2.80
   4  12  -3   -0.20    2.10
   4  12  -3   -0.40    1.80
   4  12  -3   -1.20    2.10
  -4  12   3    0.60    2.40
  -4  12   3   -3.70    1.80
  -4  12   3    1.70    2.40
   3 -12  -3  472.75   19.30
   3 -12  -3  403.26   16.90
   3  12  -3  437.46   16.90
  -3  12   3  429.26   16.90
   3  12  -3  435.36   16.70
   3  12  -3  416.26   16.70
   3  12  -3  455.05   16.70
  -3  12   3  448.36   17.10
  -3  12   3  422.86   16.50
  -2 -12   3  246.08   11.50
   2 -12  -3  252.37   12.50
   2 -12  -3  240.88   10.70
  -2  12   3  261.57   10.70
   2  12  -3  253.67   10.60
  -2  12   3  247.68   10.50
   2  12  -3  265.37   10.50
  -2  12   3  262.07   10.60
   2  12  -3  263.97   10.20
  -1 -12   3   83.79    5.00
   1 -12  -3   92.29    6.90
  -1 -12   3   88.49    5.80
   1 -12  -3   89.49    5.50
  -1  12   3   85.29    4.90
   1  12  -3   82.59    5.10
  -1  12   3   86.59    5.10
   1  12  -3   93.39    4.90
  -1  12   3   81.89    4.80
   0 -12   3  222.88    9.40
   0 -12  -3  212.58   11.20
   0 -12   3  238.48   10.60
   0 -12  -3  208.18    9.80
   0  12  -3  208.78    9.40
   0  12  -3  215.48    8.50
   0  12  -3  234.68    9.20
   0  12   3  210.58    9.00
   0  12   3  219.28    8.90
   0  12   3  205.48    9.30
   1 -12   3    7.80    3.10
   1 -12   3    3.30    1.90
  -1 -12  -3   -0.30    2.30
  -1  12  -3    4.20    2.10
   1  12   3    4.00    2.10
   1  12   3    8.70    1.90
   1  12   3    8.80    3.20
   1  12   3    5.70    1.50
  -1  12  -3    3.30    1.60
  -1  12  -3    6.60    2.10
   2 -12   3   36.50    3.80
   2 -12   3   37.40    7.00
  -2 -12  -3   45.20    5.10
   2  12   3   33.00    3.90
   2  12   3   36.80    3.30
   2  12   3   38.30    5.90
  -2  12  -3   40.10    3.90
  -2  12  -3   44.60    4.00
  -2  12  -3   36.90    4.10
   3 -12   3  322.87   15.20
  -3 -12  -3  273.67   13.50
   3 -12   3  293.37   12.20
   3  12   3  275.27   11.70
  -3  12  -3  295.17   12.30
  -3  12  -3  302.47   12.60
   3  12   3  305.77   12.40
   3  12   3  296.77   14.70
  -3  12  -3  291.07   12.30
   4 -12   3   15.90    4.70
  -4 -12  -3   11.30    3.90
   4 -12   3   10.10    2.50
  -4  12  -3    5.20    2.80
   4  12   3   15.50    2.90
   4  12   3   13.30    4.40
  -4  12  -3   10.60    3.10
  -4  12  -3    9.70    3.10
   4  12   3    6.10    2.10
   5 -12   3    1.40    4.00
  -5 -12  -3   -5.60    3.50
  -5  12  -3    1.40    3.00
   5  12   3   -3.20    2.10
   5  12   3    2.00    2.20
  -5  12  -3   -1.30    2.70
   5  12   3   -0.80    3.70
  -6 -12  -3  102.49    9.60
   6 -12   3   94.69   10.00
  -6  12  -3   87.89    7.60
   6  12   3   75.29    5.90
   6  12   3  102.29   10.00
  -7 -13   3    6.40    3.70
   7 -13  -3   10.00    5.30
   7  13  -3    2.90    3.70
  -7  13   3    6.50    3.70
   6 -13  -3   71.39   11.30
  -6 -13   3   25.30    4.20
   6  13  -3   22.90    4.90
   6  13  -3   28.10    4.40
  -6  13   3   25.00    4.20
  -5 -13   3   27.80    3.80
   5 -13  -3   25.80    8.00
  -5  13   3   33.70    5.00
   5  13  -3   26.60    4.70
   5  13  -3   27.00    3.90
   4 -13  -3  121.29   12.20
   4 -13  -3  135.49    7.50
   4  13  -3  148.49    7.20
   4  13  -3  142.19    7.10
   4  13  -3  150.28    7.70
  -4  13   3  150.48    7.90
   4  13  -3  152.08    9.20
  -4  13   3  134.69    7.00
  -4  13   3  136.89    7.70
   4  13  -3  150.68    7.40
   3 -13  -3  320.37   13.20
  -3 -13   3  338.07   14.60
   3 -13  -3  304.07   15.70
  -3  13   3  344.87   13.30
   3  13  -3  324.07   13.00
   3  13  -3  329.57   13.10
  -3  13   3  299.87   13.20
  -3  13   3  319.87   12.90
   3  13  -3  319.07   12.90
   3  13  -3  312.57   12.90
   2 -13  -3  149.69    7.60
   2 -13  -3  138.49    9.20
  -2 -13   3  153.98    8.40
  -2 -13   3  159.58    7.30
   2  13  -3  156.38    7.10
   2  13  -3  156.18    7.40
  -2  13   3  153.08    7.50
  -2  13   3  161.08    7.60
  -2  13   3  154.48    7.40
  -1 -13   3   -0.10    2.20
  -1 -13   3    0.30    1.80
   1 -13  -3    2.70    2.20
   1 -13  -3   -1.90    2.80
  -1  13   3    3.70    2.00
  -1  13   3    0.70    1.80
  -1  13   3    3.50    1.80
   1  13  -3    0.60    1.90
   1  13  -3    1.90    1.80
   0 -13   3  337.27   13.40
   0 -13  -3  329.37   15.40
   0 -13   3  363.76   14.80
   0 -13  -3  335.57   13.90
   0  13   3  319.57   12.90
   0  13   3  318.97   12.90
   0  13  -3  315.07   13.30
   0  13  -3  332.87   12.50
   0  13  -3  352.86   13.10
   0  13   3  317.57   13.30
  -1 -13  -3   49.60    4.90
   1 -13   3   62.69    6.50
   1 -13   3   56.09    4.30
  -1  13  -3   52.49    4.40
   1  13   3   49.70    3.50
  -1  13  -3   49.30    4.00
  -1  13  -3   45.80    3.60
   1  13   3   51.19    3.80
   1  13   3   58.19    4.40
   2 -13   3  204.58   13.60
  -2 -13  -3  247.78   11.50
   2 -13   3  255.17   10.50
   2  13   3  231.68   10.60
   2  13   3  238.78    9.90
  -2  13  -3  268.17   10.90
   2  13   3  239.48   12.80
  -2  13  -3  263.17   10.50
  -2  13  -3  241.98   10.20
   3 -13   3    1.00    2.00
  -3 -13  -3    2.30    3.20
   3 -13   3   -0.40    3.80
  -3  13  -3    1.20    2.30
   3  13   3   -0.90    1.60
  -3  13  -3    3.50    2.40
   3  13   3   -1.90    3.20
   3  13   3    3.50    2.30
  -3  13  -3    2.00    2.60
  -4 -13  -3    0.10    3.40
   4 -13   3    3.20    2.30
   4 -13   3    3.00    4.10
  -4  13  -3   10.80    3.10
   4  13   3    4.70    2.60
  -4  13  -3    2.40    2.80
   4  13   3    4.10    4.00
   4  13   3    7.60    2.30
  -4  13  -3    8.50    3.00
  -5 -13  -3   43.40    7.30
   5 -13   3   44.70    7.70
   5  13   3   36.10    7.50
  -5  13  -3   37.30    5.50
  -5  13  -3   35.00    5.30
   5  13   3   40.20    4.20
   5  13   3   40.50    4.90
   6 -13   3   28.70    6.50
  -6 -13  -3   36.40    6.20
   6  13   3   27.50    3.60
   6  13   3   33.40    7.30
  -6  13  -3   20.00    4.30
  -7 -14   3   29.00    4.90
   7 -14  -3   21.40    6.50
  -7  14   3   18.10    4.40
  -6 -14   3   26.70    4.50
   6 -14  -3   39.80    8.00
   6  14  -3   28.40    5.20
  -6  14   3   32.30    4.60
   6  14  -3   28.20    4.70
  -5 -14   3   58.39    5.50
   5 -14  -3   75.29   12.50
   5  14  -3   62.49    7.10
  -5  14   3   56.79    5.90
   5  14  -3   62.39    5.90
   4 -14  -3    0.50    5.30
   4 -14  -3    2.10    2.50
   4  14  -3   -2.70    1.90
  -4  14   3    0.40    2.20
   4  14  -3    1.90    2.10
  -4  14   3    3.60    2.70
  -4  14   3    4.70    2.70
   4  14  -3    3.70    3.30
  -3 -14   3  238.48   10.20
   3 -14  -3  222.18   10.10
   3 -14  -3  236.48   12.80
  -3 -14   3  236.58   11.60
  -3  14   3  227.28   10.20
  -3  14   3  212.38   10.20
  -3  14   3  220.68    9.90
   3  14  -3  226.88    9.90
   3  14  -3  233.18    9.80
   3  14  -3  207.08    9.90
  -2 -14   3   32.50    4.70
   2 -14  -3   35.80    4.20
   2 -14  -3   28.90    5.90
  -2  14   3   35.40    4.10
   2  14  -3   35.10    3.70
  -2  14   3   27.30    3.90
   2  14  -3   40.00    4.10
  -2  14   3   41.80    4.10
  -1 -14   3   -0.20    1.90
   1 -14  -3   -0.10    3.00
  -1 -14   3   -0.70    2.30
   1 -14  -3    1.00    2.20
  -1  14   3   -1.70    1.90
  -1  14   3    1.60    1.80
  -1  14   3    3.00    1.90
   1  14  -3    2.40    2.00
   1  14  -3   -4.30    1.80
   0 -14  -3    5.70    3.40
   0 -14  -3   -1.70    2.30
   0 -14   3    2.00    2.00
   0 -14   3    4.50    2.80
   0  14   3    3.40    1.80
   0  14  -3    2.10    1.90
   0  14  -3    1.10    1.40
   0  14   3    1.00    1.60
   0  14  -3    0.00    2.10
   0  14   3    2.90    2.10
  -1 -14  -3    1.20    3.40
   1 -14   3    0.60    2.00
  -1 -14  -3   -3.40    2.30
   1 -14   3    3.90    3.40
  -1  14  -3    0.80    1.90
   1  14   3   -1.40    1.90
   1  14   3   -0.10    1.60
  -1  14  -3    2.70    2.20
  -1  14  -3    0.10    1.60
   2 -14   3    8.80    5.00
   2 -14   3    9.40    2.50
  -2 -14  -3    7.20    3.20
   2  14   3    6.70    2.00
  -2  14  -3   10.90    2.90
   2  14   3    6.00    3.70
   2  14   3    7.10    2.50
  -2  14  -3   12.70    2.70
  -2  14  -3    6.00    2.30
  -3 -14  -3  118.89    8.00
   3 -14   3  110.39    6.40
   3 -14   3  102.99    9.70
  -3  14  -3  109.69    6.50
  -3  14  -3  111.09    6.60
   3  14   3  112.39    5.80
   3  14   3  112.89    9.10
  -3  14  -3  117.79    7.10
   3  14   3  112.39    6.70
  -4 -14  -3   -2.80    3.40
   4 -14   3  -10.20    3.50
   4 -14   3   -3.50    2.00
  -4  14  -3   -1.20    2.80
  -4  14  -3    0.30    2.60
   4  14   3    0.60    3.70
   4  14   3   -2.80    1.70
  -4  14  -3    2.80    2.80
   4  14   3   -1.40    2.30
  -5 -14  -3    0.00    4.10
   5 -14   3    1.80    4.30
  -5  14  -3    4.20    3.10
   5  14   3   -3.10    3.80
  -5  14  -3    1.40    3.00
   5  14   3    0.20    2.10
   5  14   3   -1.70    2.50
  -6  14  -3    7.90    3.70
  -7 -15   3   25.80    5.40
   6 -15  -3   32.40    7.70
  -6  15   3   18.40    4.20
   6  15  -3   11.60    4.50
  -5 -15   3   -0.20    2.50
   5 -15  -3   12.90    8.00
   5  15  -3    1.50    3.40
  -5  15   3    0.70    3.00
   4 -15  -3   50.69    9.40
  -4 -15   3   87.19    6.20
   4  15  -3   79.49    5.50
  -4  15   3   77.59    6.10
   4  15  -3   76.99    5.50
  -4  15   3   75.59    5.50
  -4  15   3   84.89    6.30
   3 -15  -3  126.39    9.60
   3 -15  -3  107.19    6.60
  -3 -15   3  109.59    7.90
   3  15  -3  136.19    6.80
  -3  15   3  118.49    7.00
  -3  15   3  130.09    6.80
  -3  15   3  118.49    6.80
   3  15  -3   97.89    6.40
   3  15  -3  116.19    6.40
  -2 -15   3  189.08   10.00
   2 -15  -3  183.98    8.70
   2 -15  -3  156.18   10.60
   2  15  -3  182.98    8.10
   2  15  -3  173.98    8.40
  -2  15   3  169.48    8.40
  -2  15   3  174.28    8.50
  -2  15   3  178.38    8.60
   1 -15  -3  133.09    9.80
  -1 -15   3  154.38    7.60
  -1 -15   3  148.19    8.70
   1 -15  -3  156.58    7.90
   1  15  -3  149.88    7.10
  -1  15   3  144.09    7.20
  -1  15   3  139.89    7.50
   1  15  -3  155.78    7.70
  -1  15   3  151.18    7.30
   0 -15  -3   -0.30    2.40
   0 -15   3    0.70    2.80
   0 -15   3    2.80    2.10
   0 -15  -3   -0.20    3.30
   0  15   3    0.50    2.00
   0  15  -3    2.50    2.00
   0  15   3   -0.60    1.50
   0  15   3    0.40    1.70
   0  15  -3   -3.10    2.10
   0  15  -3   -0.10    1.40
  -1 -15  -3  448.96   20.30
  -1 -15  -3  441.86   18.30
   1 -15   3  502.85   20.50
   1 -15   3  454.65   17.70
  -1  15  -3  429.06   16.90
   1  15   3  413.96   16.90
   1  15   3  448.86   17.80
  -1  15  -3  448.66   17.20
  -1  15  -3  467.65   17.90
   2 -15   3   12.90    5.20
  -2 -15  -3   17.80    3.80
   2 -15   3   16.90    2.90
   2  15   3   13.60    2.40
   2  15   3   16.50    4.50
  -2  15  -3   16.10    2.60
   2  15   3   15.40    2.90
  -2  15  -3   17.60    3.30
  -2  15  -3   12.60    2.70
   3 -15   3    3.90    4.90
  -3 -15  -3   -0.40    3.00
   3 -15   3   -1.40    2.10
  -3  15  -3    2.90    2.50
   3  15   3   -3.60    3.30
  -3  15  -3   -0.80    2.40
   3  15   3   -0.50    2.30
  -3  15  -3    4.40    2.80
   3  15   3   -3.10    1.60
  -4 -15  -3   39.60    6.80
   4 -15   3   40.70    8.30
   4 -15   3   49.50    4.80
  -4  15  -3   48.40    6.50
   4  15   3   40.10    4.00
   4  15   3   53.59    5.30
   4  15   3   50.79    7.80
  -4  15  -3   44.60    5.50
  -4  15  -3   57.59    5.80
   5 -15   3  114.29   10.80
  -5 -15  -3  114.49    9.70
  -5  15  -3  124.59    7.70
   5  15   3   90.49    9.90
   5  15   3  107.19    7.30
   6 -16  -3    7.80    6.80
  -6 -16   3   -2.40    3.30
  -6  16   3    5.30    3.60
   5 -16  -3   87.59   17.70
  -5 -16   3   59.89    6.20
   5  16  -3   44.40    7.00
  -5  16   3   63.39    6.20
   4 -16  -3    3.60    6.00
  -4 -16   3   -1.80    3.10
  -4  16   3    1.80    2.80
   4  16  -3   -5.80    2.20
  -4  16   3    0.80    2.50
  -4  16   3   -0.90    2.30
   4  16  -3    2.10    2.20
   3 -16  -3   18.90    4.90
  -3 -16   3   15.70    4.00
   3  16  -3   20.70    3.30
   3  16  -3   16.70    3.00
  -3  16   3   28.90    4.20
  -3  16   3   20.50    3.30
  -3  16   3   21.90    3.50
  -2 -16   3   77.49    6.60
   2 -16  -3   71.59    7.60
   2 -16  -3   68.99    5.40
  -2  16   3   71.79    5.50
   2  16  -3   64.69    5.20
  -2  16   3   73.29    5.30
  -2  16   3   64.19    5.30
   1 -16  -3   33.70    6.50
   1 -16  -3   37.30    4.70
  -1 -16   3   34.10    5.30
  -1 -16   3   28.40    4.20
  -1  16   3   30.50    3.90
  -1  16   3   35.20    4.40
  -1  16   3   31.40    3.90
   1  16  -3   40.60    4.50
   0 -16   3    6.40    3.20
   0 -16   3    1.30    2.20
   0 -16  -3    2.50    2.80
   0 -16  -3    2.90    3.70
   0  16  -3   -0.70    2.40
   0  16   3    0.30    1.80
   0  16   3    2.70    2.30
   0  16   3    2.50    2.00
   0  16  -3    0.30    1.50
   1 -16   3    3.80    2.40
  -1 -16  -3    7.50    3.10
   1 -16   3   12.20    4.00
  -1 -16  -3    9.70    4.30
  -1  16  -3    3.30    2.60
  -1  16  -3    7.20    1.90
   1  16   3    9.40    2.70
   1  16   3   11.70    2.20
  -2 -16  -3   63.19    6.30
   2 -16   3   74.79    5.40
   2 -16   3   46.60    9.20
   2  16   3   69.99    4.50
  -2  16  -3   73.39    5.00
  -2  16  -3   75.69    5.90
   2  16   3   72.09    5.70
  -3 -16  -3    6.00    3.50
   3 -16   3    5.20    2.50
   3 -16   3    2.80    5.10
   3  16   3    2.50    1.90
   3  16   3    1.90    2.60
   3  16   3    0.30    3.70
  -3  16  -3    3.20    3.00
  -3  16  -3   -2.30    2.30
   4 -16   3   11.40    2.90
  -4 -16  -3   17.20    4.40
   4 -16   3    4.50    5.30
  -4  16  -3    4.50    3.00
   4  16   3   11.40    3.10
   4  16   3    9.70    4.70
  -4  16  -3    7.20    3.30
  -5 -16  -3   -1.40    4.10
   5 -16   3   -2.50    4.80
   5  16   3    0.50    4.30
   5  16   3    1.40    2.90
  -5  16  -3    6.30    3.60
  -6 -17   3    3.60    3.50
   6 -17  -3    0.70    7.40
  -6  17   3    1.30    4.50
   5 -17  -3    8.80    8.90
  -5  17   3    3.70    3.40
   4 -17  -3   11.30    7.20
  -4 -17   3   19.50    4.70
  -4  17   3   22.70    4.00
  -4  17   3   21.30    3.50
   4  17  -3   32.30    4.70
  -4  17   3   20.00    3.50
   3 -17  -3    3.40    4.50
  -3 -17   3    9.20    3.80
  -3  17   3    9.30    3.00
  -3  17   3   11.20    2.90
   3  17  -3    9.00    2.80
  -3  17   3   10.00    2.90
   3  17  -3    9.30    2.60
   2 -17  -3   86.29    8.50
  -2 -17   3   88.59    7.70
   2  17  -3   96.99    6.20
  -2  17   3   94.39    6.30
  -2  17   3   89.69    5.90
  -2  17   3   91.69    6.30
   1 -17  -3   75.99    8.10
  -1 -17   3   82.69    7.30
   1 -17  -3   80.69    6.00
  -1 -17   3   63.19    5.40
  -1  17   3   66.29    5.00
  -1  17   3   63.99    5.40
  -1  17   3   73.79    5.10
   1  17  -3   67.49    5.70
   0 -17   3   34.00    5.90
   0 -17  -3   21.20    3.70
   0 -17  -3   24.30    5.20
   0 -17   3   25.80    3.50
   0  17  -3   19.30    3.40
   0  17   3   24.90    3.60
   0  17   3   22.70    3.40
   0  17   3   17.30    2.80
   1 -17   3   71.09    7.80
   1 -17   3   55.89    5.00
  -1 -17  -3   57.29    8.00
  -1 -17  -3   50.29    6.00
  -1  17  -3   53.19    4.10
  -1  17  -3   66.39    5.60
   1  17   3   51.19    5.10
   1  17   3   48.50    4.00
   2 -17   3   65.19    9.40
  -2 -17  -3   76.29    8.70
   2 -17   3   65.19    5.40
  -2 -17  -3   62.79    6.50
   2  17   3   63.29    4.30
  -2  17  -3   66.99    5.00
  -2  17  -3   72.09    6.00
   2  17   3   68.29    5.70
   3 -17   3   10.40    3.00
  -3 -17  -3   17.10    4.30
   3 -17   3   10.70    6.30
   3  17   3   12.30    4.80
   3  17   3    9.60    2.30
  -3  17  -3   15.70    3.70
  -3  17  -3   15.50    3.10
   3  17   3   11.60    3.20
  -4 -17  -3   79.19    8.20
   4 -17   3   65.49   10.40
   4 -17   3   76.29    6.00
  -4  17  -3   79.79    6.50
   4  17   3   78.69    9.20
   4  17   3   82.19    6.50
  -4  17  -3   81.39    7.00
   5 -17   3    0.40    8.30
  -5  17  -3    0.80    3.30
   5  17   3    1.30    2.90
  -5  17  -3    1.50    4.40
   5 -18  -3   38.00   10.90
  -5  18   3   24.40    4.30
  -4 -18   3    4.20    3.80
   4 -18  -3   -4.80    7.90
  -4  18   3   11.40    3.20
  -4  18   3   10.50    3.40
   3 -18  -3   -3.90    4.10
  -3 -18   3   -2.40    3.20
  -3  18   3    1.90    2.60
   3  18  -3    5.70    2.60
  -3  18   3    2.40    2.70
  -3  18   3    4.40    2.90
  -2 -18   3    1.50    3.30
   2 -18  -3    3.80    3.90
   2  18  -3    6.40    2.70
  -2  18   3    1.50    2.40
  -2  18   3    6.80    3.00
  -2  18   3    3.10    2.50
   1 -18  -3  363.36   15.30
  -1 -18   3  336.97   14.50
  -1 -18   3  373.06   16.70
   1 -18  -3  355.16   17.50
   1  18  -3  341.67   14.60
  -1  18   3  347.17   14.70
  -1  18   3  311.97   14.00
  -1  18   3  320.97   13.90
   0 -18  -3   29.90    5.70
   0 -18   3   33.90    4.50
   0 -18  -3   28.30    4.20
   0 -18   3   34.30    6.30
   0  18  -3   27.60    3.80
   0  18   3   25.50    3.60
   0  18   3   25.40    3.30
   0  18   3   28.50    3.70
  -1 -18  -3    7.40    3.30
   1 -18   3    7.80    4.20
   1 -18   3   -2.00    2.30
  -1 -18  -3    7.50    4.50
   1  18   3    6.20    2.70
  -1  18  -3    9.10    3.10
   1  18   3    2.70    2.00
  -1  18  -3    4.40    1.90
  -2 -18  -3    5.10    3.40
  -2 -18  -3    8.90    5.00
   2 -18   3    3.20    5.30
   2 -18   3    9.90    2.90
  -2  18  -3    5.90    2.40
   2  18   3    7.80    2.10
   2  18   3    9.40    3.10
  -2  18  -3    9.10    3.10
   3 -18   3    6.20    5.90
   3 -18   3   15.00    3.30
  -3 -18  -3   16.70    4.50
  -3  18  -3   17.50    3.80
   3  18   3   14.20    3.40
  -3  18  -3   16.20    3.20
   4 -18   3   -4.20    2.30
   4 -18   3   -9.10    5.20
  -4 -18  -3    1.20    3.90
   4  18   3   -3.30    2.60
   4  18   3    6.10    4.70
  -4  18  -3   -1.60    2.90
  -4  18  -3   -3.40    3.20
   5 -19  -3   11.80   10.50
  -4 -19   3   -3.30    3.50
   4 -19  -3  -19.20    7.10
  -4  19   3    1.00    3.00
  -4  19   3   -1.70    2.70
  -3 -19   3   -2.80    3.20
   3 -19  -3  -14.90    4.40
  -3  19   3    1.10    2.70
   3  19  -3    1.00    2.50
  -3  19   3    1.60    2.70
  -3  19   3   -0.40    2.80
  -2 -19   3    4.40    3.90
   2 -19  -3    0.80    4.10
  -2  19   3    6.00    3.00
  -2  19   3    1.50    2.40
   2  19  -3    6.50    2.90
  -2  19   3    8.50    2.80
   1 -19  -3   26.30    5.70
  -1 -19   3   29.40    3.90
  -1 -19   3   32.00    6.30
  -1  19   3   20.20    3.30
  -1  19   3   25.20    3.90
   1  19  -3   21.60    3.60
  -1  19   3   22.10    3.20
   0 -19  -3    0.00    4.10
   0 -19   3    0.90    2.60
   0 -19   3    9.90    4.00
   0 -19  -3   -0.40    2.90
   0  19   3    5.40    2.80
   0  19  -3   -0.20    2.70
   0  19   3    5.70    2.20
  -1 -19  -3    4.20    3.30
  -1 -19  -3    3.20    4.50
   1 -19   3   11.80    3.10
   1 -19   3   11.20    4.60
   1  19   3    7.50    3.00
  -1  19  -3   11.50    2.20
   1  19   3   10.30    2.40
  -1  19  -3   13.10    3.50
   2 -19   3   -3.30    5.20
  -2 -19  -3   -3.90    3.10
   2 -19   3    4.70    2.70
  -2 -19  -3    2.20    4.60
   2  19   3    0.00    1.80
  -2  19  -3    5.30    2.30
  -2  19  -3    3.60    3.10
   2  19   3   -1.60    2.60
   3 -19   3   44.20    5.20
  -3 -19  -3   32.80    6.90
  -3 -19  -3   34.00    5.20
   3 -19   3   43.00    8.70
  -3  19  -3   37.80    6.00
  -3  19  -3   42.10    5.00
   3  19   3   46.50    5.70
   4 -19   3  111.49    7.50
  -4 -19  -3  120.49   10.80
   4 -19   3   98.49   11.50
  -4  19  -3  123.89    7.80
   4  19   3  125.49    8.00
   4 -20  -3   13.70    8.60
  -4  20   3   19.40    4.00
  -4  20   3   23.60    3.90
  -3 -20   3   82.89    9.00
   3 -20  -3   70.79   11.10
   3  20  -3   75.49    6.30
  -3  20   3   91.29    6.80
  -3  20   3   83.19    6.70
  -3  20   3   89.19    6.40
   2 -20  -3    5.90    4.80
  -2 -20   3    8.90    4.30
  -2  20   3    3.90    2.70
  -2  20   3    4.80    3.00
  -2  20   3    5.20    2.90
   2  20  -3    9.20    3.20
  -1 -20   3    0.50    2.70
   1 -20  -3    3.70    4.50
  -1 -20   3    5.00    3.80
  -1  20   3    4.10    3.00
   1  20  -3    3.30    2.80
  -1  20   3    3.30    2.50
  -1  20   3    2.80    2.30
   0 -20  -3   42.30    8.30
   0 -20   3   48.80    5.60
   0 -20   3   57.39    7.70
   0  20   3   39.30    5.40
   0  20  -3   46.20    5.60
   0  20   3   32.70    4.00
   1 -20   3    8.60    3.10
  -1 -20  -3    3.80    3.30
  -1 -20  -3    8.10    5.00
   1 -20   3   16.40    5.30
  -1  20  -3    8.70    2.20
   1  20   3    5.80    3.00
  -1  20  -3    5.50    3.30
   1  20   3    9.90    2.30
   2 -20   3   27.60    8.00
  -2 -20  -3   41.30    7.40
   2 -20   3   37.70    5.20
  -2 -20  -3   43.80    5.80
  -2  20  -3   42.80    5.80
  -2  20  -3   33.90    4.30
   2  20   3   43.30    5.70
  -3 -20  -3    1.20    3.80
   3 -20   3   -0.70    6.70
   3 -20   3   -1.40    2.60
   3  20   3   -0.90    2.80
  -3  20  -3    0.80    2.50
  -3  20  -3    5.80    4.40
  -4  21   3    5.60    3.20
   3 -21  -3   15.10    6.90
  -3 -21   3   14.70    5.30
  -3  21   3   16.20    3.70
  -3  21   3   19.80    4.00
  -3  21   3   15.60    3.50
  -2 -21   3    1.90    4.00
  -2 -21   3    4.50    3.10
   2 -21  -3   -2.50    4.60
  -2  21   3   -2.50    2.60
  -2  21   3    2.80    3.00
   2  21  -3   -1.00    2.80
  -2  21   3    0.30    2.50
   1 -21  -3    9.30    5.00
  -1 -21   3    0.10    3.80
  -1 -21   3    2.10    2.90
  -1  21   3   -0.80    2.50
   1  21  -3    1.00    2.70
  -1  21   3    2.40    2.40
  -1  21   3    0.90    2.90
   0 -21  -3   22.10    6.10
   0 -21   3   16.90    3.80
   0 -21   3   26.50    5.60
   0  21   3   16.30    2.90
   0  21   3    9.30    3.50
   0  21  -3   15.40    3.60
   1 -21   3   -1.10    2.80
   1 -21   3    3.40    4.70
  -1 -21  -3    6.60    5.00
  -1  21  -3    2.20    2.00
   1  21   3    3.60    3.00
  -1  21  -3    1.30    3.10
   1  21   3    2.00    2.00
  -2 -21  -3   14.60    4.20
   2 -21   3   11.80    3.40
  -2 -21  -3    8.20    6.10
   2 -21   3   14.20    6.70
   2  21   3   10.20    3.60
  -2  21  -3   12.40    2.80
  -2  21  -3   15.00    4.30
  -2 -22   3   45.80    5.80
   2 -22  -3   45.30   12.80
  -2 -22   3   53.69    8.50
  -2  22   3   37.20    5.50
  -2  22   3   32.80    4.90
  -2  22   3   38.30    4.80
   2  22  -3   44.10    5.50
   1 -22  -3    3.50    4.80
  -1 -22   3    2.90    4.00
  -1 -22   3    3.80    3.30
  -1  22   3    2.60    2.80
  -1  22   3   -1.40    2.20
  -1  22   3   -2.30    2.90
   1  22  -3   -1.60    2.70
   0 -22   3    6.30    3.40
   0 -22  -3    8.70    5.40
   0 -22   3   13.80    4.80
   0  22   3    8.00    2.50
   0  22  -3    8.70    3.40
   0  22   3    6.40    3.40
   1 -22   3   23.00    6.40
   9   0  -4   49.80   10.10
   8   0  -4    5.50    4.00
   8   0  -4    9.00    3.90
  -8   0   4    7.80    3.80
   8   0  -4    8.00    3.00
   7   0  -4  106.49    6.50
   7   0  -4   94.99    7.70
  -7   0   4  118.29    6.70
   7   0  -4   87.29    7.50
  -7   0   4  110.79    7.40
  -6   0   4 1609.34   57.89
  -6   0   4 1639.54   57.39
   6   0  -4 1652.63   57.39
   6   0  -4 1546.65   58.49
   6   0  -4 1650.53   58.39
   5   0  -4   52.19    4.20
  -5   0   4   53.99    4.30
   5   0  -4   57.89    4.90
   5   0  -4   56.69    4.80
  -5   0   4   61.19    4.90
   4   0  -4   21.50    3.20
   4   0  -4   26.60    3.10
  -4   0   4   19.70    3.00
   4   0  -4   28.00    3.10
   4   0  -4   26.60    3.70
   3   0  -4  612.04   22.10
  -3   0   4  605.44   22.10
  -3   0   4  611.24   22.20
   3   0  -4  594.64   22.00
   3   0  -4  631.74   22.70
  -3   0   4  640.44   21.60
   3   0  -4  575.64   22.20
   3   0  -4  629.54   22.10
  -2   0   4  717.93   24.80
   2   0  -4  632.04   24.70
   2   0  -4  694.63   24.80
   2   0  -4  710.73   25.10
  -2   0   4  696.43   24.50
   2   0  -4  700.83   24.70
  -2   0   4  689.53   24.80
  -1   0   4    0.20    1.20
   1   0  -4    2.20    1.50
   1   0  -4    0.80    1.40
  -1   0   4   -0.10    1.50
  -1   0   4    0.50    1.20
   0   0   4 4717.73  172.98
   0   0  -4 5008.60  173.08
   0   0  -4 4871.11  173.08
   0   0   4 5196.98  172.88
   0   0   4 5311.17  173.18
   0   0  -4 5195.68  173.28
   0   0   4 4743.73  172.88
  -1   0  -4  359.86   13.20
  -1   0  -4  351.76   13.30
  -1   0  -4  331.97   13.20
   1   0   4  354.26   13.30
   1   0   4  348.57   13.50
   1   0   4  340.57   13.10
   1   0   4  347.77   12.60
  -2   0  -4   -0.30    1.70
   2   0   4   -0.50    1.40
  -2   0  -4    1.40    1.80
  -2   0  -4   -0.60    1.10
   2   0   4    0.70    1.90
  -2   0  -4    0.90    1.80
   2   0   4   -2.00    1.90
  -3   0  -4   64.79    4.90
  -3   0  -4   65.49    4.70
   3   0   4   71.79    4.30
   3   0   4   71.79    5.80
   3   0   4   74.09    5.20
  -3   0  -4   67.19    4.90
   4   0   4  135.99    6.80
  -4   0  -4  136.89    7.70
  -4   0  -4  144.29    7.60
   4   0   4  141.39    8.80
   4   0   4  151.68    7.90
  -5   0  -4  562.04   22.50
   5   0   4  613.84   22.70
   5   0   4  581.04   21.80
  -5   0  -4  572.84   22.70
   5   0   4  563.34   24.20
   6   0   4  108.09    8.00
   6   0   4  115.89    9.50
  -6   0  -4  123.59    8.10
  -6   0  -4  120.69    8.30
   7   0   4   77.59    7.70
   7   0   4   87.89    9.80
  -7   0  -4   64.29    7.50
   9  -1  -4   20.50    5.50
   8  -1  -4   10.60    4.20
  -8  -1   4    9.00    4.00
   8  -1  -4   10.20    4.30
   8  -1  -4    9.80    3.20
  -8   1   4    5.40    3.70
   8   1  -4   15.10    4.20
   8   1  -4   11.80    3.10
   8   1  -4    5.50    4.00
   7  -1  -4   92.09    7.30
  -7  -1   4   90.99    7.10
  -7  -1   4   99.19    6.10
   7  -1  -4   82.29    7.40
   7  -1  -4   95.79    6.40
   7   1  -4   96.49    7.30
   7   1  -4   87.59    7.30
  -7   1   4   92.99    6.20
   7   1  -4   87.99    6.00
  -7   1   4  101.99    7.10
   6  -1  -4   15.00    2.90
   6  -1  -4   13.60    3.40
   6  -1  -4    7.50    3.10
  -6  -1   4   14.40    3.20
  -6  -1   4   10.40    2.60
  -6   1   4   12.10    3.10
   6   1  -4   11.20    2.50
   6   1  -4    6.50    2.80
  -6   1   4    8.00    2.70
   6   1  -4   10.30    3.10
  -5  -1   4  465.55   18.10
  -5  -1   4  480.65   18.40
   5  -1  -4  476.35   18.10
   5  -1  -4  461.05   18.80
   5  -1  -4  457.45   18.80
   5   1  -4  475.95   18.80
   5   1  -4  506.65   19.00
  -5   1   4  491.25   18.20
   5   1  -4  497.65   18.00
  -5   1   4  489.25   18.50
   4  -1  -4   91.59    5.50
   4  -1  -4   92.29    5.20
  -4  -1   4   92.19    5.00
   4  -1  -4   99.69    5.10
   4  -1  -4   91.49    5.10
  -4   1   4   98.49    5.10
   4   1  -4  104.79    4.90
   4   1  -4   95.29    5.50
   4   1  -4   92.19    5.10
   4   1  -4   89.69    5.10
  -3  -1   4 1014.90   37.20
   3  -1  -4 1053.99   37.20
   3  -1  -4 1061.79   37.20
   3  -1  -4 1013.10   37.20
   3  -1  -4 1088.19   37.70
  -3  -1   4 1052.29   36.70
  -3   1   4 1088.29   36.70
   3   1  -4 1027.40   37.00
   3   1  -4 1079.79   37.10
  -3   1   4 1066.89   37.30
   3   1  -4 1041.40   37.00
  -3   1   4 1044.90   37.20
   3   1  -4 1053.89   37.60
   3   1  -4 1021.50   37.30
  -2  -1   4  479.25   17.10
  -2  -1   4  504.65   17.40
   2  -1  -4  483.75   17.80
   2  -1  -4  475.15   17.30
   2  -1  -4  473.55   17.30
   2  -1  -4  463.05   17.10
  -2  -1   4  446.66   17.20
  -2   1   4  487.85   17.40
   2   1  -4  454.65   17.20
   2   1  -4  471.55   17.20
  -2   1   4  502.65   17.40
  -2   1   4  482.55   17.00
   2   1  -4  479.95   17.60
   2   1  -4  438.36   17.40
   1  -1  -4 1723.93   60.59
  -1  -1   4 1763.72   60.59
   1  -1  -4 1652.73   60.59
   1  -1  -4 1702.33   60.29
  -1  -1   4 1822.52   60.59
   1  -1  -4 1722.63   60.89
  -1  -1   4 1750.82   60.49
   1   1  -4 1776.92   60.59
  -1   1   4 1763.22   60.49
  -1   1   4 1674.23   60.49
   1   1  -4 1669.13   60.69
  -1   1   4 1788.62   60.69
   1   1  -4 1770.32   60.79
   0  -1  -4  763.92   27.80
   0  -1  -4  756.12   27.60
   0  -1   4  754.62   27.50
   0  -1   4  795.22   27.40
   0  -1   4  775.02   27.40
   0  -1   4  793.32   27.70
   0  -1  -4  775.12   27.60
   0   1   4  760.02   27.50
   0   1   4  798.82   27.30
   0   1  -4  735.73   27.60
   0   1   4  794.22   27.70
   0   1  -4  785.62   27.50
   0   1  -4  772.92   27.60
   0   1   4  759.32   27.60
  -1  -1  -4  264.17   10.90
   1  -1   4  284.97   11.20
  -1  -1  -4  286.77   11.10
  -1  -1  -4  278.67   10.80
   1  -1   4  284.77   11.00
   1  -1   4  280.57   10.80
  -1   1  -4  276.47   10.40
   1   1   4  280.57   10.30
  -1   1  -4  272.07   11.00
   1   1   4  293.27   11.10
  -1   1  -4  279.07   10.80
  -1   1  -4  271.17   10.80
   1   1   4  274.47   11.30
   1   1   4  289.57   10.80
  -2  -1  -4  235.18   10.10
  -2  -1  -4  238.98   10.00
   2  -1   4  259.47   10.40
   2  -1   4  264.87   10.00
  -2  -1  -4  261.27   10.40
   2  -1   4  250.67   10.80
  -2   1  -4  250.47   10.20
  -2   1  -4  247.38   10.00
   2   1   4  261.67   10.30
   2   1   4  247.38    9.90
   2   1   4  240.48    9.10
  -2   1  -4  245.68   10.10
  -2   1  -4  241.48    9.40
   2   1   4  245.58   10.90
  -3  -1  -4   97.99    5.80
  -3  -1  -4  108.09    6.00
   3  -1   4   99.19    6.60
   3  -1   4  104.59    6.00
   3  -1   4  101.39    5.30
  -3   1  -4  103.29    5.80
  -3   1  -4   98.59    4.50
   3   1   4   98.69    6.80
  -3   1  -4  108.09    5.80
   3   1   4   96.29    5.20
  -3   1  -4  102.39    5.90
   3   1   4  104.59    6.10
  -4  -1  -4  715.03   27.90
   4  -1   4  730.53   29.20
  -4  -1  -4  775.52   28.20
   4  -1   4  733.73   27.40
   4  -1   4  808.22   28.20
   4   1   4  750.52   27.40
  -4   1  -4  749.62   27.90
  -4   1  -4  734.33   28.00
   4   1   4  774.72   28.10
   4   1   4  737.23   29.40
   5  -1   4  127.29    9.20
   5  -1   4  135.99    8.10
  -5  -1  -4  132.59    7.90
  -5  -1  -4  124.09    7.90
   5  -1   4  128.19    6.60
   5   1   4  123.89    6.70
  -5   1  -4  125.89    7.80
   5   1   4  128.49    9.20
   5   1   4  136.89    8.00
  -5   1  -4  119.09    7.70
   6  -1   4   21.40    4.20
  -6  -1  -4   35.20    5.90
   6  -1   4   34.10    7.10
  -6  -1  -4   29.80    4.60
   6   1   4   29.20    5.60
   6   1   4   27.00    4.20
  -6   1  -4   29.30    4.50
   7  -1   4   19.60    5.20
  -7  -1  -4   22.30    4.60
   7  -1   4   11.70    5.10
   7   1   4   17.00    5.40
   7   1   4   19.10    4.10
  -7   1  -4   22.20    4.70
   9  -2  -4   31.20    5.70
   9  -2  -4   16.00    5.70
  -8  -2   4   29.00    4.70
   8  -2  -4   25.60    4.00
   8  -2  -4   26.30    4.80
   8  -2  -4   24.30    5.00
   8   2  -4   24.10    4.70
   8   2  -4   20.70    3.40
  -8   2   4   26.60    4.10
   8   2  -4   20.50    5.10
  -8   2   4   18.10    4.30
  -7  -2   4  150.28    8.70
  -7  -2   4  130.49    7.30
   7  -2  -4  125.49    9.00
   7  -2  -4  145.29    7.90
   7  -2  -4  145.99    8.70
   7   2  -4  128.49    8.80
   7   2  -4  144.59    7.40
  -7   2   4  146.49    8.40
   7   2  -4  148.59    8.80
  -7   2   4  147.29    7.90
   6  -2  -4    6.20    3.10
   6  -2  -4    9.60    3.10
   6  -2  -4   10.50    2.80
  -6  -2   4   10.00    3.20
  -6  -2   4   11.70    2.60
   6   2  -4    7.20    2.20
  -6   2   4    7.70    2.80
   6   2  -4    9.60    3.10
   6   2  -4    8.80    2.90
  -6   2   4   15.10    3.20
   5  -2  -4  263.67   11.60
   5  -2  -4  264.77   10.90
  -5  -2   4  266.27   10.80
   5  -2  -4  271.27   11.60
   5   2  -4  258.67   11.40
   5   2  -4  264.97   10.50
   5   2  -4  252.17   11.50
  -5   2   4  263.37   11.10
  -5   2   4  257.47   10.90
  -4  -2   4  260.47   10.20
   4  -2  -4  242.58   10.20
   4  -2  -4  250.47   10.60
   4  -2  -4  262.47   10.80
  -4  -2   4  253.77    9.20
   4   2  -4  258.97   10.80
   4   2  -4  244.68   10.30
   4   2  -4  243.78   10.30
  -4   2   4  249.38   10.20
   4   2  -4  260.47    9.90
  -3  -2   4  304.37   11.20
  -3  -2   4  315.07   11.90
   3  -2  -4  302.77   11.80
   3  -2  -4  312.57   12.00
   3  -2  -4  306.67   11.80
   3  -2  -4  313.07   12.30
   3   2  -4  308.47   12.20
  -3   2   4  321.47   11.20
  -3   2   4  303.87   11.80
   3   2  -4  293.57   11.90
   3   2  -4  304.37   11.50
   3   2  -4  317.17   11.60
  -3   2   4  303.67   11.90
   3   2  -4  301.27   11.50
  -2  -2   4  499.65   17.40
   2  -2  -4  482.75   17.90
  -2  -2   4  475.95   17.10
   2  -2  -4  443.96   17.30
  -2   2   4  488.55   17.50
  -2   2   4  492.95   17.10
   2   2  -4  457.95   17.20
   2   2  -4  482.15   17.60
  -2   2   4  482.55   17.40
   2   2  -4  460.15   17.20
   2   2  -4  465.55   17.50
   1  -2  -4  182.78    7.90
   1  -2  -4  203.58    8.10
   1  -2  -4  197.58    8.60
   1  -2  -4  195.98    8.00
  -1  -2   4  221.28    8.10
  -1  -2   4  209.08    8.00
  -1  -2   4  206.58    8.10
  -1   2   4  203.08    7.90
   1   2  -4  210.58    8.00
   1   2  -4  220.18    8.20
   1   2  -4  191.48    8.20
  -1   2   4  216.58    8.40
  -1   2   4  201.88    7.90
   1   2  -4  176.08    7.90
   0  -2  -4  629.14   23.90
   0  -2  -4  667.03   24.20
   0  -2   4  660.63   23.90
   0  -2  -4  645.54   23.80
   0  -2   4  709.73   24.00
   0  -2   4  713.03   23.80
   0   2   4  685.03   23.60
   0   2   4  631.14   23.90
   0   2  -4  661.53   23.80
   0   2   4  640.34   24.10
   0   2   4  684.13   24.10
   0   2  -4  681.23   23.90
   0   2  -4  657.33   24.10
   0   2  -4  663.23   23.90
   1  -2   4  143.29    6.20
  -1  -2  -4  136.59    6.30
   1  -2   4  142.59    6.60
  -1  -2  -4  148.09    6.40
  -1  -2  -4  149.88    6.70
   1  -2   4  144.99    6.60
   1   2   4  149.09    6.60
   1   2   4  138.79    5.60
  -1   2  -4  140.09    6.20
   1   2   4  141.79    6.80
   1   2   4  146.39    6.20
  -1   2  -4  138.99    6.00
  -1   2  -4  143.59    6.40
  -1   2  -4  144.99    6.50
   2  -2   4  490.75   18.80
  -2  -2  -4  484.35   18.00
  -2  -2  -4  486.45   18.30
  -2  -2  -4  483.05   18.00
   2  -2   4  483.15   17.90
   2  -2   4  512.05   18.30
  -2   2  -4  488.45   18.00
   2   2   4  474.45   17.80
  -2   2  -4  468.05   18.10
   2   2   4  479.25   18.90
  -2   2  -4  485.85   17.90
   2   2   4  488.75   18.20
   2   2   4  461.85   17.00
  -2   2  -4  473.45   17.40
  -3  -2  -4  708.13   26.80
   3  -2   4  695.23   27.60
   3  -2   4  726.63   26.70
   3  -2   4  731.63   26.30
  -3  -2  -4  718.13   26.60
  -3   2  -4  729.53   26.40
   3   2   4  741.43   26.30
  -3   2  -4  696.03   25.70
   3   2   4  730.23   27.90
   3   2   4  776.32   26.80
  -3   2  -4  700.43   26.60
  -3   2  -4  715.73   26.50
  -4  -2  -4  201.28    9.90
   4  -2   4  217.28   10.00
   4  -2   4  201.98   10.90
   4  -2   4  210.78    8.90
  -4  -2  -4  201.38    9.50
  -4   2  -4  204.68    9.30
   4   2   4  188.08   10.80
   4   2   4  205.28    9.70
   4   2   4  200.68    8.80
  -4   2  -4  200.08    9.60
   5  -2   4   37.80    6.30
  -5  -2  -4   52.59    5.80
   5  -2   4   46.50    6.00
   5  -2   4   51.39    4.30
  -5  -2  -4   48.50    5.90
   5   2   4   50.79    4.50
   5   2   4   47.60    5.60
   5   2   4   42.10    6.50
  -5   2  -4   45.20    6.50
  -5   2  -4   48.30    5.60
  -6  -2  -4   -5.80    3.40
  -6  -2  -4    1.10    3.30
   6  -2   4    2.80    3.90
   6  -2   4    1.00    3.90
   6   2   4    3.00    3.20
  -6   2  -4    3.70    3.30
   6   2   4    2.30    3.90
  -7  -2  -4   12.80    4.30
  -7  -2  -4    2.90    4.10
   7  -2   4    4.90    4.80
   7   2   4    6.30    5.00
  -7   2  -4   12.00    4.20
   7   2   4    9.50    3.70
   9  -3  -4   48.50    8.70
   9  -3  -4   68.99    8.90
   9  -3  -4   54.99    7.50
   8  -3  -4  109.09    7.50
   8  -3  -4   94.29    8.70
   8  -3  -4  110.59    8.40
  -8  -3   4   99.99    8.00
  -8   3   4  100.39    7.90
   8   3  -4   90.59    6.30
   8   3  -4  100.59    8.60
  -8   3   4  115.09    7.60
  -7  -3   4   11.00    3.70
   7  -3  -4   10.10    3.80
   7  -3  -4    6.30    3.50
  -7  -3   4    5.20    2.70
   7  -3  -4   10.90    3.20
   7   3  -4   12.30    3.80
   7   3  -4    4.60    2.40
  -7   3   4   14.60    3.30
  -7   3   4   18.70    3.80
   7   3  -4    8.90    3.50
   6  -3  -4   87.69    6.30
  -6  -3   4  102.39    5.80
   6  -3  -4   89.59    6.90
   6  -3  -4  110.49    7.10
  -6  -3   4  101.89    6.80
  -6   3   4  101.19    6.50
   6   3  -4   95.19    5.40
   6   3  -4   89.49    6.70
   6   3  -4   98.29    7.00
  -6   3   4  102.29    6.30
   5  -3  -4   71.09    5.40
   5  -3  -4   54.99    5.30
   5  -3  -4   66.69    4.90
  -5  -3   4   62.99    4.70
  -5   3   4   64.69    4.80
  -5   3   4   67.59    5.00
   5   3  -4   68.39    4.20
   5   3  -4   71.39    5.30
   5   3  -4   65.59    5.10
  -4  -3   4    3.20    1.70
   4  -3  -4    4.30    1.90
   4  -3  -4    1.90    1.90
   4  -3  -4    2.50    2.00
  -4  -3   4    0.20    1.00
   4   3  -4    0.50    1.80
   4   3  -4    1.10    1.70
   4   3  -4    1.40    1.50
  -4   3   4    2.30    1.80
   4   3  -4    0.60    2.00
   4   3  -4    2.60    1.40
  -4   3   4    2.20    1.00
   3  -3  -4  308.57   12.00
   3  -3  -4  293.87   12.40
  -3  -3   4  316.87   12.00
   3  -3  -4  316.37   12.60
  -3  -3   4  302.77   11.40
   3  -3  -4  323.57   11.90
   3   3  -4  321.57   11.60
   3   3  -4  303.87   11.70
   3   3  -4  300.17   12.10
   3   3  -4  303.47   11.60
  -3   3   4  316.97   11.40
  -3   3   4  303.67   12.10
  -3   3   4  325.97   12.00
   3   3  -4  321.77   12.40
   2  -3  -4  320.97   12.30
  -2  -3   4  315.67   11.90
  -2  -3   4  321.37   11.80
   2  -3  -4  303.27   11.80
   2  -3  -4  328.97   12.50
   2   3  -4  316.47   12.20
   2   3  -4  330.17   11.70
   2   3  -4  311.27   12.20
  -2   3   4  317.67   12.20
   2   3  -4  305.87   11.70
  -2   3   4  319.57   12.00
  -2   3   4  306.67   11.70
  -1  -3   4   31.40    3.60
   1  -3  -4   33.20    3.00
  -1  -3   4   35.20    2.70
   1  -3  -4   31.90    2.90
   1  -3  -4   29.00    2.60
   1  -3  -4   30.50    3.20
   1   3  -4   39.00    3.20
   1   3  -4   27.60    2.60
  -1   3   4   35.60    2.60
  -1   3   4   34.80    2.60
   1   3  -4   32.10    2.80
   1   3  -4   29.70    2.60
  -1   3   4   41.20    3.40
   0  -3  -4    5.60    1.50
   0  -3  -4    5.70    1.60
   0  -3   4    4.50    1.70
   0  -3   4    4.40    1.30
   0  -3   4    6.00    1.50
   0  -3  -4    2.40    1.90
   0   3  -4    3.10    1.30
   0   3  -4    4.40    1.50
   0   3   4    4.60    1.80
   0   3   4    5.20    1.10
   0   3   4    1.70    1.70
   0   3  -4    2.30    1.60
   0   3  -4    5.00    1.60
   0   3   4    4.40    1.40
   1  -3   4   45.10    3.10
   1  -3   4   38.90    3.50
  -1  -3  -4   40.70    3.80
   1  -3   4   45.40    3.50
  -1  -3  -4   42.90    3.30
  -1  -3  -4   39.40    3.20
   1   3   4   41.10    2.20
  -1   3  -4   39.70    3.40
  -1   3  -4   43.50    2.90
   1   3   4   40.50    3.60
  -1   3  -4   45.40    3.30
   1   3   4   43.30    3.00
   1   3   4   39.90    3.70
  -1   3  -4   37.10    2.80
  -2  -3  -4  548.45   21.30
   2  -3   4  585.44   21.50
  -2  -3  -4  596.54   21.80
   2  -3   4  572.14   21.20
   2  -3   4  617.94   22.20
  -2  -3  -4  557.64   21.30
  -2   3  -4  572.54   20.90
  -2   3  -4  577.64   21.10
   2   3   4  566.94   21.20
  -2   3  -4  573.34   21.50
   2   3   4  613.74   21.60
  -2   3  -4  590.54   21.40
   2   3   4  573.94   22.30
  -3  -3  -4  675.43   25.30
   3  -3   4  697.03   26.50
  -3  -3  -4  697.03   25.80
   3  -3   4  716.53   25.70
   3  -3   4  662.63   25.00
  -3   3  -4  665.53   24.60
  -3   3  -4  698.83   25.10
  -3   3  -4  682.23   25.30
   3   3   4  697.83   25.40
  -3   3  -4  688.53   25.50
   3   3   4  695.63   26.70
   3   3   4  674.93   25.10
  -4  -3  -4  660.33   25.30
   4  -3   4  630.54   26.20
  -4  -3  -4  657.53   24.80
   4  -3   4  689.03   25.10
   4  -3   4  665.53   24.30
  -4   3  -4  649.14   24.90
  -4   3  -4  645.44   24.50
   4   3   4  673.03   24.90
   4   3   4  639.04   26.40
   4   3   4  674.33   24.40
   5  -3   4   11.70    2.50
  -5  -3  -4   12.70    3.80
  -5  -3  -4    7.90    3.20
   5  -3   4    8.80    4.00
   5  -3   4    3.30    3.50
   5   3   4   15.00    4.30
   5   3   4    7.70    3.00
   5   3   4    9.20    2.50
  -5   3  -4    5.70    3.30
   6  -3   4    8.40    4.20
  -6  -3  -4    5.60    3.50
  -6  -3  -4    6.00    3.80
   6   3   4    3.70    4.30
  -6   3  -4    2.00    3.40
   6   3   4    9.20    3.50
  -7  -3  -4   40.70    5.50
  -7  -3  -4   37.40    5.70
   7  -3   4   26.30    6.00
   7   3   4   42.50    8.60
   7   3   4   29.90    4.60
  -7   3  -4   46.30    6.90
   9  -4  -4   -1.80    3.60
   9  -4  -4    8.20    4.70
   9  -4  -4    0.20    4.00
   8  -4  -4   15.10    4.10
   8  -4  -4   10.10    3.60
   8  -4  -4   10.30    4.50
  -8  -4   4    7.50    3.90
   8   4  -4   17.20    4.60
  -8   4   4   15.20    3.80
   8   4  -4   13.60    2.80
  -8   4   4   16.70    4.20
   7  -4  -4   17.70    4.30
   7  -4  -4   19.00    3.90
  -7  -4   4   17.80    3.20
   7  -4  -4   18.80    3.50
  -7  -4   4   18.40    3.90
   7   4  -4   19.20    2.70
  -7   4   4   25.90    4.00
   7   4  -4   19.20    4.10
  -7   4   4   15.90    3.60
   7   4  -4   18.20    4.00
  -6  -4   4  116.79    6.10
   6  -4  -4  105.29    6.60
  -6  -4   4  109.69    6.90
   6  -4  -4   99.49    7.10
   6  -4  -4   97.29    7.20
   6   4  -4   98.79    7.10
  -6   4   4  103.99    6.50
   6   4  -4   96.19    6.90
  -6   4   4  111.09    6.70
   6   4  -4   95.29    5.40
  -5  -4   4   99.09    5.50
   5  -4  -4   99.49    5.80
   5  -4  -4  104.29    6.30
   5  -4  -4   92.09    6.40
   5   4  -4   97.49    4.90
   5   4  -4   88.79    6.00
  -5   4   4   95.49    5.70
   5   4  -4   95.89    6.10
  -5   4   4   89.59    5.70
   4  -4  -4 1330.77   46.90
  -4  -4   4 1271.77   45.40
   4  -4  -4 1329.67   46.70
  -4  -4   4 1316.47   46.10
   4  -4  -4 1296.47   46.30
  -4   4   4 1373.26   46.20
   4   4  -4 1262.67   46.30
   4   4  -4 1293.87   46.30
   4   4  -4 1256.17   45.50
   4   4  -4 1334.57   45.60
  -4   4   4 1352.36   46.30
  -4   4   4 1242.08   45.30
   4   4  -4 1269.77   46.60
   3  -4  -4  202.38    8.70
   3  -4  -4  214.28    8.50
  -3  -4   4  201.48    8.10
  -3  -4   4  210.88    8.60
   3  -4  -4  208.18    9.10
  -3   4   4  212.58    8.70
  -3   4   4  212.38    8.10
   3   4  -4  215.68    8.10
   3   4  -4  213.48    8.80
   3   4  -4  204.58    8.40
   3   4  -4  215.68    9.00
  -3   4   4  216.58    8.90
   3   4  -4  217.08    8.10
  -2  -4   4  122.09    5.30
  -2  -4   4  123.59    5.50
   2  -4  -4  115.89    5.90
   2  -4  -4  106.99    5.80
   2  -4  -4  118.69    5.20
   2  -4  -4  124.79    5.60
   2   4  -4  122.29    5.60
   2   4  -4  125.49    5.10
  -2   4   4  121.29    5.70
   2   4  -4  127.59    5.10
  -2   4   4  125.99    5.50
  -2   4   4  122.39    5.20
   2   4  -4  114.99    5.70
   1  -4  -4  660.83   22.80
   1  -4  -4  618.54   23.10
   1  -4  -4  584.74   22.40
  -1  -4   4  624.54   22.60
   1  -4  -4  634.44   23.10
   1   4  -4  654.63   22.50
  -1   4   4  605.74   22.50
  -1   4   4  670.93   22.90
   1   4  -4  643.54   22.70
   1   4  -4  625.14   22.90
   1   4  -4  610.44   22.40
  -1   4   4  620.74   22.60
   1   4  -4  632.44   22.60
   0  -4  -4  532.55   19.60
   0  -4   4  557.04   19.70
   0  -4  -4  552.54   19.90
   0  -4   4  528.05   19.80
   0  -4   4  569.74   19.90
   0  -4  -4  548.55   20.30
   0   4  -4  483.75   19.70
   0   4   4  551.54   19.50
   0   4   4  527.15   19.80
   0   4  -4  585.04   19.60
   0   4   4  551.64   20.40
   0   4  -4  521.15   19.70
   0   4   4  578.34   20.10
   0   4  -4  556.04   20.10
   0   4  -4  541.65   19.70
  -1  -4  -4  934.91   33.60
   1  -4   4  957.10   34.10
  -1  -4  -4  949.80   34.30
   1  -4   4  929.81   33.80
   1  -4   4  987.80   33.80
  -1  -4  -4  933.91   33.80
  -1   4  -4  925.71   33.60
   1   4   4  920.31   34.50
   1   4   4  913.81   33.10
  -1   4  -4  975.30   34.00
  -1   4  -4  941.51   33.40
   1   4   4  982.20   33.90
  -1   4  -4  979.40   33.70
   1   4   4  953.50   33.80
  -2  -4  -4    7.70    2.00
  -2  -4  -4    6.30    2.40
   2  -4   4    5.50    2.10
  -2  -4  -4    4.10    1.90
   2  -4   4    5.90    2.20
   2  -4   4    8.30    1.80
  -2   4  -4   10.70    2.20
  -2   4  -4    5.40    1.90
   2   4   4    6.20    1.70
   2   4   4    4.60    2.50
   2   4   4    8.50    2.10
  -2   4  -4    7.80    1.70
  -2   4  -4    6.50    1.60
  -3  -4  -4    6.10    2.20
   3  -4   4    2.40    1.80
   3  -4   4    1.30    2.40
   3  -4   4   -2.00    2.30
  -3  -4  -4    0.60    2.60
   3   4   4    2.20    2.70
  -3   4  -4    2.10    2.10
  -3   4  -4    2.70    1.80
   3   4   4   -2.90    2.00
   3   4   4    3.30    1.80
  -3   4  -4    2.20    2.20
  -3   4  -4    3.40    1.70
   4  -4   4   61.19    4.40
   4  -4   4   64.99    6.60
  -4  -4  -4   61.99    6.00
  -4  -4  -4   69.49    5.50
   4  -4   4   85.49    8.50
   4   4   4   70.29    5.40
   4   4   4   58.69    6.60
   4   4   4   61.29    4.60
  -4   4  -4   64.59    5.50
  -5  -4  -4   22.20    3.60
  -5  -4  -4   12.90    3.90
   5  -4   4   22.10    3.00
   5  -4   4   16.60    4.40
   5   4   4   18.20    3.00
   5   4   4   22.90    4.70
  -5   4  -4   18.20    3.70
   5   4   4   16.80    3.30
   6  -4   4   12.20    4.60
  -6  -4  -4   19.10    4.10
  -6  -4  -4   28.00    4.90
   6   4   4   15.70    5.10
   6   4   4   17.60    3.60
  -6   4  -4   21.40    4.10
  -7  -4  -4   35.00    5.60
  -7  -4  -4   43.50    6.50
   7  -4   4   19.10    5.50
   7   4   4   24.70    6.10
   7   4   4   25.20    4.20
  -7   4  -4   28.60    5.50
   8  -5  -4  120.89    8.90
  -8  -5   4  130.69    8.90
   8  -5  -4  105.69    8.10
   8  -5  -4  121.79    9.60
  -8   5   4  112.09    8.20
  -8   5   4  117.39    8.10
   8   5  -4  106.59    6.40
   8   5  -4  130.59    9.30
   7  -5  -4  476.45   19.10
  -7  -5   4  453.05   18.70
   7  -5  -4  464.35   18.40
   7  -5  -4  437.26   19.80
  -7   5   4  478.75   18.30
   7   5  -4  456.95   19.00
  -7   5   4  455.75   18.40
   7   5  -4  414.56   17.00
   7   5  -4  440.36   19.60
   6  -5  -4    0.40    2.80
   6  -5  -4    2.00    2.70
  -6  -5   4    0.70    2.30
   6  -5  -4    0.90    2.90
  -6  -5   4    6.30    3.00
  -6   5   4    4.20    2.70
   6   5  -4    5.60    3.00
  -6   5   4    2.00    2.70
   6   5  -4    2.80    2.70
   5  -5  -4  150.38    7.40
   5  -5  -4  159.38    7.90
  -5  -5   4  151.48    7.10
   5  -5  -4  146.99    8.30
   5   5  -4  135.49    7.70
   5   5  -4  147.79    7.80
  -5   5   4  141.19    7.30
  -5   5   4  142.69    7.20
  -4  -5   4   78.59    4.70
   4  -5  -4   77.89    5.90
   4  -5  -4   84.89    5.00
   4  -5  -4   90.19    5.50
  -4  -5   4   72.49    3.70
   4   5  -4   68.69    5.00
  -4   5   4   83.29    5.00
   4   5  -4   86.99    5.00
  -4   5   4   82.69    4.70
  -4   5   4   82.09    3.70
   4   5  -4   80.49    5.00
  -3  -5   4   20.40    2.80
   3  -5  -4   22.60    3.10
   3  -5  -4   22.20    2.60
   3  -5  -4   22.40    4.60
   3  -5  -4   24.40    3.40
  -3  -5   4   21.70    2.20
   3   5  -4   24.30    2.80
  -3   5   4   26.90    3.40
   3   5  -4   22.40    3.00
  -3   5   4   19.20    2.30
   3   5  -4   19.20    2.40
  -3   5   4   24.10    3.10
   2  -5  -4    7.30    2.00
   2  -5  -4    5.50    1.80
  -2  -5   4    7.00    1.30
   2  -5  -4    7.90    2.00
  -2  -5   4    8.30    1.60
   2  -5  -4    8.00    1.40
  -2   5   4    8.70    1.70
   2   5  -4    8.60    1.90
  -2   5   4   11.10    2.10
   2   5  -4    8.00    1.70
  -2   5   4    8.50    1.50
   2   5  -4    7.50    1.30
   2   5  -4   10.10    1.30
   1  -5  -4  145.59    6.90
   1  -5  -4  143.19    6.90
   1  -5  -4  138.09    5.80
   1  -5  -4  145.99    6.40
  -1  -5   4  141.09    6.10
   1   5  -4  145.79    6.50
   1   5  -4  139.89    5.90
   1   5  -4  136.39    5.90
  -1   5   4  144.69    6.20
  -1   5   4  141.79    6.00
  -1   5   4  152.68    6.50
   1   5  -4  149.29    6.30
   1   5  -4  151.28    6.00
   0  -5   4  547.25   20.30
   0  -5  -4  579.54   20.50
   0  -5   4  557.24   20.40
   0  -5  -4  535.85   20.00
   0  -5  -4  576.24   20.90
   0  -5   4  547.75   20.30
   0   5  -4  561.94   20.40
   0   5   4  522.85   20.30
   0   5   4  577.54   20.60
   0   5  -4  573.44   20.60
   0   5   4  557.44   20.00
   0   5   4  560.54   21.10
   0   5  -4  556.24   20.20
   0   5  -4  586.24   20.00
  -1  -5  -4  497.45   19.00
   1  -5   4  517.45   18.50
  -1  -5  -4  485.75   18.20
   1  -5   4  499.95   18.80
  -1  -5  -4  497.25   18.40
   1  -5   4  498.45   18.50
  -1   5  -4  497.25   18.40
   1   5   4  500.05   18.60
   1   5   4  486.25   17.70
  -1   5  -4  513.45   17.90
   1   5   4  495.95   18.40
  -1   5  -4  501.05   18.30
  -1   5  -4  516.15   18.70
   1   5   4  491.25   19.30
   2  -5   4   70.99    4.80
   2  -5   4   71.09    4.20
   2  -5   4   74.49    5.20
  -2  -5  -4   66.19    5.00
  -2  -5  -4   72.79    4.30
  -2   5  -4   67.39    4.70
  -2   5  -4   75.89    4.10
  -2   5  -4   68.39    4.50
   2   5   4   65.49    4.10
   2   5   4   68.99    5.40
  -2   5  -4   71.29    3.70
   2   5   4   69.29    4.70
  -3  -5  -4   57.39    4.40
   3  -5   4   61.49    5.60
  -3  -5  -4   64.59    5.50
   3  -5   4   51.49    4.00
  -3   5  -4   56.49    4.70
   3   5   4   53.69    4.10
   3   5   4   53.39    5.90
   3   5   4   57.89    4.80
  -3   5  -4   58.19    3.90
  -3   5  -4   49.80    4.40
   4  -5   4  121.09    8.40
  -4  -5  -4  130.69    8.00
  -4  -5  -4  118.59    6.90
   4  -5   4  109.39    6.20
   4   5   4  126.59    7.10
   4   5   4  129.69    6.50
  -4   5  -4  114.99    7.10
   4   5   4  122.19    8.70
   5  -5   4   24.50    3.80
  -5  -5  -4   36.40    5.00
  -5  -5  -4   26.50    4.00
   5  -5   4   32.80    6.40
   5   5   4   33.50    5.00
   5   5   4   32.80    5.60
   5   5   4   35.50    4.20
  -5   5  -4   35.00    4.40
  -6  -5  -4  158.18    9.20
  -6  -5  -4  159.08   10.30
   6  -5   4  161.48   11.10
   6   5   4  142.89   11.10
  -6   5  -4  139.49    9.10
   6   5   4  143.29    8.70
   7  -5   4   18.30    5.50
  -7  -5  -4   21.90    5.30
  -7  -5  -4   28.70    4.90
   7   5   4   21.70    8.90
   7   5   4   26.70    4.30
  -8  -6   4    1.50    3.80
   8  -6  -4    3.80    3.60
   8  -6  -4    1.50    3.80
   8  -6  -4   -1.30    3.20
   8   6  -4    9.80    4.20
  -8   6   4    4.10    3.60
  -8   6   4   -1.30    3.40
   7  -6  -4    1.20    2.90
  -7  -6   4    1.50    3.10
   7  -6  -4    7.90    3.60
   7  -6  -4   -5.60    2.90
   7   6  -4    5.90    3.50
  -7   6   4    3.90    3.10
  -7   6   4   -1.30    3.10
   6  -6  -4   18.40    4.00
   6  -6  -4   18.10    3.60
  -6  -6   4   21.60    3.00
  -6  -6   4   19.40    3.60
   6  -6  -4   19.40    3.40
   6   6  -4   12.50    3.50
   6   6  -4   20.30    3.80
  -6   6   4   17.10    3.20
  -6   6   4   15.40    3.40
  -5  -6   4  237.88   10.10
   5  -6  -4  263.57   11.10
   5  -6  -4  242.48   10.60
   5  -6  -4  245.28   11.70
  -5   6   4  230.88   10.40
   5   6  -4  229.38   10.90
  -5   6   4  238.28   10.20
   5   6  -4  230.78   10.90
   4  -6  -4  379.26   16.40
  -4  -6   4  346.77   13.50
  -4  -6   4  367.76   14.20
   4  -6  -4  376.26   14.50
   4  -6  -4  371.16   14.80
   4   6  -4  357.06   14.40
  -4   6   4  388.66   14.20
   4   6  -4  383.86   14.70
  -4   6   4  381.56   14.50
  -4   6   4  361.56   15.50
  -4   6   4  348.67   13.40
   4   6  -4  362.86   14.70
  -3  -6   4   70.29    3.80
   3  -6  -4   72.99    4.60
  -3  -6   4   75.19    4.40
   3  -6  -4   77.79    5.10
   3  -6  -4   65.99    6.80
   3   6  -4   86.39    4.70
  -3   6   4   81.29    4.60
  -3   6   4   75.09    3.90
   3   6  -4   74.09    4.50
   3   6  -4   76.59    4.50
  -3   6   4   88.09    4.90
   2  -6  -4  144.99    6.80
  -2  -6   4  135.29    6.10
   2  -6  -4  139.79    7.00
  -2  -6   4  123.99    6.00
   2  -6  -4  145.09    6.50
   2  -6  -4  139.69    5.80
  -2   6   4  155.08    6.10
   2   6  -4  144.79    6.50
   2   6  -4  145.99    6.30
  -2   6   4  148.89    6.40
  -2   6   4  151.18    6.70
   2   6  -4  135.89    6.30
   1  -6  -4    0.30    1.80
   1  -6  -4    1.20    1.10
   1  -6  -4    0.30    1.50
   1  -6  -4   -0.10    1.90
  -1  -6   4    2.10    1.40
  -1  -6   4    0.90    1.10
  -1   6   4    0.20    1.70
  -1   6   4    0.70    1.30
   1   6  -4    0.20    1.10
   1   6  -4    1.00    1.10
   1   6  -4    1.50    1.40
  -1   6   4    3.60    1.40
   1   6  -4   -0.70    1.60
   1   6  -4    2.70    1.30
   0  -6  -4   14.10    2.50
   0  -6   4    6.90    1.90
   0  -6   4    6.10    1.60
   0  -6  -4    6.70    1.80
   0  -6  -4   13.00    1.90
   0   6  -4    8.30    1.60
   0   6   4   13.50    2.20
   0   6  -4    6.60    1.40
   0   6   4    8.70    1.70
   0   6   4   11.30    1.80
   0   6  -4    8.10    1.80
   0   6   4   11.10    2.50
   0   6  -4    8.40    1.20
   0   6  -4   13.50    2.10
  -1  -6  -4  124.49    5.60
   1  -6   4  133.29    6.00
   1  -6   4  120.09    6.40
  -1  -6  -4  121.29    5.90
  -1  -6  -4  128.69    6.70
   1  -6   4  124.39    6.10
   1   6   4  122.19    6.10
  -1   6  -4  124.39    5.80
  -1   6  -4  136.79    6.30
  -1   6  -4  136.69    5.10
   1   6   4  133.89    7.10
  -1   6  -4  122.39    5.90
   1   6   4  135.09    6.00
   1   6   4  125.39    5.10
   2  -6   4 1204.28   43.80
  -2  -6  -4 1204.38   43.60
  -2  -6  -4 1192.98   42.70
   2  -6   4 1211.38   42.90
  -2   6  -4 1242.08   43.20
   2   6   4 1176.88   42.90
  -2   6  -4 1215.18   42.90
   2   6   4 1191.28   42.90
   2   6   4 1228.48   44.30
  -2   6  -4 1199.28   42.80
  -3  -6  -4  424.46   17.40
   3  -6   4  412.56   16.20
   3  -6   4  423.06   17.70
  -3  -6  -4  428.46   16.30
  -3   6  -4  416.36   16.40
   3   6   4  434.96   18.30
  -3   6  -4  433.56   16.70
  -3   6  -4  434.86   16.10
   3   6   4  423.26   16.30
   3   6   4  411.86   16.50
  -4  -6  -4    3.80    2.60
   4  -6   4    0.30    3.10
  -4  -6  -4    3.10    3.20
   4  -6   4    3.80    2.00
   4   6   4    1.10    2.40
   4   6   4    6.80    2.30
  -4   6  -4    4.80    2.80
  -4   6  -4    4.20    2.10
   4   6   4    4.80    3.60
   5  -6   4   37.80    6.70
  -5  -6  -4   52.99    6.60
   5  -6   4   41.30    4.20
  -5  -6  -4   44.40    5.50
  -5   6  -4   40.30    5.50
   5   6   4   40.90    7.10
   5   6   4   47.30    5.20
   5   6   4   41.70    4.60
  -6  -6  -4  214.38   12.00
   6  -6   4  199.78   12.90
  -6  -6  -4  208.48   10.90
  -6   6  -4  204.38   11.00
   6   6   4  192.58   10.30
   6   6   4  208.68   13.40
  -7  -6  -4   10.80    4.90
  -7  -6  -4   15.90    4.30
   7  -6   4   13.90    6.90
   7   6   4   16.40    4.50
   8  -7  -4    5.60    3.70
   8  -7  -4   -0.50    3.30
  -8  -7   4   -2.60    3.60
   8  -7  -4    5.10    4.00
  -8   7   4    4.90    3.60
   8   7  -4   -1.70    3.70
  -8   7   4    4.70    3.60
  -7  -7   4    3.00    3.20
   7  -7  -4   -4.80    2.90
   7  -7  -4    4.50    3.80
   7  -7  -4   -0.20    3.00
  -7   7   4   -0.20    3.20
  -7   7   4   -2.40    2.90
   7   7  -4    5.90    3.40
  -6  -7   4  165.08    8.90
   6  -7  -4  164.98    9.00
   6  -7  -4  164.18    9.90
  -6  -7   4  155.08    7.90
   6  -7  -4  186.68    9.00
  -6   7   4  177.68    8.90
   6   7  -4  166.98    9.10
   6   7  -4  161.68    9.30
  -6   7   4  162.68    8.40
   5  -7  -4   93.19    6.00
  -5  -7   4   98.09    5.50
   5  -7  -4   98.29    6.30
   5   7  -4   82.69    6.30
   5   7  -4   95.89    6.20
  -5   7   4   92.49    5.60
  -5   7   4   90.09    6.20
   4  -7  -4   16.10    4.30
  -4  -7   4   10.20    1.60
   4  -7  -4   13.70    2.80
  -4  -7   4   13.10    2.30
   4  -7  -4    7.10    2.30
  -4   7   4   16.70    2.30
   4   7  -4    8.50    2.50
  -4   7   4    8.10    2.40
   4   7  -4   17.60    3.70
  -4   7   4   11.30    1.70
   4   7  -4   13.70    2.50
  -4   7   4   12.00    2.50
   3  -7  -4  248.88   12.00
   3  -7  -4  264.57   11.10
   3  -7  -4  263.47   10.80
  -3  -7   4  259.97   10.50
  -3  -7   4  245.38   10.10
   3   7  -4  266.77   10.70
  -3   7   4  259.17   10.60
  -3   7   4  272.97   10.10
  -3   7   4  275.47   10.10
   3   7  -4  258.97   10.70
   3   7  -4  259.07   10.60
  -3   7   4  266.17   10.80
   2  -7  -4   59.69    3.20
   2  -7  -4   64.59    4.70
   2  -7  -4   62.39    4.30
   2  -7  -4   61.39    4.10
  -2  -7   4   57.29    3.60
  -2  -7   4   51.69    3.70
   2   7  -4   61.29    3.90
   2   7  -4   60.19    3.60
  -2   7   4   66.49    4.30
  -2   7   4   58.59    3.70
  -2   7   4   70.79    4.00
   2   7  -4   60.29    4.10
   1  -7  -4 1062.09   37.30
  -1  -7   4  941.01   36.20
  -1  -7   4 1010.60   36.20
   1  -7  -4  997.60   36.80
   1   7  -4 1058.19   35.90
   1   7  -4 1018.90   36.30
   1   7  -4  981.20   35.80
  -1   7   4 1025.00   36.10
   1   7  -4 1067.89   35.90
  -1   7   4  971.70   36.20
  -1   7   4 1071.79   36.50
   1   7  -4 1043.20   36.40
   0  -7   4   20.80    2.60
   0  -7  -4   20.80    2.40
   0  -7   4   13.70    2.80
   0  -7  -4   19.90    2.00
   0  -7  -4   26.30    3.60
   0   7  -4   21.40    2.30
   0   7   4   20.90    3.10
   0   7  -4   17.40    2.30
   0   7   4   20.60    3.60
   0   7  -4   21.90    1.70
   0   7  -4   20.40    3.10
   0   7   4   21.40    2.10
   0   7   4   16.80    2.60
   0   7  -4   18.40    2.40
  -1  -7  -4   17.40    2.40
  -1  -7  -4   17.10    2.90
   1  -7   4   17.50    2.60
   1  -7   4   21.40    3.40
  -1   7  -4   16.90    2.40
   1   7   4   16.00    3.10
  -1   7  -4   13.60    2.00
   1   7   4   19.70    3.10
   1   7   4   19.90    1.80
   1   7   4   19.50    2.70
  -1   7  -4   20.90    2.90
   2  -7   4    2.20    1.80
  -2  -7  -4    2.90    2.50
  -2  -7  -4    4.40    1.70
   2  -7   4    2.00    2.30
  -2   7  -4    2.70    2.10
   2   7   4    4.60    2.80
   2   7   4    1.00    1.80
  -2   7  -4    4.90    2.00
   2   7   4    1.80    1.70
  -2   7  -4    2.90    1.90
   3  -7   4    5.40    2.10
   3  -7   4    9.10    3.10
  -3  -7  -4   14.60    3.40
  -3  -7  -4   12.20    2.40
  -3   7  -4    6.00    2.40
   3   7   4   10.60    3.40
   3   7   4    5.30    2.10
  -3   7  -4    6.20    2.10
   3   7   4    8.70    2.40
  -3   7  -4    8.80    2.60
   4  -7   4   39.90    6.00
  -4  -7  -4   33.30    4.70
   4  -7   4   35.30    3.80
  -4  -7  -4   30.50    4.50
   4   7   4   32.10    4.10
  -4   7  -4   31.70    4.80
   4   7   4   33.10    6.40
   4   7   4   31.90    4.50
  -4   7  -4   26.40    3.60
  -4   7  -4   34.70    4.00
  -5  -7  -4   77.29    7.50
   5  -7   4   95.59    8.50
  -5  -7  -4   92.69    6.70
   5  -7   4   85.69    5.60
   5   7   4   91.39    6.50
  -5   7  -4   77.19    7.00
   5   7   4   94.59    6.00
   5   7   4  103.69    9.00
   6  -7   4   24.50    5.60
  -6  -7  -4   39.20    6.00
  -6  -7  -4   35.20    5.60
   6   7   4   27.00    4.00
   6   7   4   33.60    6.40
  -6   7  -4   32.80    4.90
  -7  -7  -4   76.29    7.60
   8  -8  -4   33.30    5.00
  -8  -8   4   34.70    5.20
   8  -8  -4   24.20    5.50
   8   8  -4   36.00    5.70
  -8   8   4   22.60    4.50
  -8   8   4   39.00    6.10
   7  -8  -4   29.00    4.40
  -7  -8   4   24.10    4.30
   7  -8  -4   20.50    4.80
   7  -8  -4   23.40    4.30
  -7   8   4   19.40    4.10
   7   8  -4   24.20    4.30
  -7   8   4   23.70    4.00
  -6  -8   4   33.90    4.30
   6  -8  -4   34.10    5.10
   6  -8  -4   36.20    5.30
   6  -8  -4   33.10    6.40
  -6  -8   4   40.50    4.30
   6   8  -4   30.40    5.60
   6   8  -4   32.90    5.10
  -6   8   4   47.30    5.40
  -6   8   4   30.40    3.80
  -5  -8   4   14.50    2.60
   5  -8  -4    9.60    3.00
   5  -8  -4   13.60    2.90
   5  -8  -4   16.90    4.20
   5   8  -4    6.60    2.70
   5   8  -4    8.60    2.70
   5   8  -4   10.10    3.00
  -5   8   4    6.20    2.60
  -5   8   4   12.10    2.50
  -4  -8   4  151.38    7.00
   4  -8  -4  150.38    7.50
  -4  -8   4  135.19    6.30
   4  -8  -4  139.39   11.70
   4  -8  -4  156.38    7.80
  -4   8   4  149.39    7.40
  -4   8   4  145.99    6.40
   4   8  -4  147.89    7.70
  -4   8   4  145.79    7.30
  -4   8   4  150.28    6.70
   4   8  -4  148.69    7.40
   4   8  -4  155.38    7.40
   3  -8  -4   23.20    3.70
   3  -8  -4   27.20    3.60
  -3  -8   4   21.80    2.60
   3  -8  -4   22.90    4.70
  -3   8   4   23.80    3.40
   3   8  -4   21.70    3.50
   3   8  -4   29.30    3.40
   3   8  -4   24.80    3.10
  -3   8   4   24.20    3.60
  -3   8   4   22.10    2.90
  -3   8   4   29.30    2.60
  -2  -8   4   90.09    5.00
  -2  -8   4   92.89    4.70
   2  -8  -4   89.49    5.50
   2  -8  -4   91.99    5.10
   2  -8  -4   82.59    6.00
   2   8  -4   94.89    4.60
   2   8  -4   96.19    5.10
  -2   8   4   81.79    4.90
  -2   8   4   94.19    4.80
   2   8  -4   94.29    5.00
  -2   8   4   93.79    5.20
  -1  -8   4  252.47   11.10
  -1  -8   4  280.07   11.10
   1  -8  -4  284.17   12.30
   1  -8  -4  277.87   11.70
  -1   8   4  284.87   11.10
   1   8  -4  262.17   10.50
  -1   8   4  287.87   11.30
   1   8  -4  304.97   11.30
  -1   8   4  283.37   10.90
   1   8  -4  299.57   10.60
   1   8  -4  290.67   10.60
   1   8  -4  291.37   11.20
   0  -8  -4   52.89    3.90
   0  -8   4   53.89    4.90
   0  -8  -4   49.90    4.60
   0  -8   4   57.89    3.70
   0   8   4   56.59    3.20
   0   8   4   55.99    3.90
   0   8   4   55.89    3.70
   0   8  -4   52.29    4.00
   0   8  -4   54.59    3.80
   0   8  -4   56.29    3.40
   1  -8   4    0.30    1.50
   1  -8   4   -2.40    2.00
  -1  -8  -4    0.30    2.20
  -1  -8  -4    0.40    1.30
   1   8   4    0.40    1.70
  -1   8  -4   -0.30    1.60
   1   8   4   -1.80    2.20
   1   8   4    0.30    1.50
   1   8   4    1.00    1.00
  -1   8  -4    1.40    1.70
  -1   8  -4    1.20    1.80
  -2  -8  -4   59.39    5.40
   2  -8   4   59.29    5.40
   2  -8   4   62.69    4.40
  -2  -8  -4   66.19    4.10
  -2   8  -4   61.69    4.30
  -2   8  -4   59.49    4.40
   2   8   4   68.19    4.50
   2   8   4   64.79    5.90
  -2   8  -4   69.49    4.70
   2   8   4   64.49    4.40
  -3  -8  -4   48.00    4.20
  -3  -8  -4   54.49    5.60
   3  -8   4   49.90    5.60
   3  -8   4   49.70    4.20
   3   8   4   47.70    6.30
  -3   8  -4   51.79    4.70
   3   8   4   53.99    4.30
  -3   8  -4   47.80    4.40
   3   8   4   51.09    4.60
  -3   8  -4   48.30    4.70
   4  -8   4  187.18    8.70
  -4  -8  -4  200.48    9.10
  -4  -8  -4  192.08   10.50
   4  -8   4  186.28   10.90
   4   8   4  197.88    8.90
  -4   8  -4  173.98    8.70
  -4   8  -4  185.18    9.20
   4   8   4  193.38    9.00
   4   8   4  198.08   11.50
  -4   8  -4  182.28    9.40
   5  -8   4    9.90    2.70
  -5  -8  -4   10.50    4.30
  -5  -8  -4    4.30    3.00
   5  -8   4    7.70    4.10
   5   8   4    9.50    2.80
  -5   8  -4    9.70    3.40
   5   8   4   10.90    3.00
   5   8   4    8.60    4.40
   6  -8   4    8.00    4.60
  -6  -8  -4    9.40    3.60
  -6  -8  -4   19.80    5.00
   6   8   4    5.70    3.10
   6   8   4   11.00    4.90
  -6   8  -4   10.60    4.00
   8  -9  -4   20.10    5.80
   8  -9  -4   16.90    5.00
  -8  -9   4   31.60    5.00
   8   9  -4   22.40    4.90
  -8   9   4    9.30    4.00
   7  -9  -4    4.80    3.40
  -7  -9   4   13.40    3.90
   7  -9  -4    4.70    4.00
  -7   9   4   10.20    3.60
   7   9  -4    5.60    3.50
  -6  -9   4   -3.00    2.20
  -6  -9   4    2.00    3.00
   6  -9  -4    3.90    2.90
   6  -9  -4    5.70    4.10
  -6   9   4    3.30    2.60
  -6   9   4    2.80    2.90
   6   9  -4    2.20    2.80
  -5  -9   4  110.09    6.20
   5  -9  -4  111.19    6.90
   5  -9  -4  138.09   10.20
   5  -9  -4  110.49    7.00
  -5   9   4  118.99    6.90
   5   9  -4  116.19    7.00
   5   9  -4  107.49    7.30
  -5   9   4  110.99    6.20
  -4  -9   4   29.10    3.50
   4  -9  -4   28.30    4.10
   4  -9  -4   28.20    4.10
   4  -9  -4   24.00    5.30
  -4  -9   4   17.80    2.60
  -4   9   4   22.00    3.10
  -4   9   4   22.90    3.10
   4   9  -4   24.60    3.90
  -4   9   4   26.30    4.10
  -4   9   4   24.90    2.90
   4   9  -4   24.00    3.60
   4   9  -4   30.80    4.50
   3  -9  -4   43.20    5.60
   3  -9  -4   46.30    4.50
   3  -9  -4   47.30    4.40
  -3  -9   4   41.70    3.40
  -3   9   4   55.09    3.70
   3   9  -4   53.09    3.80
  -3   9   4   57.39    4.40
  -3   9   4   53.19    3.60
  -3   9   4   54.99    4.20
   3   9  -4   49.70    4.00
   3   9  -4   48.30    4.10
  -2  -9   4  273.17   11.90
   2  -9  -4  286.57   13.00
  -2  -9   4  294.77   11.70
   2  -9  -4  290.37   12.20
   2  -9  -4  281.97   11.90
  -2   9   4  300.27   11.60
  -2   9   4  306.17   12.00
  -2   9   4  303.87   11.70
   2   9  -4  311.97   11.90
   2   9  -4  307.07   11.50
   2   9  -4  306.57   11.80
   1  -9  -4    2.40    2.40
  -1  -9   4    3.60    1.70
  -1  -9   4    2.80    1.60
   1  -9  -4    0.30    1.90
   1  -9  -4    4.10    2.20
  -1   9   4    2.80    1.70
   1   9  -4    1.60    1.10
   1   9  -4    1.30    1.10
   1   9  -4    0.80    1.80
  -1   9   4    3.50    1.80
   1   9  -4    1.60    1.70
  -1   9   4    2.50    1.50
   1   9  -4    1.90    1.30
   0  -9  -4   83.79    5.60
   0  -9   4   80.99    4.70
   0  -9   4   75.69    5.70
   0  -9  -4   89.09    6.30
   0   9  -4   87.59    5.00
   0   9   4   94.39    4.30
   0   9   4   90.69    4.90
   0   9  -4   84.49    4.30
   0   9  -4   84.29    4.90
   0   9   4   84.69    4.80
   1  -9   4  528.15   21.70
  -1  -9  -4  545.95   21.10
   1  -9   4  537.55   20.30
  -1  -9  -4  517.45   19.50
  -1   9  -4  567.94   20.40
  -1   9  -4  559.74   20.00
   1   9   4  546.15   20.20
   1   9   4  533.85   20.30
   1   9   4  529.55   21.80
   1   9   4  548.15   19.50
  -1   9  -4  573.44   20.40
   2  -9   4  190.88    8.60
   2  -9   4  193.58   10.00
  -2  -9  -4  181.38    8.00
  -2  -9  -4  194.98    9.60
  -2   9  -4  201.58    8.90
   2   9   4  194.28   10.30
  -2   9  -4  201.58    8.60
  -2   9  -4  207.08    8.70
   2   9   4  197.38    8.70
   2   9   4  183.18    8.50
  -3  -9  -4   56.19    5.80
   3  -9   4   57.69    6.10
   3  -9   4   49.60    4.30
  -3  -9  -4   58.69    4.40
   3   9   4   54.09    4.60
  -3   9  -4   56.99    5.20
  -3   9  -4   54.59    4.90
   3   9   4   61.69    4.70
  -3   9  -4   53.59    4.60
   3   9   4   58.99    6.60
  -4  -9  -4    3.40    2.60
   4  -9   4    2.00    2.10
  -4  -9  -4   -2.60    3.20
   4  -9   4    1.10    3.20
   4   9   4    1.50    2.20
  -4   9  -4    0.10    2.30
  -4   9  -4    0.50    2.80
   4   9   4    0.40    2.30
  -4   9  -4   -0.50    2.50
   4   9   4    3.30    3.80
  -5  -9  -4   12.10    3.40
  -5  -9  -4    9.60    4.30
   5  -9   4    6.70    4.30
   5  -9   4    8.10    2.70
  -5   9  -4    9.90    3.60
   5   9   4    8.50    2.80
   5   9   4   10.80    4.60
   5   9   4    8.70    2.90
  -6  -9  -4    6.30    4.50
   6  -9   4    5.20    4.50
   6   9   4    9.90    3.20
   6   9   4    3.30    4.40
  -6   9  -4   10.00    3.70
  -8 -10   4   14.10    4.50
   8 -10  -4    6.70    4.50
  -8  10   4   12.10    4.20
   8  10  -4   13.80    5.00
  -7 -10   4   21.20    4.30
   7 -10  -4    9.20    3.60
   7 -10  -4   10.50    4.60
  -7  10   4   12.30    3.90
   7  10  -4    8.80    3.70
   6 -10  -4  234.58   11.30
  -6 -10   4  222.98   12.10
  -6 -10   4  234.58   11.30
   6 -10  -4  231.18   13.10
   6  10  -4  214.58   11.20
  -6  10   4  247.58   11.20
   5 -10  -4    2.80    2.60
   5 -10  -4    0.90    4.50
  -5 -10   4   -6.30    1.90
   5  10  -4    3.60    2.90
   5  10  -4    3.40    2.50
  -5  10   4    2.90    2.60
   4 -10  -4   -5.10    5.40
  -4 -10   4    8.30    2.30
   4 -10  -4    8.70    2.60
  -4 -10   4    4.10    1.70
  -4  10   4    4.10    2.70
   4  10  -4    6.00    2.80
  -4  10   4    6.40    1.90
  -4  10   4    5.70    2.40
   4  10  -4    7.50    2.50
   4  10  -4    4.90    2.20
  -3 -10   4  313.17   13.30
   3 -10  -4  319.17   14.50
  -3 -10   4  299.67   12.20
   3 -10  -4  313.77   13.10
  -3  10   4  313.37   12.70
   3  10  -4  304.57   12.60
  -3  10   4  314.37   12.80
   3  10  -4  300.87   12.50
   3  10  -4  327.67   12.60
  -3  10   4  316.07   12.30
  -2 -10   4   83.09    4.80
  -2 -10   4   89.49    5.30
   2 -10  -4   80.89    5.40
   2 -10  -4   68.49    6.20
   2  10  -4   83.59    5.10
  -2  10   4   91.79    5.30
   2  10  -4   88.29    4.60
   2  10  -4   87.59    5.10
  -2  10   4   88.79    5.00
  -2  10   4   89.09    5.10
   1 -10  -4    2.60    2.30
   1 -10  -4   -1.40    2.40
  -1 -10   4    1.40    1.60
  -1 -10   4    2.40    1.70
  -1  10   4    2.40    1.70
   1  10  -4    3.90    1.90
   1  10  -4    3.20    1.90
  -1  10   4    0.40    1.80
  -1  10   4    3.10    1.60
   1  10  -4    1.60    1.30
   0 -10  -4  179.18    9.80
   0 -10   4  193.28    9.30
   0 -10   4  190.88    8.20
   0 -10  -4  183.18    8.90
   0  10  -4  186.38    8.20
   0  10   4  191.08    7.60
   0  10   4  173.78    8.10
   0  10  -4  184.08    7.50
   0  10  -4  186.58    8.20
   0  10   4  170.28    8.00
   1 -10   4  128.09    8.50
   1 -10   4  149.49    6.80
  -1 -10  -4  139.49    7.60
  -1  10  -4  160.18    7.00
   1  10   4  141.39    6.80
   1  10   4  138.19    6.70
   1  10   4  132.49    8.50
  -1  10  -4  139.69    6.40
  -1  10  -4  132.59    6.90
   2 -10   4  319.77   14.10
   2 -10   4  310.07   12.50
  -2 -10  -4  307.17   13.40
   2  10   4  306.87   12.50
  -2  10  -4  321.67   12.70
   2  10   4  287.77   12.20
  -2  10  -4  300.47   12.60
  -2  10  -4  303.07   12.40
   2  10   4  306.17   14.40
   3 -10   4  100.39    5.90
  -3 -10  -4   96.69    7.30
   3 -10   4  108.69    8.00
   3  10   4  100.89    8.20
  -3  10  -4  106.09    6.50
   3  10   4  103.99    6.10
   3  10   4   99.99    5.90
  -3  10  -4  101.69    6.30
  -3  10  -4  105.99    6.30
   4 -10   4    1.00    2.30
  -4 -10  -4   -3.80    3.20
   4 -10   4    0.20    3.30
   4  10   4   -2.40    3.50
  -4  10  -4   -3.90    2.30
  -4  10  -4   -0.80    2.60
   4  10   4    2.60    2.40
  -4  10  -4    3.30    2.90
   4  10   4    0.50    2.20
   5 -10   4    9.00    4.40
  -5 -10  -4    4.60    4.00
   5 -10   4    1.70    2.70
   5  10   4   -2.20    3.80
   5  10   4    2.10    2.60
   5  10   4    4.20    2.50
  -5  10  -4    9.50    3.50
  -6 -10  -4   83.09    9.20
   6 -10   4   85.89    9.60
   6  10   4   79.89   10.00
  -6  10  -4   83.79    7.70
   6  10   4   88.59    6.40
  -8 -11   4   44.10    6.30
   8 -11  -4   35.40    6.60
  -8  11   4   41.20    6.50
   7 -11  -4   19.40    5.30
  -7 -11   4   30.70    4.70
   7  11  -4   24.90    4.50
  -7  11   4   38.00    5.80
   6 -11  -4   58.39    5.80
  -6 -11   4   60.69    6.10
   6 -11  -4   58.89    8.50
   6  11  -4   52.09    5.90
  -6  11   4   64.09    6.40
   5 -11  -4   18.70    3.40
  -5 -11   4   20.70    3.00
   5 -11  -4   19.50    6.10
  -5  11   4   22.60    3.70
   5  11  -4   19.30    3.40
  -4 -11   4   13.50    2.10
   4 -11  -4   16.70    3.10
  -4 -11   4   15.90    2.60
   4 -11  -4   10.30    5.50
   4  11  -4   12.80    2.70
  -4  11   4   12.60    2.30
   4  11  -4   22.40    3.70
  -4  11   4   14.50    3.00
  -4  11   4   13.90    2.90
   4  11  -4   12.50    3.30
   3 -11  -4  122.29    6.90
   3 -11  -4  108.09    8.20
  -3 -11   4  119.69    5.90
  -3 -11   4  117.69    7.10
  -3  11   4  124.19    6.10
   3  11  -4  110.09    6.10
  -3  11   4  114.79    6.50
  -3  11   4  124.59    6.60
   3  11  -4  127.19    6.40
   3  11  -4  114.19    6.20
   2 -11  -4  223.08   10.30
  -2 -11   4  206.98   10.20
  -2 -11   4  225.98    9.70
   2 -11  -4  227.88   11.40
  -2  11   4  235.68    9.80
   2  11  -4  230.88    9.90
  -2  11   4  242.08   10.00
   2  11  -4  238.68    9.30
   2  11  -4  249.97    9.90
  -2  11   4  227.68    9.70
  -1 -11   4   13.70    2.40
   1 -11  -4   18.20    3.10
  -1 -11   4   16.70    2.80
   1 -11  -4   12.50    3.30
   1  11  -4   20.90    3.30
  -1  11   4   12.60    2.10
  -1  11   4   16.00    2.50
  -1  11   4   18.80    2.50
   1  11  -4   14.30    2.50
   0 -11  -4   31.10    5.40
   0 -11   4   37.60    4.50
   0 -11   4   30.90    3.50
   0 -11  -4   33.70    4.50
   0  11   4   29.40    3.50
   0  11   4   33.00    3.00
   0  11  -4   33.10    2.90
   0  11  -4   37.90    3.90
   0  11  -4   30.80    3.70
   0  11   4   33.00    3.60
  -1 -11  -4   92.89    6.60
   1 -11   4  101.89    5.60
   1 -11   4   87.69    8.00
  -1  11  -4   96.19    5.70
   1  11   4   93.99    5.50
   1  11   4   91.29    5.30
  -1  11  -4  102.69    5.10
  -1  11  -4  103.29    5.80
   1  11   4  102.29    7.50
   2 -11   4   53.39    6.40
   2 -11   4   31.80    3.80
  -2 -11  -4   38.70    5.10
   2  11   4   32.30    5.70
   2  11   4   29.10    3.70
  -2  11  -4   36.30    4.30
  -2  11  -4   41.00    4.00
  -2  11  -4   27.10    4.10
   2  11   4   25.90    3.60
   3 -11   4    8.40    2.50
   3 -11   4    5.60    3.50
  -3 -11  -4    7.00    3.50
   3  11   4    5.80    2.40
   3  11   4    8.30    2.40
   3  11   4    7.50    3.90
  -3  11  -4   10.90    2.90
  -3  11  -4    9.40    2.80
  -3  11  -4   11.70    2.80
   4 -11   4   48.70    6.90
  -4 -11  -4   37.40    6.20
   4 -11   4   38.50    4.60
   4  11   4   41.40    4.60
   4  11   4   46.20    7.20
  -4  11  -4   54.09    5.70
  -4  11  -4   40.50    5.30
  -4  11  -4   44.90    4.90
   4  11   4   39.00    4.70
   5 -11   4    4.00    3.50
   5 -11   4    1.60    4.10
  -5 -11  -4    3.10    4.20
   5  11   4    1.10    2.50
   5  11   4    1.80    4.10
  -5  11  -4   -5.40    2.80
   5  11   4   -0.70    2.40
   6 -11   4    9.80    5.00
  -6 -11  -4    5.80    4.60
   6  11   4    5.80    5.10
   6  11   4    5.80    3.10
  -6  11  -4   11.60    4.00
   7 -12  -4    4.10    4.60
  -7 -12   4    3.60    3.70
   7  12  -4    4.90    3.50
  -7  12   4    8.50    3.80
   6 -12  -4    0.00    2.90
  -6 -12   4    4.30    3.20
   6 -12  -4    9.60    5.20
   6  12  -4    7.00    3.20
  -6  12   4    3.50    3.10
   5 -12  -4   78.39   12.10
  -5 -12   4   81.99    5.80
   5 -12  -4   83.69    6.40
   5  12  -4   84.89    6.30
  -5  12   4   94.29    6.50
  -4 -12   4    2.00    1.80
   4 -12  -4    9.60    5.60
   4 -12  -4    8.30    2.70
   4  12  -4    2.40    2.40
   4  12  -4    1.20    2.80
  -4  12   4    4.00    2.10
  -4  12   4    3.70    2.70
   4  12  -4    6.10    2.50
  -4  12   4   -0.70    2.30
   3 -12  -4   76.99    8.20
  -3 -12   4  105.59    5.70
  -3 -12   4  113.49    6.90
   3 -12  -4  101.49    6.40
   3  12  -4  104.49    5.80
   3  12  -4  102.39    6.00
  -3  12   4  106.59    6.30
  -3  12   4  108.49    5.80
   3  12  -4  103.39    5.80
  -3  12   4  107.39    6.20
  -2 -12   4  338.77   14.90
  -2 -12   4  358.16   14.20
   2 -12  -4  348.07   16.00
   2 -12  -4  369.56   14.80
   2  12  -4  374.06   14.30
  -2  12   4  360.56   14.20
  -2  12   4  364.66   14.20
  -2  12   4  377.36   14.40
   2  12  -4  346.67   14.20
  -1 -12   4    2.20    2.30
   1 -12  -4    4.40    3.10
   1 -12  -4    4.00    2.50
  -1 -12   4    6.60    2.20
  -1  12   4    4.70    2.00
   1  12  -4    8.60    2.30
   1  12  -4    9.10    2.30
  -1  12   4    3.50    2.00
  -1  12   4    5.90    1.80
   0 -12  -4  296.97   14.20
   0 -12   4  313.37   12.30
   0 -12   4  324.17   13.70
   0 -12  -4  292.97   13.00
   0  12   4  288.67   11.70
   0  12  -4  299.97   11.50
   0  12  -4  299.17   12.30
   0  12   4  294.27   12.20
   0  12  -4  290.17   12.20
   0  12   4  293.37   12.10
   1 -12   4    6.80    3.80
   1 -12   4   13.00    2.60
  -1 -12  -4    6.10    3.00
  -1  12  -4   10.40    2.50
   1  12   4    9.40    2.30
  -1  12  -4   10.00    2.50
   1  12   4    8.40    2.20
   1  12   4   10.40    3.60
  -1  12  -4   10.00    2.00
   2 -12   4  281.37   13.50
  -2 -12  -4  261.67   12.20
   2 -12   4  236.18   10.80
  -2  12  -4  260.07   11.00
   2  12   4  242.08   13.10
   2  12   4  238.08   10.90
  -2  12  -4  261.77   11.30
  -2  12  -4  267.77   10.90
   2  12   4  242.68   10.60
  -3 -12  -4   22.70    4.30
   3 -12   4   16.90    2.90
   3 -12   4   14.60    4.40
  -3  12  -4   20.70    3.30
   3  12   4   22.60    3.20
  -3  12  -4   21.50    3.40
  -3  12  -4   16.80    3.10
   3  12   4   20.00    4.70
   3  12   4   22.30    2.90
   4 -12   4   -8.30    2.90
  -4 -12  -4    2.80    3.60
   4 -12   4   -0.10    2.30
  -4  12  -4   -0.60    2.70
  -4  12  -4   -3.60    2.70
   4  12   4   -2.10    3.60
   4  12   4    2.50    2.40
   4  12   4   -0.70    2.20
  -5 -12  -4    1.40    4.00
   5 -12   4    1.10    4.30
   5  12   4   -0.20    2.50
   5  12   4   -1.60    2.40
  -5  12  -4   -4.40    3.00
  -5  12  -4    1.60    3.50
   5  12   4   -2.80    3.90
   6 -12   4    6.80    5.20
  -6  12  -4    8.70    3.70
   7 -13  -4    1.20    4.90
  -7 -13   4    3.00    3.60
   7  13  -4    2.90    3.60
  -7  13   4   -2.30    3.50
  -6 -13   4    3.60    3.40
  -6  13   4    3.20    3.20
   6  13  -4   -0.80    2.80
   5 -13  -4   22.90    7.80
   5 -13  -4   16.40    3.40
  -5 -13   4   13.90    2.90
   5  13  -4   20.10    3.60
  -5  13   4   16.20    3.60
  -4 -13   4   29.00    3.50
   4 -13  -4   23.20    3.60
   4 -13  -4   32.40    6.80
  -4  13   4   31.90    4.70
  -4  13   4   31.80    4.80
   4  13  -4   29.20    4.30
  -4  13   4   32.50    4.00
   4  13  -4   29.00    3.60
   3 -13  -4   82.39    7.90
  -3 -13   4   95.69    6.70
  -3 -13   4   82.09    5.40
   3 -13  -4   87.59    6.20
  -3  13   4   88.39    5.60
   3  13  -4   97.09    6.10
   3  13  -4  101.39    5.80
  -3  13   4   96.39    6.00
  -3  13   4   97.19    6.20
   3  13  -4   81.39    5.50
   2 -13  -4   37.70    4.60
   2 -13  -4   34.70    6.00
  -2 -13   4   34.60    3.80
  -2 -13   4   27.40    4.10
  -2  13   4   25.20    3.80
  -2  13   4   34.50    4.10
   2  13  -4   33.40    4.00
   2  13  -4   32.50    4.00
  -2  13   4   30.60    3.90
   1 -13  -4   -0.20    2.40
   1 -13  -4    3.90    3.20
  -1 -13   4    1.20    2.30
  -1 -13   4    2.80    2.10
  -1  13   4    2.60    2.00
   1  13  -4   -0.60    2.00
  -1  13   4    1.10    2.10
   1  13  -4    1.00    2.00
  -1  13   4    2.00    1.80
   0 -13  -4  101.09    8.20
   0 -13  -4  118.69    7.20
   0 -13   4  126.09    7.70
   0 -13   4  108.19    6.20
   0  13  -4  102.99    5.20
   0  13   4  108.59    6.20
   0  13  -4  117.69    6.40
   0  13   4  100.39    5.50
   0  13  -4  123.79    6.20
   0  13   4  108.89    6.00
   1 -13   4  281.67   15.20
   1 -13   4  329.97   12.90
  -1 -13  -4  310.27   13.80
   1  13   4  298.37   12.40
  -1  13  -4  317.97   13.00
  -1  13  -4  320.37   12.70
  -1  13  -4  323.07   12.20
   1  13   4  287.57   12.80
   2 -13   4   42.20    7.00
  -2 -13  -4   51.09    6.00
   2 -13   4   50.09    4.60
  -2  13  -4   58.99    5.30
   2  13   4   44.70    6.70
   2  13   4   46.50    4.60
   2  13   4   41.80    4.00
  -2  13  -4   43.70    4.50
  -2  13  -4   47.60    4.70
  -3 -13  -4   49.20    6.60
   3 -13   4   49.00    7.20
   3 -13   4   48.40    4.70
   3  13   4   56.69    4.60
   3  13   4   50.19    7.30
  -3  13  -4   55.19    5.40
  -3  13  -4   50.69    5.10
  -3  13  -4   55.89    5.30
   3  13   4   53.29    5.00
   4 -13   4   18.00    3.30
  -4 -13  -4   11.90    4.10
   4 -13   4   17.20    4.90
  -4  13  -4    9.10    3.10
   4  13   4   15.40    2.80
   4  13   4   13.40    4.70
  -4  13  -4   15.50    3.50
   4  13   4   10.30    2.90
  -4  13  -4   18.50    3.50
   5 -13   4   22.40    5.70
  -5 -13  -4   22.00    5.00
   5  13   4   22.90    3.60
  -5  13  -4   15.00    3.90
   5  13   4   21.20    5.60
   5  13   4   24.00    3.40
  -5  13  -4   19.80    3.80
   7 -14  -4    4.60    5.40
  -7 -14   4    6.10    3.90
  -7  14   4   -0.10    3.70
   7  14  -4    5.60    3.70
  -6 -14   4    2.10    3.40
   6 -14  -4   13.90    6.40
  -6  14   4   -4.30    3.10
   6  14  -4    5.00    3.30
   5 -14  -4   -0.90    4.40
  -5 -14   4   -0.30    2.30
   5 -14  -4   12.20    7.30
   5  14  -4    2.50    2.80
  -5  14   4    0.90    2.90
  -4 -14   4  181.18    8.60
   4 -14  -4  172.28   14.00
   4 -14  -4  174.88    9.40
  -4  14   4  199.88    9.60
   4  14  -4  194.68    9.10
  -4  14   4  207.98    9.60
   4  14  -4  183.18    9.20
  -4  14   4  191.48    8.90
   3 -14  -4    4.40    2.70
   3 -14  -4    8.40    3.80
  -3 -14   4    7.40    3.00
  -3 -14   4    8.30    2.50
  -3  14   4    6.50    2.60
   3  14  -4    9.30    2.60
  -3  14   4    8.40    2.50
  -3  14   4    4.00    2.60
   3  14  -4   13.50    2.80
  -2 -14   4   -0.50    2.20
   2 -14  -4    0.40    2.30
   2 -14  -4    0.50    3.10
  -2 -14   4    1.70    2.30
  -2  14   4    2.40    2.20
   2  14  -4    1.00    2.10
  -2  14   4    0.30    2.10
  -2  14   4   -0.20    2.10
   2  14  -4   -2.00    2.00
  -1 -14   4   57.99    4.80
   1 -14  -4   60.09    7.00
   1 -14  -4   60.39    5.50
  -1 -14   4   62.19    5.30
  -1  14   4   56.09    4.40
  -1  14   4   51.39    4.60
   1  14  -4   62.79    5.10
  -1  14   4   59.59    4.80
   1  14  -4   61.69    4.80
   0 -14   4   47.90    4.40
   0 -14   4   61.49    6.00
   0 -14  -4   44.50    5.30
   0 -14  -4   41.60    6.40
   0  14   4   37.80    3.70
   0  14  -4   39.90    4.30
   0  14  -4   42.60    3.30
   0  14   4   29.60    3.80
   0  14  -4   43.30    4.60
   0  14   4   29.10    4.20
   1 -14   4  305.57   12.40
   1 -14   4  250.27   14.70
  -1 -14  -4  281.67   14.70
  -1 -14  -4  307.07   13.50
  -1  14  -4  292.67   11.60
   1  14   4  301.57   12.50
  -1  14  -4  307.37   12.60
   1  14   4  264.77   11.90
  -1  14  -4  308.57   12.30
  -2 -14  -4    7.30    3.40
   2 -14   4    9.80    2.60
   2 -14   4    0.60    4.00
  -2  14  -4    4.80    2.60
   2  14   4   14.90    4.30
  -2  14  -4   13.60    3.10
  -2  14  -4    8.30    2.50
   2  14   4    6.20    2.20
   2  14   4    7.10    2.50
   3 -14   4   -4.20    3.80
   3 -14   4    1.40    2.30
  -3 -14  -4   -1.90    3.20
   3  14   4    2.60    2.50
  -3  14  -4   -2.60    2.60
   3  14   4    2.60    2.00
   3  14   4    2.80    3.90
  -3  14  -4   -0.60    2.70
  -3  14  -4    0.30    2.50
   4 -14   4   -1.20    2.40
   4 -14   4    1.20    4.30
  -4 -14  -4    1.50    3.70
  -4  14  -4    2.10    3.00
  -4  14  -4    0.80    2.90
   4  14   4    3.30    2.60
   4  14   4   -1.30    2.20
   4  14   4   -0.70    4.00
  -4  14  -4    4.30    3.10
   5 -14   4    3.60    4.30
  -5 -14  -4    3.90    4.30
   5  14   4   14.20    3.40
   5  14   4   12.60    2.90
  -5  14  -4   12.30    3.60
   5  14   4    6.70    5.00
  -5  14  -4   13.20    3.80
  -6 -15   4   44.80    5.40
   6 -15  -4   96.99   13.70
   6  15  -4   35.80    5.90
  -6  15   4   43.60    5.50
   5 -15  -4    9.00   10.00
  -5 -15   4   -1.30    3.80
   5  15  -4    4.80    3.00
  -5  15   4   -2.40    2.90
   4 -15  -4   21.30    3.60
  -4 -15   4   14.30    2.80
   4 -15  -4    8.80    6.20
   4  15  -4   20.20    3.20
  -4  15   4   21.90    3.60
  -4  15   4   13.30    3.20
   4  15  -4   23.30    3.40
  -4  15   4   18.60    3.70
  -3 -15   4  116.49    6.70
   3 -15  -4  108.09    9.20
   3 -15  -4  111.09    7.30
  -3 -15   4  115.19    8.00
   3  15  -4  121.09    6.70
   3  15  -4  114.29    6.60
  -3  15   4  117.59    7.00
  -3  15   4  117.79    7.20
  -3  15   4  121.89    6.70
   2 -15  -4   10.00    3.90
  -2 -15   4   12.20    3.30
  -2 -15   4   10.20    2.70
   2 -15  -4    9.40    3.00
   2  15  -4   11.20    2.70
  -2  15   4    9.80    2.70
  -2  15   4   14.80    2.90
  -2  15   4   13.50    2.80
   2  15  -4   17.10    2.80
  -1 -15   4  110.29    6.50
  -1 -15   4  106.29    7.20
   1 -15  -4  114.59    7.20
   1 -15  -4  110.29    8.70
   1  15  -4  104.39    6.60
  -1  15   4  112.99    6.20
  -1  15   4  102.99    6.20
  -1  15   4   98.19    6.40
   1  15  -4  125.89    6.40
   0 -15   4   32.00    5.40
   0 -15  -4   18.80    3.70
   0 -15  -4    9.90    4.20
   0 -15   4   18.80    3.10
   0  15   4   11.30    2.50
   0  15   4   14.70    2.50
   0  15   4   18.20    3.10
   0  15  -4   20.00    3.30
   0  15  -4   14.90    2.20
   0  15  -4   18.50    2.90
   1 -15   4   43.00    7.20
   1 -15   4   36.60    4.40
  -1 -15  -4   26.30    5.30
  -1 -15  -4   33.80    5.70
   1  15   4   40.10    3.90
  -1  15  -4   35.50    4.20
  -1  15  -4   39.50    3.60
  -1  15  -4   32.60    4.40
   1  15   4   37.40    4.70
   2 -15   4    2.90    4.80
  -2 -15  -4    8.00    3.50
   2 -15   4    4.00    2.40
  -2  15  -4    9.10    3.10
  -2  15  -4    7.90    2.80
   2  15   4   11.10    4.20
   2  15   4    5.20    2.30
   2  15   4    6.00    2.70
  -2  15  -4    6.70    2.50
   3 -15   4    6.20    4.60
  -3 -15  -4   15.70    4.30
   3 -15   4   12.50    3.00
  -3  15  -4   15.50    3.50
   3  15   4   15.40    3.20
   3  15   4   14.60    4.80
   3  15   4   13.80    2.70
  -3  15  -4   20.20    3.50
  -3  15  -4   12.80    3.10
   4 -15   4    1.10    4.30
  -4 -15  -4   -1.30    3.80
   4 -15   4    3.50    2.80
  -4  15  -4    0.60    3.00
  -4  15  -4    0.10    3.00
   4  15   4   -1.00    2.60
  -4  15  -4    2.00    3.10
   4  15   4   -1.30    3.90
   4  15   4    1.10    2.10
   5 -15   4   20.80    5.70
  -5  15  -4   17.30    3.90
  -5  15  -4   20.80    4.10
   5  15   4   22.80    3.90
   6 -16  -4   30.20    8.60
  -6  16   4   13.00    4.20
   5 -16  -4   30.70   10.60
  -4 -16   4   29.40    3.70
   4 -16  -4   24.10    7.20
   4  16  -4   36.80    5.40
  -4  16   4   44.60    5.40
  -4  16   4   33.80    5.40
   4  16  -4   38.20    4.80
   3 -16  -4    9.90    3.20
  -3 -16   4    4.70    2.60
   3 -16  -4    6.50    4.30
  -3  16   4    3.20    2.60
   3  16  -4   10.20    2.80
  -3  16   4    7.10    2.80
   3  16  -4    8.30    2.70
  -3  16   4    3.40    2.70
  -2 -16   4   79.09    6.60
   2 -16  -4   87.29    6.30
  -2 -16   4   89.79    6.00
   2 -16  -4   72.89    7.90
   2  16  -4   79.59    5.90
  -2  16   4   86.69    5.90
  -2  16   4   85.59    6.00
  -2  16   4   77.59    5.80
   2  16  -4   85.19    5.60
   1 -16  -4  213.98   12.40
  -1 -16   4  198.88    9.60
   1 -16  -4  204.78   10.10
  -1 -16   4  210.28   10.80
  -1  16   4  193.98    9.20
  -1  16   4  190.58    9.50
   1  16  -4  202.58    9.70
  -1  16   4  174.68    9.00
   1  16  -4  200.68    9.20
   0 -16  -4    1.90    3.70
   0 -16   4   -2.50    2.20
   0 -16  -4    1.10    3.00
   0 -16   4    5.00    3.20
   0  16   4   -0.10    2.40
   0  16  -4    1.10    2.30
   0  16  -4    2.70    1.70
   0  16  -4    1.20    2.40
   0  16   4   -0.30    2.00
   1 -16   4   -0.90    4.20
   1 -16   4    1.40    2.30
  -1 -16  -4    1.60    4.10
  -1 -16  -4    2.50    3.20
   1  16   4    2.80    2.20
  -1  16  -4    5.30    2.70
  -1  16  -4   -0.70    2.40
   1  16   4    3.00    2.50
  -1  16  -4    3.60    1.90
  -2 -16  -4  141.89    9.00
   2 -16   4  116.29   11.00
   2 -16   4  140.09    7.70
  -2  16  -4  137.79    7.20
  -2  16  -4  161.88    8.40
   2  16   4  128.49    6.90
   2  16   4  148.59    8.00
  -2  16  -4  122.19    7.90
   3 -16   4    1.60    2.40
  -3 -16  -4    2.70    3.70
   3 -16   4   -6.90    4.00
  -3  16  -4    4.50    3.10
   3  16   4   -1.50    1.90
   3  16   4    3.80    2.80
  -3  16  -4    1.30    2.60
   3  16   4    2.20    4.00
   4 -16   4   36.90    6.80
   4 -16   4   44.40    5.20
  -4 -16  -4   48.30    7.50
   4  16   4   44.50    4.50
   4  16   4   34.60    4.50
  -4  16  -4   52.29    6.10
   4  16   4   43.10    8.30
   6 -17  -4   16.20    8.60
   5 -17  -4   -3.40   10.00
  -5  17   4   -1.90    3.10
   4 -17  -4  -18.70    6.50
  -4 -17   4    5.40    2.50
  -4  17   4    7.10    3.10
   4  17  -4    9.00    3.00
  -4  17   4    9.20    3.30
  -3 -17   4   24.90    3.70
   3 -17  -4   25.70    5.70
  -3  17   4   29.00    4.00
   3  17  -4   30.60    3.90
  -3  17   4   31.80    4.70
  -3  17   4   22.80    3.60
  -2 -17   4   24.50    4.60
   2 -17  -4   21.90    5.20
   2 -17  -4   18.30    3.60
  -2 -17   4   19.00    3.40
  -2  17   4   20.70    3.20
   2  17  -4   19.00    3.40
  -2  17   4   19.60    3.30
  -2  17   4   15.50    3.20
  -1 -17   4   86.99    6.20
   1 -17  -4   73.89    8.30
  -1 -17   4   83.29    7.10
   1 -17  -4   84.09    6.60
  -1  17   4   85.19    6.10
   1  17  -4   85.99    6.20
  -1  17   4   80.89    5.60
  -1  17   4   74.89    5.50
   0 -17   4   51.99    6.90
   0 -17  -4   49.99    7.80
   0 -17   4   43.70    5.00
   0 -17  -4   53.99    6.00
   0  17   4   40.50    4.80
   0  17   4   42.00    4.20
   0  17  -4   46.90    5.50
   0  17  -4   39.40    3.60
  -1 -17  -4    2.30    3.40
   1 -17   4    3.30    2.40
   1 -17   4    2.80    4.10
  -1 -17  -4    1.80    4.20
   1  17   4    5.30    2.20
  -1  17  -4    0.80    2.80
  -1  17  -4    3.00    1.90
   1  17   4   -0.90    2.40
  -2 -17  -4    6.00    3.50
  -2 -17  -4    7.90    4.90
   2 -17   4    4.20    5.40
   2 -17   4    9.30    3.00
   2  17   4   14.20    2.70
  -2  17  -4   13.50    3.50
  -2  17  -4   11.10    2.70
   2  17   4    6.40    2.80
   3 -17   4   -1.90    4.60
   3 -17   4    1.30    2.70
  -3 -17  -4    0.60    3.50
   3  17   4    1.30    4.20
  -3  17  -4    0.80    3.20
  -3  17  -4   -1.50    2.60
   3  17   4   -1.50    2.50
   3  17   4   -3.10    2.00
   4 -17   4   44.80    7.40
   4 -17   4   46.30    5.50
  -4 -17  -4   54.59    8.10
   4  17   4   52.09    6.10
   4  17   4   44.50    8.80
   4  17   4   55.39    5.60
  -4  17  -4   59.39    6.20
  -4  17  -4   50.19    6.30
   5 -18  -4   33.10   11.00
  -5  18   4   26.90    4.60
  -4 -18   4    7.30    2.90
   4 -18  -4    2.20    6.70
  -4  18   4    7.00    3.20
   4  18  -4    6.20    3.00
  -4  18   4    8.00    3.50
  -3 -18   4    0.60    2.70
   3 -18  -4   -9.90    4.00
  -3  18   4   -3.30    2.50
  -3  18   4    1.60    2.70
   3  18  -4    2.00    2.50
  -3  18   4    1.80    2.90
   2 -18  -4   67.79    7.00
   2 -18  -4   70.69    8.30
  -2 -18   4   65.39    5.80
  -2  18   4   61.79    5.50
   2  18  -4   77.09    6.00
  -2  18   4   65.49    5.70
  -2  18   4   57.09    5.70
  -1 -18   4   17.10    4.20
   1 -18  -4   15.10    3.60
   1 -18  -4    9.90    4.50
  -1 -18   4    9.10    3.10
  -1  18   4    2.90    2.30
  -1  18   4    6.60    2.80
  -1  18   4    7.50    2.80
   1  18  -4    6.30    2.90
   0 -18   4   15.40    3.30
   0 -18  -4    9.80    3.70
   0 -18   4   18.80    4.40
   0 -18  -4   10.10    4.80
   0  18   4   15.40    3.20
   0  18  -4   12.80    3.40
   0  18   4   11.20    2.60
   0  18  -4    9.70    2.20
  -1 -18  -4   -0.30    4.40
  -1 -18  -4    0.40    3.20
   1 -18   4   -1.60    2.30
   1 -18   4   -1.90    3.90
   1  18   4   -0.10    2.40
  -1  18  -4    1.60    1.90
   1  18   4   -0.40    2.00
  -1  18  -4    0.10    2.80
   2 -18   4   11.50    3.20
  -2 -18  -4    9.50    5.20
   2 -18   4    3.40    5.80
  -2 -18  -4   15.50    4.30
   2  18   4   18.70    3.60
   2  18   4    9.00    2.50
  -2  18  -4    8.10    2.60
  -2  18  -4   18.30    3.80
  -3 -18  -4   31.90    5.40
   3 -18   4   34.40    5.10
   3 -18   4   26.00    6.60
  -3  18  -4   34.10    5.00
  -3  18  -4   34.40    4.80
   3  18   4   40.80    4.40
   3  18   4   31.70    4.50
   4 -18   4    1.90    5.10
   4  18   4   -0.40    3.70
   4 -19  -4   -6.70    6.80
  -4 -19   4   -0.80    2.70
  -4  19   4   -0.20    3.30
   4  19  -4    4.70    4.10
  -4  19   4    0.10    3.00
  -3 -19   4    2.20    2.90
   3 -19  -4   -5.60    4.10
  -3  19   4    0.80    2.70
  -3  19   4   -1.90    2.70
  -3  19   4    1.00    2.70
   3  19  -4    4.90    2.80
   2 -19  -4   15.10    5.10
  -2 -19   4   17.20    3.60
  -2  19   4   19.00    3.50
  -2  19   4   15.30    3.20
  -2  19   4   12.20    3.40
   2  19  -4   14.30    3.30
   1 -19  -4  193.38   10.20
   1 -19  -4  180.48   12.70
  -1 -19   4  196.98    9.80
  -1  19   4  175.78    9.60
  -1  19   4  173.78    9.00
  -1  19   4  189.78    9.10
   1  19  -4  189.48    9.90
   0 -19   4   16.00    3.60
   0 -19  -4    7.50    3.50
   0 -19  -4    7.20    4.80
   0 -19   4   15.80    4.50
   0  19  -4   11.70    3.40
   0  19   4    9.20    2.60
   0  19   4    9.10    3.20
  -1 -19  -4   45.80    8.60
   1 -19   4   50.59    5.30
  -1 -19  -4   51.89    6.50
   1 -19   4   55.79    8.90
  -1  19  -4   52.19    6.00
  -1  19  -4   43.10    4.10
   1  19   4   47.70    4.40
   1  19   4   51.49    5.60
  -2 -19  -4   32.80    6.80
   2 -19   4   34.10    5.20
   2 -19   4   28.20    7.80
  -2 -19  -4   29.40    5.30
  -2  19  -4   30.90    4.60
  -2  19  -4   27.40    4.20
   2  19   4   23.90    3.80
   2  19   4   22.00    3.90
   3 -19   4   14.40    3.50
  -3 -19  -4   -0.60    8.00
   3 -19   4    4.60    5.70
  -3 -19  -4   15.70    4.70
  -3  19  -4   11.70    3.90
   3  19   4   13.50    3.60
  -3  19  -4   10.50    3.10
  -4 -20   4    2.10    3.00
   4 -20  -4   -0.70    7.60
  -4  20   4    0.50    3.50
  -4  20   4    6.30    3.20
   3 -20  -4    3.20    5.50
  -3 -20   4    4.40    3.10
  -3  20   4    4.40    3.10
   3  20  -4    1.90    2.90
  -3  20   4    6.40    3.30
  -3  20   4    4.30    3.00
   2 -20  -4    8.60    5.00
  -2 -20   4   12.40    3.30
  -2  20   4   14.00    3.50
  -2  20   4    6.90    3.00
   2  20  -4   11.60    3.40
  -2  20   4   13.70    3.20
  -1 -20   4  120.49    7.90
   1 -20  -4  133.69   11.40
  -1  20   4  105.39    7.00
   1  20  -4  133.59    8.10
  -1  20   4  117.39    7.90
   0 -20   4   30.20    9.20
   0 -20  -4   20.30    4.20
   0 -20  -4   10.10    5.20
   0 -20   4   17.10    3.60
   0  20  -4   18.20    3.90
   0  20   4   11.80    2.80
   0  20   4   17.10    3.70
   1 -20   4   26.30    6.60
   1 -20   4   28.20    4.10
  -1 -20  -4   27.10    6.50
  -1 -20  -4   20.40    4.50
  -1  20  -4   33.10    3.80
  -1  20  -4   31.50    4.60
   1  20   4   23.10    3.20
   1  20   4   29.80    4.40
   2 -20   4   10.50    6.90
  -2 -20  -4   11.10    6.00
   2 -20   4   14.40    3.50
  -2 -20  -4    9.20    4.20
  -2  20  -4    8.40    2.70
   2  20   4   13.40    2.70
   2  20   4   16.60    3.70
  -2  20  -4   11.10    3.90
  -3 -21   4   99.89    7.20
   3 -21  -4   68.39   13.40
  -3  21   4   81.89    7.00
  -3  21   4   80.69    6.70
  -3  21   4   82.29    7.00
   3  21  -4   77.59    6.70
   2 -21  -4    6.50    5.10
  -2 -21   4    4.20    3.20
  -2  21   4    7.50    3.40
   2  21  -4    5.20    3.00
  -2  21   4    0.90    2.60
  -2  21   4    4.70    3.10
   1 -21  -4    4.30    4.80
  -1 -21   4    1.00    3.10
   1  21  -4   -2.20    2.80
  -1  21   4    0.70    2.50
  -1  21   4    1.70    3.10
   0 -21   4    1.00    2.90
   0 -21  -4    2.20    4.70
   0  21   4    1.50    2.80
   0  21   4   -0.50    2.20
   0  21  -4   -0.10    2.90
  -1 -21  -4   -0.50    3.60
   1 -21   4   -3.10    3.80
  -1 -21  -4   -1.10    5.00
   1  21   4   -7.10    4.70
  -1  21  -4   -1.30    3.20
   2  22  -4   23.40    5.00
  -2  22   4   27.00    6.90
  -2  22   4   22.90    4.00
   8   0  -5    1.70    2.80
  -8   0   5    0.00    3.50
   8   0  -5    4.10    3.90
  -8   0   5   -1.10    3.00
   7   0  -5   -1.70    2.60
  -7   0   5   -2.70    2.60
  -7   0   5    2.60    3.20
   7   0  -5    2.50    3.40
  -6   0   5    2.10    2.50
  -6   0   5   -2.70    2.50
   6   0  -5    3.90    3.00
   6   0  -5    2.00    2.40
  -5   0   5    1.40    2.20
   5   0  -5   -2.00    1.90
   5   0  -5   -1.10    2.30
   5   0  -5   -0.10    2.00
   4   0  -5    1.90    1.90
  -4   0   5    1.40    1.20
   4   0  -5   -2.30    1.70
  -4   0   5   -1.10    1.80
   4   0  -5    0.50    1.50
   4   0  -5   -0.70    2.10
  -3   0   5   -0.40    1.60
   3   0  -5   -0.90    1.00
   3   0  -5   -0.10    1.60
   3   0  -5   -0.60    1.80
   3   0  -5   -1.80    1.50
  -3   0   5   -0.10    1.20
   2   0  -5    2.90    1.90
   2   0  -5    1.50    1.70
   2   0  -5   -0.30    1.50
  -2   0   5    0.40    1.60
  -2   0   5   -1.80    1.40
  -2   0   5    2.20    1.30
  -1   0   5    2.00    1.70
   1   0  -5    0.10    1.70
  -1   0   5   -0.20    1.30
   1   0  -5   -0.50    1.60
  -1   0   5    0.10    1.30
   1   0  -5    1.90    1.60
   0   0   5   -0.70    1.20
   0   0   5   -2.70    1.70
   0   0   5   -1.50    1.30
   0   0  -5    4.80    1.90
   0   0  -5   -1.20    1.60
   0   0   5    0.10    1.30
   0   0  -5   -0.20    1.60
  -1   0  -5    0.20    1.80
   1   0   5   -1.50    1.30
   1   0   5   -0.30    1.10
   1   0   5   -1.70    1.90
   1   0   5    0.90    1.80
  -1   0  -5    1.50    1.80
  -1   0  -5    1.10    1.80
   2   0   5    0.30    1.10
  -2   0  -5    0.90    2.10
  -2   0  -5    2.50    2.10
   2   0   5    0.30    2.20
   2   0   5   -1.60    1.60
  -2   0  -5    2.10    2.10
   2   0   5    1.70    2.10
   3   0   5   -0.50    2.50
   3   0   5    2.20    1.90
  -3   0  -5    1.80    2.40
  -3   0  -5    0.60    2.30
   3   0   5    0.50    2.60
  -4   0  -5    0.60    2.70
   4   0   5    2.40    3.10
   4   0   5   -2.10    2.80
   4   0   5    0.30    2.10
  -4   0  -5   -2.10    2.50
  -5   0  -5   -1.90    2.90
   5   0   5    5.30    3.20
   5   0   5    0.80    2.30
   5   0   5   -3.00    3.30
  -5   0  -5    2.80    3.20
  -6   0  -5    1.70    3.40
   6   0   5    3.00    5.60
   6   0   5    2.00    4.20
   8  -1  -5    7.80    3.90
  -8  -1   5    1.30    3.60
  -8  -1   5   11.70    3.50
   8  -1  -5    8.90    3.30
   8   1  -5   15.90    4.30
  -8   1   5    5.80    3.80
  -8   1   5   10.30    3.50
   8   1  -5    4.80    2.90
  -7  -1   5   10.00    3.10
   7  -1  -5    7.30    3.60
   7  -1  -5    5.10    2.90
  -7  -1   5    8.50    3.50
   7   1  -5    9.70    2.70
   7   1  -5    2.90    3.50
  -7   1   5    6.60    3.30
  -7   1   5    5.20    3.10
   6  -1  -5  139.39    7.50
  -6  -1   5  136.09    7.50
   6  -1  -5  123.09    8.20
  -6  -1   5  140.49    7.90
   6  -1  -5  134.89   10.40
  -6   1   5  138.79    8.00
   6   1  -5  137.19    7.20
  -6   1   5  144.19    7.50
   6   1  -5  149.69    8.30
  -5  -1   5   10.30    2.50
   5  -1  -5    6.40    2.30
   5  -1  -5   10.30    2.50
   5  -1  -5    6.00    2.80
  -5   1   5    5.30    2.40
   5   1  -5    7.40    2.50
   5   1  -5    7.10    2.80
   5   1  -5    7.10    2.20
   4  -1  -5   49.20    4.00
   4  -1  -5   58.09    4.50
   4  -1  -5   51.99    3.70
   4  -1  -5   49.99    4.10
  -4  -1   5   48.40    4.00
  -4  -1   5   51.79    2.80
   4   1  -5   40.10    4.50
   4   1  -5   52.09    3.90
  -4   1   5   44.50    3.90
   4   1  -5   45.40    3.60
  -4   1   5   53.99    3.00
   4   1  -5   52.59    4.10
   3  -1  -5    7.10    1.90
   3  -1  -5    4.80    1.30
   3  -1  -5    3.10    1.70
   3  -1  -5   10.30    2.40
  -3  -1   5    5.00    1.80
  -3  -1   5    4.60    1.40
  -3   1   5    6.10    1.80
   3   1  -5    7.00    1.90
   3   1  -5    5.40    1.70
   3   1  -5    6.90    2.20
  -3   1   5    7.10    1.50
   2  -1  -5    1.00    1.50
   2  -1  -5    0.90    1.80
   2  -1  -5    0.00    1.50
  -2  -1   5   -0.50    1.60
  -2  -1   5   -1.70    1.20
  -2  -1   5    2.70    1.50
  -2   1   5   -0.70    1.50
   2   1  -5    2.00    1.50
   2   1  -5    0.90    1.60
  -2   1   5    0.20    1.40
   2   1  -5   -0.10    1.70
  -2   1   5   -0.30    1.20
   2   1  -5    0.90    1.50
   1  -1  -5   47.30    2.70
  -1  -1   5   51.39    3.70
  -1  -1   5   46.50    3.20
   1  -1  -5   48.70    3.80
   1  -1  -5   41.60    3.40
  -1  -1   5   51.29    3.20
   1  -1  -5   46.60    3.50
  -1   1   5   44.90    3.20
   1   1  -5   50.29    3.70
   1   1  -5   42.00    3.60
   1   1  -5   48.60    3.50
  -1   1   5   45.50    3.20
  -1   1   5   45.40    3.70
   0  -1   5  518.25   19.00
   0  -1   5  490.15   18.80
   0  -1  -5  534.85   19.20
   0  -1   5  531.05   18.60
   0  -1  -5  528.65   18.90
   0  -1  -5  500.05   18.90
   0  -1   5  497.15   18.60
   0   1  -5  522.35   19.00
   0   1   5  482.95   18.80
   0   1  -5  497.75   19.00
   0   1   5  520.15   19.10
   0   1   5  501.15   18.80
   0   1   5  526.25   18.50
   0   1  -5  515.25   18.90
  -1  -1  -5   43.50    3.80
  -1  -1  -5   42.90    3.70
   1  -1   5   53.69    3.50
   1  -1   5   43.90    3.80
  -1  -1  -5   46.50    3.90
   1  -1   5   43.50    4.00
  -1   1  -5   46.00    3.70
  -1   1  -5   44.80    3.90
   1   1   5   41.70    3.40
   1   1   5   44.90    3.90
   1   1   5   46.70    4.20
   1   1   5   48.00    2.80
  -1   1  -5   43.10    3.60
  -2  -1  -5   -0.10    2.10
  -2  -1  -5    2.30    2.20
   2  -1   5    3.00    2.30
   2  -1   5    4.10    2.20
   2  -1   5    5.40    1.90
  -2  -1  -5    2.60    2.00
   2   1   5    3.20    1.40
  -2   1  -5    3.60    2.10
  -2   1  -5    2.10    1.50
   2   1   5    2.80    2.10
   2   1   5    0.60    2.30
  -2   1  -5    0.20    2.00
  -2   1  -5    0.40    2.00
   2   1   5    3.80    1.80
   3  -1   5  135.39    7.40
  -3  -1  -5  121.19    6.90
   3  -1   5  119.49    6.30
   3  -1   5  124.89    7.70
  -3  -1  -5  125.69    6.80
   3   1   5  116.99    6.20
  -3   1  -5  115.89    6.60
   3   1   5  135.39    8.10
   3   1   5  116.99    7.00
  -3   1  -5  109.89    6.90
  -4  -1  -5    6.10    2.90
   4  -1   5    1.20    2.10
   4  -1   5    7.00    3.00
   4  -1   5    0.10    3.00
  -4  -1  -5    2.80    2.80
   4   1   5    3.90    2.20
   4   1   5   -1.10    3.00
  -4   1  -5    2.60    2.90
  -4   1  -5   -2.20    2.50
   4   1   5    8.30    3.20
   5  -1   5   25.70    5.10
   5  -1   5   40.70    4.40
  -5  -1  -5   28.10    4.50
  -5  -1  -5   44.40    5.70
   5   1   5   44.10    6.90
   5   1   5   33.20    4.60
   5   1   5   35.30    4.40
  -5   1  -5   34.40    5.50
  -6  -1  -5   17.50    4.20
   6  -1   5   12.40    4.90
  -6   1  -5   27.80    4.70
   6   1   5   15.20    5.00
   6   1   5   16.50    3.90
   8  -2  -5    2.40    3.10
   8  -2  -5    5.70    4.00
  -8  -2   5    4.00    3.80
  -8   2   5    3.70    3.40
  -8   2   5    1.60    3.40
   8   2  -5   -5.10    3.50
   8   2  -5    2.80    2.70
  -7  -2   5    4.60    2.90
   7  -2  -5    7.30    3.60
   7  -2  -5    7.10    3.00
  -7  -2   5    4.00    3.30
  -7   2   5    9.10    3.40
   7   2  -5    8.70    2.70
  -7   2   5    7.80    3.10
   7   2  -5    4.80    3.40
   6  -2  -5  205.38    9.40
  -6  -2   5  199.18   10.00
  -6  -2   5  200.08    9.40
   6  -2  -5  180.78    9.90
   6  -2  -5  213.38   10.50
   6   2  -5  214.78   10.40
   6   2  -5  199.78    9.00
  -6   2   5  213.38    9.90
  -6   2   5  195.78    9.50
   5  -2  -5  113.59    6.90
   5  -2  -5  105.59    6.30
   5  -2  -5  109.59    6.20
  -5  -2   5  109.49    6.20
   5   2  -5  112.79    6.30
   5   2  -5  110.89    5.80
  -5   2   5  112.19    6.30
  -5   2   5  116.19    6.30
   5   2  -5  111.29    6.90
   4  -2  -5   36.30    3.80
   4  -2  -5   43.80    4.20
  -4  -2   5   41.40    2.60
   4  -2  -5   34.90    3.50
   4  -2  -5   44.20    3.80
  -4  -2   5   36.10    3.70
   4   2  -5   36.40    3.40
   4   2  -5   39.70    3.80
  -4   2   5   39.30    3.80
  -4   2   5   37.40    2.70
   4   2  -5   34.30    4.20
  -3  -2   5    1.30    1.70
   3  -2  -5    7.00    1.90
   3  -2  -5    8.30    2.20
   3  -2  -5    7.50    1.90
  -3  -2   5    6.40    1.50
  -3   2   5    3.70    2.10
   3   2  -5    0.90    1.80
   3   2  -5    4.80    2.10
  -3   2   5    5.30    1.80
   3   2  -5    5.50    1.60
  -3   2   5    4.70    1.40
   2  -2  -5   77.09    4.40
   2  -2  -5   71.39    4.00
  -2  -2   5   70.69    5.00
   2  -2  -5   76.59    4.20
  -2  -2   5   72.79    3.90
   2  -2  -5   77.69    5.00
  -2  -2   5   82.39    4.40
   2   2  -5   75.39    4.50
  -2   2   5   82.09    4.30
  -2   2   5   77.39    4.60
   2   2  -5   70.09    4.00
   2   2  -5   79.29    4.60
   2   2  -5   75.39    4.10
  -2   2   5   73.29    3.90
   1  -2  -5 1422.26   51.79
   1  -2  -5 1508.95   51.69
  -1  -2   5 1472.15   51.79
   1  -2  -5 1437.06   51.79
  -1  -2   5 1518.45   51.79
   1  -2  -5 1469.85   52.19
  -1  -2   5 1408.76   51.69
   1   2  -5 1510.75   51.99
  -1   2   5 1544.15   51.99
   1   2  -5 1468.25   51.69
  -1   2   5 1504.75   51.69
  -1   2   5 1469.05   51.69
   1   2  -5 1423.56   51.99
   0  -2  -5  359.16   13.80
   0  -2  -5  350.46   13.50
   0  -2   5  364.56   13.10
   0  -2   5  348.77   13.40
   0  -2  -5  345.17   13.40
   0  -2   5  355.46   13.60
   0   2   5  378.16   13.70
   0   2   5  357.66   13.00
   0   2   5  310.57   13.30
   0   2   5  342.07   13.50
   0   2  -5  360.06   13.40
   0   2  -5  356.86   13.40
   0   2  -5  344.57   13.60
   1  -2   5  210.48    8.90
  -1  -2  -5  207.08    9.10
  -1  -2  -5  209.38    8.70
   1  -2   5  210.58    8.90
  -1  -2  -5  200.18    8.70
   1  -2   5  201.58    8.60
   1   2   5  201.88    9.10
   1   2   5  205.58    8.60
  -1   2  -5  208.68    8.30
   1   2   5  217.88    9.00
  -1   2  -5  189.08    8.80
  -1   2  -5  215.28    8.70
  -1   2  -5  191.38    8.50
   1   2   5  205.38    7.90
   2  -2   5    0.50    2.20
  -2  -2  -5   -0.10    2.10
  -2  -2  -5    4.10    2.10
  -2  -2  -5    4.60    2.40
   2  -2   5    0.20    2.20
   2  -2   5   -1.50    1.60
   2   2   5    0.60    2.30
  -2   2  -5    1.30    1.90
   2   2   5    0.80    1.70
   2   2   5    2.10    2.20
  -2   2  -5   -0.20    2.10
  -2   2  -5   -0.80    2.00
  -2   2  -5    1.60    1.50
   3  -2   5   51.19    5.20
  -3  -2  -5   55.09    4.90
   3  -2   5   57.19    4.20
  -3  -2  -5   56.39    5.10
   3  -2   5   55.39    5.70
  -3   2  -5   51.59    5.00
  -3   2  -5   45.60    4.50
   3   2   5   53.59    5.70
   3   2   5   54.59    5.00
  -3   2  -5   49.70    6.70
   3   2   5   57.99    4.30
   4  -2   5    0.90    3.10
  -4  -2  -5    1.10    2.70
  -4  -2  -5    1.60    2.90
   4  -2   5   -1.50    2.00
   4   2   5    2.60    2.20
  -4   2  -5    2.40    2.80
   4   2   5    3.20    2.80
   4   2   5   -1.30    3.10
   5  -2   5    0.80    3.50
   5  -2   5    2.30    2.40
  -5  -2  -5    2.70    3.50
  -5  -2  -5    1.70    3.00
  -5   2  -5   -3.70    2.80
   5   2   5    3.10    3.00
   5   2   5   -2.80    3.60
   5   2   5    1.10    2.40
   6  -2   5   62.99    8.30
  -6  -2  -5   65.99    7.10
  -6  -2  -5   70.09    7.50
   6   2   5   74.29    7.00
   6   2   5   57.39    8.40
  -6   2  -5   75.49    7.30
   8  -3  -5   35.10    4.40
   8  -3  -5   38.20    5.50
  -8  -3   5   45.00    6.80
   8   3  -5   29.30    5.10
  -8   3   5   28.60    4.70
  -8   3   5   32.20    4.60
   8   3  -5   29.40    4.60
  -7  -3   5    5.60    3.40
   7  -3  -5   10.80    3.70
   7  -3  -5    7.30    3.10
  -7  -3   5    7.70    3.00
   7   3  -5    4.50    3.50
  -7   3   5   11.20    3.40
   7   3  -5   16.90    2.80
  -7   3   5    7.30    3.40
  -6  -3   5  225.28   10.40
   6  -3  -5  222.08   11.20
   6  -3  -5  242.88   10.60
  -6  -3   5  215.48   10.90
   6  -3  -5  237.98   11.40
   6   3  -5  246.88   10.00
   6   3  -5  225.08   11.30
  -6   3   5  242.08   10.80
  -6   3   5  250.57   10.90
   5  -3  -5   95.79    6.50
  -5  -3   5  100.89    5.80
   5  -3  -5  107.69    6.10
   5  -3  -5   99.29    6.20
  -5   3   5   95.39    5.90
   5   3  -5  102.59    5.40
   5   3  -5   98.09    6.00
  -5   3   5  101.69    6.10
   5   3  -5   96.29    6.40
   4  -3  -5   33.40    3.70
   4  -3  -5   31.10    3.50
  -4  -3   5   31.80    3.70
   4  -3  -5   28.60    3.70
  -4  -3   5   31.90    2.50
   4  -3  -5   28.90    4.20
   4   3  -5   33.00    4.10
   4   3  -5   34.10    3.20
  -4   3   5   32.80    3.70
  -4   3   5   35.20    2.70
   4   3  -5   28.60    3.70
   3  -3  -5  139.39    7.20
  -3  -3   5  148.19    6.80
  -3  -3   5  143.89    6.10
   3  -3  -5  149.19    6.60
   3  -3  -5  146.99    6.80
   3  -3  -5  146.09    7.10
  -3   3   5  152.88    6.20
  -3   3   5  146.19    6.90
   3   3  -5  146.19    6.30
   3   3  -5  156.48    7.10
   3   3  -5  150.68    7.00
  -3   3   5  144.89    6.80
   2  -3  -5    3.90    1.80
   2  -3  -5    2.60    1.90
  -2  -3   5    2.00    1.40
   2  -3  -5    2.30    1.40
   2  -3  -5    1.80    1.40
  -2  -3   5    3.00    1.60
  -2   3   5    3.00    1.80
  -2   3   5    2.60    1.50
  -2   3   5    0.50    1.30
   2   3  -5   -0.40    1.30
   2   3  -5    2.10    1.50
   2   3  -5    0.50    1.60
   2   3  -5    4.20    1.80
  -1  -3   5  156.28    6.80
  -1  -3   5  158.48    6.70
   1  -3  -5  156.28    6.80
   1  -3  -5  150.08    7.20
  -1  -3   5  149.88    6.60
   1  -3  -5  159.68    6.90
   1  -3  -5  146.59    6.60
   1   3  -5  157.58    6.60
  -1   3   5  150.58    6.60
   1   3  -5  155.58    6.80
  -1   3   5  159.28    7.20
   1   3  -5  141.79    6.60
   1   3  -5  153.48    7.00
  -1   3   5  154.58    6.50
   0  -3   5  351.36   13.60
   0  -3  -5  338.97   13.30
   0  -3  -5  359.46   13.50
   0  -3   5  350.66   13.10
   0  -3   5  344.67   13.40
   0  -3  -5  350.06   13.90
   0   3  -5  360.16   13.40
   0   3   5  347.77   13.80
   0   3  -5  354.06   13.40
   0   3   5  365.06   13.00
   0   3  -5  360.96   13.40
   0   3   5  362.46   13.70
   0   3   5  339.07   13.30
   0   3  -5  339.47   13.60
  -1  -3  -5   12.10    2.10
   1  -3   5   15.60    2.30
   1  -3   5   14.50    2.40
  -1  -3  -5   10.40    2.60
  -1  -3  -5   11.70    2.20
   1  -3   5    9.70    2.30
   1   3   5   13.30    2.50
  -1   3  -5   10.50    1.90
  -1   3  -5   11.20    2.30
  -1   3  -5   13.40    2.10
  -1   3  -5   12.00    2.30
   1   3   5   19.60    3.50
   1   3   5   13.50    1.80
   1   3   5   16.90    2.60
  -2  -3  -5  603.54   22.50
   2  -3   5  621.44   22.40
   2  -3   5  613.34   22.90
   2  -3   5  583.64   21.90
  -2  -3  -5  572.24   22.00
   2   3   5  598.24   23.10
  -2   3  -5  576.64   22.20
   2   3   5  610.94   22.30
  -2   3  -5  592.74   22.00
   2   3   5  591.24   22.00
  -2   3  -5  582.84   21.50
  -2   3  -5  563.54   21.70
   3  -3   5    2.70    2.70
   3  -3   5    2.30    2.00
  -3  -3  -5    2.40    2.30
  -3  -3  -5   -1.20    2.60
   3   3   5   -1.60    2.20
  -3   3  -5    1.90    2.30
   3   3   5    2.80    1.90
  -3   3  -5   -2.70    2.20
  -3   3  -5    0.60    2.10
   3   3   5   -2.90    2.50
   4  -3   5  207.28   11.40
  -4  -3  -5  215.88   10.60
  -4  -3  -5  212.78   10.00
   4  -3   5  193.68    9.20
   4   3   5  210.28   10.10
   4   3   5  214.88    9.50
   4   3   5  214.98   11.80
  -4   3  -5  184.58   10.00
  -5  -3  -5  177.48   10.10
  -5  -3  -5  191.18   10.70
   5  -3   5  200.08   11.80
   5  -3   5  197.98    9.30
  -5   3  -5  202.68   10.40
   5   3   5  207.08    9.50
   5   3   5  198.68   10.30
   5   3   5  198.28   12.10
   6  -3   5    5.20    4.40
  -6  -3  -5    3.40    4.10
  -6  -3  -5   -2.60    3.30
   6   3   5    2.80    4.50
   6   3   5    2.20    3.20
  -6   3  -5    8.00    3.80
   8  -4  -5   -1.20    3.60
   8  -4  -5   -0.20    3.10
  -8  -4   5    2.50    3.70
  -8   4   5    3.90    3.50
   8   4  -5    2.80    3.80
   8   4  -5    5.70    2.50
  -8   4   5    1.20    3.50
   7  -4  -5   -3.10    2.90
  -7  -4   5    2.90    3.30
   7  -4  -5   -4.40    3.10
   7  -4  -5   -4.60    4.30
  -7  -4   5    2.00    2.70
   7   4  -5   -4.60    3.00
  -7   4   5    3.10    3.10
  -7   4   5   -4.10    2.80
   7   4  -5    4.50    2.30
  -6  -4   5  138.29    7.80
   6  -4  -5  126.59    8.00
   6  -4  -5  120.29    7.90
   6  -4  -5  139.19    7.50
  -6  -4   5  132.99    7.20
   6   4  -5  140.79    8.10
  -6   4   5  130.89    7.70
  -6   4   5  134.39    7.60
   6   4  -5  137.19    6.60
   5  -4  -5    0.60    2.50
   5  -4  -5    3.00    2.30
   5  -4  -5    0.10    2.20
  -5  -4   5   -0.70    2.10
  -5   4   5    2.60    2.40
  -5   4   5   -0.40    2.20
   5   4  -5    0.60    1.80
   5   4  -5    3.00    2.50
   5   4  -5    0.30    2.30
   4  -4  -5  238.98   10.50
   4  -4  -5  237.18   10.40
   4  -4  -5  225.68    9.70
   4  -4  -5  239.68   10.00
  -4  -4   5  232.48    9.00
  -4  -4   5  239.08    9.90
   4   4  -5  231.58   10.30
   4   4  -5  241.08    9.30
  -4   4   5  246.48   10.00
   4   4  -5  219.78   10.00
  -4   4   5  225.38    9.10
  -3  -4   5   79.69    4.60
  -3  -4   5   77.09    4.00
   3  -4  -5   69.99    4.70
   3  -4  -5   79.19    4.30
   3  -4  -5   85.29    5.40
   3  -4  -5   69.69    5.70
  -3   4   5   78.09    3.90
   3   4  -5   70.29    4.10
   3   4  -5   83.69    5.00
  -3   4   5   85.19    4.70
   3   4  -5   74.99    4.80
  -3   4   5   74.49    4.90
   2  -4  -5  284.37   11.50
   2  -4  -5  257.37   10.60
  -2  -4   5  288.07   10.90
  -2  -4   5  274.87   10.70
   2  -4  -5  270.67   11.00
   2   4  -5  280.97   10.60
   2   4  -5  251.57   10.50
   2   4  -5  281.07   11.00
   2   4  -5  273.67   11.10
  -2   4   5  292.17   11.20
  -2   4   5  286.87   10.70
  -2   4   5  283.07   10.80
   1  -4  -5  406.16   15.70
   1  -4  -5  397.36   14.90
  -1  -4   5  390.16   15.00
   1  -4  -5  424.16   15.50
   1  -4  -5  410.46   15.30
   1   4  -5  397.96   14.90
  -1   4   5  407.26   14.90
  -1   4   5  370.56   14.90
   1   4  -5  375.56   15.30
   1   4  -5  372.76   15.80
  -1   4   5  437.76   15.50
   1   4  -5  419.06   15.00
   0  -4  -5    1.50    2.10
   0  -4  -5   -0.40    1.40
   0  -4   5    0.60    2.50
   0  -4   5   -2.50    1.40
   0  -4   5    0.30    1.30
   0  -4  -5    3.30    1.90
   0   4  -5    2.20    1.60
   0   4   5    0.10    1.10
   0   4   5   -0.60    1.90
   0   4  -5   -0.30    1.70
   0   4  -5    0.40    1.50
   0   4   5    3.70    1.80
   0   4  -5    0.60    1.60
   0   4   5   -1.60    1.30
  -1  -4  -5   73.69    4.60
   1  -4   5   78.19    4.50
  -1  -4  -5   80.89    4.80
  -1  -4  -5   78.09    5.40
   1  -4   5   88.09    5.00
  -1   4  -5   78.59    5.00
   1   4   5   76.19    3.60
   1   4   5   73.99    5.10
   1   4   5   75.09    4.40
   1   4   5   81.79    5.40
  -1   4  -5   75.59    4.20
  -1   4  -5   82.09    4.40
  -1   4  -5   82.29    4.70
  -2  -4  -5   34.00    3.80
   2  -4   5   33.90    4.20
   2  -4   5   26.20    3.30
  -2  -4  -5   34.70    4.50
  -2   4  -5   31.90    3.10
   2   4   5   33.90    4.70
   2   4   5   24.50    3.30
   2   4   5   28.10    3.40
  -2   4  -5   24.90    3.90
  -2   4  -5   33.50    3.10
  -2   4  -5   27.10    3.80
  -3  -4  -5   87.99    5.60
  -3  -4  -5   72.09    6.20
   3  -4   5   83.29    6.50
   3  -4   5   80.29    5.10
  -3   4  -5   79.59    5.90
  -3   4  -5   84.69    5.50
   3   4   5   82.19    5.90
   3   4   5   80.69    5.10
  -3   4  -5   76.09    4.70
   3   4   5   85.39    7.00
   4  -4   5  117.99    6.70
  -4  -4  -5  117.49    8.00
  -4  -4  -5  125.99    7.40
   4  -4   5  123.99    8.80
   4   4   5  123.09    7.60
  -4   4  -5  117.09    7.70
   4   4   5  136.89    6.90
   4   4   5  138.09    9.40
  -5  -4  -5    0.30    2.90
   5  -4   5   -0.30    2.30
   5  -4   5   -1.20    3.40
  -5  -4  -5   -2.40    3.40
  -5   4  -5    3.10    3.20
   5   4   5   -2.90    2.90
   5   4   5   -2.60    2.30
   5   4   5   -2.70    3.60
  -6  -4  -5   20.20    4.30
  -6  -4  -5   23.60    5.00
   6  -4   5   18.30    5.10
   6   4   5   22.50    5.60
   6   4   5   17.00    4.00
  -6   4  -5   16.50    4.30
   8  -5  -5   34.60    4.70
  -8  -5   5   26.10    4.80
   8  -5  -5   33.10    5.20
   8   5  -5   31.90    5.30
  -8   5   5   29.50    4.70
   8   5  -5   24.40    3.20
  -8   5   5   41.80    5.90
   7  -5  -5   24.90    4.00
   7  -5  -5   14.80    4.10
  -7  -5   5   26.50    4.50
   7  -5  -5   13.40    4.00
  -7  -5   5   20.20    3.40
  -7   5   5   26.60    4.00
   7   5  -5   20.10    4.30
   7   5  -5   23.30    2.70
  -7   5   5   22.90    4.10
   6  -5  -5    0.30    2.70
   6  -5  -5    1.70    2.90
  -6  -5   5    8.00    3.00
   6  -5  -5    3.40    2.60
  -6  -5   5   -0.30    2.40
  -6   5   5    5.00    3.00
  -6   5   5    5.40    2.90
   6   5  -5    1.30    2.70
   5  -5  -5    0.80    2.50
   5  -5  -5    2.90    2.70
   5  -5  -5    5.10    2.40
  -5  -5   5    7.00    2.40
  -5   5   5    4.20    2.40
   5   5  -5    4.30    2.70
  -5   5   5    6.30    2.70
   5   5  -5    3.40    2.30
  -4  -5   5  330.47   13.00
   4  -5  -5  319.37   13.60
   4  -5  -5  347.07   14.00
  -4  -5   5  308.67   12.20
   4  -5  -5  319.27   13.10
   4   5  -5  335.37   12.30
  -4   5   5  321.77   12.30
   4   5  -5  322.47   13.40
  -4   5   5  329.77   13.10
   4   5  -5  319.27   13.10
   3  -5  -5  147.59    8.70
  -3  -5   5  171.48    7.70
  -3  -5   5  179.98    7.20
   3  -5  -5  171.48    8.20
   3  -5  -5  175.08    7.30
   3  -5  -5  174.68    7.80
   3   5  -5  170.78    7.90
  -3   5   5  171.38    7.70
  -3   5   5  179.38    8.00
   3   5  -5  180.08    7.90
  -3   5   5  178.78    7.20
   3   5  -5  168.98    7.00
  -2  -5   5   79.99    4.20
   2  -5  -5   71.59    4.00
   2  -5  -5   66.49    4.80
  -2  -5   5   79.99    4.40
   2  -5  -5   68.49    5.00
  -2   5   5   80.69    4.20
  -2   5   5   84.69    4.50
   2   5  -5   76.69    4.00
   2   5  -5   69.29    3.80
   2   5  -5   73.19    4.70
  -2   5   5   76.89    4.80
   2   5  -5   80.59    4.40
   1  -5  -5   23.50    2.60
   1  -5  -5   27.10    3.80
  -1  -5   5   20.30    2.70
   1  -5  -5   27.10    3.30
   1  -5  -5   28.60    3.50
   1   5  -5   23.60    2.70
  -1   5   5   27.10    2.70
   1   5  -5   24.70    2.70
  -1   5   5   28.70    3.50
   1   5  -5   25.10    3.40
   1   5  -5   24.10    3.00
  -1   5   5   22.50    2.70
   0  -5  -5  208.18    8.70
   0  -5   5  228.58    9.10
   0  -5  -5  215.68    9.70
   0  -5  -5  208.48    9.10
   0  -5   5  218.38    8.80
   0   5   5  196.88    8.90
   0   5   5  236.68    9.50
   0   5  -5  236.18    8.70
   0   5  -5  223.48    9.10
   0   5   5  219.28    8.50
   0   5  -5  220.98    8.90
   0   5   5  214.18    9.80
   0   5  -5  230.48    9.40
   1  -5   5  284.07   11.60
  -1  -5  -5  299.97   12.40
  -1  -5  -5  282.07   11.80
   1  -5   5  295.87   12.00
  -1  -5  -5  284.67   11.40
  -1   5  -5  293.37   11.40
   1   5   5  288.97   12.60
   1   5   5  282.97   10.80
   1   5   5  291.27   11.60
  -1   5  -5  300.17   11.60
   1   5   5  293.57   11.90
  -1   5  -5  285.97   11.90
  -1   5  -5  304.57   11.10
   2  -5   5  105.29    6.60
  -2  -5  -5  108.89    5.80
   2  -5   5  102.79    5.70
  -2  -5  -5  106.99    6.80
   2   5   5  102.49    5.60
  -2   5  -5  109.89    5.60
   2   5   5  116.09    7.30
   2   5   5  106.89    6.20
  -2   5  -5   96.39    6.10
  -2   5  -5  117.69    6.00
   3  -5   5   27.90    5.10
  -3  -5  -5   25.10    4.10
  -3  -5  -5   30.70    5.10
   3  -5   5   28.40    3.70
  -3   5  -5   28.70    3.50
  -3   5  -5   25.20    3.40
  -3   5  -5   28.50    3.60
   3   5   5   27.60    5.60
   3   5   5   26.80    3.60
   3   5   5   19.40    2.90
  -4  -5  -5   41.40    5.00
   4  -5   5   35.30    4.20
   4  -5   5   39.80    6.00
  -4  -5  -5   49.90    6.10
   4   5   5   37.00    4.40
   4   5   5   38.60    6.60
   4   5   5   35.00    5.20
  -4   5  -5   40.40    5.50
  -5  -5  -5   -0.30    2.90
   5  -5   5    8.50    4.10
  -5  -5  -5   -1.60    3.50
   5  -5   5    2.70    2.50
   5   5   5    5.30    2.70
  -5   5  -5    7.00    3.50
   5   5   5    5.80    3.10
   5   5   5    4.30    4.40
  -6  -5  -5   25.50    5.30
   6  -5   5   30.40    6.20
  -6  -5  -5   34.30    4.80
  -6   5  -5   37.00    5.20
   6   5   5   38.30    6.80
   6   5   5   32.30    4.70
   8  -6  -5    3.90    3.50
   8  -6  -5    1.20    3.90
  -8  -6   5    8.30    4.10
  -8   6   5    0.20    3.50
   8   6  -5   13.10    4.40
  -8   6   5   -1.10    3.50
   7  -6  -5    1.50    3.00
  -7  -6   5    3.50    2.70
   7  -6  -5    2.30    3.40
  -7  -6   5   -4.00    3.10
   7  -6  -5   -1.80    3.00
   7   6  -5   -4.10    2.90
  -7   6   5    1.00    3.10
  -7   6   5    4.50    3.30
   6  -6  -5   36.20    5.00
  -6  -6   5   58.09    5.60
  -6  -6   5   43.00    4.80
   6  -6  -5   56.49    5.80
   6  -6  -5   47.50    5.90
   6   6  -5   47.20    5.80
  -6   6   5   49.20    5.10
  -6   6   5   43.20    5.50
   5  -6  -5   16.70    3.60
  -5  -6   5   17.00    2.80
   5  -6  -5   14.70    2.90
   5  -6  -5   18.80    3.40
   5   6  -5   16.30    3.20
  -5   6   5   13.90    2.70
   5   6  -5   12.80    2.80
  -5   6   5   11.60    2.90
  -4  -6   5   38.70    4.00
   4  -6  -5   71.69    7.60
  -4  -6   5   39.10    3.10
   4  -6  -5   42.90    4.40
   4  -6  -5   38.80    4.50
  -4   6   5   41.20    3.80
   4   6  -5   51.09    4.30
  -4   6   5   45.10    3.30
  -4   6   5   50.39    4.40
   4   6  -5   46.70    4.30
  -3  -6   5  105.59    5.50
  -3  -6   5   98.99    5.00
   3  -6  -5   98.29    6.90
   3  -6  -5  106.99    6.30
   3  -6  -5  101.39    5.80
   3  -6  -5  101.89    5.10
  -3   6   5  108.19    5.70
   3   6  -5  109.99    5.90
  -3   6   5  103.89    5.10
  -3   6   5  120.39    6.00
   3   6  -5  115.39    5.80
   2  -6  -5    1.00    1.90
   2  -6  -5    2.40    2.00
  -2  -6   5   -1.20    1.50
   2  -6  -5    1.80    1.80
   2  -6  -5    1.90    1.30
   2   6  -5    0.00    1.60
  -2   6   5    2.00    2.10
   2   6  -5   -0.50    1.20
   2   6  -5   -0.20    1.80
   2   6  -5    1.70    1.40
  -2   6   5   -0.80    1.50
  -2   6   5    0.20    1.40
   1  -6  -5  247.68    9.60
   1  -6  -5  254.17   10.80
  -1  -6   5  222.78    9.40
   1  -6  -5  249.08   10.20
  -1  -6   5  233.28   10.00
   1  -6  -5  261.37   10.90
  -1   6   5  254.17   10.30
  -1   6   5  255.47    9.80
   1   6  -5  259.07    9.70
  -1   6   5  253.67   10.00
   1   6  -5  248.18    9.70
   1   6  -5  253.07   10.40
   1   6  -5  251.97   10.10
   0  -6  -5   52.19    3.40
   0  -6  -5   52.19    4.10
   0  -6   5   58.29    3.90
   0  -6   5   52.59    3.70
   0  -6  -5   64.19    4.70
   0   6   5   58.69    4.90
   0   6   5   43.30    3.50
   0   6   5   54.39    3.30
   0   6  -5   60.79    3.30
   0   6  -5   55.09    3.80
   0   6  -5   57.39    4.20
   0   6   5   55.39    4.40
   0   6  -5   60.39    4.10
   1  -6   5  420.86   16.50
  -1  -6  -5  431.26   17.20
  -1  -6  -5  428.46   16.20
   1  -6   5  434.06   16.90
   1   6   5  432.46   17.60
  -1   6  -5  453.35   16.50
   1   6   5  416.96   16.50
   1   6   5  427.76   16.70
  -1   6  -5  443.76   16.80
  -1   6  -5  457.75   16.50
   1   6   5  428.36   15.70
  -2  -6  -5  971.70   34.80
   2  -6   5  933.61   33.90
   2  -6   5  953.00   34.90
  -2  -6  -5  921.21   33.70
   2   6   5  910.51   33.90
   2   6   5  949.21   35.40
  -2   6  -5  912.21   34.10
   2   6   5  915.61   34.10
  -2   6  -5  950.30   33.70
  -2   6  -5  963.00   34.00
  -3  -6  -5  180.28    9.40
   3  -6   5  178.28    8.20
  -3  -6  -5  182.98    8.40
   3  -6   5  175.08    9.60
   3   6   5  178.38    8.30
  -3   6  -5  167.88    7.90
  -3   6  -5  168.88    8.60
   3   6   5  179.58   10.40
   3   6   5  176.28    8.80
  -3   6  -5  167.98    8.80
  -4  -6  -5    8.70    3.70
   4  -6   5    6.00    3.50
  -4  -6  -5   14.70    3.10
   4  -6   5    8.10    2.50
   4   6   5    6.40    2.60
   4   6   5   15.00    4.50
   4   6   5   10.80    3.10
  -4   6  -5   12.30    3.40
   5  -6   5  122.29    7.00
  -5  -6  -5  121.59    7.70
   5  -6   5  120.49    9.60
  -5  -6  -5  113.79    8.90
   5   6   5  121.99    7.20
   5   6   5  105.09    7.60
   5   6   5  120.49   10.20
  -5   6  -5  117.39    8.20
  -6  -6  -5  107.59    9.10
   6  -6   5   99.79    9.90
  -6  -6  -5   82.79    7.60
   6   6   5  106.89   10.40
  -6   6  -5   90.89    8.20
   6   6   5  104.39    7.70
  -8  -7   5    2.10    3.90
   8  -7  -5    0.40    3.70
   8  -7  -5   -2.80    3.20
  -8   7   5    4.50    3.80
  -8   7   5    6.50    3.70
   8   7  -5   -1.10    3.70
   7  -7  -5   14.90    4.30
   7  -7  -5   18.90    3.90
   7  -7  -5   16.90    4.20
  -7  -7   5   26.90    3.70
  -7  -7   5   22.50    4.30
  -7   7   5   12.90    3.60
  -7   7   5   14.50    3.90
   7   7  -5   21.00    4.10
   6  -7  -5   86.29    7.30
  -6  -7   5   80.29    5.80
   6  -7  -5   78.69    6.40
   6  -7  -5   94.89    6.80
  -6   7   5   91.59    6.80
   6   7  -5   79.29    6.60
  -6   7   5   89.99    6.20
   5  -7  -5    4.90    2.80
  -5  -7   5    1.00    2.30
   5  -7  -5    1.50    2.50
   5   7  -5    1.30    2.50
  -5   7   5    6.20    2.50
  -5   7   5    3.20    2.60
   5   7  -5    3.10    2.70
   4  -7  -5  298.77   12.70
  -4  -7   5  288.57   11.70
   4  -7  -5  286.87   14.90
  -4  -7   5  304.67   12.40
   4  -7  -5  314.87   13.10
   4   7  -5  298.37   12.70
  -4   7   5  310.57   11.90
  -4   7   5  316.67   12.60
   4   7  -5  310.37   12.70
  -4   7   5  335.77   12.20
  -3  -7   5    2.50    1.70
   3  -7  -5    3.70    2.40
   3  -7  -5    5.00    1.70
   3  -7  -5    3.20    2.10
   3  -7  -5    6.00    3.40
  -3  -7   5    6.30    2.00
  -3   7   5    2.00    1.70
  -3   7   5    4.10    2.00
   3   7  -5    8.40    2.10
   3   7  -5    5.00    2.10
  -3   7   5    6.60    2.40
   2  -7  -5    7.20    2.10
   2  -7  -5   11.70    2.60
   2  -7  -5    9.10    1.60
   2  -7  -5    8.30    2.40
  -2  -7   5    9.20    1.90
   2   7  -5    9.40    1.60
   2   7  -5    7.60    2.20
   2   7  -5   11.60    2.20
  -2   7   5    7.20    1.90
  -2   7   5    9.60    2.00
  -2   7   5    7.60    2.30
   2   7  -5   11.70    2.00
   2   7  -5   10.00    1.50
   1  -7  -5    4.20    2.30
   1  -7  -5    4.80    2.00
   1  -7  -5    0.40    2.20
   1  -7  -5    4.40    1.40
  -1  -7   5    5.80    1.80
  -1  -7   5   -0.90    1.70
  -1   7   5    3.20    1.70
  -1   7   5    4.90    2.00
   1   7  -5    4.00    1.50
   1   7  -5    2.80    1.60
  -1   7   5    2.40    1.50
   1   7  -5    4.40    2.00
   1   7  -5    1.20    1.70
   0  -7  -5   61.79    3.60
   0  -7   5   52.49    4.10
   0  -7  -5   74.19    5.20
   0  -7   5   68.79    4.20
   0   7   5   70.19    5.40
   0   7   5   60.29    4.10
   0   7   5   72.49    4.80
   0   7   5   67.59    3.60
   0   7  -5   65.19    4.40
   0   7  -5   67.89    4.10
   0   7  -5   62.59    4.60
   1  -7   5    3.80    2.00
  -1  -7  -5    3.00    2.60
   1  -7   5    2.00    1.80
  -1  -7  -5    3.40    1.70
   1   7   5    2.90    2.10
   1   7   5    2.90    2.70
   1   7   5    1.60    1.80
  -1   7  -5    3.90    2.30
  -1   7  -5    1.80    1.90
  -1   7  -5    0.10    1.90
   2  -7   5    2.90    2.00
  -2  -7  -5    3.20    2.80
  -2  -7  -5    3.10    2.00
   2  -7   5    0.50    2.30
   2   7   5    0.40    2.10
  -2   7  -5    3.40    2.30
   2   7   5   -1.30    1.90
   2   7   5   -0.80    2.90
  -2   7  -5    2.50    2.40
  -2   7  -5    0.10    2.00
   3  -7   5   18.20    3.80
   3  -7   5   22.00    3.00
  -3  -7  -5   20.10    3.80
  -3  -7  -5   25.80    4.00
   3   7   5   19.20    3.20
   3   7   5   28.70    4.10
  -3   7  -5   14.20    3.20
  -3   7  -5   24.50    3.40
  -3   7  -5   19.90    2.80
   3   7   5   18.30    4.50
   4  -7   5   31.20    6.10
   4  -7   5   28.50    4.10
  -4  -7  -5   27.20    3.70
  -4  -7  -5   29.00    4.60
   4   7   5   34.50    4.50
   4   7   5   32.70    5.60
   4   7   5   30.50    3.90
  -4   7  -5   29.20    4.00
  -5  -7  -5  234.58   12.30
   5  -7   5  212.78   10.20
  -5  -7  -5  227.48   11.00
   5  -7   5  208.48   12.90
   5   7   5  211.58   10.70
  -5   7  -5  213.78   11.20
   5   7   5  221.98   10.50
   5   7   5  223.88   13.70
   6  -7   5    6.10    4.70
  -6  -7  -5    3.80    4.30
  -6  -7  -5    5.60    3.50
   6   7   5   11.40    3.70
   6   7   5   10.00    5.10
  -6   7  -5    6.10    3.90
   8  -8  -5   42.80    6.80
  -8  -8   5   47.30    7.30
   8   8  -5   54.89    7.10
  -8   8   5   51.39    7.10
  -7  -8   5   14.40    4.10
   7  -8  -5   12.70    3.60
   7  -8  -5    9.40    3.80
   7  -8  -5    8.00    4.10
   7   8  -5    6.90    3.50
  -7   8   5   14.10    3.90
  -7   8   5    2.40    3.80
  -6  -8   5    4.00    2.60
   6  -8  -5   -0.20    2.70
   6  -8  -5    5.50    3.20
   6  -8  -5    6.70    3.90
  -6   8   5    1.90    2.90
   6   8  -5   -1.90    2.60
  -6   8   5    1.80    2.70
   5  -8  -5    7.40    3.70
   5  -8  -5    3.00    2.70
  -5  -8   5   -2.30    2.20
   5  -8  -5   -1.30    2.60
  -5   8   5    2.80    2.30
  -5   8   5   -1.60    2.50
   5   8  -5   -1.60    2.40
   5   8  -5    2.10    2.60
   4  -8  -5  382.56   15.30
  -4  -8   5  366.16   14.30
  -4  -8   5  391.46   14.90
   4  -8  -5  300.87   17.50
   4  -8  -5  392.86   15.70
   4   8  -5  379.86   15.20
  -4   8   5  391.66   14.50
   4   8  -5  395.96   15.20
  -4   8   5  372.86   14.40
  -4   8   5  394.16   15.20
   3  -8  -5   40.90    4.50
  -3  -8   5   35.40    3.80
   3  -8  -5   43.40    5.40
  -3  -8   5   33.40    3.30
   3  -8  -5   39.10    4.30
   3   8  -5   35.60    3.60
  -3   8   5   40.00    3.40
   3   8  -5   36.30    4.10
  -3   8   5   43.50    4.00
  -3   8   5   42.30    4.40
   2  -8  -5  143.09    7.20
   2  -8  -5  151.38    7.70
   2  -8  -5  144.59    6.10
  -2  -8   5  150.18    6.80
   2  -8  -5  132.99    7.90
  -2   8   5  151.38    6.90
  -2   8   5  154.58    7.40
   2   8  -5  141.09    6.10
  -2   8   5  149.79    6.80
   2   8  -5  153.38    7.00
   2   8  -5  150.38    6.60
   2   8  -5  152.58    7.20
  -1  -8   5  523.95   19.20
   1  -8  -5  494.25   19.40
   1  -8  -5  526.95   19.90
   1  -8  -5  525.05   20.40
  -1   8   5  523.35   19.40
   1   8  -5  512.45   18.60
   1   8  -5  502.15   19.20
  -1   8   5  513.15   18.90
   1   8  -5  537.55   19.40
   1   8  -5  498.05   18.60
  -1   8   5  482.35   19.10
   0  -8   5  405.66   15.60
   0  -8  -5  387.56   16.10
   0  -8   5  394.46   15.30
   0  -8  -5  376.86   14.50
   0   8   5  391.86   15.50
   0   8  -5  390.76   15.40
   0   8  -5  398.06   14.90
   0   8  -5  430.16   15.40
   0   8   5  386.96   15.30
   0   8   5  404.76   14.80
  -1  -8  -5    2.70    1.70
   1  -8   5    2.80    2.20
   1  -8   5    6.00    2.10
  -1  -8  -5    3.30    2.60
  -1   8  -5    6.30    2.20
   1   8   5    2.90    2.10
   1   8   5    1.70    2.70
  -1   8  -5    1.10    1.90
   1   8   5    1.70    1.80
  -1   8  -5    0.70    2.10
   2  -8   5   40.60    4.20
  -2  -8  -5   39.10    5.10
  -2  -8  -5   38.00    3.80
   2  -8   5   41.80    4.90
   2   8   5   39.90    4.10
  -2   8  -5   49.20    4.40
   2   8   5   46.20    5.90
  -2   8  -5   40.00    4.20
  -2   8  -5   48.70    4.80
   2   8   5   37.60    4.50
  -3  -8  -5   97.39    6.10
   3  -8   5  102.99    6.20
  -3  -8  -5  108.69    7.60
   3  -8   5  108.39    7.80
  -3   8  -5  112.79    6.30
   3   8   5  103.79    6.50
   3   8   5  118.39    6.50
  -3   8  -5  102.89    6.60
  -3   8  -5  106.99    6.80
   3   8   5  109.69    8.60
   4  -8   5   67.29    5.20
  -4  -8  -5   65.59    7.10
   4  -8   5   69.19    7.40
  -4  -8  -5   69.09    5.70
   4   8   5   68.39    5.70
   4   8   5   72.39    5.60
   4   8   5   63.89    8.00
  -4   8  -5   62.09    6.10
   5  -8   5  246.08   11.10
  -5  -8  -5  257.47   13.20
  -5  -8  -5  249.58   12.00
   5  -8   5  228.18   13.70
   5   8   5  229.18   14.30
   5   8   5  262.57   11.30
  -5   8  -5  231.98   12.00
   5   8   5  233.48   11.40
   6  -8   5    6.30    4.90
  -6  -8  -5   14.60    5.00
  -6   8  -5    9.00    4.10
   6   8   5    6.90    5.20
   6   8   5    9.40    3.50
  -8  -9   5   70.89    7.80
   8  -9  -5   65.19    7.30
  -8   9   5   59.19    7.40
   8   9  -5   65.29    7.40
   7  -9  -5   10.00    4.30
   7  -9  -5   16.10    4.10
  -7  -9   5   14.90    4.30
  -7   9   5   20.80    4.20
   7   9  -5   13.20    3.90
   6  -9  -5   17.60    4.70
   6  -9  -5   19.50    4.00
  -6  -9   5   21.30    3.30
   6   9  -5   11.30    3.30
  -6   9   5   23.80    4.00
  -5  -9   5   28.50    3.50
   5  -9  -5   22.10    3.70
   5  -9  -5   39.60    7.30
   5  -9  -5   27.90    4.00
  -5   9   5   22.60    3.50
   5   9  -5   28.60    3.80
   5   9  -5   27.00    4.30
   4  -9  -5   60.29    5.50
  -4  -9   5   53.59    3.80
   4  -9  -5   51.39    5.10
  -4  -9   5   51.89    4.70
   4  -9  -5   49.90   10.00
   4   9  -5   61.89    4.90
   4   9  -5   61.49    4.80
  -4   9   5   55.59    5.00
  -4   9   5   48.90    4.10
  -3  -9   5  214.28    9.20
   3  -9  -5  202.48   11.40
   3  -9  -5  218.68    9.90
   3  -9  -5  209.78   10.30
  -3   9   5  217.78    9.20
  -3   9   5  226.98    9.90
  -3   9   5  217.98    9.60
   3   9  -5  236.08    9.90
   3   9  -5  227.68    9.40
   2  -9  -5    1.00    2.40
   2  -9  -5    9.50    2.60
  -2  -9   5    3.10    1.90
   2   9  -5    2.00    1.60
  -2   9   5    4.00    1.90
  -2   9   5    2.80    2.30
   2   9  -5    4.20    2.20
  -2   9   5    1.20    1.80
   2   9  -5    2.10    2.00
   1  -9  -5  354.36   15.00
   1  -9  -5  353.36   14.40
  -1  -9   5  347.57   13.60
  -1   9   5  342.17   13.80
   1   9  -5  334.27   13.60
  -1   9   5  334.07   13.50
  -1   9   5  346.67   13.30
   1   9  -5  360.86   13.80
   1   9  -5  332.67   12.90
   0  -9   5   56.49    4.20
   0  -9   5   47.10    4.80
   0  -9  -5   59.09    5.40
   0   9   5   62.29    3.70
   0   9  -5   52.09    3.80
   0   9  -5   57.79    4.60
   0   9   5   58.89    4.10
   0   9  -5   52.69    4.30
   0   9   5   58.69    4.50
   1  -9   5  772.42   28.00
  -1  -9  -5  763.52   28.80
   1  -9   5  741.73   28.60
   1   9   5  757.22   29.50
  -1   9  -5  765.22   27.70
   1   9   5  764.72   28.00
   1   9   5  743.93   27.90
  -1   9  -5  781.52   28.10
  -1   9  -5  757.42   27.90
   2  -9   5   33.90    4.10
   2  -9   5   32.20    4.80
  -2  -9  -5   38.00    5.20
  -2   9  -5   37.90    4.60
   2   9   5   36.50    4.30
   2   9   5   35.20    4.10
  -2   9  -5   40.50    4.40
  -2   9  -5   36.10    4.20
   2   9   5   37.50    5.70
  -3  -9  -5   16.80    4.00
   3  -9   5   12.50    3.70
   3  -9   5   12.20    2.70
  -3   9  -5   11.40    3.00
  -3   9  -5   11.50    3.10
  -3   9  -5   13.30    2.90
   3   9   5    7.00    2.60
   3   9   5   13.40    2.80
   3   9   5    7.30    3.80
   4  -9   5   75.69    5.60
  -4  -9  -5   72.79    7.50
   4  -9   5   71.39    7.70
  -4   9  -5   72.29    7.00
   4   9   5   76.09    8.60
   4   9   5   75.79    5.60
  -4   9  -5   68.89    6.60
   4   9   5   83.29    6.10
   5  -9   5   12.10    4.90
  -5  -9  -5    3.50    4.20
   5  -9   5   12.00    3.20
  -5   9  -5   12.20    3.80
   5   9   5   17.00    5.30
   5   9   5   11.90    3.20
   5   9   5   12.50    3.40
  -6  -9  -5   93.09   14.60
   6  -9   5   85.09    9.70
   8 -10  -5   95.29    8.10
  -8  10   5   83.29    8.50
  -7 -10   5    6.80    3.90
   7 -10  -5    5.20    3.50
   7 -10  -5    2.60    4.00
  -7  10   5    7.30    3.80
   7  10  -5    9.30    3.50
   6 -10  -5    9.90    3.50
   6 -10  -5   10.50    4.50
  -6 -10   5   14.80    3.10
   6  10  -5    9.70    3.40
  -6  10   5   10.20    3.50
   5 -10  -5   32.70    6.20
   5 -10  -5   39.90    5.20
  -5 -10   5   39.40    4.60
   5  10  -5   35.20    4.60
  -5  10   5   36.30    5.30
   5  10  -5   24.60    3.60
   4 -10  -5  186.78    9.30
  -4 -10   5  180.28    7.90
  -4 -10   5  201.58    8.70
   4 -10  -5  133.19   12.40
  -4  10   5  189.98    8.90
  -4  10   5  180.28    8.40
   4  10  -5  176.18    8.60
   4  10  -5  187.28    8.80
   3 -10  -5   34.30    5.40
  -3 -10   5   33.90    3.60
   3 -10  -5   32.90    4.60
   3  10  -5   37.60    4.10
   3  10  -5   33.70    3.60
   3  10  -5   40.20    4.50
  -3  10   5   39.40    3.80
  -3  10   5   38.30    4.40
  -3  10   5   35.20    4.20
   2 -10  -5   -5.30    2.70
  -2 -10   5   -1.10    1.80
   2 -10  -5   -0.40    2.40
   2  10  -5   -0.20    2.00
   2  10  -5    3.30    1.80
  -2  10   5    0.00    2.10
  -2  10   5    0.50    1.80
   2  10  -5    3.00    2.20
  -2  10   5   -2.60    1.80
  -1 -10   5  137.79    9.60
   1 -10  -5  177.38    8.90
   1 -10  -5  178.38    9.60
  -1 -10   5  173.58    8.10
  -1  10   5  190.38    8.40
  -1  10   5  178.58    8.10
   1  10  -5  180.18    8.20
   1  10  -5  193.88    8.40
   1  10  -5  186.58    7.40
  -1  10   5  181.18    7.80
   0 -10  -5   52.59    5.80
   0 -10   5   50.49    5.70
   0 -10   5   62.89    4.40
   0 -10  -5   66.09    5.50
   0  10  -5   56.29    3.90
   0  10   5   43.60    4.20
   0  10   5   55.09    4.50
   0  10  -5   56.59    4.70
   0  10   5   54.99    3.70
   0  10  -5   51.19    4.50
   1 -10   5  411.66   17.30
   1 -10   5  412.76   16.40
  -1 -10  -5  429.46   17.40
   1  10   5  397.26   16.40
   1  10   5  417.36   18.20
   1  10   5  409.86   16.40
  -1  10  -5  426.46   16.10
  -1  10  -5  440.56   16.60
  -1  10  -5  441.16   16.70
   2 -10   5  345.37   15.10
   2 -10   5  337.57   13.90
  -2 -10  -5  359.56   15.10
  -2  10  -5  323.77   14.00
   2  10   5  315.57   13.60
   2  10   5  319.37   13.80
   2  10   5  347.47   15.90
  -2  10  -5  351.66   13.70
  -2  10  -5  336.87   13.70
   3 -10   5  182.08    8.80
   3 -10   5  172.78   10.30
  -3 -10  -5  163.58   10.00
   3  10   5  176.08   11.00
   3  10   5  188.98    8.80
  -3  10  -5  164.48    9.00
   3  10   5  181.78    8.70
  -3  10  -5  185.08    8.90
  -3  10  -5  176.98    8.60
  -4 -10  -5   28.70    5.10
   4 -10   5   35.30    6.70
   4 -10   5   38.60    4.70
   4  10   5   37.50    6.20
  -4  10  -5   33.30    5.20
  -4  10  -5   33.10    5.40
   4  10   5   30.00    4.70
   4  10   5   35.90    4.90
  -4  10  -5   34.70    4.70
   5 -10   5   17.20    3.60
   5 -10   5   14.60    5.10
  -5 -10  -5   17.30    4.70
  -5  10  -5   14.60    3.90
   5  10   5   22.90    3.70
   5  10   5   14.40    3.40
   5  10   5   14.50    5.40
   7 -11  -5    7.20    3.70
  -7 -11   5    8.10    4.10
   7 -11  -5    6.40    4.60
   7  11  -5    8.40    3.60
  -7  11   5    3.00    3.70
   6 -11  -5    6.70    4.80
   6 -11  -5    0.70    3.00
  -6 -11   5   -2.70    2.60
  -6  11   5   -3.70    3.00
   6  11  -5    2.90    2.80
   5 -11  -5   25.40    3.90
  -5 -11   5   18.30    3.10
   5 -11  -5   20.60    6.90
  -5  11   5   12.20    3.40
   5  11  -5   21.00    3.40
   5  11  -5   24.60    3.70
  -4 -11   5   62.49    5.20
   4 -11  -5   48.20    9.10
   4 -11  -5   68.49    5.80
  -4 -11   5   53.79    4.20
   4  11  -5   58.99    5.20
  -4  11   5   57.79    5.50
  -4  11   5   65.49    5.40
   4  11  -5   53.79    4.80
   3 -11  -5    4.80    2.70
   3 -11  -5   -1.80    3.00
  -3 -11   5    3.60    2.00
  -3  11   5    1.50    2.40
   3  11  -5    1.80    2.20
  -3  11   5    4.40    2.30
  -3  11   5    2.40    2.10
   3  11  -5    4.70    2.40
   3  11  -5    3.40    2.00
   2 -11  -5  227.08   11.40
  -2 -11   5  231.08    9.80
   2 -11  -5  225.88   10.70
  -2  11   5  230.18   10.10
  -2  11   5  222.48    9.80
   2  11  -5  219.08   10.00
   2  11  -5  239.48   10.10
  -2  11   5  223.38    9.80
   1 -11  -5   28.30    5.10
  -1 -11   5   24.60    3.60
   1 -11  -5   28.40    4.50
   1  11  -5   25.10    3.80
   1  11  -5   25.40    2.90
  -1  11   5   31.90    3.40
   1  11  -5   25.40    4.00
  -1  11   5   34.40    4.10
  -1  11   5   30.80    3.60
   0 -11   5   -2.60    1.80
   0 -11  -5   -0.60    3.20
   0 -11  -5    1.40    2.80
   0 -11   5   -2.00    2.70
   0  11   5    1.90    1.60
   0  11   5   -1.60    2.10
   0  11  -5   -1.30    2.00
   0  11  -5    1.50    1.80
   0  11   5    1.60    2.00
   0  11  -5   -2.90    2.10
   1 -11   5   60.69    6.00
   1 -11   5   48.50    4.50
  -1 -11  -5   56.89    5.80
  -1  11  -5   55.09    4.30
   1  11   5   60.19    6.60
   1  11   5   51.79    4.60
   1  11   5   58.89    4.60
  -1  11  -5   50.89    4.90
  -1  11  -5   56.19    5.00
   2 -11   5  397.76   17.90
  -2 -11  -5  415.36   17.70
   2 -11   5  443.46   16.80
   2  11   5  405.26   16.50
   2  11   5  420.46   18.90
   2  11   5  408.86   16.70
  -2  11  -5  422.36   16.50
  -2  11  -5  421.66   16.80
  -2  11  -5  438.16   16.80
   3 -11   5  181.98   10.50
   3 -11   5  178.68    8.80
  -3 -11  -5  172.28   10.30
  -3  11  -5  164.18    8.70
  -3  11  -5  169.48    8.80
  -3  11  -5  181.78    9.10
   3  11   5  182.68    8.90
   3  11   5  179.48   11.30
   3  11   5  162.08    8.50
  -4 -11  -5  130.29    9.40
   4 -11   5  132.69    7.50
   4 -11   5  127.99    9.80
   4  11   5  143.99   10.90
  -4  11  -5  126.99    7.80
  -4  11  -5  114.59    7.40
   4  11   5  128.29    7.60
  -4  11  -5  135.89    8.10
   4  11   5  130.99    7.50
   5 -11   5   34.10    5.30
  -5 -11  -5   16.60    5.00
   5 -11   5   17.50    5.40
   5  11   5   35.20    5.00
   5  11   5   28.40    3.90
   5  11   5   28.10    6.10
  -5  11  -5   26.20    4.40
   7 -12  -5    2.90    4.70
   7 -12  -5    8.20    4.80
  -7 -12   5    9.30    4.10
   7  12  -5   -2.80    3.10
  -7  12   5   -1.50    3.70
  -6 -12   5   19.30    4.00
   6 -12  -5   56.89   10.40
  -6 -12   5   20.30    3.60
   6 -12  -5   20.20    4.10
   6  12  -5   13.90    3.70
  -6  12   5   17.20    3.90
   5 -12  -5    1.60    2.90
   5 -12  -5    5.50    6.30
  -5 -12   5    1.50    2.60
  -5  12   5   -4.80    2.80
   5  12  -5   -3.20    2.30
   5  12  -5   -0.80    2.60
   4 -12  -5   77.89    6.20
   4 -12  -5   58.09    9.50
  -4 -12   5   67.89    4.70
  -4 -12   5   78.69    5.70
  -4  12   5   69.69    5.80
   4  12  -5   62.99    5.20
   4  12  -5   75.19    5.70
   3 -12  -5  452.95   17.80
  -3 -12   5  415.16   16.70
   3 -12  -5  416.46   18.90
  -3  12   5  430.06   17.10
   3  12  -5  414.96   17.00
   3  12  -5  433.66   17.00
  -3  12   5  454.25   17.30
  -3  12   5  434.46   16.80
   2 -12  -5   36.60    5.00
   2 -12  -5   27.40    5.50
  -2 -12   5   36.50    4.00
  -2  12   5   33.70    4.00
   2  12  -5   29.70    4.20
  -2  12   5   30.20    4.30
   2  12  -5   37.60    4.50
  -2  12   5   28.60    4.00
  -1 -12   5   11.80    2.70
   1 -12  -5    9.80    3.10
   1 -12  -5   15.00    3.90
  -1  12   5   10.30    2.50
   1  12  -5   14.90    2.80
  -1  12   5    9.80    2.70
   1  12  -5   15.60    2.00
   1  12  -5    9.40    2.60
  -1  12   5   13.00    2.30
   0 -12  -5   -0.30    2.80
   0 -12   5   -1.00    2.00
   0 -12  -5    5.40    3.50
   0 -12   5    3.50    3.30
   0  12  -5    4.70    2.40
   0  12   5    0.60    1.60
   0  12   5    0.70    2.00
   0  12  -5   -3.90    1.60
   0  12   5    1.10    2.10
   0  12  -5   -2.20    2.20
   1 -12   5   65.99    6.70
   1 -12   5   63.89    5.10
  -1 -12  -5   75.19    6.80
  -1  12  -5   65.79    5.40
   1  12   5   77.59    7.60
   1  12   5   63.19    5.10
  -1  12  -5   79.59    5.70
   1  12   5   77.49    5.10
  -1  12  -5   74.59    4.90
   2 -12   5   16.30    3.20
   2 -12   5   14.10    4.00
  -2 -12  -5   18.40    4.20
   2  12   5   29.90    5.20
  -2  12  -5   28.40    3.40
   2  12   5   22.40    3.30
  -2  12  -5   26.40    3.60
   2  12   5   22.40    3.10
  -2  12  -5   29.40    4.70
   3 -12   5    3.30    2.60
  -3 -12  -5    1.80    3.60
   3 -12   5    3.90    3.60
  -3  12  -5    4.30    2.80
  -3  12  -5    4.90    2.90
  -3  12  -5    6.90    3.00
   3  12   5    5.00    2.70
   3  12   5    3.50    2.50
   3  12   5    3.30    4.00
   4 -12   5   70.99    6.00
   4 -12   5   72.49    8.30
  -4 -12  -5   77.09    7.90
  -4  12  -5   69.29    6.20
   4  12   5   74.99    6.10
  -4  12  -5   69.89    6.00
  -4  12  -5   61.29    6.30
   4  12   5   67.89    5.70
   4  12   5   66.29    8.60
  -5 -12  -5   -3.30    4.10
   5 -12   5   -2.80    4.30
   5 -12   5    0.10    4.20
  -5  12  -5   -1.70    3.20
   5  12   5    0.30    2.70
   5  12   5   -0.10    4.40
   5  12   5    4.50    3.10
   7 -13  -5   19.90    5.80
  -7 -13   5   12.90    4.50
   7  13  -5   12.80    4.10
  -7  13   5    9.90    4.00
  -6 -13   5    3.00    3.40
   6 -13  -5    4.80    3.40
   6 -13  -5   14.60    6.10
  -6  13   5    5.20    3.60
   6  13  -5    1.20    3.10
   5 -13  -5   13.40    7.20
  -5 -13   5   13.20    3.10
   5 -13  -5    2.70    3.20
   5  13  -5   13.90    3.30
  -5  13   5    9.70    3.30
   5  13  -5    7.30    3.10
   4 -13  -5    9.20    3.20
   4 -13  -5    8.00    5.60
  -4 -13   5   15.40    3.00
  -4 -13   5    7.30    2.30
  -4  13   5   16.60    3.40
   4  13  -5   14.10    3.10
   3 -13  -5  226.48   12.40
  -3 -13   5  217.08   10.00
   3 -13  -5  220.88   11.00
  -3  13   5  246.28   10.80
  -3  13   5  233.08   10.50
   3  13  -5  242.58   10.50
  -3  13   5  229.38   10.20
   3  13  -5  223.38   10.40
   2 -13  -5  170.38   10.60
   2 -13  -5  192.08    9.70
  -2 -13   5  174.48    8.50
   2  13  -5  184.18    8.90
  -2  13   5  176.08    8.80
  -2  13   5  176.48    8.60
   2  13  -5  195.48    8.90
  -2  13   5  190.08    8.80
   1 -13  -5   20.80    3.70
  -1 -13   5   17.90    3.00
   1 -13  -5    9.40    3.80
   1  13  -5   21.80    3.20
  -1  13   5   21.00    3.10
  -1  13   5   18.40    2.60
  -1  13   5   28.50    4.00
   1  13  -5   22.70    3.20
   0 -13  -5  395.76   17.80
   0 -13   5  395.76   15.60
   0 -13  -5  388.06   16.60
   0  13   5  382.16   15.60
   0  13  -5  387.36   15.60
   0  13  -5  379.36   14.70
   0  13   5  377.56   15.50
   0  13  -5  393.06   15.80
   1 -13   5  299.77   12.50
   1 -13   5  287.57   14.40
  -1 -13  -5  287.17   13.50
  -1  13  -5  295.77   11.90
   1  13   5  281.07   12.50
  -1  13  -5  291.57   12.50
   1  13   5  269.87   12.10
  -1  13  -5  317.57   12.80
   2 -13   5   28.10    3.60
   2 -13   5   22.20    4.80
  -2 -13  -5   23.30    4.40
   2  13   5   32.60    5.50
  -2  13  -5   26.40    3.70
   2  13   5   22.90    3.10
   2  13   5   25.80    3.50
  -2  13  -5   29.70    4.30
  -2  13  -5   26.80    3.70
   3 -13   5   18.80    3.40
   3 -13   5   14.60    4.50
  -3 -13  -5   22.30    4.50
  -3  13  -5   22.30    3.80
   3  13   5   13.50    4.50
  -3  13  -5   13.10    3.50
   3  13   5   23.30    3.60
  -3  13  -5   21.50    3.50
   3  13   5   11.10    2.90
   4 -13   5    4.70    3.00
   4 -13   5   -4.30    3.60
  -4 -13  -5   -6.60    3.50
   4  13   5    0.40    2.60
   4  13   5    0.80    2.70
  -4  13  -5   -3.60    2.60
  -4  13  -5   -1.50    3.00
   4  13   5   -4.00    3.80
  -4  13  -5    1.70    2.90
   5 -13   5   -2.10    4.10
  -5  13  -5   -0.60    3.40
   5  13   5    0.50    5.20
   5  13   5   -1.30    2.60
   7 -14  -5   16.20    6.10
  -7 -14   5   13.40    4.40
   7  14  -5    7.60    3.80
  -6 -14   5   11.60    3.90
   6  14  -5   10.80    3.70
  -6  14   5    6.10    3.60
   5 -14  -5    0.10    2.90
  -5 -14   5   -4.40    2.50
   5 -14  -5   -2.40    8.90
  -5  14   5    6.00    3.20
   5  14  -5    1.10    3.00
   4 -14  -5   20.70    6.60
   4 -14  -5   41.90    5.50
  -4 -14   5   22.80    3.20
   4  14  -5   33.50    4.90
  -4  14   5   35.00    5.20
   3 -14  -5   51.39    6.90
   3 -14  -5   51.89    5.80
  -3 -14   5   51.39    4.80
  -3  14   5   53.09    5.40
  -3  14   5   44.20    4.80
   3  14  -5   52.09    5.10
   3  14  -5   58.29    5.20
  -3  14   5   55.99    5.40
  -2 -14   5    7.10    2.50
   2 -14  -5    3.90    3.60
   2 -14  -5    7.40    3.10
  -2  14   5    3.60    2.40
  -2  14   5    9.40    2.50
   2  14  -5    4.60    2.60
   2  14  -5    7.80    2.80
  -2  14   5    3.00    2.40
   1 -14  -5  125.89    9.30
   1 -14  -5  129.29    7.90
  -1 -14   5  131.69    7.20
  -1  14   5  126.49    6.60
   1  14  -5  127.59    7.20
  -1  14   5  129.59    7.00
   1  14  -5  135.09    7.20
  -1  14   5  117.29    7.10
   0 -14   5   53.09    4.80
   0 -14  -5   50.09    7.30
   0 -14  -5   49.30    5.80
   0  14  -5   47.70    3.90
   0  14   5   53.09    4.70
   0  14   5   51.49    4.80
   0  14  -5   45.00    5.00
   0  14  -5   45.30    4.80
  -1 -14  -5    7.30    4.20
  -1 -14  -5    9.50    3.50
   1 -14   5    6.20    4.30
   1 -14   5   11.90    2.90
  -1  14  -5    3.80    2.20
   1  14   5    5.90    2.50
  -1  14  -5   11.50    3.00
   1  14   5   11.80    2.70
  -1  14  -5    9.30    3.00
   2 -14   5   17.90    4.70
  -2 -14  -5   27.60    4.70
   2 -14   5   20.90    3.30
   2  14   5   24.60    5.40
  -2  14  -5   31.80    4.00
   2  14   5   24.10    3.60
  -2  14  -5   22.10    3.20
  -2  14  -5   23.50    3.70
   2  14   5   29.00    4.20
   3 -14   5   20.20    5.10
   3 -14   5   22.20    3.70
  -3 -14  -5   24.10    4.80
   3  14   5   26.50    5.80
  -3  14  -5   27.00    3.90
   3  14   5   25.50    3.80
   3  14   5   26.10    4.10
  -3  14  -5   23.90    3.60
  -3  14  -5   23.10    4.00
   4 -14   5   16.60    5.10
  -4 -14  -5   10.80    4.70
   4 -14   5   15.40    3.60
  -4  14  -5   14.30    3.70
  -4  14  -5    8.80    3.30
  -4  14  -5   10.20    3.70
   4  14   5   11.70    5.20
   4  14   5    7.70    2.90
   4  14   5   12.00    3.30
   6 -15  -5   73.59   13.50
  -6 -15   5   53.29    6.90
  -6  15   5   55.49    7.10
   5 -15  -5  102.89   17.80
   5 -15  -5   54.99    6.50
  -5 -15   5   51.89    5.60
  -5  15   5   78.79    6.70
   5  15  -5   59.89    6.10
  -4 -15   5   23.30    3.40
   4 -15  -5   25.50    4.20
   4 -15  -5   26.50    6.80
  -4  15   5   35.30    4.40
   4  15  -5   37.30    5.00
  -3 -15   5   36.00    4.50
   3 -15  -5   27.00    5.60
   3 -15  -5   30.30    4.30
  -3  15   5   26.40    3.60
  -3  15   5   33.10    4.50
   3  15  -5   31.70    4.60
  -3  15   5   21.60    3.60
   3  15  -5   35.30    4.80
  -2 -15   5  307.77   13.30
   2 -15  -5  336.57   14.40
   2 -15  -5  306.97   15.60
  -2  15   5  298.57   13.30
  -2  15   5  318.17   13.40
   2  15  -5  329.37   13.30
  -2  15   5  314.17   13.40
   2  15  -5  308.47   13.40
  -1 -15   5    2.90    2.30
   1 -15  -5    5.40    3.20
   1 -15  -5    0.20    3.50
  -1  15   5    0.50    2.10
   1  15  -5    2.80    2.60
  -1  15   5    1.80    2.30
  -1  15   5    2.90    2.50
   1  15  -5    0.30    2.50
   0 -15  -5  582.74   25.00
   0 -15   5  578.94   22.50
   0 -15  -5  605.24   23.50
   0  15   5  564.64   22.20
   0  15  -5  577.54   22.50
   0  15   5  582.74   22.60
   0  15  -5  571.44   22.30
   0  15  -5  587.64   21.40
  -1 -15  -5   18.80    5.00
   1 -15   5   19.70    3.30
  -1 -15  -5   17.00    4.10
  -1  15  -5   19.20    3.50
   1  15   5   18.70    3.00
   1  15   5   10.10    2.90
  -1  15  -5   25.80    3.80
  -1  15  -5   12.70    3.30
  -2 -15  -5    4.90    3.70
   2 -15   5   -3.10    3.70
   2 -15   5    6.60    2.90
  -2  15  -5    1.70    2.90
  -2  15  -5    3.90    2.40
   2  15   5    7.80    2.50
   2  15   5    8.20    2.90
  -2  15  -5    4.70    2.90
   3 -15   5   52.79    5.50
  -3 -15  -5   51.49    7.60
   3 -15   5   41.50    7.70
   3  15   5   45.20    5.60
  -3  15  -5   47.80    5.30
   3  15   5   55.69    8.40
   3  15   5   55.19    5.00
  -3  15  -5   56.79    6.00
  -3  15  -5   58.89    6.10
  -4 -15  -5    4.10    4.60
   4 -15   5   -0.30    4.10
   4 -15   5    3.70    3.10
   4  15   5    2.70    3.00
   4  15   5    3.60    4.70
  -4  15  -5   -1.10    3.10
  -4  15  -5    4.20    3.00
  -4  15  -5   -4.30    2.90
   4  15   5   -0.60    2.30
   6 -16  -5   25.10    8.70
  -5 -16   5   37.70    4.50
   5 -16  -5   37.90   11.10
   5  16  -5   37.70    5.70
  -5  16   5   36.40    5.00
   4 -16  -5   -8.20    7.70
  -4 -16   5   20.10    3.40
   4 -16  -5   22.50    4.00
   4  16  -5   24.50    3.80
  -4  16   5   26.90    4.10
   3 -16  -5   67.39    8.00
  -3 -16   5   67.39    5.70
   3 -16  -5   71.59    6.80
  -3  16   5   73.49    6.10
   3  16  -5   76.29    5.90
  -3  16   5   72.79    6.30
   3  16  -5   71.59    5.80
  -3  16   5   68.59    5.70
  -2 -16   5  142.39    7.70
   2 -16  -5  139.39   10.30
   2 -16  -5  140.19    8.80
  -2  16   5  125.89    7.70
   2  16  -5  145.09    7.80
   2  16  -5  140.19    7.90
  -2  16   5  131.59    7.70
  -2  16   5  138.89    7.90
   1 -16  -5   93.99    7.50
  -1 -16   5  108.39    6.60
   1 -16  -5  104.59    9.00
  -1  16   5   88.89    6.10
   1  16  -5   99.19    6.70
  -1  16   5  107.99    6.70
  -1  16   5   87.89    6.00
   1  16  -5  101.59    6.60
   0 -16  -5    4.90    4.20
   0 -16  -5   11.70    3.70
   0 -16   5   10.50    3.00
   0  16  -5    9.00    2.20
   0  16   5   10.70    3.00
   0  16  -5    9.30    3.00
   0  16  -5   11.60    3.10
   0  16   5   10.40    2.70
   1 -16   5   87.69    6.20
  -1 -16  -5   79.49    7.40
  -1 -16  -5   88.89    9.30
  -1  16  -5   83.79    5.40
   1  16   5   77.49    5.60
   1  16   5   76.59    6.30
  -1  16  -5   90.89    6.60
  -1  16  -5   77.99    6.20
  -2 -16  -5   17.10    4.40
   2 -16   5    8.90    3.10
  -2  16  -5    0.40    3.10
   2  16   5    6.20    3.00
  -2  16  -5    9.80    2.90
   2  16   5    9.10    2.70
  -2  16  -5    5.70    2.90
  -3 -16  -5    4.20    4.10
   3 -16   5   -9.80    6.00
   3 -16   5   -0.10    2.70
  -3  16  -5   -3.40    2.90
   3  16   5    1.50    2.80
   3  16   5    2.00    4.50
   3  16   5    0.70    2.40
  -3  16  -5    4.70    2.80
  -3  16  -5    5.80    3.30
   4 -16   5   45.50    5.70
   4 -16   5   39.20    8.50
   4  16   5   31.80    4.50
  -4  16  -5   43.10    6.00
  -4  16  -5   23.70    4.50
  -4  16  -5   26.30    4.20
  -5 -17   5   25.70    4.70
   5 -17  -5   24.00   10.00
  -5  17   5   21.40    4.30
  -4 -17   5   41.00    5.00
   4 -17  -5   52.49    9.50
   4  17  -5   55.19    5.90
  -4  17   5   54.99    6.30
   3 -17  -5   -9.80    4.20
  -3 -17   5   -0.70    2.60
   3 -17  -5    2.60    3.20
  -3  17   5    3.90    2.80
  -3  17   5   -2.50    2.50
  -3  17   5    2.00    2.80
   3  17  -5   -2.10    2.50
  -2 -17   5    4.50    2.70
   2 -17  -5   -3.70    3.30
   2 -17  -5    3.90    3.20
  -2  17   5    0.10    2.40
   2  17  -5    0.70    2.70
  -2  17   5   -1.30    2.30
  -2  17   5   -1.40    2.40
   1 -17  -5    6.00    3.50
   1 -17  -5    5.60    4.30
  -1 -17   5    1.60    2.60
  -1  17   5    9.10    3.00
   1  17  -5    5.20    2.90
  -1  17   5    8.20    2.70
  -1  17   5    7.60    2.80
   0 -17  -5  114.29   10.00
   0 -17   5  126.09    7.50
   0 -17  -5  124.39    8.60
   0  17   5  112.69    7.40
   0  17  -5  133.69    7.90
   0  17   5  121.99    7.00
   0  17  -5  125.59    6.20
  -1 -17  -5   74.59    7.40
   1 -17   5   81.39    6.20
  -1 -17  -5   71.79    8.90
  -1  17  -5   85.79    6.80
  -1  17  -5   75.79    5.20
   1  17   5   69.39    6.20
   1  17   5   73.89    5.60
   2 -17   5  149.39    8.70
  -2 -17  -5  166.28   12.20
  -2 -17  -5  166.58   10.40
   2  17   5  154.38    8.00
   2  17   5  138.19    8.80
  -2  17  -5  151.98    8.00
  -2  17  -5  152.58    8.90
  -3 -17  -5    8.00    4.40
   3 -17   5    8.80    3.30
  -3  17  -5   14.50    3.30
   3  17   5   10.30    2.90
   3  17   5    8.30    3.40
  -3  17  -5    3.30    3.50
   5 -18  -5   12.70   10.00
  -5  18   5   -1.90    5.60
  -4 -18   5   -1.90    2.60
   4 -18  -5  -10.30    6.90
   4  18  -5    7.10    3.10
  -4  18   5    0.50    3.10
  -3 -18   5   22.20    3.90
   3 -18  -5   18.00    5.80
   3 -18  -5   29.10    7.60
  -3  18   5   19.20    3.80
  -3  18   5   24.50    3.90
   3  18  -5   24.10    3.90
  -3  18   5   21.10    3.70
   2 -18  -5  264.67   15.50
   2 -18  -5  282.37   13.40
  -2 -18   5  272.57   12.50
  -2  18   5  271.07   12.50
  -2  18   5  269.37   12.40
   2  18  -5  277.77   12.60
  -2  18   5  262.17   12.30
   1 -18  -5  261.97   13.00
  -1 -18   5  278.87   12.30
   1 -18  -5  270.37   15.40
   1  18  -5  270.17   12.40
  -1  18   5  268.37   11.90
  -1  18   5  249.58   12.20
   0 -18  -5   76.69    7.50
   0 -18   5   70.69    6.20
   0 -18  -5   83.19    9.10
   0  18  -5   70.99    6.40
   0  18   5   58.79    5.40
   0  18  -5   73.99    4.70
   0  18   5   78.19    6.30
  -1 -18  -5   35.80    6.60
   1 -18   5   34.10    5.00
  -1 -18  -5   24.30    4.70
  -1  18  -5   29.20    4.10
   1  18   5   26.50    4.10
   1  18   5   26.40    3.50
  -1  18  -5   28.00    4.30
  -2 -18  -5  136.89   12.00
  -2 -18  -5  143.59    9.80
   2 -18   5  130.19    8.30
  -2  18  -5  128.09    7.50
   2  18   5  134.79    7.50
  -2  18  -5  142.59    8.80
   2  18   5  140.99    8.60
   3 -18   5   -1.00    2.90
  -3  18  -5    4.00    3.90
  -3  18  -5    1.20    2.80
   4 -19  -5   44.00   10.20
  -4 -19   5   53.19    5.70
  -4  19   5   70.99    7.90
   4  19  -5   60.29    6.30
  -4  19   5   55.49    6.70
   3 -19  -5   -2.60    5.00
  -3 -19   5    6.60    3.40
  -3  19   5   10.40    3.30
  -3  19   5    4.40    3.20
  -3  19   5    9.70    3.40
   3  19  -5    7.50    3.20
  -2 -19   5   55.69    5.90
   2 -19  -5   50.39    6.70
   2 -19  -5   55.29    8.70
  -2  19   5   61.19    5.80
   2  19  -5   55.29    6.10
  -2  19   5   48.10    5.80
  -2  19   5   50.19    5.70
   1 -19  -5   15.90    4.10
  -1 -19   5   17.00    3.50
   1 -19  -5   11.70    5.10
  -1  19   5    9.10    2.90
  -1  19   5   13.00    3.30
   1  19  -5    6.40    3.20
   0 -19  -5    9.80    3.90
   0 -19  -5    5.30    5.00
   0 -19   5    4.40    3.10
   0  19  -5    1.10    2.00
   0  19   5    3.20    3.00
   0  19  -5    3.10    3.20
   0  19   5    6.50    2.60
  -1 -19  -5   19.40    6.00
   1 -19   5   34.90    5.40
  -1 -19  -5   29.40    5.20
   1  19   5   36.10    4.40
  -1  19  -5   38.10    4.30
  -1  19  -5   29.10    4.50
   1  19   5   37.80    5.50
  -2 -19  -5   78.29   10.10
   2 -19   5   87.99    7.60
  -2 -19  -5   85.09    8.40
  -2  19  -5   85.39    8.00
  -2  19  -5   72.69    6.40
   2  19   5   86.19   10.60
  -3 -20   5   33.50    4.60
   3 -20  -5   40.30    7.60
  -3  20   5   33.90    5.40
  -3  20   5   38.70    5.60
  -3  20   5   38.30    5.70
   3  20  -5   36.10    4.60
  -2 -20   5    3.70    3.10
   2 -20  -5    3.60    4.60
  -2  20   5    1.40    3.10
  -2  20   5    2.00    2.80
   2  20  -5    3.40    3.00
  -2  20   5    3.70    2.90
  -1 -20   5   -0.90    2.80
   1 -20  -5    4.40    3.60
   1 -20  -5    4.80    4.80
  -1  20   5   -4.70    2.40
  -1  20   5   -1.30    2.80
   1  20  -5    0.00    3.10
   0 -20  -5    7.10    3.90
   0 -20  -5    4.00    4.80
   0 -20   5    2.40    3.10
   0  20   5    0.30    2.40
   0  20   5    6.50    3.10
   0  20  -5    4.90    3.40
  -1 -20  -5  126.59    9.20
  -1 -20  -5  115.09   11.60
   2 -21  -5    8.20    7.10
  -2  21   5   13.70    3.80
  -2  21   5   10.50    3.60
   2  21  -5    7.80    5.40
   1 -21  -5  104.69   12.20
  -1  21   5   82.99    9.50
   0 -21  -5   -1.70    3.30
   8   0  -6    0.70    3.70
  -8   0   6   -1.10    3.30
   8   0  -6    3.40    3.10
  -8   0   6   -1.10    3.50
   7   0  -6  238.38   10.80
  -7   0   6  227.88   10.90
  -7   0   6  229.98   11.50
   7   0  -6  224.98   12.00
  -6   0   6   17.60    3.50
   6   0  -6   25.40    4.10
  -6   0   6   22.80    3.60
   6   0  -6   33.20    4.50
   5   0  -6   -0.80    2.20
   5   0  -6    0.20    2.70
   5   0  -6    2.80    2.30
  -5   0   6    3.10    2.40
  -4   0   6    0.10    2.10
   4   0  -6    2.60    2.50
   4   0  -6    4.50    2.10
  -4   0   6   -0.40    1.90
   4   0  -6    0.30    2.00
  -3   0   6   85.89    4.50
   3   0  -6   86.39    5.20
  -3   0   6   85.19    5.10
   3   0  -6   83.99    5.60
  -2   0   6   99.49    5.20
   2   0  -6   94.29    5.70
   2   0  -6  101.49    5.50
  -2   0   6   98.99    5.00
   2   0  -6  100.49    5.50
   1   0  -6   24.00    3.70
   1   0  -6   22.00    3.40
   1   0  -6   27.40    3.30
  -1   0   6   27.30    3.10
  -1   0   6   28.50    3.00
   0   0   6  588.74   22.70
   0   0  -6  631.94   23.10
   0   0   6  664.53   22.60
   0   0  -6  642.64   23.10
   0   0  -6  638.94   23.00
   0   0   6  569.24   22.80
   0   0   6  624.94   23.20
  -1   0  -6  219.18    9.70
   1   0   6  232.48   10.00
   1   0   6  228.58    8.90
   1   0   6  214.88    9.80
   1   0   6  217.08    9.50
  -1   0  -6  221.98    9.70
  -1   0  -6  227.08    9.80
   2   0   6   -3.40    2.40
   2   0   6    1.00    2.40
  -2   0  -6    1.60    2.30
   2   0   6   -1.90    1.80
  -2   0  -6    3.00    2.50
  -2   0  -6    1.60    2.30
   3   0   6    1.10    3.00
  -3   0  -6   -0.60    2.60
   3   0   6    2.00    2.20
  -3   0  -6   -1.20    2.60
   3   0   6    1.40    4.10
  -4   0  -6    7.80    3.30
   4   0   6   10.20    2.70
  -4   0  -6    4.70    3.20
   4   0   6    8.30    4.00
   5   0   6   12.70    4.70
   5   0   6   10.20    3.10
  -5   0  -6   11.10    3.80
  -6   0  -6   25.10    4.80
   6   0   6   16.50    5.40
   8  -1  -6    0.10    2.90
  -8  -1   6    3.50    3.30
  -8  -1   6   -1.20    3.50
   8  -1  -6    1.70    4.00
  -8   1   6    4.10    3.80
  -8   1   6    3.60    3.40
   8   1  -6    0.10    2.70
   8   1  -6   -8.50    3.30
  -7  -1   6    2.50    2.90
   7  -1  -6    6.70    3.10
   7  -1  -6    5.80    3.60
  -7  -1   6    6.00    3.60
   7   1  -6    5.30    2.70
  -7   1   6    6.60    3.50
  -7   1   6    6.00    3.30
   7   1  -6    1.70    3.40
  -6  -1   6  575.34   22.10
   6  -1  -6  568.14   23.00
   6  -1  -6  596.14   22.00
   6   1  -6  574.14   21.70
   6   1  -6  571.94   23.00
  -6   1   6  572.34   22.20
  -6   1   6  569.14   22.40
   5  -1  -6    1.60    2.30
   5  -1  -6   -1.00    2.60
   5  -1  -6   -0.10    2.30
  -5  -1   6    1.50    2.40
  -5   1   6   -2.00    2.40
   5   1  -6    1.90    2.30
   5   1  -6    1.80    2.20
   5   1  -6    4.20    2.70
   4  -1  -6   48.70    4.90
   4  -1  -6   44.70    4.20
  -4  -1   6   38.20    4.10
  -4  -1   6   39.00    3.40
   4  -1  -6   43.10    4.10
   4   1  -6   43.70    4.60
   4   1  -6   54.29    4.50
   4   1  -6   46.10    4.10
  -4   1   6   39.40    4.10
   3  -1  -6  193.78    8.30
  -3  -1   6  181.78    8.30
  -3  -1   6  187.58    7.80
   3  -1  -6  174.58    8.30
   3  -1  -6  192.68    9.00
   3   1  -6  195.58    8.50
  -3   1   6  193.58    7.80
  -3   1   6  184.78    8.30
   3   1  -6  192.48    8.90
  -2  -1   6  391.16   14.80
   2  -1  -6  379.96   15.10
   2  -1  -6  397.16   15.10
   2  -1  -6  394.16   15.60
  -2  -1   6  394.96   15.00
   2   1  -6  396.96   15.00
   2   1  -6  388.06   15.20
  -2   1   6  394.46   15.00
  -2   1   6  385.76   14.80
   2   1  -6  406.56   15.50
   1  -1  -6  360.86   14.20
   1  -1  -6  379.06   14.30
  -1  -1   6  384.26   14.10
   1  -1  -6  379.96   14.70
  -1  -1   6  346.87   14.10
   1   1  -6  369.76   14.50
   1   1  -6  376.36   14.50
  -1   1   6  342.27   14.00
   1   1  -6  354.46   14.20
  -1   1   6  384.56   14.00
  -1   1   6  375.96   14.50
   0  -1   6    1.20    1.60
   0  -1  -6    4.20    2.30
   0  -1   6    2.40    1.60
   0  -1  -6    2.80    2.00
   0  -1  -6    4.50    2.10
   0   1   6    7.70    2.30
   0   1  -6    3.90    2.00
   0   1   6    3.60    1.80
   0   1  -6    5.40    2.10
   0   1   6    1.90    1.50
   0   1   6    2.80    1.70
   0   1  -6    5.30    2.20
  -1  -1  -6  377.36   15.20
   1  -1   6  403.06   14.50
   1  -1   6  373.06   15.20
  -1  -1  -6  385.26   15.10
   1  -1   6  362.76   14.90
  -1  -1  -6  381.96   15.10
  -1   1  -6  377.36   15.00
   1   1   6  368.36   14.90
   1   1   6  400.96   15.40
   1   1   6  403.96   14.30
  -1   1  -6  381.36   15.00
   1   1   6  397.46   15.40
  -1   1  -6  382.86   15.20
   2  -1   6   14.90    3.20
  -2  -1  -6   19.00    3.10
   2  -1   6   18.50    2.70
  -2  -1  -6   13.00    2.80
  -2   1  -6   12.40    2.80
   2   1   6   16.60    3.40
   2   1   6   15.40    3.10
  -2   1  -6   14.20    3.00
   2   1   6   18.90    2.80
  -2   1  -6   13.30    2.70
   3  -1   6    2.30    3.10
  -3  -1  -6   -0.70    2.70
   3  -1   6    2.00    2.20
  -3  -1  -6    2.50    2.70
   3   1   6    4.20    3.30
   3   1   6   -0.50    2.10
  -3   1  -6    2.00    2.80
   3   1   6   -0.20    2.60
  -3   1  -6    0.20    2.60
   4  -1   6   13.50    3.00
  -4  -1  -6   17.70    3.70
   4  -1   6   19.00    4.50
  -4  -1  -6   20.10    4.00
   4   1   6   25.50    4.90
   4   1   6   16.50    3.90
  -4   1  -6   12.40    3.60
   4   1   6   22.40    3.30
  -5  -1  -6   10.20    3.70
   5  -1   6   10.30    4.50
   5  -1   6   16.30    3.30
   5   1   6   19.40    5.20
   5   1   6   17.30    3.40
  -5   1  -6   15.90    3.90
  -6  -1  -6   22.30    4.60
   6  -1   6   27.70    5.90
  -6   1  -6   25.40    5.30
   6   1   6   22.00    5.80
  -8  -2   6   39.50    5.80
   8  -2  -6   41.30    6.70
  -8  -2   6   45.00    6.80
   8  -2  -6   43.90    5.80
   8   2  -6   38.90    5.10
  -8   2   6   39.20    5.80
   8   2  -6   47.50    7.30
  -8   2   6   33.30    5.20
   7  -2  -6    2.60    2.90
  -7  -2   6    0.30    2.80
   7  -2  -6   -1.00    3.30
  -7  -2   6   -2.20    3.10
   7   2  -6    6.30    2.70
   7   2  -6    1.90    3.50
  -7   2   6   -0.70    3.20
  -7   2   6   -2.60    2.90
   6  -2  -6    3.80    3.20
  -6  -2   6    1.50    2.70
   6  -2  -6    2.80    2.70
  -6   2   6    3.90    2.90
   6   2  -6    0.40    2.30
   6   2  -6    7.60    3.30
  -6   2   6    5.50    2.90
   5  -2  -6   80.59    6.00
   5  -2  -6   74.49    5.50
  -5  -2   6   80.19    5.50
   5  -2  -6   68.69    5.40
   5   2  -6   66.29    5.40
   5   2  -6   70.69    4.90
  -5   2   6   80.19    5.50
   5   2  -6   68.39    6.00
  -4  -2   6  201.68    9.10
   4  -2  -6  209.58    9.10
  -4  -2   6  194.08    8.20
   4  -2  -6  201.58    9.10
   4  -2  -6  196.78    9.80
   4   2  -6  211.08    8.80
   4   2  -6  213.38    9.30
  -4   2   6  214.68    9.30
   4   2  -6  213.58    9.70
   3  -2  -6  298.87   12.80
  -3  -2   6  309.57   11.70
   3  -2  -6  310.47   12.20
  -3  -2   6  295.57   12.20
   3  -2  -6  308.77   12.10
  -3   2   6  300.77   12.20
   3   2  -6  301.97   12.40
   3   2  -6  298.37   12.60
  -3   2   6  309.57   11.70
  -2  -2   6  222.68    9.00
   2  -2  -6  201.98    9.70
  -2  -2   6  224.78    9.30
   2  -2  -6  216.48    9.40
   2  -2  -6  206.78    9.20
   2   2  -6  227.78    9.50
   2   2  -6  221.58    9.10
   2   2  -6  237.78    9.60
  -2   2   6  217.88    9.00
  -2   2   6  226.38    9.20
   1  -2  -6   71.79    4.70
   1  -2  -6   69.79    5.10
  -1  -2   6   81.69    4.60
   1  -2  -6   72.59    4.80
  -1  -2   6   73.09    4.40
   1   2  -6   80.09    5.10
   1   2  -6   80.19    5.00
  -1   2   6   80.99    4.50
   1   2  -6   74.09    4.60
  -1   2   6   78.29    5.20
  -1   2   6   74.59    4.30
   0  -2  -6   -1.90    1.80
   0  -2  -6    4.50    2.40
   0  -2  -6   -1.00    1.90
   0  -2   6    1.40    1.60
   0  -2   6    5.10    1.80
   0   2   6    0.30    2.00
   0   2   6    2.60    1.70
   0   2  -6    4.40    2.20
   0   2   6    6.50    1.60
   0   2  -6    1.70    2.00
   0   2  -6    2.50    2.00
   0   2   6    3.40    1.90
   1  -2   6   27.40    3.00
   1  -2   6   25.70    3.70
  -1  -2  -6   30.00    4.10
   1  -2   6   27.10    2.90
  -1  -2  -6   25.60    3.80
  -1  -2  -6   34.60    3.90
   1   2   6   29.40    3.60
   1   2   6   24.20    3.20
   1   2   6   24.80    4.00
  -1   2  -6   29.50    3.70
   1   2   6   27.20    2.60
  -1   2  -6   24.90    3.70
  -1   2  -6   26.60    3.90
   2  -2   6    4.00    2.70
  -2  -2  -6    4.10    2.50
   2  -2   6    4.60    2.10
  -2  -2  -6    1.90    2.60
   2   2   6    0.20    2.50
  -2   2  -6    1.90    2.40
  -2   2  -6    3.40    2.30
   2   2   6    3.40    2.80
   2   2   6    3.10    2.10
  -2   2  -6    6.10    2.60
   3  -2   6   24.70    4.30
   3  -2   6   24.70    3.30
  -3  -2  -6   31.30    4.90
  -3  -2  -6   32.10    3.80
   3   2   6   28.80    4.10
   3   2   6   29.10    5.70
  -3   2  -6   23.80    3.70
   3   2   6   27.90    3.90
   4  -2   6    4.50    2.50
   4  -2   6    3.50    3.50
  -4  -2  -6    6.90    3.40
  -4  -2  -6    6.10    3.20
   4   2   6   -0.10    2.40
   4   2   6    7.00    3.20
  -4   2  -6    2.00    3.10
   4   2   6    7.40    3.90
  -5  -2  -6   11.70    3.80
   5  -2   6    9.60    4.40
  -5  -2  -6   14.80    4.20
   5  -2   6   11.10    3.10
   5   2   6    9.80    3.60
  -5   2  -6   10.70    4.00
   5   2   6   14.10    5.00
   5   2   6    4.70    3.00
  -6  -2  -6    9.50    4.00
   6  -2   6    5.10    4.50
  -6   2  -6    4.50    6.20
   6   2   6    4.50    4.80
   8  -3  -6    7.20    4.10
  -8  -3   6    0.40    3.60
   8  -3  -6    4.50    3.30
  -8  -3   6    7.90    3.40
   8   3  -6    6.30    4.30
   8   3  -6    3.50    2.80
  -8   3   6    7.70    3.80
  -8   3   6   -2.20    3.40
  -7  -3   6   -3.70    2.70
   7  -3  -6   -1.90    3.30
   7  -3  -6   -6.20    2.70
  -7  -3   6    0.00    3.40
   7   3  -6    0.20    3.30
  -7   3   6   -1.00    3.20
  -7   3   6    2.30    3.20
   7   3  -6   -2.00    2.30
   6  -3  -6  104.69    7.90
  -6  -3   6  127.89    7.20
   6  -3  -6  115.49    7.30
  -6   3   6  126.09    7.50
   6   3  -6  125.09    6.50
   6   3  -6  134.49    8.00
  -6   3   6  121.09    7.50
   5  -3  -6   78.99    6.20
  -5  -3   6   81.79    5.70
   5  -3  -6   83.49    5.90
   5   3  -6   88.89    6.30
  -5   3   6   90.59    5.90
   5   3  -6   87.09    5.20
   5   3  -6   84.39    5.90
   4  -3  -6   -1.50    2.40
   4  -3  -6   -0.90    2.10
  -4  -3   6    4.20    2.20
   4  -3  -6    0.20    1.90
  -4  -3   6   -0.90    1.50
   4   3  -6    3.40    2.50
   4   3  -6    1.50    1.80
   4   3  -6   -0.70    2.10
  -4   3   6    0.90    2.20
   3  -3  -6  643.64   23.50
   3  -3  -6  650.83   23.80
  -3  -3   6  633.94   23.60
   3  -3  -6  630.54   24.20
  -3  -3   6  632.04   23.20
   3   3  -6  640.54   23.80
  -3   3   6  624.54   23.10
  -3   3   6  656.73   23.70
   3   3  -6  648.04   24.00
  -2  -3   6    2.50    1.70
   2  -3  -6   -2.00    1.80
  -2  -3   6    0.80    1.70
   2  -3  -6   -0.50    2.20
   2  -3  -6   -0.70    1.70
   2   3  -6    2.10    2.10
   2   3  -6    1.60    1.80
  -2   3   6   -1.10    1.50
  -2   3   6    3.60    1.80
   2   3  -6    4.50    2.10
  -2   3   6    1.50    2.20
   1  -3  -6  150.38    7.00
   1  -3  -6  156.38    7.20
  -1  -3   6  152.88    6.90
   1  -3  -6  157.08    7.00
  -1  -3   6  148.89    6.90
   1  -3  -6  143.79    7.60
  -1   3   6  147.49    7.40
   1   3  -6  159.88    7.50
  -1   3   6  160.18    6.80
   1   3  -6  158.68    7.20
   1   3  -6  153.18    7.00
  -1   3   6  145.09    6.90
   0  -3   6  185.38    7.60
   0  -3  -6  168.68    7.70
   0  -3  -6  171.58    7.90
   0  -3  -6  169.08    8.40
   0  -3   6  175.78    7.70
   0   3   6  174.98    8.30
   0   3  -6  179.88    8.20
   0   3   6  162.08    7.60
   0   3  -6  175.78    7.80
   0   3   6  173.28    7.20
   0   3  -6  176.88    7.80
   0   3   6  173.18    8.10
   1  -3   6   94.79    5.70
  -1  -3  -6   98.49    6.10
   1  -3   6   93.59    5.40
  -1  -3  -6  101.49    5.60
  -1  -3  -6   99.59    5.70
  -1   3  -6   93.39    5.90
  -1   3  -6   95.59    5.40
   1   3   6   94.99    4.50
   1   3   6  103.79    6.10
  -1   3  -6   87.79    5.60
   1   3   6   97.49    5.40
   1   3   6   91.79    6.10
  -1   3  -6   99.59    5.30
  -2  -3  -6    3.80    3.00
  -2  -3  -6    8.40    2.50
   2  -3   6    8.60    2.90
   2  -3   6    7.90    2.30
  -2   3  -6    6.20    2.10
   2   3   6    6.00    2.80
  -2   3  -6    8.70    2.70
   2   3   6    7.70    2.30
  -2   3  -6   16.70    2.80
   2   3   6    5.40    2.90
  -2   3  -6    8.20    2.50
   3  -3   6    0.40    2.20
  -3  -3  -6    3.60    2.60
  -3  -3  -6    2.20    3.10
   3  -3   6    3.20    3.00
  -3   3  -6    3.40    2.80
   3   3   6    4.60    2.90
   3   3   6    3.40    2.40
   3   3   6    0.70    3.30
   4  -3   6   21.20    4.60
  -4  -3  -6   21.20    4.30
  -4  -3  -6   18.90    3.70
   4  -3   6   25.30    3.50
   4   3   6   22.20    3.90
   4   3   6   25.00    3.50
  -4   3  -6   30.60    4.30
   4   3   6   20.90    5.00
  -5  -3  -6   10.30    3.60
  -5  -3  -6   15.50    4.30
   5  -3   6   10.20    4.40
   5  -3   6   14.20    3.30
   5   3   6    9.70    4.80
   5   3   6   15.20    4.10
   5   3   6   13.00    3.40
  -5   3  -6   16.00    4.10
  -6  -3  -6    7.20    3.90
   6  -3   6    8.10    4.70
   6   3   6    5.50    5.10
   6   3   6    2.20    3.60
  -8  -4   6   20.00    4.60
  -8  -4   6   19.40    4.00
   8  -4  -6   19.50    4.10
   8  -4  -6   20.30    4.80
   8   4  -6   18.40    3.10
  -8   4   6   30.00    4.80
   8   4  -6   19.60    4.70
  -8   4   6   16.40    4.30
  -7  -4   6   47.20    5.50
   7  -4  -6   46.10    6.40
  -7  -4   6   43.70    6.20
   7  -4  -6   42.10    5.70
  -7   4   6   42.60    5.70
   7   4  -6   38.60    4.40
  -7   4   6   46.60    5.90
   7   4  -6   37.50    6.30
   6  -4  -6   10.70    3.50
   6  -4  -6   14.90    3.20
  -6  -4   6    8.00    3.00
   6   4  -6   15.80    2.60
   6   4  -6    6.60    3.30
  -6   4   6   12.90    3.40
  -6   4   6   10.60    3.20
  -5  -4   6  295.67   12.70
   5  -4  -6  300.77   12.90
   5  -4  -6  294.47   13.50
   5   4  -6  300.47   13.40
   5   4  -6  313.17   13.00
   5   4  -6  317.17   12.10
  -5   4   6  318.67   13.00
  -4  -4   6  136.39    7.00
  -4  -4   6  128.99    6.00
   4  -4  -6  132.09    7.70
   4  -4  -6  147.29    7.20
   4  -4  -6  138.19    6.60
  -4   4   6  126.19    6.90
   4   4  -6  142.79    6.30
   4   4  -6  122.99    7.00
   4   4  -6  123.79    7.20
   3  -4  -6   89.09    5.60
   3  -4  -6   87.59    5.00
  -3  -4   6   90.49    5.40
  -3  -4   6   89.69    4.80
   3  -4  -6   93.59    6.00
   3   4  -6   93.89    5.60
   3   4  -6   88.09    4.80
  -3   4   6   92.19    5.30
  -3   4   6   92.59    4.70
   3   4  -6   82.29    5.50
  -2  -4   6   88.09    4.70
   2  -4  -6   84.59    4.70
  -2  -4   6   87.59    5.00
   2  -4  -6   83.89    5.70
   2  -4  -6   83.99    5.20
   2   4  -6   83.39    5.40
  -2   4   6   82.19    5.40
   2   4  -6   91.29    4.80
   2   4  -6   82.79    5.10
  -2   4   6   83.49    4.90
  -2   4   6   84.99    4.70
   1  -4  -6  163.88    8.30
  -1  -4   6  164.08    7.60
  -1  -4   6  172.78    7.70
   1  -4  -6  171.58    7.60
   1  -4  -6  173.48    7.90
   1  -4  -6  176.68    8.00
  -1   4   6  179.78    7.70
  -1   4   6  175.38    8.20
   1   4  -6  166.88    7.60
  -1   4   6  181.38    7.50
   1   4  -6  183.08    8.20
   1   4  -6  184.38    7.80
   0  -4  -6   -4.20    2.20
   0  -4   6    0.40    1.70
   0  -4  -6   -0.40    1.70
   0  -4  -6    1.50    2.10
   0   4  -6    0.80    1.80
   0   4  -6   -0.80    1.90
   0   4   6    2.70    2.20
   0   4  -6   -2.50    1.90
   0   4  -6    1.70    2.00
   0   4   6   -1.90    1.20
   0   4   6   -0.70    2.10
   0   4   6    0.90    1.70
   1  -4   6    0.10    1.90
   1  -4   6    0.10    2.60
  -1  -4  -6    3.40    2.60
  -1  -4  -6    1.10    2.00
  -1   4  -6   -0.80    1.90
  -1   4  -6    1.60    2.30
   1   4   6    1.50    1.90
   1   4   6    1.20    2.20
   1   4   6   -0.80    2.40
  -1   4  -6    2.60    2.00
  -1   4  -6   -0.20    2.10
  -2  -4  -6  355.26   14.80
  -2  -4  -6  340.67   13.90
   2  -4   6  338.27   13.90
   2  -4   6  341.97   14.70
  -2   4  -6  335.17   13.90
  -2   4  -6  338.37   14.30
   2   4   6  357.06   15.30
   2   4   6  357.06   14.40
   2   4   6  338.37   13.80
  -2   4  -6  341.97   13.40
   3  -4   6   21.30    4.10
  -3  -4  -6   28.20    3.60
   3  -4   6   25.90    4.00
  -3  -4  -6   23.00    4.00
   3   4   6   30.20    6.00
   3   4   6   25.40    3.70
   3   4   6   29.70    3.60
  -3   4  -6   20.20    3.60
   4  -4   6   52.29    6.90
  -4  -4  -6   51.39    5.70
   4  -4   6   51.09    5.00
  -4  -4  -6   51.69    6.80
   4   4   6   53.29    5.10
   4   4   6   50.79    6.00
   4   4   6   45.10    7.50
  -4   4  -6   56.59    6.00
   5  -4   6   31.10    4.80
   5  -4   6   24.30    5.30
  -5  -4  -6   42.40    5.90
  -5  -4  -6   31.70    5.10
  -5   4  -6   23.60    4.50
   5   4   6   36.00    4.80
   5   4   6   27.50    6.20
   5   4   6   37.40    5.20
  -6  -4  -6   46.10    6.70
  -6  -4  -6   47.20    7.20
   6  -4   6   54.79    8.60
   6   4   6   47.80    6.90
   6   4   6   52.19    9.30
   8  -5  -6    0.30    3.70
   8  -5  -6   -4.30    3.10
  -8  -5   6   -4.90    3.50
  -8   5   6   -1.60    3.60
  -8   5   6   -0.80    3.40
   8   5  -6    1.40    3.90
   7  -5  -6   29.20    4.30
  -7  -5   6   35.70    5.20
  -7  -5   6   29.10    4.60
   7  -5  -6   41.50    6.10
  -7   5   6   35.90    5.70
   7   5  -6   40.90    6.10
  -7   5   6   32.90    4.50
   6  -5  -6   74.29    6.10
   6  -5  -6   72.09    6.70
  -6  -5   6   70.29    5.80
   6   5  -6   67.69    5.80
  -6   5   6   61.39    5.70
  -6   5   6   67.59    6.10
   6   5  -6   70.29    4.80
   6   5  -6   59.69    6.20
   5  -5  -6   34.50    5.20
  -5  -5   6   35.00    4.60
   5  -5  -6   33.10    4.70
   5   5  -6   39.90    5.10
   5   5  -6   32.80    3.70
  -5   5   6   32.60    4.30
  -5   5   6   32.90    4.80
   5   5  -6   36.20    4.70
   4  -5  -6  742.53   28.40
  -4  -5   6  736.03   27.70
  -4  -5   6  735.03   27.10
   4  -5  -6  744.23   27.50
   4  -5  -6  785.62   28.00
  -4   5   6  760.12   27.90
   4   5  -6  750.72   28.20
   4   5  -6  767.02   27.10
   4   5  -6  761.62   28.00
  -3  -5   6  145.89    6.50
   3  -5  -6  133.59    6.50
   3  -5  -6  137.99    7.20
   3  -5  -6  134.89    7.50
  -3  -5   6  139.29    6.90
   3   5  -6  135.39    6.30
  -3   5   6  144.99    6.40
   3   5  -6  149.59    7.20
  -3   5   6  140.89    6.90
   3   5  -6  141.89    7.10
   2  -5  -6  399.76   16.30
   2  -5  -6  427.46   17.00
  -2  -5   6  427.86   16.10
   2  -5  -6  428.86   16.40
  -2  -5   6  416.86   16.20
   2  -5  -6  412.66   15.90
   2   5  -6  428.16   16.20
   2   5  -6  434.66   16.60
  -2   5   6  419.16   16.10
   2   5  -6  444.56   15.90
  -2   5   6  425.36   16.60
  -2   5   6  421.36   16.00
   1  -5  -6   63.79    4.10
   1  -5  -6   64.39    5.30
   1  -5  -6   57.79    4.70
   1  -5  -6   59.59    4.80
  -1  -5   6   60.29    4.30
  -1   5   6   66.39    4.20
   1   5  -6   63.49    4.80
  -1   5   6   67.19    5.00
  -1   5   6   57.79    3.90
   1   5  -6   62.79    4.20
   1   5  -6   61.79    4.10
   0  -5  -6   38.60    3.60
   0  -5  -6   40.20    4.10
   0  -5  -6   47.50    4.70
   0  -5   6   46.30    3.80
   0   5  -6   41.10    3.80
   0   5  -6   49.50    4.00
   0   5   6   44.60    4.50
   0   5   6   42.30    3.10
   0   5   6   47.70    4.50
   0   5   6   42.70    3.70
   0   5  -6   34.70    4.30
   0   5  -6   40.80    3.60
   1  -5   6 1452.95   52.09
  -1  -5  -6 1460.55   51.89
  -1  -5  -6 1491.25   52.69
   1   5   6 1367.16   51.99
  -1   5  -6 1501.45   51.99
   1   5   6 1465.05   52.99
  -1   5  -6 1504.75   51.89
  -1   5  -6 1445.96   52.29
   1   5   6 1489.35   52.29
  -2  -5  -6    2.00    2.20
   2  -5   6    1.40    2.60
  -2  -5  -6    0.30    2.90
   2  -5   6   -2.30    2.00
  -2   5  -6    2.70    2.50
   2   5   6    2.50    3.00
  -2   5  -6   -0.10    2.00
  -2   5  -6    1.70    2.50
   2   5   6    0.30    2.40
   2   5   6    0.10    2.00
  -3  -5  -6   41.30    5.70
   3  -5   6   29.90    4.20
   3  -5   6   31.70    5.70
  -3  -5  -6   33.80    4.60
  -3   5  -6   41.00    5.00
  -3   5  -6   39.70    5.50
   3   5   6   44.80    6.40
   3   5   6   37.80    5.40
   3   5   6   24.50    3.40
   4  -5   6   76.59    5.70
  -4  -5  -6   69.29    6.20
  -4  -5  -6   73.09    7.30
   4  -5   6   65.69    7.60
  -4   5  -6   73.09    6.80
   4   5   6   64.49    7.90
   4   5   6   80.39    6.70
   4   5   6   77.69    5.90
   5  -5   6   11.10    3.20
  -5  -5  -6   14.80    4.40
  -5  -5  -6    6.20    3.50
   5  -5   6   12.70    4.70
   5   5   6   15.40    3.90
   5   5   6   10.10    4.90
  -5   5  -6    8.50    3.70
   5   5   6   10.40    3.20
  -6  -5  -6    5.10    3.70
   6  -5   6    4.00    4.60
  -6  -5  -6   -2.90    3.80
   6   5   6    6.10    3.70
   6   5   6    2.30    5.10
   8  -6  -6   48.70    6.60
  -8  -6   6   35.80    5.50
   8  -6  -6   37.00    5.60
  -8   6   6   51.59    6.90
  -8   6   6   38.70    5.10
   8   6  -6   54.49    7.10
   7  -6  -6   10.20    3.60
  -7  -6   6   13.40    3.40
   7  -6  -6    9.10    3.80
  -7  -6   6    7.80    3.70
  -7   6   6   15.90    3.70
   7   6  -6    5.00    3.60
  -7   6   6    5.40    3.60
   6  -6  -6  195.28    9.70
  -6  -6   6  180.48    9.20
   6  -6  -6  188.68   10.30
  -6   6   6  190.78    9.30
   6   6  -6  183.28    9.50
   6   6  -6  169.18    9.90
  -6   6   6  194.38    9.60
   5  -6  -6  182.18    9.10
  -5  -6   6  186.78    8.90
   5  -6  -6  177.18    9.70
   5   6  -6  163.98    8.90
   5   6  -6  183.48    9.30
  -5   6   6  184.38    8.60
  -5   6   6  185.18    9.00
  -4  -6   6  249.78   10.30
   4  -6  -6  260.57   11.80
   4  -6  -6  266.87   11.40
   4  -6  -6  257.47   10.70
  -4  -6   6  262.77   11.10
   4   6  -6  252.47   11.30
   4   6  -6  273.67   11.50
  -4   6   6  259.67   11.20
   3  -6  -6   20.20    3.30
  -3  -6   6   13.90    2.30
  -3  -6   6   16.00    2.60
   3  -6  -6   15.60    2.70
   3  -6  -6   11.70    4.50
   3  -6  -6   13.20    2.20
  -3   6   6   16.10    2.30
   3   6  -6   15.40    2.70
   3   6  -6   13.70    2.70
  -3   6   6   16.10    2.70
   3   6  -6   14.30    2.10
   2  -6  -6    0.40    2.30
  -2  -6   6    2.80    1.90
   2  -6  -6    0.70    1.60
  -2  -6   6    0.10    1.90
   2  -6  -6   -1.10    1.90
   2   6  -6    2.20    1.90
  -2   6   6    0.60    1.80
  -2   6   6    3.10    2.20
  -2   6   6    2.20    1.80
   2   6  -6   -0.70    2.00
   2   6  -6    0.80    1.70
   1  -6  -6 1628.84   57.09
  -1  -6   6 1545.25   56.39
   1  -6  -6 1622.54   57.09
   1  -6  -6 1577.34   56.59
   1  -6  -6 1594.14   55.99
  -1   6   6 1599.24   56.69
   1   6  -6 1585.84   56.09
   1   6  -6 1612.84   56.09
  -1   6   6 1624.54   56.09
  -1   6   6 1537.35   56.29
   1   6  -6 1601.04   56.49
   1   6  -6 1612.24   56.69
   0  -6  -6  145.39    8.10
   0  -6   6  146.59    7.10
   0  -6  -6  138.69    6.70
   0   6   6  140.39    7.00
   0   6  -6  147.99    7.60
   0   6  -6  143.29    6.90
   0   6   6  162.58    7.70
   0   6  -6  145.09    7.00
   0   6   6  154.88    6.50
   0   6   6  160.28    8.20
   1  -6   6  332.47   13.70
  -1  -6  -6  320.67   13.30
  -1  -6  -6  333.67   14.50
  -1   6  -6  348.77   13.70
   1   6   6  353.26   14.10
   1   6   6  328.07   13.60
  -1   6  -6  358.46   13.60
  -1   6  -6  359.96   14.10
   1   6   6  342.07   14.80
   2  -6   6  131.99    6.90
  -2  -6  -6  125.79    6.70
   2  -6   6  130.79    7.90
  -2  -6  -6  127.29    8.10
  -2   6  -6  135.99    6.60
   2   6   6  120.89    8.40
   2   6   6  130.99    7.40
   2   6   6  132.09    7.00
  -2   6  -6  129.39    7.50
  -2   6  -6  132.19    7.10
   3  -6   6  137.49    9.00
  -3  -6  -6  142.09    7.70
   3  -6   6  140.19    7.70
  -3  -6  -6  143.09    9.00
  -3   6  -6  142.19    8.00
  -3   6  -6  144.29    8.30
   3   6   6  162.18   10.00
   3   6   6  156.28    8.40
   3   6   6  151.18    7.70
   4  -6   6    1.80    2.60
  -4  -6  -6   -4.40    3.40
  -4  -6  -6   -1.20    2.80
   4  -6   6    1.60    3.60
  -4   6  -6    1.60    3.20
   4   6   6   -0.60    2.90
   4   6   6    1.20    2.60
   4   6   6    0.40    4.00
  -5  -6  -6  153.58    9.30
   5  -6   6  160.88    8.70
   5  -6   6  145.19   11.10
  -5  -6  -6  167.18   10.60
   5   6   6  163.58    9.40
  -5   6  -6  159.38    9.60
   5   6   6  156.68    8.80
   5   6   6  170.58   12.30
  -8  -7   6   -0.30    3.90
   8  -7  -6    3.60    3.40
   8  -7  -6    5.10    4.10
  -8   7   6   -3.50    3.80
   8   7  -6    1.20    3.90
  -7  -7   6  128.69    8.80
  -7  -7   6  121.49    7.60
   7  -7  -6  110.99    8.10
   7  -7  -6  115.09    8.60
  -7   7   6  118.99    8.00
  -7   7   6  135.19    8.60
   7   7  -6  113.69    8.40
   6  -7  -6    0.70    3.10
  -6  -7   6   -0.40    2.60
   6  -7  -6    4.40    3.20
   6   7  -6    2.10    3.00
  -6   7   6    4.50    2.90
   6   7  -6    5.60    3.00
  -6   7   6    2.10    3.00
  -5  -7   6  101.59    7.00
   5  -7  -6  110.19    7.20
   5  -7  -6  120.39    7.60
   5   7  -6  114.59    7.20
  -5   7   6  116.49    6.60
  -5   7   6  137.59    7.30
   5   7  -6  118.29    7.10
   4  -7  -6    8.40    3.00
   4  -7  -6   10.70    5.50
  -4  -7   6    2.00    1.90
   4  -7  -6    0.80    2.50
  -4  -7   6    1.70    2.30
   4   7  -6   -0.80    2.40
  -4   7   6    5.10    2.60
   4   7  -6    6.10    2.50
   3  -7  -6   35.50    5.10
  -3  -7   6   37.30    4.00
   3  -7  -6   28.50    4.30
   3  -7  -6   31.40    3.30
   3  -7  -6   31.70    4.10
  -3  -7   6   32.30    3.40
  -3   7   6   36.60    4.10
   3   7  -6   31.70    4.30
  -3   7   6   38.50    3.60
   3   7  -6   34.50    3.10
   3   7  -6   34.90    3.90
   2  -7  -6  525.15   20.90
   2  -7  -6  519.65   20.80
   2  -7  -6  529.45   20.30
   2  -7  -6  520.35   19.50
  -2  -7   6  535.15   20.00
  -2   7   6  545.65   20.50
  -2   7   6  531.85   20.00
   2   7  -6  558.24   19.60
   2   7  -6  544.65   19.90
  -2   7   6  519.05   19.90
   2   7  -6  537.45   20.40
   1  -7  -6  549.35   21.10
  -1  -7   6  566.94   21.70
   1  -7  -6  610.44   22.60
   1  -7  -6  597.64   22.60
   1   7  -6  572.54   21.30
   1   7  -6  588.94   21.30
  -1   7   6  580.04   21.40
   1   7  -6  586.84   21.70
   1   7  -6  580.54   22.00
  -1   7   6  596.24   22.00
  -1   7   6  555.74   21.60
   0  -7  -6  495.65   19.00
   0  -7  -6  535.05   20.40
   0  -7   6  519.85   19.60
   0   7  -6  497.35   19.40
   0   7  -6  511.35   19.20
   0   7   6  509.95   19.50
   0   7   6  514.65   20.60
   0   7   6  524.15   18.90
   0   7  -6  531.55   19.80
   0   7   6  515.45   19.80
   1  -7   6   50.49    4.30
  -1  -7  -6   41.20    3.90
  -1  -7  -6   44.30    5.50
  -1   7  -6   47.40    4.80
   1   7   6   44.40    4.80
  -1   7  -6   49.00    4.30
   1   7   6   44.70    4.20
  -1   7  -6   47.30    4.40
   1   7   6   37.70    5.50
  -2  -7  -6  228.38   10.30
  -2  -7  -6  243.48   11.80
   2  -7   6  239.18   14.50
   2  -7   6  247.18   10.60
   2   7   6  229.68   10.60
  -2   7  -6  257.07   11.10
   2   7   6  227.48   10.80
   2   7   6  248.48   12.40
  -2   7  -6  232.38   10.60
  -2   7  -6  256.07   10.40
  -3  -7  -6   -1.80    3.10
   3  -7   6   -0.20    2.40
   3  -7   6    2.30    3.20
  -3  -7  -6    0.10    2.40
   3   7   6    1.70    2.40
   3   7   6   -0.60    3.40
  -3   7  -6   -3.00    2.80
  -3   7  -6   -3.10    2.60
  -3   7  -6   -2.10    2.20
   3   7   6    0.80    2.70
   4  -7   6  244.08   13.50
   4  -7   6  256.57   11.50
  -4  -7  -6  248.78   11.60
  -4  -7  -6  261.97   13.20
   4   7   6  269.07   14.50
   4   7   6  245.88   11.90
   4   7   6  245.48   11.50
  -4   7  -6  245.38   12.10
  -5  -7  -6   10.70    4.50
   5  -7   6   11.80    3.40
  -5  -7  -6   10.50    4.40
   5  -7   6    7.50    4.50
   5   7   6   11.40    5.10
   5   7   6    6.70    3.50
  -5   7  -6   18.20    4.20
   5   7   6   10.40    3.30
   8  -8  -6   41.30    5.90
   8   8  -6   37.70    6.40
  -8   8   6   34.20    5.20
   7  -8  -6   12.00    3.90
  -7  -8   6   13.60    3.60
  -7  -8   6   16.20    4.20
   7  -8  -6   18.80    4.30
  -7   8   6   23.00    4.40
   7   8  -6   19.90    4.20
  -6  -8   6   43.70    5.00
   6  -8  -6   46.00    5.80
   6  -8  -6   37.20    5.60
  -6   8   6   42.00    5.60
   6   8  -6   37.00    5.40
   6   8  -6   39.20    5.50
  -5  -8   6    4.90    2.70
   5  -8  -6   -5.30    2.40
   5  -8  -6    3.40    2.90
   5   8  -6    0.90    2.50
  -5   8   6    4.90    2.90
   5   8  -6   -2.60    2.50
  -4  -8   6   -1.70    1.70
   4  -8  -6    2.90    2.70
   4  -8  -6    2.50    2.70
  -4  -8   6    0.10    2.40
   4  -8  -6    6.50    5.30
  -4   8   6   -0.30    2.30
   4   8  -6   -2.50    2.30
   4   8  -6    3.10    2.40
   3  -8  -6  104.39    8.10
  -3  -8   6  123.59    6.20
   3  -8  -6  125.99    7.00
  -3  -8   6  118.69    6.70
   3  -8  -6  136.19    7.70
  -3   8   6  120.19    6.60
  -3   8   6  128.99    6.20
   3   8  -6  112.79    6.30
   3   8  -6  125.49    6.90
   2  -8  -6  349.67   15.00
  -2  -8   6  339.37   13.90
   2  -8  -6  355.16   14.90
   2   8  -6  353.16   13.70
   2   8  -6  353.16   14.20
  -2   8   6  361.76   13.90
   2   8  -6  354.56   13.40
  -2   8   6  363.56   14.50
  -2   8   6  347.57   13.90
   2   8  -6  372.96   14.50
  -1  -8   6  680.53   25.20
   1  -8  -6  702.33   26.30
   1  -8  -6  689.13   26.10
  -1   8   6  681.63   24.80
   1   8  -6  669.33   24.70
   1   8  -6  640.04   25.10
   1   8  -6  663.13   25.40
  -1   8   6  672.63   25.10
  -1   8   6  716.43   25.50
   0  -8   6   83.39    5.20
   0  -8  -6   79.99    6.30
   0   8  -6   79.59    5.60
   0   8   6   71.09    5.10
   0   8   6   84.59    5.70
   0   8  -6   75.99    4.90
   0   8  -6   78.29    5.20
   0   8   6   84.89    4.50
   1  -8   6   54.99    4.70
  -1  -8  -6   59.99    6.00
  -1   8  -6   62.89    4.80
   1   8   6   65.59    5.30
   1   8   6   66.39    4.90
   1   8   6   58.89    6.20
  -1   8  -6   64.29    4.90
  -1   8  -6   63.49    5.30
  -2  -8  -6   -0.20    3.10
   2  -8   6   -0.30    2.20
   2   8   6   -2.80    3.00
  -2   8  -6   -2.60    2.50
  -2   8  -6    0.00    2.30
  -2   8  -6    4.60    2.40
   2   8   6    2.10    2.30
   2   8   6   -1.00    2.40
  -3  -8  -6  160.28    9.50
   3  -8   6  146.69    9.50
   3  -8   6  134.69    7.70
   3   8   6  144.19    8.20
  -3   8  -6  151.38    8.50
  -3   8  -6  141.59    8.00
   3   8   6  152.58    8.00
  -3   8  -6  138.29    7.60
   3   8   6  152.48   10.30
  -4  -8  -6   16.00    4.50
   4  -8   6   11.30    3.10
   4  -8   6    9.70    4.20
   4   8   6   18.00    5.00
   4   8   6    7.10    3.00
   4   8   6    6.80    3.20
  -4   8  -6    8.30    3.50
  -5  -8  -6    7.80    4.50
   5  -8   6   20.80    3.80
   5  -8   6   11.20    4.70
   5   8   6   11.80    3.70
   5   8   6   17.60    3.70
  -5   8  -6   12.70    4.10
   5   8   6    9.80    5.30
   8  -9  -6    4.40    4.10
   7  -9  -6   14.50    4.20
  -7  -9   6   13.60    3.70
  -7  -9   6   22.00    4.40
  -7   9   6   16.80    4.10
   7   9  -6   17.90    4.20
   6  -9  -6   56.49    6.40
  -6  -9   6   56.99    5.50
   6   9  -6   58.79    5.90
   6   9  -6   62.29    6.10
  -6   9   6   48.10    6.20
   5  -9  -6   61.19    6.00
  -5  -9   6   49.90    5.30
   5   9  -6   59.39    5.50
  -5   9   6   53.29    5.70
   5   9  -6   63.79    5.60
   4  -9  -6   43.20    8.50
  -4  -9   6   42.90    4.60
   4  -9  -6   39.40    5.40
  -4  -9   6   30.90    3.60
   4   9  -6   44.30    5.00
   4   9  -6   40.60    4.50
  -4   9   6   45.30    4.80
   3  -9  -6  139.29    8.20
  -3  -9   6  132.49    7.30
  -3  -9   6  147.79    6.90
   3  -9  -6  131.09    8.70
  -3   9   6  154.08    7.00
   3   9  -6  138.79    7.00
   3   9  -6  138.99    7.60
  -3   9   6  142.79    7.30
   2  -9  -6   97.89    7.10
  -2  -9   6  116.89    6.00
   2  -9  -6  112.89    7.20
  -2   9   6  101.49    6.00
  -2   9   6  125.69    6.70
   2   9  -6  102.99    6.20
   2   9  -6  114.29    5.30
   2   9  -6  110.39    6.60
  -2   9   6   99.39    5.90
  -1  -9   6   34.70    3.90
   1  -9  -6   37.90    5.20
   1  -9  -6   36.10    5.00
   1   9  -6   30.60    4.00
  -1   9   6   27.50    3.80
  -1   9   6   31.20    4.40
  -1   9   6   33.40    3.50
   1   9  -6   41.80    3.60
   1   9  -6   39.10    4.50
   0  -9  -6  225.88   11.60
   0  -9  -6  246.78   11.40
   0  -9   6  219.38   10.10
   0   9  -6  237.28   10.30
   0   9   6  220.08   10.20
   0   9   6  236.88   10.40
   0   9  -6  242.88   10.60
   0   9   6  231.08    9.90
   0   9  -6  243.48    9.90
   1  -9   6    3.70    2.40
  -1  -9  -6    3.40    3.20
   1   9   6    1.70    2.10
   1   9   6    1.50    3.20
  -1   9  -6    1.50    2.30
  -1   9  -6    4.20    2.40
   1   9   6    2.40    2.50
  -1   9  -6    0.20    2.60
  -2  -9  -6   38.20    5.00
   2  -9   6   38.00    4.50
  -2   9  -6   39.20    4.50
  -2   9  -6   48.10    4.70
   2   9   6   40.20    6.30
  -2   9  -6   38.10    5.20
   2   9   6   38.60    4.60
   2   9   6   33.70    4.80
   3  -9   6  238.78   10.60
  -3  -9  -6  217.68   12.00
   3   9   6  225.58   10.90
  -3   9  -6  224.48   10.40
  -3   9  -6  230.38   11.00
  -3   9  -6  213.18   10.60
   3   9   6  229.08   13.10
   3   9   6  226.58   10.70
  -4  -9  -6    8.60    4.40
   4  -9   6    6.70    3.00
   4  -9   6    4.50    4.80
   4   9   6    4.50    3.00
  -4   9  -6    4.30    3.30
   4   9   6   -0.30    4.20
   4   9   6    4.80    3.10
   5  -9   6   17.30    3.70
  -5  -9  -6   15.80    4.90
   5  -9   6   13.30    6.30
  -5   9  -6   21.30    4.40
   5   9   6   10.90    3.70
   5   9   6   11.30    3.40
   5   9   6   10.40    5.20
  -7 -10   6   42.40    6.80
   7 -10  -6   39.60    6.30
   7  10  -6   41.00    6.10
  -7  10   6   24.30    4.80
  -6 -10   6   55.29    5.80
   6 -10  -6   51.59    6.30
  -6  10   6   50.79    6.20
   6  10  -6   47.60    5.70
   6  10  -6   48.00    5.70
   5 -10  -6    9.50    3.50
   5 -10  -6   22.00    6.40
  -5 -10   6    6.20    2.90
   5  10  -6    4.90    2.80
   5  10  -6   10.90    3.20
  -5  10   6    4.10    3.00
   4 -10  -6   96.59    6.80
  -4 -10   6   76.09    5.10
   4 -10  -6   70.39    9.40
  -4 -10   6   85.19    5.90
   4  10  -6   87.29    5.90
   4  10  -6   93.79    6.40
  -4  10   6   99.59    6.30
  -3 -10   6   94.99    5.60
   3 -10  -6   94.09    6.90
   3 -10  -6   76.09    7.30
  -3  10   6   86.39    8.00
  -3  10   6   89.39    6.00
   3  10  -6   93.79    6.00
   3  10  -6   98.09    6.30
  -3  10   6  101.69    5.70
  -2 -10   6   13.00    2.60
   2 -10  -6   13.30    3.50
   2 -10  -6   19.70    3.60
   2  10  -6    8.90    2.90
  -2  10   6   11.80    2.60
  -2  10   6   12.50    2.90
  -2  10   6   17.90    2.70
   2  10  -6   13.70    2.70
   1 -10  -6  334.07   15.20
  -1 -10   6  326.37   13.70
   1 -10  -6  344.07   14.80
  -1  10   6  352.36   13.40
   1  10  -6  350.96   13.10
  -1  10   6  341.27   14.00
  -1  10   6  322.17   13.70
   1  10  -6  355.86   14.10
   1  10  -6  321.57   13.80
   0 -10  -6  533.75   21.00
   0 -10   6  506.55   19.90
   0 -10  -6  514.25   21.50
   0  10  -6  523.25   20.00
   0  10  -6  509.95   19.40
   0  10   6  489.95   19.80
   0  10   6  520.95   20.10
   0  10  -6  551.64   20.30
  -1 -10  -6    5.00    3.30
   1 -10   6    7.80    2.60
  -1  10  -6    6.70    2.90
  -1  10  -6    9.80    2.60
   1  10   6   10.80    3.70
   1  10   6    3.10    2.40
   1  10   6    4.50    2.50
  -1  10  -6    2.30    2.40
   2 -10   6   22.50    3.50
  -2 -10  -6   22.10    4.30
  -2  10  -6   20.10    3.60
   2  10   6   20.40    4.60
   2  10   6   23.80    3.40
   2  10   6   25.00    3.40
  -2  10  -6   29.60    4.50
  -2  10  -6   19.50    3.20
   3 -10   6    9.70    3.00
  -3 -10  -6    6.60    3.90
  -3  10  -6    8.80    3.10
   3  10   6    2.60    2.80
  -3  10  -6    9.00    3.00
   3  10   6    9.90    4.40
  -3  10  -6   11.00    3.30
   3  10   6    5.70    2.70
  -4 -10  -6    5.40    4.20
   4 -10   6    4.40    3.00
   4  10   6    5.80    2.90
   4  10   6    3.50    4.40
  -4  10  -6    2.30    3.40
   4  10   6    3.00    3.00
  -5 -10  -6    9.00    4.90
   5 -10   6   -0.10    2.90
   5  10   6    3.80    5.10
   5  10   6    9.10    3.40
   5  10   6    7.60    3.30
  -5  10  -6   10.50    4.10
  -7 -11   6   13.30    4.40
   7 -11  -6   18.80    4.50
  -7  11   6   11.20    4.30
   7  11  -6    7.50    3.40
   6 -11  -6    3.60    3.40
  -6 -11   6    7.80    3.30
   6  11  -6   -3.00    2.90
   6  11  -6    7.00    3.10
  -6  11   6    6.80    3.50
   5 -11  -6   -2.60    2.90
   5 -11  -6    7.00    5.60
  -5 -11   6    0.70    2.70
   5  11  -6    0.00    2.50
   5  11  -6   -2.60    2.50
  -5  11   6    0.90    3.00
  -4 -11   6   48.10    4.40
   4 -11  -6   45.10    5.60
  -4 -11   6   49.90    5.00
   4 -11  -6   43.50    8.90
   4  11  -6   43.70    4.60
   4  11  -6   59.99    5.40
  -4  11   6   59.09    5.50
  -3 -11   6   12.50    2.60
   3 -11  -6    9.90    3.20
   3 -11  -6   10.50    3.60
  -3  11   6    9.40    3.00
  -3  11   6    5.80    2.40
   3  11  -6    3.00    2.70
  -3  11   6    9.30    2.70
   2 -11  -6   51.39    6.20
   2 -11  -6   50.39    5.60
  -2 -11   6   58.39    4.80
   2  11  -6   56.69    5.00
   2  11  -6   66.39    5.40
  -2  11   6   52.19    4.70
  -2  11   6   57.09    5.40
  -2  11   6   60.09    4.80
  -1 -11   6  229.78   10.50
   1 -11  -6  245.18   12.30
   1 -11  -6  236.98   11.60
  -1  11   6  238.48   10.60
   1  11  -6  225.78   10.60
   1  11  -6  249.58    9.80
   1  11  -6  248.98   10.90
  -1  11   6  240.58   10.20
  -1  11   6  243.88   10.90
   0 -11   6  130.19    7.20
   0 -11  -6  138.79    9.10
   0 -11  -6  128.09    8.30
   0  11  -6  139.79    7.40
   0  11  -6  133.79    6.70
   0  11   6  132.39    7.40
   0  11  -6  144.99    7.70
   0  11   6  135.69    7.30
   1 -11   6   21.40    3.30
  -1 -11  -6   25.80    4.30
  -1  11  -6   31.60    4.60
  -1  11  -6   27.60    4.10
   1  11   6   21.00    3.30
   1  11   6   18.40    4.50
   1  11   6   18.70    3.20
  -1  11  -6   20.30    3.40
   2 -11   6   21.90    3.40
  -2 -11  -6   16.30    4.20
   2  11   6   20.40    3.30
  -2  11  -6   19.80    3.50
  -2  11  -6   15.50    3.30
   2  11   6   10.90    4.40
  -2  11  -6   18.50    3.30
   2  11   6   16.60    3.30
   3 -11   6   50.49    5.20
  -3 -11  -6   50.29    6.70
   3  11   6   34.40    6.10
   3  11   6   35.70    5.10
   3  11   6   53.09    5.40
  -3  11  -6   42.60    5.50
  -3  11  -6   49.80    5.30
  -3  11  -6   50.69    5.90
   4 -11   6  174.28    9.40
  -4 -11  -6  167.18   11.20
   4  11   6  166.68   12.40
   4  11   6  189.48    9.50
  -4  11  -6  172.38    9.80
   4  11   6  163.88    9.20
   5 -11   6   -0.30    3.20
   5  11   6    0.60    2.90
   5  11   6    8.10    6.50
   7 -12  -6    7.70    4.00
  -7 -12   6   -0.20    3.80
   7  12  -6   -1.40    3.10
  -7  12   6   -9.40    3.40
  -6 -12   6   23.10    4.00
   6 -12  -6   24.10    4.40
   6  12  -6   22.40    3.90
  -6  12   6   30.30    4.50
   5 -12  -6   10.90    6.70
   5 -12  -6    6.80    3.50
  -5 -12   6    4.10    2.90
   5  12  -6    4.20    2.80
  -5  12   6    8.00    3.40
   5  12  -6    4.90    3.00
   4 -12  -6   37.50    5.70
  -4 -12   6   37.60    4.90
  -4 -12   6   30.20    3.40
   4 -12  -6   26.90    7.50
  -4  12   6   34.20    5.30
   4  12  -6   34.70    5.10
   3 -12  -6  433.26   18.00
  -3 -12   6  417.46   16.80
   3 -12  -6  426.06   18.90
  -3  12   6  414.06   17.30
   3  12  -6  391.86   17.10
  -3  12   6  440.36   16.90
  -3  12   6  426.36   17.20
   3  12  -6  465.35   17.50
   2 -12  -6   35.70    5.40
  -2 -12   6   36.20    4.20
   2 -12  -6   27.60    5.60
  -2  12   6   35.40    4.70
   2  12  -6   45.10    4.90
  -2  12   6   46.00    4.60
   2  12  -6   34.00    4.50
  -2  12   6   37.30    4.40
   1 -12  -6   16.50    4.00
   1 -12  -6   10.30    3.50
  -1 -12   6   14.50    2.90
   1  12  -6   15.50    3.30
  -1  12   6   13.40    2.80
   1  12  -6   14.00    3.10
   1  12  -6   11.40    2.20
  -1  12   6   12.80    2.50
  -1  12   6   10.30    2.90
   0 -12  -6   50.39    6.80
   0 -12   6   53.39    4.80
   0 -12  -6   49.50    6.30
   0  12  -6   54.29    5.10
   0  12   6   51.19    4.80
   0  12  -6   49.50    5.40
   0  12   6   49.10    4.90
   0  12  -6   50.69    4.30
   1 -12   6   48.00    4.90
  -1 -12  -6   47.30    6.30
  -1  12  -6   40.10    4.40
   1  12   6   44.50    4.80
   1  12   6   43.00    4.70
  -1  12  -6   47.00    5.30
  -1  12  -6   42.90    4.90
   2 -12   6   30.70    4.70
  -2 -12  -6   20.00    4.60
   2  12   6   27.50    3.70
   2  12   6   29.70    3.70
   2  12   6   25.50    5.30
  -2  12  -6   26.70    3.90
  -2  12  -6   34.40    5.20
  -2  12  -6   29.40    4.60
  -3 -12  -6  106.89    9.00
   3 -12   6  108.99    7.30
   3  12   6  107.59    9.90
   3  12   6  117.49    7.40
  -3  12  -6  108.19    7.20
  -3  12  -6  112.29    7.30
   3  12   6  110.49    7.20
  -3  12  -6  116.49    7.70
   4 -12   6    0.20    3.00
  -4 -12  -6    3.70    4.20
   4  12   6    4.00    3.00
  -4  12  -6    0.40    3.20
   4  12   6    3.90    3.00
   4  12   6    3.10    4.60
  -7 -13   6   54.59    6.80
   7 -13  -6   53.99    7.70
   7  13  -6   42.40    6.60
   6 -13  -6   93.19    7.40
  -6 -13   6   72.09    6.60
  -6  13   6   88.19    7.60
   6  13  -6   53.89    6.30
  -5 -13   6    4.00    3.00
   5 -13  -6    5.40    3.40
  -5  13   6   -1.10    3.10
   5  13  -6    2.80    2.90
  -4 -13   6    1.70    2.30
  -4 -13   6    2.80    2.80
   4 -13  -6    2.40    3.20
   4 -13  -6    6.10    5.40
  -4  13   6    1.60    2.70
   4  13  -6   -0.80    2.70
   3 -13  -6    4.40    3.30
  -3 -13   6   -1.50    2.30
   3 -13  -6   -5.20    3.40
  -3  13   6    0.20    2.60
   3  13  -6    2.40    2.50
  -3  13   6    0.00    2.30
   3  13  -6   -0.20    2.60
  -3  13   6    2.40    2.70
  -2 -13   6   16.30    3.10
   2 -13  -6   22.10    4.10
   2 -13  -6   15.10    4.10
  -2  13   6   18.50    3.30
   2  13  -6   19.90    3.40
   2  13  -6   14.00    3.10
  -2  13   6   18.40    3.00
  -2  13   6   16.60    3.00
   1 -13  -6    4.90    3.60
   1 -13  -6   13.00    3.70
  -1 -13   6    5.50    2.60
   1  13  -6    6.80    2.10
   1  13  -6    6.60    2.70
  -1  13   6   13.00    3.00
  -1  13   6    5.50    2.50
  -1  13   6    6.20    2.30
   1  13  -6    7.60    2.90
   0 -13   6    0.10    2.40
   0 -13  -6    0.70    3.30
   0 -13  -6    4.10    3.90
   0  13  -6    3.10    2.70
   0  13  -6    1.30    2.20
   0  13  -6    5.50    2.80
   0  13   6    2.60    2.50
   0  13   6    6.20    2.60
  -1 -13  -6   68.79    8.20
   1 -13   6   80.89    6.00
  -1 -13  -6   71.19    7.20
  -1  13  -6   80.29    6.20
  -1  13  -6   71.79    5.90
  -1  13  -6   78.39    5.40
   1  13   6   76.89    5.90
   1  13   6   74.59    5.80
   2 -13   6   78.29    6.20
  -2 -13  -6   82.29    7.60
   2  13   6   77.79    6.20
   2  13   6   81.39    6.00
   2  13   6   91.79    9.00
  -2  13  -6   87.09    6.40
  -2  13  -6   81.69    6.60
  -2  13  -6   88.39    6.10
   3 -13   6   75.09    6.40
  -3 -13  -6   84.39    8.30
  -3  13  -6   82.29    6.40
   3  13   6   70.69    6.10
  -3  13  -6   88.19    6.70
   3  13   6   75.79    6.40
   3  13   6   80.29    9.40
  -3  13  -6   72.99    6.60
   4 -13   6    9.40    3.50
  -4 -13  -6   -7.30    3.90
   4  13   6   -1.30    4.70
   4  13   6    2.60    3.10
  -4  13  -6    2.30    3.30
   4  13   6   -0.50    2.80
  -4  13  -6    4.10    3.50
   6 -14  -6    1.40    3.50
  -6 -14   6    5.40    3.50
  -6  14   6   -0.20    3.50
  -5 -14   6   12.00    3.40
   5 -14  -6   20.10    9.00
   5 -14  -6    5.70    3.60
  -5  14   6   10.60    3.50
   5  14  -6    2.20    3.00
  -4 -14   6   37.00    4.40
  -4 -14   6   39.00    5.30
   4 -14  -6   33.60    4.80
   4 -14  -6   34.90    7.70
   4  14  -6   37.40    5.30
  -4  14   6   24.90    3.90
   3 -14  -6   -0.80    3.50
  -3 -14   6   -1.50    2.40
   3 -14  -6    0.10    3.00
  -3  14   6    6.00    2.60
  -3  14   6    9.10    3.00
   3  14  -6    2.10    2.70
  -3  14   6    6.20    2.60
   3  14  -6    3.10    2.80
   2 -14  -6    2.50    3.30
  -2 -14   6    3.60    2.60
   2 -14  -6   -5.50    3.30
  -2  14   6   -0.60    2.40
   2  14  -6   -0.70    2.50
  -2  14   6   -4.80    2.20
   2  14  -6   -2.70    2.50
  -2  14   6   -2.40    2.20
   1 -14  -6   24.30    5.00
   1 -14  -6   19.10    4.20
  -1 -14   6   18.70    3.20
   1  14  -6   21.30    3.60
  -1  14   6   20.10    3.30
  -1  14   6   21.70    3.40
   1  14  -6   21.70    3.30
  -1  14   6   21.60    3.30
   1  14  -6   20.70    3.50
   0 -14   6  152.68    8.30
   0 -14  -6  155.28    9.70
   0 -14  -6  168.58   11.10
   0  14   6  164.98    8.40
   0  14  -6  159.08    8.60
   0  14  -6  158.68    8.50
   0  14   6  147.59    8.40
   0  14  -6  155.78    7.40
  -1 -14  -6  396.66   19.00
   1 -14   6  389.36   16.20
  -1 -14  -6  392.66   17.40
  -1  14  -6  416.06   16.40
  -1  14  -6  398.76   15.60
  -1  14  -6  400.86   16.40
   1  14   6  381.46   16.30
   1  14   6  360.76   15.90
  -2 -14  -6   -5.20    3.40
   2 -14   6   -1.90    2.60
   2  14   6   -1.20    4.00
  -2  14  -6    0.40    3.00
  -2  14  -6   -1.10    2.80
  -2  14  -6   -2.20    2.60
   2  14   6    2.70    2.50
   2  14   6    2.80    2.80
   3 -14   6   11.90    3.50
  -3 -14  -6    2.90    4.10
   3  14   6    9.50    3.30
  -3  14  -6   12.50    3.60
  -3  14  -6    6.40    3.20
   3  14   6   14.60    5.30
  -3  14  -6    4.50    3.20
   3  14   6    5.30    2.70
   4 -14   6   -4.00    3.00
   4  14   6    0.20    4.60
  -4  14  -6    1.90    3.20
   4  14   6    0.80    3.00
  -4  14  -6    3.70    3.50
  -6  15   6   -0.70    6.30
  -5 -15   6    5.30    3.20
   5 -15  -6    2.70    3.40
   5 -15  -6   -3.70    9.60
  -5  15   6    0.80    3.30
   5  15  -6    0.30    3.00
   4 -15  -6    2.00    3.30
   4 -15  -6   -9.00    6.30
  -4 -15   6    2.10    2.60
  -4 -15   6   -3.40    2.60
   4  15  -6    0.00    2.90
  -4  15   6    1.70    3.00
   3 -15  -6   -0.70    3.80
   3 -15  -6    7.00    3.50
  -3 -15   6    4.20    2.60
   3  15  -6    5.30    2.90
  -3  15   6    2.60    2.80
   3  15  -6    1.70    2.80
  -3  15   6    1.80    2.70
  -3  15   6    1.00    2.70
   2 -15  -6   11.60    4.40
  -2 -15   6   13.30    3.00
   2 -15  -6   11.60    3.80
  -2  15   6    6.30    2.70
   2  15  -6    9.20    3.10
  -2  15   6    9.50    3.00
   2  15  -6   14.70    3.30
  -2  15   6    9.50    3.00
   1 -15  -6    0.60    3.30
  -1 -15   6    1.90    2.60
   1 -15  -6   -0.20    3.40
  -1  15   6   -0.70    2.60
   1  15  -6    2.60    2.80
  -1  15   6   -1.30    2.40
   1  15  -6    1.30    2.60
   0 -15   6    5.20    2.70
   0 -15  -6    3.70    4.20
   0 -15  -6    7.90    3.70
   0  15   6    4.20    2.70
   0  15   6    4.80    2.70
   0  15  -6    6.50    3.00
   0  15  -6    5.10    2.30
   0  15  -6    1.10    2.70
   1 -15   6    9.20    3.10
  -1 -15  -6    5.10    3.90
  -1 -15  -6    5.40    4.60
  -1  15  -6    6.60    2.60
  -1  15  -6    8.40    3.20
   1  15   6    7.90    2.90
  -1  15  -6   11.90    3.40
   1  15   6    3.50    2.70
  -2 -15  -6   33.30    5.50
   2 -15   6   41.10    5.40
   2  15   6   46.30    5.10
  -2  15  -6   36.10    5.00
   2  15   6   49.80    5.50
  -2  15  -6   53.49    5.80
  -2  15  -6   38.30    5.70
   3 -15   6  110.19    7.60
  -3 -15  -6   97.49    9.30
  -3  15  -6  110.99    7.70
   3  15   6  120.59   10.90
  -3  15  -6   94.69    7.50
   3  15   6  104.59    6.90
   3  15   6  105.59    7.60
  -3  15  -6  106.29    7.30
   5 -16  -6   46.00   11.00
  -5 -16   6   39.20    5.70
   5 -16  -6   39.30    5.40
   5  16  -6   35.40    5.80
  -5  16   6   35.20    5.00
  -4 -16   6   15.30    3.30
   4 -16  -6    2.70    6.10
   4 -16  -6   12.90    4.00
  -4  16   6   19.20    3.70
   4  16  -6   11.20    3.50
   3 -16  -6    4.90    3.60
  -3 -16   6    3.90    2.70
   3 -16  -6   -3.60    4.20
  -3  16   6    3.70    3.00
   3  16  -6    8.00    3.20
   3  16  -6    6.80    3.10
  -3  16   6    6.10    2.80
  -3  16   6    4.00    2.90
   2 -16  -6    3.10    4.10
  -2 -16   6    4.10    2.80
   2 -16  -6    8.90    3.60
   2  16  -6    6.40    3.00
   2  16  -6    3.00    3.00
  -2  16   6    5.90    2.90
  -2  16   6    3.40    2.70
  -2  16   6    5.70    2.90
   1 -16  -6  315.97   16.40
   1 -16  -6  331.37   15.00
  -1 -16   6  300.57   13.60
  -1  16   6  308.07   13.80
   1  16  -6  314.37   13.80
   1  16  -6  324.27   14.00
  -1  16   6  304.07   13.50
   0 -16   6    3.30    2.70
   0 -16  -6    4.00    3.70
   0 -16  -6   -2.10    4.10
   0  16  -6   -0.70    2.80
   0  16   6    3.50    2.70
   0  16  -6    0.20    2.80
   0  16   6    4.10    2.80
   0  16  -6   -1.40    2.00
   1 -16   6   14.10    3.30
  -1 -16  -6   17.20    4.50
  -1 -16  -6    1.50    4.60
  -1  16  -6    8.40    3.30
   1  16   6   11.80    3.30
  -1  16  -6    3.80    3.20
  -1  16  -6    9.50    2.70
   1  16   6    5.10    2.80
   2 -16   6   47.30    5.60
  -2 -16  -6   39.10    7.00
  -2 -16  -6   45.10    7.10
  -2  16  -6   38.70    5.80
   2  16   6   36.20    5.50
   2  16   6   35.90    5.00
  -2  16  -6   34.90    5.60
  -2  16  -6   34.90    5.00
   3 -16   6    7.50    3.50
   3  16   6    4.40    5.00
  -3  16  -6    6.30    3.40
  -3  16  -6    4.20    3.50
  -3  16  -6    6.90    3.50
   3  16   6    8.20    3.80
   5 -17  -6   46.10   11.50
  -5 -17   6   41.30    5.90
   5  17  -6   44.60    5.70
  -5  17   6   38.10    8.60
   4 -17  -6    9.20    3.80
  -4 -17   6   12.40    3.20
   4 -17  -6   -5.10    6.90
   4  17  -6   12.50    3.70
  -4  17   6   16.60    3.90
   3 -17  -6    1.00    3.40
  -3 -17   6    2.90    2.80
   3 -17  -6   -7.40    3.90
   3  17  -6   -0.40    2.90
  -3  17   6    0.20    2.90
   3  17  -6    2.70    3.10
  -3  17   6    3.70    2.90
  -3  17   6    0.10    2.80
   2 -17  -6   -3.50    3.80
   2 -17  -6   -1.50    3.30
  -2 -17   6    1.80    2.80
  -2  17   6   -1.90    2.60
  -2  17   6   -0.70    2.60
   2  17  -6    9.20    3.20
   2  17  -6    2.50    2.90
  -2  17   6   -0.60    2.60
  -1 -17   6   10.20    3.30
   1 -17  -6   10.50    4.50
   1 -17  -6   17.70    4.30
   1  17  -6   15.90    3.60
  -1  17   6   11.40    3.10
   1  17  -6   11.20    3.40
  -1  17   6   15.30    3.50
   0 -17  -6   28.00    4.80
   0 -17   6   26.20    4.00
   0 -17  -6   22.70    5.60
   0  17  -6   23.30    4.00
   0  17   6   17.90    3.70
   0  17  -6   16.50    2.80
   0  17   6   14.40    3.10
   0  17  -6   25.80    4.20
  -1 -17  -6  133.89   11.30
  -1 -17  -6  137.99    9.80
   1 -17   6  129.99    8.10
  -1  17  -6  135.69    8.30
  -1  17  -6  150.68    8.80
   1  17   6  115.49    8.20
   1  17   6  129.39    7.60
  -1  17  -6  126.89    7.10
   2 -17   6  140.69    8.80
  -2 -17  -6  155.08   10.30
  -2 -17  -6  137.09   12.10
  -2  17  -6  146.49    8.80
   2  17   6  140.19    8.90
  -2  17  -6  146.09    8.10
  -2  17  -6  162.68    9.10
   2  17   6  143.89    8.30
  -4 -18   6    3.90    3.00
   4 -18  -6  -13.90    6.60
  -4  18   6    4.60    3.60
  -3 -18   6   91.49    6.90
   3 -18  -6   89.79    8.30
   3 -18  -6   82.79   10.10
  -3  18   6   92.79    6.80
  -3  18   6   91.69    7.30
   3  18  -6   97.29    7.20
  -3  18   6   94.49    7.40
  -2 -18   6   59.79    6.00
   2 -18  -6   55.89    7.00
   2 -18  -6   53.99    8.70
  -2  18   6   71.09    6.30
  -2  18   6   74.09    6.20
   2  18  -6   65.89    6.40
  -2  18   6   65.79    6.00
  -1 -18   6   42.30    5.30
   1 -18  -6   31.50    6.40
   1 -18  -6   32.60    5.30
   1  18  -6   37.30    5.60
  -1  18   6   22.90    3.70
  -1  18   6   36.70    5.40
   0 -18  -6   60.19    7.40
   0 -18  -6   54.09    8.30
   0 -18   6   56.19    6.00
   0  18   6   57.09    6.00
   0  18   6   61.39    5.60
   0  18  -6   62.29    6.50
   0  18  -6   58.49    4.60
   1 -18   6    4.90    3.30
  -1 -18  -6   11.20    4.20
  -1 -18  -6    7.40    5.10
   1  18   6    6.80    3.00
  -1  18  -6    7.50    3.60
  -1  18  -6    6.00    2.80
   1  18   6    5.50    3.20
  -2 -18  -6   29.10    7.30
   3 -19  -6   50.99    8.50
   3 -19  -6   55.89    9.30
  -3 -19   6   65.59    6.30
  -3  19   6   67.69    6.30
   3  19  -6   67.19    6.70
  -3  19   6   66.79    6.50
  -3  19   6   56.99    6.50
   2 -19  -6   51.39    6.90
   2 -19  -6   40.90    8.30
  -2 -19   6   54.99    5.90
  -2  19   6   54.59    5.60
   2  19  -6   40.30    5.10
  -2  19   6   45.80    6.00
  -1 -19   6   72.49    6.50
   1 -19  -6   57.29    9.00
   1 -19  -6   78.49    7.70
  -1  19   6   70.39    6.50
  -1  19   6   64.19    5.90
   1  19  -6   69.99    6.70
   0 -19  -6   45.40    7.00
   0 -19  -6   46.50    8.80
   0 -19   6   40.60    5.70
   0  19   6   35.80    5.60
   0  19  -6   37.20    4.10
   0  19  -6   33.50    4.90
   0  19   6   33.40    4.90
  -1 -19  -6    0.70    4.70
  -1 -19  -6    2.50    4.00
   2 -20  -6   17.20    4.80
   2 -20  -6   15.20    5.60
  -2  20   6   18.10    3.90
  -2  20   6   14.40    3.70
   1 -20  -6    3.70    4.70
   1 -20  -6    3.10    3.70
  -1  20   6    0.10    3.00
  -8   0   7   -2.00    3.80
   8   0  -7   -2.10    3.00
  -8   0   7   -1.90    3.30
   8   0  -7    1.20    4.10
   7   0  -7    0.00    3.40
  -7   0   7    5.60    3.30
  -7   0   7    0.40    3.20
   7   0  -7   -0.20    2.70
   6   0  -7    7.50    3.50
   6   0  -7   -0.70    2.50
  -6   0   7    3.60    3.00
  -5   0   7    3.60    2.60
   5   0  -7    0.50    2.40
   5   0  -7    1.50    2.40
   5   0  -7   -1.90    2.80
  -4   0   7   -1.10    2.40
   4   0  -7    2.90    2.30
   4   0  -7   -3.30    2.10
   4   0  -7    3.70    2.80
   3   0  -7    2.40    2.60
  -3   0   7    1.90    1.90
  -3   0   7   -2.60    1.90
   3   0  -7   -1.50    2.00
  -2   0   7   -1.60    1.80
   2   0  -7    3.70    2.30
   2   0  -7    2.20    2.40
  -2   0   7    1.40    2.00
   2   0  -7   -0.60    2.10
   1   0  -7    1.20    2.20
  -1   0   7   -1.40    1.90
  -1   0   7    2.80    1.80
   1   0  -7   -1.20    2.10
   1   0  -7   -2.10    2.40
   0   0  -7    3.00    2.30
   0   0  -7    3.20    2.40
   0   0  -7    1.80    2.30
   0   0   7   -1.10    1.60
   0   0   7   -2.00    1.90
  -1   0  -7   -2.80    2.30
   1   0   7    1.00    2.10
   1   0   7    3.30    1.70
  -1   0  -7    1.60    2.40
  -1   0  -7    2.00    2.50
   2   0   7   -0.60    2.20
  -2   0  -7   -0.80    2.50
  -2   0  -7   -1.90    2.40
  -3   0  -7   -2.10    2.80
  -3   0  -7   -0.90    2.80
   3   0   7    0.30    2.40
  -4   0  -7    1.60    3.20
   4   0   7    4.80    2.80
  -5   0  -7    1.10    3.60
   5   0   7   -0.70    2.90
   8  -1  -7    2.70    4.00
   8  -1  -7    4.50    3.50
  -8  -1   7   14.70    4.30
  -8  -1   7   11.10    3.80
   8   1  -7    8.40    3.20
  -8   1   7    9.00    4.00
  -8   1   7    4.70    3.80
   8   1  -7    7.10    4.40
  -7  -1   7   -1.50    3.40
   7  -1  -7   -2.30    3.40
   7  -1  -7    0.90    2.90
  -7  -1   7   -1.40    2.90
   7   1  -7   -3.30    3.40
   7   1  -7   -2.00    2.60
  -7   1   7   -1.60    3.20
  -7   1   7   -1.30    3.10
  -6  -1   7  161.08    9.00
   6  -1  -7  179.68    8.80
   6  -1  -7  165.08    9.70
   6   1  -7  171.88    9.70
   6   1  -7  169.68    9.00
   6   1  -7  171.88    8.50
  -6   1   7  176.88    9.10
   5  -1  -7    3.50    2.50
  -5  -1   7    2.70    2.70
   5  -1  -7   -3.70    2.70
   5  -1  -7    2.50    2.50
  -5   1   7   -1.00    2.60
   5   1  -7    1.40    3.00
   5   1  -7   -1.80    2.30
   5   1  -7    2.30    2.70
   4  -1  -7   75.09    5.40
  -4  -1   7   76.19    5.50
   4  -1  -7   75.49    6.00
   4  -1  -7   82.79    5.40
   4   1  -7   74.79    5.50
   4   1  -7   76.49    5.90
   4   1  -7   71.49    5.20
  -4   1   7   69.99    5.50
  -3  -1   7    2.60    2.20
  -3  -1   7    0.40    1.90
   3  -1  -7   -0.70    2.40
   3  -1  -7    3.70    2.20
  -3   1   7    1.80    2.20
   3   1  -7    0.00    2.20
   3   1  -7   -1.60    2.40
  -3   1   7   -1.90    1.80
   3   1  -7    0.10    2.10
   2  -1  -7  251.17   11.00
  -2  -1   7  229.38   10.20
  -2  -1   7  237.08   10.00
   2  -1  -7  245.38   10.40
   2  -1  -7  228.48   10.20
  -2   1   7  235.28   10.00
   2   1  -7  238.98   10.20
   2   1  -7  249.28   10.50
   2   1  -7  237.48   10.70
  -2   1   7  242.38   10.10
   1  -1  -7    2.80    2.50
  -1  -1   7    3.90    1.90
   1  -1  -7    0.30    2.10
  -1  -1   7   -0.20    1.80
   1  -1  -7    3.90    2.30
  -1   1   7    2.90    1.90
   1   1  -7    3.60    2.40
   1   1  -7    0.00    2.30
  -1   1   7   -0.50    1.90
   1   1  -7   -2.00    2.00
   0  -1   7  115.29    6.20
   0  -1   7  114.19    5.80
   0  -1  -7  113.69    6.40
   0  -1  -7  116.19    6.80
   0  -1  -7  116.19    6.40
   0   1  -7  109.39    6.50
   0   1  -7  109.79    6.60
   0   1   7  113.99    6.20
   0   1   7  116.39    5.70
   0   1  -7  111.59    6.20
  -1  -1  -7  186.78    8.90
   1  -1   7  179.18    7.80
   1  -1   7  179.98    8.50
  -1  -1  -7  186.08    9.10
  -1  -1  -7  191.08    8.80
  -1   1  -7  177.68    8.90
  -1   1  -7  187.58    8.70
   1   1   7  178.78    8.50
  -1   1  -7  167.28    8.50
  -2  -1  -7    0.30    2.70
   2  -1   7    1.70    2.40
  -2  -1  -7   -2.90    2.40
  -2   1  -7   -1.50    2.50
   2   1   7    3.40    2.40
  -2   1  -7   -1.30    2.40
  -3  -1  -7  140.09    8.40
  -3  -1  -7  145.69    8.60
   3  -1   7  141.59    7.80
  -3   1  -7  162.58    8.60
   3   1   7  142.59    7.90
   4  -1   7   11.40    3.20
  -4  -1  -7   21.90    4.20
  -4   1  -7   11.60    3.80
   4   1   7   12.60    5.00
   4   1   7   14.90    3.20
  -5  -1  -7   41.60    6.80
   5  -1   7   38.30    5.40
   5   1   7   43.00    5.50
   5   1   7   31.40    6.90
  -5   1  -7   53.19    7.10
   8  -2  -7   -2.90    3.70
  -8  -2   7    2.80    3.90
   8  -2  -7   -1.30    3.20
  -8  -2   7    1.90    3.40
   8   2  -7    1.70    3.80
   8   2  -7   -3.00    2.60
  -8   2   7    4.80    3.80
  -8   2   7    2.70    3.70
  -7  -2   7   -3.30    3.30
   7  -2  -7   -1.70    2.80
  -7  -2   7    3.60    3.20
   7  -2  -7    2.40    3.50
  -7   2   7   -0.60    3.20
  -7   2   7   -4.30    3.20
   7   2  -7    1.10    2.70
   7   2  -7   -3.40    3.30
   6  -2  -7    8.00    3.00
   6  -2  -7    2.10    3.20
  -6  -2   7   13.60    3.30
   6   2  -7    7.70    3.60
  -6   2   7    8.50    3.30
   6   2  -7   12.10    3.20
   6   2  -7    8.80    2.80
  -5  -2   7  165.88    9.20
   5  -2  -7  196.18    9.10
   5  -2  -7  174.08    9.80
   5  -2  -7  187.38    9.00
   5   2  -7  202.18    8.80
   5   2  -7  192.98   10.00
  -5   2   7  193.58    9.30
   5   2  -7  196.48    9.40
  -4  -2   7  831.22   30.50
   4  -2  -7  811.72   30.40
   4  -2  -7  838.52   31.30
   4  -2  -7  846.82   30.60
  -4   2   7  811.22   30.50
   4   2  -7  847.92   30.20
   4   2  -7  829.82   30.70
   4   2  -7  812.62   31.00
  -3  -2   7  541.45   20.70
   3  -2  -7  554.14   21.10
  -3  -2   7  565.74   21.20
   3  -2  -7  559.74   21.80
  -3   2   7  546.85   20.60
  -3   2   7  548.95   21.10
   3   2  -7  582.54   20.90
   3   2  -7  565.04   21.60
   3   2  -7  568.04   21.40
  -2  -2   7  874.31   32.00
   2  -2  -7  887.11   32.10
   2  -2  -7  905.11   32.70
  -2  -2   7  887.31   31.90
   2  -2  -7  856.81   32.10
  -2   2   7  861.31   31.90
   2   2  -7  892.51   32.40
  -2   2   7  871.41   31.80
   2   2  -7  871.81   32.30
   2   2  -7  901.41   31.90
   1  -2  -7  259.47   11.60
   1  -2  -7  260.97   11.10
  -1  -2   7  261.17   11.00
  -1  -2   7  264.37   10.80
   1  -2  -7  269.87   11.20
   1   2  -7  263.57   11.00
   1   2  -7  264.07   11.30
   1   2  -7  266.87   11.40
  -1   2   7  260.97   10.70
  -1   2   7  254.67   10.80
   0  -2  -7   35.80    4.20
   0  -2   7   37.70    3.60
   0  -2  -7   32.30    4.60
   0  -2   7   37.40    3.90
   0  -2  -7   34.10    4.30
   0   2  -7   34.50    4.10
   0   2  -7   29.50    4.40
   0   2  -7   35.00    4.10
   0   2   7   34.50    3.80
   0   2   7   34.10    3.30
   1  -2   7  357.16   14.40
  -1  -2  -7  372.96   14.50
   1  -2   7  356.96   13.80
  -1  -2  -7  355.46   14.90
  -1   2  -7  358.16   14.40
  -1   2  -7  364.56   14.80
   1   2   7  334.67   14.20
  -1   2  -7  346.37   14.20
  -2  -2  -7   21.60    3.60
  -2  -2  -7   15.40    3.20
   2  -2   7   19.80    3.20
  -2   2  -7   23.30    4.60
   2   2   7   14.50    2.90
  -2   2  -7   18.30    3.40
  -3  -2  -7  104.79    7.20
  -3  -2  -7   99.49    7.50
   3  -2   7   93.19    6.40
   3   2   7   97.89    8.70
  -3   2  -7  107.69    7.30
   3   2   7  108.59    6.60
  -4  -2  -7  196.88   10.80
   4  -2   7  182.48    9.70
  -4  -2  -7  206.18   10.50
  -4   2  -7  200.48   10.80
   4   2   7  181.08    9.70
   4   2   7  210.78   12.40
  -5  -2  -7   54.29    6.90
   5  -2   7   50.89    5.70
   5   2   7   54.69    8.70
   5   2   7   50.69    5.80
  -5   2  -7   34.40    5.30
   8  -3  -7   27.00    4.40
  -8  -3   7   31.20    5.20
  -8  -3   7   29.50    4.50
   8  -3  -7   31.50    5.50
  -8   3   7   31.00    4.80
   8   3  -7   26.00    5.30
   8   3  -7   29.20    3.80
  -8   3   7   31.30    4.80
  -7  -3   7   12.10    3.80
  -7  -3   7   22.10    3.90
   7  -3  -7   13.40    3.40
   7  -3  -7    7.70    3.90
   7   3  -7   10.60    4.10
   7   3  -7    9.80    3.00
  -7   3   7   15.50    4.00
  -7   3   7    8.30    3.60
   6  -3  -7   10.70    3.70
   6  -3  -7   10.40    3.10
  -6  -3   7   10.60    3.30
   6   3  -7   17.20    3.90
   6   3  -7   16.40    3.00
  -6   3   7    5.90    3.30
  -6   3   7   10.00    3.10
   6   3  -7   18.50    3.50
   5  -3  -7   26.90    4.40
   5  -3  -7   26.80    4.20
   5  -3  -7   41.00    4.70
  -5  -3   7   34.90    4.70
  -5   3   7   29.90    3.80
   5   3  -7   33.70    4.90
   5   3  -7   34.60    4.40
   5   3  -7   33.80    4.10
   4  -3  -7  459.85   17.90
   4  -3  -7  468.65   18.20
  -4  -3   7  457.05   18.10
   4  -3  -7  454.25   18.80
   4   3  -7  466.95   18.60
  -4   3   7  466.75   18.20
   4   3  -7  471.45   17.70
   4   3  -7  461.35   18.30
  -3  -3   7  338.87   14.00
   3  -3  -7  336.57   14.70
   3  -3  -7  352.26   13.90
   3  -3  -7  362.06   14.20
  -3  -3   7  352.56   13.60
   3   3  -7  348.37   14.30
   3   3  -7  349.27   14.30
   3   3  -7  348.07   13.70
  -3   3   7  362.26   14.00
  -3   3   7  326.87   13.40
   2  -3  -7  124.99    6.90
   2  -3  -7  126.99    7.50
   2  -3  -7  134.49    6.70
  -2  -3   7  122.49    6.40
  -2  -3   7  129.29    6.70
   2   3  -7  121.09    6.50
  -2   3   7  135.19    6.50
   2   3  -7  132.89    7.00
  -2   3   7  126.69    6.50
   2   3  -7  128.29    7.10
   1  -3  -7  129.49    7.10
  -1  -3   7  144.99    6.90
   1  -3  -7  140.19    7.70
   1  -3  -7  132.29    6.80
  -1  -3   7  139.19    6.80
   1   3  -7  142.49    7.10
   1   3  -7  138.19    7.40
  -1   3   7  131.19    6.70
   1   3  -7  129.49    6.80
  -1   3   7  133.19    6.50
   0  -3  -7  186.98    8.70
   0  -3  -7  192.88    8.50
   0  -3   7  181.48    8.40
   0  -3  -7  187.48    9.20
   0  -3   7  185.88    8.20
   0   3   7  166.08    8.30
   0   3  -7  178.58    8.50
   0   3  -7  184.68    8.80
   0   3  -7  177.68    8.50
   0   3   7  188.88    7.90
   1  -3   7  398.56   15.00
  -1  -3  -7  377.16   16.00
  -1  -3  -7  390.96   15.50
   1  -3   7  379.36   15.50
  -1   3  -7  388.86   15.90
   1   3   7  376.86   15.40
  -1   3  -7  428.16   17.20
  -1   3  -7  373.86   15.50
  -2  -3  -7   22.70    3.80
  -2  -3  -7   19.00    3.30
   2  -3   7   26.00    3.50
  -2   3  -7   24.00    3.60
   2   3   7   28.30    3.50
   2   3   7   25.90    5.30
  -2   3  -7   26.10    3.80
   2   3   7   26.80    6.40
  -3  -3  -7    0.50    2.90
   3  -3   7    3.30    2.60
  -3  -3  -7    5.40    3.40
   3   3   7    6.50    3.70
  -3   3  -7    6.40    3.30
   3   3   7    4.60    2.70
  -4  -3  -7   -2.60    3.10
  -4  -3  -7    3.90    3.60
   4  -3   7    3.20    2.80
   4   3   7   -1.20    4.10
   4   3   7    4.10    3.00
  -4   3  -7    6.00    3.40
   5  -3   7   70.29    6.20
  -5  -3  -7   76.39    7.50
   5   3   7   88.39   10.00
   5   3   7   72.39    6.50
  -5   3  -7   58.39    7.30
  -8  -4   7   -4.00    4.10
   8  -4  -7    5.80    3.60
  -8  -4   7    1.30    3.30
   8  -4  -7   -1.80    3.80
   8   4  -7   -0.30    4.00
  -8   4   7    3.50    3.80
  -8   4   7    6.00    3.90
   8   4  -7    6.70    3.00
  -7  -4   7   10.30    3.40
   7  -4  -7    9.10    3.80
   7  -4  -7    7.90    3.40
  -7  -4   7   11.00    3.80
   7   4  -7    7.90    4.00
  -7   4   7    8.40    3.80
   7   4  -7    9.80    2.90
  -7   4   7   14.40    3.90
   6  -4  -7   -0.70    3.20
  -6  -4   7   -4.10    2.70
   6  -4  -7    2.50    2.90
  -6   4   7    2.90    2.90
   6   4  -7    0.40    2.30
  -6   4   7   -3.10    2.90
   6   4  -7    1.90    3.20
   6   4  -7    2.30    2.80
   5  -4  -7   33.80    4.80
   5  -4  -7   25.50    4.10
   5  -4  -7   24.90    3.40
  -5  -4   7   31.80    4.80
   5   4  -7   31.90    5.20
   5   4  -7   25.70    3.90
  -5   4   7   26.60    3.70
   5   4  -7   24.60    3.70
   4  -4  -7  166.38    8.30
   4  -4  -7  149.79    8.80
   4  -4  -7  161.98    7.80
  -4  -4   7  134.99    8.50
  -4  -4   7  154.18    8.10
  -4   4   7  168.08    8.20
   4   4  -7  172.58    7.50
   4   4  -7  158.18    8.50
   4   4  -7  156.88    8.20
   3  -4  -7  196.68   10.00
  -3  -4   7  193.38    9.30
   3  -4  -7  222.18    9.70
  -3  -4   7  203.48    8.90
   3  -4  -7  208.98    9.10
  -3   4   7  213.78    8.90
   3   4  -7  206.78    8.90
   3   4  -7  210.58    9.60
  -3   4   7  205.98    9.30
   3   4  -7  204.08    9.70
  -2  -4   7   81.89    5.20
   2  -4  -7   72.29    5.80
  -2  -4   7   77.49    4.90
   2  -4  -7   71.19    5.30
   2  -4  -7   82.79    5.00
   2   4  -7   73.29    5.30
   2   4  -7   74.19    5.00
  -2   4   7   79.89    4.90
   2   4  -7   86.39    5.80
  -2   4   7   76.19    5.00
   1  -4  -7  611.44   23.10
  -1  -4   7  573.94   22.20
  -1  -4   7  601.04   22.30
   1  -4  -7  590.64   22.50
   1  -4  -7  586.64   22.10
   1   4  -7  615.04   22.30
   1   4  -7  599.04   22.70
  -1   4   7  578.54   22.20
  -1   4   7  607.64   22.00
   1   4  -7  592.14   22.20
   0  -4   7   -2.20    2.00
   0  -4  -7   -2.60    2.50
   0  -4  -7    5.20    3.80
   0  -4  -7    0.10    2.00
   0  -4   7   -2.20    1.80
   0   4   7   -3.20    2.60
   0   4  -7   -2.20    2.30
   0   4   7    2.00    1.60
   0   4   7    3.00    2.10
   0   4  -7    0.50    2.20
   0   4  -7    6.30    2.30
   1  -4   7   24.80    3.30
  -1  -4  -7   33.30    4.20
  -1  -4  -7   30.20    5.00
  -1   4  -7   32.80    4.30
   1   4   7   31.10    3.90
   1   4   7   38.00    5.00
  -1   4  -7   30.00    4.60
   2  -4   7   20.40    3.20
  -2  -4  -7   12.30    3.60
  -2  -4  -7   22.40    3.30
   2   4   7   18.30    4.00
  -2   4  -7   24.00    3.80
   2   4   7   20.70    3.20
   2   4   7   13.80    3.60
  -2   4  -7   13.80    3.30
   3  -4   7    7.50    2.70
  -3  -4  -7    7.50    3.00
  -3  -4  -7    2.10    3.50
   3   4   7   -2.00    2.50
  -3   4  -7    3.10    3.20
   3   4   7    1.10    3.20
   3   4   7    2.70    3.80
  -4  -4  -7    4.20    3.60
  -4  -4  -7    0.90    3.20
   4  -4   7    1.30    2.90
   4   4   7   -0.90    3.50
  -4   4  -7   -1.20    3.20
   4   4   7    4.60    4.30
   4   4   7   -3.90    2.70
   5  -4   7   -0.20    2.80
  -5  -4  -7    5.90    4.10
  -5  -4  -7    3.90    3.60
   5   4   7   -1.60    2.90
   5   4   7    3.40    4.70
  -5   4  -7    0.90    3.70
  -8  -5   7   95.99    7.40
   8  -5  -7   80.09    7.70
   8  -5  -7   83.19    8.80
  -8   5   7   91.49    7.80
   8   5  -7   87.69    9.40
  -8   5   7   95.79    8.20
   7  -5  -7  113.69    8.00
  -7  -5   7  116.39    8.40
  -7  -5   7  116.59    7.80
   7  -5  -7  121.89    8.60
  -7   5   7  118.89    8.40
   7   5  -7  112.29    8.50
  -7   5   7  120.79    8.10
   6  -5  -7   28.80    4.60
  -6  -5   7   23.00    3.80
   6  -5  -7   40.10    5.40
   6   5  -7   25.40    4.30
   6   5  -7   26.90    3.10
  -6   5   7   34.40    4.30
   6   5  -7   25.70    4.00
  -6   5   7   30.80    4.40
  -5  -5   7   38.70    5.00
   5  -5  -7   33.30    5.40
   5  -5  -7   45.00    5.20
   5   5  -7   40.60    5.30
   5   5  -7   39.40    5.10
   5   5  -7   35.40    4.10
  -5   5   7   42.00    5.30
   4  -5  -7    8.60    3.20
   4  -5  -7    4.90    2.90
  -4  -5   7    3.60    2.70
   4  -5  -7   11.90    2.50
  -4  -5   7    5.50    2.30
   4   5  -7    5.70    2.80
   4   5  -7    9.40    2.90
   4   5  -7    8.20    2.30
  -4   5   7   11.90    3.00
   3  -5  -7    5.00    2.90
   3  -5  -7    2.90    2.40
  -3  -5   7   -1.30    2.00
  -3  -5   7   -2.40    2.10
   3  -5  -7   -1.40    2.00
   3   5  -7   -1.60    1.90
  -3   5   7    4.30    2.30
   3   5  -7    3.00    2.40
  -3   5   7    0.10    1.90
   3   5  -7    0.00    2.30
   2  -5  -7  319.47   13.40
  -2  -5   7  289.17   12.30
   2  -5  -7  299.37   12.50
   2  -5  -7  298.67   12.00
  -2  -5   7  300.27   12.20
  -2   5   7  296.07   12.10
   2   5  -7  286.87   12.30
   2   5  -7  314.07   12.10
  -2   5   7  292.77   12.10
   2   5  -7  298.47   12.70
   1  -5  -7   12.00    2.90
  -1  -5   7    6.80    2.30
  -1  -5   7    6.40    2.40
   1  -5  -7   12.30    2.40
   1  -5  -7   14.10    3.20
  -1   5   7   10.10    2.40
   1   5  -7    9.40    2.30
  -1   5   7   10.80    2.10
   1   5  -7    9.90    2.50
   1   5  -7    8.80    2.80
   0  -5   7   27.90    3.40
   0  -5  -7   22.30    3.80
   0  -5  -7   26.80    3.60
   0   5   7   23.40    3.50
   0   5   7   28.90    3.10
   0   5  -7   20.30    3.00
   0   5   7   30.30    3.80
   0   5  -7   22.40    3.40
   1  -5   7   24.40    3.40
  -1  -5  -7   33.00    5.30
  -1  -5  -7   27.70    4.10
  -1   5  -7   32.50    4.10
  -1   5  -7   30.20    3.80
   1   5   7   32.70    3.90
   1   5   7   27.40    5.30
   1   5   7   31.60    4.10
  -1   5  -7   33.60    4.40
  -2  -5  -7   35.60    4.60
  -2  -5  -7   34.20    5.60
   2  -5   7   33.00    4.50
  -2   5  -7   35.20    4.90
   2   5   7   39.70    6.10
   2   5   7   36.20    4.50
   2   5   7   36.80    5.30
  -2   5  -7   36.30    4.40
  -2   5  -7   31.80    4.20
   3  -5   7    0.70    2.50
  -3  -5  -7    2.70    2.80
  -3  -5  -7    1.00    3.30
   3   5   7    3.60    3.70
   3   5   7    2.30    3.10
   3   5   7   -0.90    2.50
  -3   5  -7    1.20    3.00
  -4  -5  -7   52.09    6.20
   4  -5   7   56.79    5.70
  -4  -5  -7   51.69    6.90
   4   5   7   52.19    6.60
  -4   5  -7   44.70    6.40
   4   5   7   48.20    8.10
   4   5   7   50.49    5.60
   5  -5   7    4.50    3.20
  -5  -5  -7    0.20    3.40
  -5  -5  -7   10.30    4.30
   5   5   7    5.20    3.30
   5   5   7    3.70    4.70
   5   5   7   -3.70    3.40
  -8  -6   7    2.50    3.40
   8  -6  -7   -1.70    6.40
   8  -6  -7    2.20    3.70
  -8   6   7   -2.30    5.40
  -7  -6   7  194.08   10.60
   7  -6  -7  182.38   10.20
  -7  -6   7  183.48   10.00
   7  -6  -7  203.08   11.20
   7   6  -7  170.88   10.70
  -7   6   7  191.18   10.60
  -7   6   7  190.28   10.10
  -6  -6   7   13.90    3.40
   6  -6  -7    9.10    3.40
   6  -6  -7    8.30    3.70
   6   6  -7    8.60    3.50
  -6   6   7    9.70    3.40
   6   6  -7    4.80    3.00
  -6   6   7   18.20    3.60
  -5  -6   7  177.58    9.50
   5  -6  -7  190.28    9.70
   5  -6  -7  187.58   10.30
   5   6  -7  187.28    9.80
  -5   6   7  206.88    9.80
   5   6  -7  195.78    9.70
   4  -6  -7  662.43   25.40
   4  -6  -7  622.54   24.00
  -4  -6   7  637.84   24.50
  -4  -6   7  627.74   24.00
   4  -6  -7  680.83   24.80
   4   6  -7  633.04   24.80
   4   6  -7  661.53   23.70
  -4   6   7  652.33   24.60
   4   6  -7  667.73   24.80
   3  -6  -7    1.10    2.80
  -3  -6   7    1.20    2.00
   3  -6  -7    0.50    2.00
  -3  -6   7    1.90    2.40
   3  -6  -7    4.80    2.70
   3   6  -7    2.60    2.00
   3   6  -7    2.70    2.50
  -3   6   7   -3.80    1.80
   3   6  -7   -2.60    2.10
  -3   6   7   -2.30    2.10
   2  -6  -7    1.60    1.90
   2  -6  -7    3.40    2.40
  -2  -6   7    0.60    2.10
  -2  -6   7   -1.20    2.00
   2  -6  -7   -0.40    2.70
   2   6  -7   -0.80    2.00
   2   6  -7   -0.20    2.40
   2   6  -7   -2.10    1.90
  -2   6   7    0.70    2.10
  -2   6   7   -1.30    1.90
  -1  -6   7  214.18    9.60
   1  -6  -7  208.18    9.20
   1  -6  -7  209.88   10.40
  -1  -6   7  209.38    9.60
  -1   6   7  215.08    9.20
  -1   6   7  223.98    9.60
   1   6  -7  228.68   10.10
   1   6  -7  225.38    9.40
  -1   6   7  211.28   10.70
   0  -6   7   29.60    4.00
   0  -6  -7   22.20    3.60
   0  -6  -7   28.80    4.10
   0   6   7   22.80    3.50
   0   6  -7   26.30    4.20
   0   6  -7   19.40    3.40
   0   6  -7   21.60    3.00
   0   6   7   20.70    3.00
   1  -6   7  139.09    7.70
  -1  -6  -7  140.69    7.30
  -1  -6  -7  157.58    8.90
  -1   6  -7  137.49    8.00
   1   6   7  133.09    7.50
   1   6   7  153.68    8.10
  -1   6  -7  146.39    7.30
   1   6   7  151.08    8.80
  -1   6  -7  146.69    7.60
   2  -6   7   96.59    6.30
  -2  -6  -7   88.99    5.90
  -2  -6  -7   90.89    7.40
   2   6   7   84.79    6.60
   2   6   7   86.19    7.60
   2   6   7   86.59    6.00
  -2   6  -7   88.59    6.70
  -2   6  -7   95.29    5.90
  -2   6  -7   82.19    6.30
   3  -6   7   76.99    5.90
  -3  -6  -7   72.59    5.90
  -3  -6  -7   70.49    7.40
   3   6   7   83.69    8.20
  -3   6  -7   74.39    6.70
   3   6   7   73.79    6.00
   3   6   7   75.39    6.70
   4  -6   7   38.40    5.30
  -4  -6  -7   42.30    6.80
  -4  -6  -7   43.80    5.90
  -4   6  -7   46.30    6.40
   4   6   7   43.00    8.00
   4   6   7   35.20    4.80
   4   6   7   53.79    5.70
   5  -6   7    5.50    3.20
  -5  -6  -7    5.30    4.40
   5   6   7    8.40    3.80
   5   6   7    0.30    2.90
   5   6   7    2.60    5.00
   8  -7  -7    0.30    3.60
   7  -7  -7   11.60    4.10
  -7  -7   7    8.30    3.50
   7  -7  -7   11.60    3.70
  -7   7   7    5.60    3.90
   7   7  -7    4.50    3.80
   6  -7  -7    5.00    3.50
  -6  -7   7    4.20    3.20
   6  -7  -7    3.50    3.20
   6   7  -7    4.30    3.30
   6   7  -7    4.90    3.20
  -6   7   7    0.90    3.30
   5  -7  -7   20.30    3.60
   5  -7  -7   21.10    4.10
  -5  -7   7   20.70    3.60
   5   7  -7   28.10    3.90
   5   7  -7    8.10    3.10
  -5   7   7   20.20    3.60
   4  -7  -7  242.68   11.70
   4  -7  -7  233.28   11.10
  -4  -7   7  227.38   10.80
  -4  -7   7  236.98   10.20
   4   7  -7  262.87    9.80
  -4   7   7  247.58   11.00
   4   7  -7  227.58   10.90
   4   7  -7  230.78   11.00
  -3  -7   7   49.10    4.70
   3  -7  -7   44.60    5.50
  -3  -7   7   55.49    4.40
   3  -7  -7   53.09    5.40
   3   7  -7   50.09    4.00
  -3   7   7   54.49    4.40
  -3   7   7   45.10    4.80
   3   7  -7   50.79    5.20
   3   7  -7   54.89    4.70
  -2  -7   7  150.98    7.60
  -2  -7   7  158.68    8.00
   2  -7  -7  153.08    8.90
  -2   7   7  166.98    7.70
   2   7  -7  159.28    8.40
  -2   7   7  162.48    7.60
   2   7  -7  157.08    7.40
   2   7  -7  157.78    7.70
   1  -7  -7  174.08    9.20
  -1  -7   7  166.78    8.10
  -1   7   7  166.08    8.00
   1   7  -7  173.38    8.60
  -1   7   7  169.48    8.60
  -1   7   7  156.78    7.60
   1   7  -7  161.28    7.70
   0  -7  -7   -0.40    2.90
   0  -7   7    2.10    2.30
   0   7  -7   -0.20    2.30
   0   7   7   -2.50    2.40
   0   7  -7   -3.90    2.10
   0   7  -7   -3.00    2.40
   0   7   7    3.80    2.30
   1  -7   7  164.28    8.10
  -1  -7  -7  142.89    8.90
  -1   7  -7  153.18    8.50
   1   7   7  162.58    8.50
   1   7   7  148.19    7.80
  -1   7  -7  155.58    7.80
   1   7   7  162.88    9.40
  -1   7  -7  140.99    7.70
   2  -7   7    5.60    2.80
  -2  -7  -7    2.20    3.40
  -2   7  -7    5.50    2.60
  -2   7  -7    1.50    3.00
   2   7   7    6.40    3.20
  -2   7  -7    3.80    2.80
   2   7   7    3.70    3.50
   2   7   7    5.50    2.70
  -3  -7  -7   -0.20    3.70
   3  -7   7   10.10    3.10
   3   7   7    3.10    3.00
  -3   7  -7    7.80    3.30
   3   7   7    9.80    4.40
   3   7   7    4.80    2.90
   4  -7   7   53.09    5.70
  -4  -7  -7   44.70    6.00
  -4   7  -7   39.70    6.50
   4   7   7   65.19    6.00
   4   7   7   55.89    8.60
   4   7   7   50.09    6.40
  -5  -7  -7   59.69    8.10
   5  -7   7   80.69    6.70
   5   7   7   71.79    9.70
   5   7   7   68.69    7.10
   5   7   7   69.39    6.80
   7  -8  -7  170.58   10.50
  -7  -8   7  167.58    9.50
  -7   8   7  156.58    9.90
   7   8  -7  167.38   10.10
  -6  -8   7   72.19    6.30
   6  -8  -7   90.99    7.30
   6  -8  -7   73.99    6.80
  -6   8   7   65.69    6.70
   6   8  -7   88.79    7.00
   6   8  -7   82.89    6.90
  -5  -8   7  237.88   10.90
   5  -8  -7  236.68   11.80
   5  -8  -7  225.78   11.30
  -5   8   7  231.08   11.20
   5   8  -7  222.38   11.00
   5   8  -7  229.98   11.10
  -4  -8   7   26.00    3.10
   4  -8  -7   21.90    4.00
  -4  -8   7   21.50    3.40
   4   8  -7   17.60    3.20
  -4   8   7   20.20    3.40
   4   8  -7   21.00    3.50
  -3  -8   7    8.20    2.80
  -3  -8   7    8.90    2.50
   3  -8  -7   11.30    3.50
   3   8  -7   12.70    2.20
   3   8  -7   12.90    3.20
  -3   8   7   15.90    2.90
   3   8  -7   18.40    2.90
  -3   8   7   12.40    2.60
  -2  -8   7  285.37   11.70
  -2  -8   7  277.47   11.80
   2  -8  -7  260.97   12.60
   2   8  -7  276.57   11.10
  -2   8   7  273.67   11.70
   2   8  -7  287.57   12.30
  -2   8   7  270.57   11.50
   1  -8  -7  528.55   20.90
  -1  -8   7  501.15   19.90
  -1   8   7  515.05   20.30
   1   8  -7  537.35   20.40
  -1   8   7  514.95   19.90
   1   8  -7  520.65   20.10
  -1   8   7  502.75   19.40
   1   8  -7  527.45   19.50
   0  -8  -7    8.40    3.80
   0  -8  -7   15.50    3.80
   0  -8   7   12.50    2.90
   0   8   7    8.70    2.60
   0   8  -7    2.70    2.40
   0   8  -7   13.50    2.70
   0   8  -7    6.80    2.90
   0   8   7   14.10    3.10
   1  -8   7   41.20    4.70
  -1  -8  -7   30.10    4.60
  -1   8  -7   30.80    4.40
   1   8   7   29.60    4.40
   1   8   7   32.60    5.00
  -1   8  -7   28.50    4.50
   1   8   7   39.40    6.00
  -1   8  -7   35.30    5.30
   2  -8   7   39.60    4.90
  -2  -8  -7   41.00    6.10
  -2   8  -7   45.00    5.00
   2   8   7   41.20    5.00
  -2   8  -7   38.20    5.70
   2   8   7   42.90    6.80
  -2   8  -7   39.50    4.80
   2   8   7   34.50    5.30
   3  -8   7    9.80    3.30
  -3  -8  -7    7.80    4.10
   3   8   7   12.80    4.60
  -3   8  -7   14.90    3.70
   3   8   7    7.70    3.10
  -3   8  -7    6.70    3.40
   3   8   7    6.90    3.30
   4  -8   7  136.09    8.30
  -4  -8  -7  135.99   10.00
   4   8   7  121.29   11.00
   4   8   7  152.58    9.10
   4   8   7  138.39    8.50
  -4   8  -7  140.89    9.20
   7  -9  -7  142.69    9.60
  -7  -9   7  133.49    8.60
  -7   9   7  149.79    9.20
   7   9  -7  115.89    8.70
   6  -9  -7  261.77   12.80
  -6  -9   7  233.08   11.70
   6   9  -7  250.77   12.10
   6   9  -7  235.98   12.00
  -6   9   7  260.37   12.30
  -5  -9   7   10.90    3.30
   5  -9  -7    8.40    3.60
  -5   9   7    5.60    3.00
   5   9  -7    3.80    3.00
   5   9  -7    8.60    3.10
  -4  -9   7   49.10    5.20
   4  -9  -7   45.60    6.00
  -4  -9   7   44.50    4.30
   4   9  -7   46.30    4.80
  -4   9   7   43.80    5.20
   4   9  -7   33.60    5.20
  -3  -9   7   36.40    4.70
  -3  -9   7   27.00    4.00
   3  -9  -7   37.70    5.60
  -3   9   7   42.20    4.30
  -3   9   7   33.80    4.60
   3   9  -7   37.70    5.00
   2  -9  -7  212.58   10.70
  -2  -9   7  202.98    9.50
  -2   9   7  212.18    9.50
   2   9  -7  212.88   10.10
   2   9  -7  205.58    8.90
  -2   9   7  212.58    9.50
   1  -9  -7   27.10    4.20
  -1  -9   7   27.10    4.10
  -1   9   7   27.90    3.70
  -1   9   7   25.10    3.80
   1   9  -7   33.10    3.90
   1   9  -7   24.40    3.80
  -1   9   7   29.60    4.10
   1   9  -7   28.30    4.40
   0  -9  -7   98.79    7.60
   0  -9   7   89.39    6.00
   0  -9  -7   86.59    7.40
   0   9  -7   80.99    6.50
   0   9  -7   98.39    6.10
   0   9   7   91.09    6.00
   0   9  -7   94.89    5.70
   0   9   7   88.09    6.50
  -1  -9  -7   69.39    6.90
   1  -9   7   59.69    5.40
   1   9   7   60.99    7.10
  -1   9  -7   49.50    5.20
  -1   9  -7   72.89    6.00
  -1   9  -7   68.39    5.40
   1   9   7   64.19    5.40
   1   9   7   62.69    6.00
  -2  -9  -7  103.19    7.90
   2  -9   7   91.09    6.60
   2   9   7   99.99    6.90
  -2   9  -7   90.69    7.10
  -2   9  -7   88.59    6.30
   2   9   7  104.49    8.60
   2   9   7   97.99    6.50
  -2   9  -7   96.09    6.60
  -3  -9  -7   18.90    4.80
   3  -9   7   26.90    4.00
  -3   9  -7   26.10    4.20
  -3   9  -7   26.30    4.40
   3   9   7   28.40    4.00
   3   9   7   21.10    5.20
   3   9   7   19.30    3.90
   4  -9   7    8.30    3.40
  -4  -9  -7    4.50    4.40
  -4   9  -7    9.90    3.90
   4   9   7    6.00    3.30
   4   9   7    0.70    4.50
   4   9   7    9.20    3.30
   7 -10  -7   16.60    4.60
  -7 -10   7   23.60    4.10
  -7  10   7   19.80    4.60
   7  10  -7   13.20    4.00
   6 -10  -7   91.69    7.90
  -6 -10   7   90.89    6.90
   6  10  -7   81.79    6.90
  -6  10   7   94.99    7.70
   6  10  -7   80.49    7.10
  -5 -10   7  117.39    7.50
   5 -10  -7  132.59    8.70
  -5  10   7  110.89    7.70
   5  10  -7  113.69    7.40
   5  10  -7  115.09    7.70
  -4 -10   7   30.10    3.90
  -4 -10   7   18.30    3.50
   4 -10  -7   17.90    4.00
   4  10  -7   21.50    3.70
  -4  10   7   20.60    3.70
  -3 -10   7    1.90    2.30
   3 -10  -7    5.80    3.30
  -3 -10   7    8.10    2.90
   3  10  -7    6.80    3.00
  -3  10   7   11.50    2.90
  -3  10   7    6.20    2.60
  -2 -10   7   -3.40    2.10
   2 -10  -7   -5.40    2.80
   2  10  -7    1.30    1.90
   2  10  -7   -0.80    2.50
   2  10  -7    1.00    2.80
  -2  10   7    2.90    2.30
  -2  10   7    2.30    2.20
   1 -10  -7   33.90    5.70
  -1 -10   7   43.90    4.50
  -1  10   7   43.40    4.10
   1  10  -7   38.50    4.70
  -1  10   7   34.40    4.40
   1  10  -7   33.10    4.00
  -1  10   7   43.50    5.10
   1  10  -7   30.30    5.00
   0 -10   7  188.58    9.70
   0 -10  -7  218.18   11.50
   0 -10  -7  216.78   11.10
   0  10  -7  201.08    9.30
   0  10   7  210.38   10.00
   0  10  -7  205.38    9.70
   0  10  -7  216.78   10.20
   0  10   7  191.08    9.60
  -1 -10  -7   12.30    4.00
   1 -10   7   16.80    3.30
  -1  10  -7   16.30    3.20
   1  10   7   15.40    3.30
   1  10   7   17.00    4.40
  -1  10  -7   13.50    3.20
   1  10   7   10.10    2.90
  -1  10  -7   11.90    3.40
   2 -10   7    7.00    3.10
  -2 -10  -7    8.10    4.10
  -2  10  -7    4.60    3.10
   2  10   7    5.90    4.10
   2  10   7    9.90    3.10
   2  10   7    5.20    2.90
  -2  10  -7   10.00    3.10
  -2  10  -7    4.70    2.90
   3 -10   7  115.09    7.50
  -3 -10  -7  103.19    8.80
   3  10   7  102.49    9.80
  -3  10  -7  107.79    7.80
  -3  10  -7  108.59    7.50
   3  10   7   97.39    7.40
   3  10   7  113.29    7.40
  -4 -10  -7   82.99    8.80
   4 -10   7   73.69    6.70
   4  10   7   85.09    7.10
  -4  10  -7   80.59    7.50
   4  10   7   79.39    6.70
   4  10   7   76.59    9.70
  -7 -11   7   32.40    4.50
   7 -11  -7   43.60    6.80
  -7 -11   7   35.30    8.70
   7  11  -7   24.10    4.40
   6 -11  -7   37.90    5.30
  -6 -11   7   28.40    4.40
   6  11  -7   33.00    5.40
  -6  11   7   26.50    4.60
   6  11  -7   35.60    4.80
  -5 -11   7  162.98    9.30
   5 -11  -7  183.08   10.40
  -5  11   7  167.28    9.40
   5  11  -7  170.88    9.50
  -4 -11   7   -1.30    2.60
  -4 -11   7   -2.30    2.20
   4 -11  -7    1.50    3.20
   4  11  -7    2.70    2.80
  -4  11   7    4.20    2.90
   3 -11  -7  223.88   11.50
  -3 -11   7  205.48   10.30
  -3 -11   7  215.48    9.90
  -3  11   7  217.28   10.00
   3  11  -7  234.28   10.70
  -3  11   7  212.08   10.20
   2 -11  -7  136.59    8.80
  -2 -11   7  114.39    7.10
   2  11  -7  145.89    6.50
  -2  11   7  141.89    7.30
   2  11  -7  153.28    8.10
   2  11  -7  118.69    7.70
  -2  11   7  144.89    8.50
  -2  11   7  127.99    7.40
  -1 -11   7   89.39    5.90
   1 -11  -7   85.59    7.70
   1 -11  -7   85.49    7.40
  -1  11   7   79.99    5.80
   1  11  -7   75.89    6.30
  -1  11   7   90.59    6.20
   1  11  -7   94.89    5.40
  -1  11   7   78.49    6.30
   1  11  -7   75.89    5.90
   0 -11   7    3.20    2.70
   0 -11  -7    6.80    3.90
   0 -11  -7    9.70    3.80
   0  11  -7    3.90    2.50
   0  11  -7    3.00    2.90
   0  11  -7    9.40    3.00
   0  11   7    9.40    3.00
   0  11   7    7.20    2.80
   1 -11   7   32.60    4.10
  -1 -11  -7   32.20    5.00
  -1  11  -7   39.60    4.60
   1  11   7   34.00    4.90
  -1  11  -7   32.60    4.30
  -1  11  -7   32.10    4.90
   1  11   7   33.70    4.70
   2 -11   7   40.10    5.40
  -2 -11  -7   42.40    6.80
  -2  11  -7   36.90    5.20
   2  11   7   33.20    4.90
   2  11   7   41.70    7.40
   2  11   7   38.80    5.20
  -2  11  -7   38.00    5.70
  -2  11  -7   40.50    5.10
  -3 -11  -7   16.80    4.90
   3 -11   7   23.80    4.20
   3  11   7   12.30    3.50
   3  11   7   21.60    5.40
   3  11   7   10.40    3.40
  -3  11  -7   16.70    4.00
  -3  11  -7   22.00    4.00
   4 -11   7   52.89    6.10
   4  11   7   49.80    6.10
   4  11   7   61.29    9.30
   4  11   7   59.29    6.40
  -6 -12   7   17.40    4.10
   6 -12  -7   11.10    4.40
   6  12  -7   16.70    4.30
  -6  12   7   21.10    4.50
  -5 -12   7    6.40    3.20
   5 -12  -7    3.20    3.50
   5  12  -7    9.00    3.40
  -5  12   7    2.80    3.30
  -4 -12   7    0.20    2.40
  -4 -12   7    4.50    2.90
   4 -12  -7    2.40    3.40
  -4  12   7   -3.40    2.70
   4  12  -7   -2.00    2.80
   3 -12  -7   82.49    7.10
  -3 -12   7   76.89    5.70
   3  12  -7   88.49    6.60
  -3  12   7   85.19    6.20
  -3  12   7   79.29    5.80
  -2 -12   7   54.89    5.10
   2 -12  -7   61.09    6.70
   2  12  -7   44.20    5.30
  -2  12   7   53.49    5.10
   2  12  -7   61.79    5.90
  -2  12   7   58.09    5.20
  -2  12   7   58.19    5.80
   1 -12  -7    1.10    3.40
  -1 -12   7    2.90    2.60
   1 -12  -7   -2.30    3.20
  -1  12   7    1.30    2.60
  -1  12   7    1.10    2.40
   1  12  -7   -1.10    2.50
   1  12  -7    1.40    2.90
   1  12  -7    4.10    2.20
   0 -12   7   53.19    5.30
   0 -12  -7   53.49    7.20
   0 -12  -7   52.69    6.90
   0  12   7   52.99    5.30
   0  12  -7   62.59    4.90
   0  12  -7   65.59    6.00
   0  12  -7   70.19    5.80
   0  12   7   51.29    5.50
  -1 -12  -7    4.60    3.80
   1 -12   7   11.30    3.30
  -1  12  -7    8.10    2.80
   1  12   7    9.10    2.80
  -1  12  -7   12.10    3.50
  -1  12  -7    8.90    3.20
   1  12   7    7.20    2.80
  -2 -12  -7    4.00    3.90
   2 -12   7   -0.10    2.90
   2  12   7   -2.70    3.70
  -2  12  -7    1.00    2.90
   2  12   7   -0.70    2.70
  -2  12  -7    2.50    3.20
   2  12   7    4.60    2.90
  -2  12  -7    1.00    2.80
   3 -12   7   31.70    4.30
  -3 -12  -7   22.60    5.30
  -3  12  -7   16.90    4.10
   3  12   7   23.60    4.00
  -3  12  -7   20.90    3.80
   3  12   7   28.40    6.00
   3  12   7   16.10    3.90
  -3  12  -7   22.00    4.00
   6 -13  -7   -0.10    3.60
  -6 -13   7   -0.30    3.50
   6  13  -7   -0.10    3.40
  -6  13   7    1.60    3.60
   5 -13  -7    8.40    3.90
  -5 -13   7    0.10    3.10
  -5  13   7    2.30    3.30
   5  13  -7    2.10    3.10
  -4 -13   7    5.00    2.60
   4 -13  -7   -2.40    3.20
  -4 -13   7   -3.20    2.70
   4  13  -7    5.40    3.20
  -4  13   7    2.00    2.90
  -3 -13   7    6.90    2.60
   3 -13  -7   -0.50    3.20
  -3  13   7   -0.30    2.60
  -3  13   7    2.20    2.50
   3  13  -7    1.30    2.90
  -2 -13   7   14.90    3.20
   2 -13  -7   19.80    4.40
   2  13  -7   13.60    3.30
  -2  13   7   10.20    3.10
   2  13  -7   18.00    3.50
  -2  13   7    8.70    2.80
  -2  13   7   10.10    3.20
   1 -13  -7   12.50    4.20
   1 -13  -7   10.40    3.80
  -1 -13   7    9.70    2.90
  -1  13   7   10.10    3.20
   1  13  -7   10.80    2.50
   1  13  -7   10.00    3.20
   1  13  -7    7.50    3.00
  -1  13   7    9.90    2.90
   0 -13  -7   36.00    5.80
   0 -13  -7   32.60    5.10
   0 -13   7   27.60    3.90
   0  13  -7   35.90    4.50
   0  13  -7   35.40    4.40
   0  13   7   38.30    5.10
   0  13   7   36.20    5.00
   0  13  -7   34.60    4.30
  -1 -13  -7    6.90    4.50
   1 -13   7   -0.90    2.70
  -1 -13  -7    1.80    3.60
  -1  13  -7    4.20    2.70
   1  13   7   -4.50    2.30
   1  13   7    4.10    2.70
  -1  13  -7   -5.10    2.80
  -1  13  -7    5.20    3.20
   2 -13   7    0.30    3.00
  -2 -13  -7   12.80    4.50
  -2  13  -7    1.20    3.20
   2  13   7   -0.40    4.40
   2  13   7    2.70    2.70
  -2  13  -7    2.60    3.00
  -2  13  -7    5.70    3.20
   2  13   7    5.40    3.00
  -3 -13  -7   -7.20    4.00
   3 -13   7   -1.10    3.00
  -3  13  -7   -4.50    2.80
  -3  13  -7    1.90    3.60
   3  13   7   -0.10    3.10
  -3  13  -7    1.10    3.00
   3  13   7    2.00    4.70
   3  13   7   -0.70    2.80
   6 -14  -7    7.50    4.20
  -6 -14   7    2.50    3.60
   6  14  -7    6.10    3.70
   5 -14  -7   -5.60    3.30
  -5 -14   7    3.80    3.40
   5  14  -7    6.20    3.30
  -5  14   7    1.00    3.40
  -4 -14   7    1.10    2.70
  -4 -14   7    0.30    3.00
   4 -14  -7    4.20    3.60
  -4  14   7    2.30    3.20
   4  14  -7    0.00    3.10
  -3 -14   7   12.30    3.00
   3 -14  -7   21.10    4.40
  -3  14   7   14.10    3.50
  -3  14   7   13.10    3.20
   3  14  -7    9.30    3.40
  -2 -14   7   29.30    4.60
   2 -14  -7   49.30    6.70
   2 -14  -7   36.60    7.90
  -2  14   7   37.50    5.30
   2  14  -7   37.70    5.20
   2  14  -7   36.90    5.50
  -2  14   7   32.60    4.70
  -2  14   7   34.20    5.00
   1 -14  -7   19.80    4.20
   1 -14  -7   17.00    4.80
  -1 -14   7   14.20    3.40
   1  14  -7   20.40    2.80
  -1  14   7   20.80    3.70
   1  14  -7   14.90    3.50
  -1  14   7   19.30    3.60
   1  14  -7   16.10    3.70
   0 -14  -7    8.60    4.50
   0 -14  -7    7.80    3.90
   0 -14   7    4.70    2.90
   0  14   7    4.50    2.90
   0  14   7    3.50    2.80
   0  14  -7    1.20    2.90
   0  14  -7    3.10    3.00
   0  14  -7    1.90    2.40
   1 -14   7   31.10    4.30
  -1 -14  -7   30.50    5.90
  -1 -14  -7   33.20    5.40
  -1  14  -7   35.00    4.60
   1  14   7   25.40    3.90
  -1  14  -7   33.20    4.60
  -1  14  -7   29.60    4.20
   1  14   7   26.30    4.00
  -2 -14  -7    8.00    4.20
   2 -14   7   10.30    3.60
  -2  14  -7    5.10    3.50
   2  14   7    7.70    3.10
  -2  14  -7    8.80    3.50
   2  14   7    4.80    3.00
  -2  14  -7    7.80    3.30
   3 -14   7    7.00    5.50
   3  14   7    1.90    4.60
  -3  14  -7    0.80    3.20
  -3  14  -7    1.20    3.30
  -3  14  -7    1.70    3.10
   3  14   7    3.30    3.00
   5 -15  -7   -4.50    3.40
  -5 -15   7   -2.40    3.30
  -5  15   7   -3.20    3.30
   5  15  -7   -5.90    2.80
   4 -15  -7   -3.90    3.20
  -4 -15   7   -2.30    3.80
  -4 -15   7   -2.40    3.00
  -4  15   7   -2.10    2.80
   4  15  -7    3.70    3.30
  -3 -15   7   12.30    3.20
   3 -15  -7   14.20    4.30
   3  15  -7   16.10    3.80
   3  15  -7   11.60    3.50
  -3  15   7    8.00    3.30
  -3  15   7   13.60    3.20
   2 -15  -7   31.40    5.10
  -2 -15   7   25.30    3.80
   2 -15  -7   26.00    5.80
   2  15  -7   23.70    4.10
  -2  15   7   19.70    3.60
  -2  15   7   21.30    3.70
  -2  15   7   22.90    3.80
   2  15  -7   20.20    3.80
   1 -15  -7   14.50    4.90
   1 -15  -7    9.80    4.00
  -1 -15   7    9.10    3.10
  -1  15   7    7.90    3.00
  -1  15   7   10.00    3.20
   1  15  -7    7.30    2.40
   1  15  -7   14.40    3.60
   1  15  -7    8.10    3.30
   0 -15  -7   55.09    7.30
   0 -15   7   45.40    5.70
   0 -15  -7   34.70    7.40
   0  15  -7   53.09    6.00
   0  15  -7   51.89    4.70
   0  15   7   40.10    5.40
   0  15   7   44.70    5.30
   0  15  -7   55.59    5.90
  -1 -15  -7   -3.30    4.20
  -1 -15  -7    4.90    4.10
   1 -15   7    4.30    3.10
   1  15   7    2.20    2.80
  -1  15  -7    0.80    2.60
   1  15   7    0.50    2.70
  -1  15  -7    0.10    3.10
  -1  15  -7   -2.40    2.90
  -2 -15  -7    3.00    4.70
  -2 -15  -7    4.80    4.20
   2 -15   7    1.50    3.20
   2  15   7   -3.80    2.50
  -2  15  -7   -0.80    3.20
   2  15   7   -0.60    2.90
  -2  15  -7    1.40    3.00
  -2  15  -7    3.70    3.20
  -5 -16   7    4.70    3.40
   5 -16  -7   -3.70    3.60
   5  16  -7    1.00    3.10
  -4 -16   7   -0.40    3.20
   4 -16  -7    1.90    3.70
   4  16  -7    4.70    3.30
  -4  16   7    4.30    3.30
   3 -16  -7    1.50    3.50
  -3 -16   7    2.90    2.90
  -3  16   7    1.40    2.90
  -3  16   7    1.60    2.80
   3  16  -7    0.30    3.10
   3  16  -7    1.80    3.10
   2 -16  -7   -0.30    3.50
   2 -16  -7    2.70    4.00
  -2 -16   7    1.70    2.90
   2  16  -7    2.60    3.10
   2  16  -7    0.10    3.00
  -2  16   7    0.40    2.80
  -2  16   7   -1.60    2.60
  -1 -16   7    7.60    3.20
   1 -16  -7    5.00    4.20
   1 -16  -7   13.00    4.20
  -1  16   7    5.40    3.10
   1  16  -7    7.40    3.40
   1  16  -7    9.10    3.40
  -1  16   7    3.40    2.70
   0 -16   7   -1.80    2.80
   0 -16  -7    1.40    3.80
   0 -16  -7   -4.90    3.60
   0  16   7   -2.90    2.50
   0  16  -7    0.30    2.30
   0  16   7   -0.30    2.70
   0  16  -7    3.70    3.30
   0  16  -7    5.50    3.40
   1 -16   7    3.20    3.20
  -1 -16  -7    2.00    3.90
  -1 -16  -7    1.00    4.40
   1  16   7    5.70    3.10
  -1  16  -7   -1.50    2.50
  -1  16  -7    4.40    3.30
   1  16   7    1.90    3.00
  -1  16  -7    0.50    3.10
  -2 -16  -7   13.60    5.50
  -2  16  -7   10.70    3.70
   2  16   7   11.40    3.90
  -2  16  -7    7.50    3.60
  -4 -17   7    7.80    3.60
   4 -17  -7    7.70    4.10
   4  17  -7   11.90    3.70
  -4  17   7    4.10    3.50
  -3 -17   7   14.20    3.50
   3 -17  -7   21.70    4.90
  -3  17   7   13.80    3.50
   3  17  -7   22.50    4.10
  -3  17   7   19.30    4.00
   3  17  -7   13.80    3.80
   2 -17  -7   10.10    4.80
   2 -17  -7   17.10    4.60
  -2 -17   7   18.60    3.70
   2  17  -7   14.00    3.80
  -2  17   7   15.80    3.60
   2  17  -7   16.60    3.80
  -2  17   7    8.70    3.30
  -1 -17   7   -1.20    2.80
   1 -17  -7   -3.00    3.80
   1 -17  -7   -3.60    3.40
  -1  17   7   -3.50    2.70
  -1  17   7    1.00    2.70
   1  17  -7    0.80    3.20
   1  17  -7   -0.90    3.00
   0 -17   7   37.10    4.80
   0 -17  -7   38.20    7.90
   0 -17  -7   58.89    7.40
   0  17   7   27.90    4.20
   0  17  -7   36.30    4.40
   0  17   7   30.80    4.60
   0  17  -7   44.30    6.10
   0  17  -7   34.10    4.70
  -1 -17  -7    2.40    4.90
  -1 -17  -7    5.60    6.60
   1  17   7   -0.10    2.80
  -1  17  -7    6.60    3.50
  -1  17  -7    3.00    3.60
   3 -18  -7    8.40    4.30
  -3 -18   7   11.90    3.60
  -3  18   7   14.70    3.50
  -3  18   7   10.20    3.60
  -2 -18   7    3.20    3.20
   2 -18  -7    2.30    3.90
   2 -18  -7    2.30    4.40
  -2  18   7    7.00    3.20
  -2  18   7    1.80    2.90
   2  18  -7    3.20    4.10
   2  18  -7   -0.20    3.30
   1 -18  -7   26.80    5.10
  -1 -18   7   25.60    4.40
   1 -18  -7   23.10    5.70
  -1  18   7   28.40    4.40
  -1  18   7   21.30    3.90
   1  18  -7   30.10    6.10
   1  18  -7   36.90    6.30
   0 -18  -7    4.00    4.80
   0 -18  -7    4.30    4.60
   0  18   7    0.00    2.70
  -8   0   8    7.80    4.70
  -8   0   8   10.30    7.60
   7   0  -8    1.30    3.80
   7   0  -8    6.20    3.10
  -7   0   8    7.50    3.70
  -7   0   8   -0.80    3.30
  -6   0   8   29.10    4.20
   6   0  -8   31.30    4.80
   6   0  -8   23.50    3.70
   6   0  -8   27.50    4.10
   5   0  -8  103.09    7.70
  -5   0   8  111.79    7.10
   5   0  -8  119.89    6.90
   5   0  -8  110.39    7.20
  -4   0   8   20.30    3.50
   4   0  -8   14.90    3.20
   4   0  -8   14.10    3.20
   4   0  -8   21.70    3.80
   3   0  -8  185.68    8.90
  -3   0   8  184.48    8.50
   3   0  -8  180.48    9.10
  -3   0   8  194.38    9.20
   3   0  -8  191.68    9.60
   2   0  -8  262.77   11.30
   2   0  -8  244.88   11.60
  -2   0   8  265.47   11.00
  -2   0   8  252.47   11.00
   2   0  -8  251.57   11.30
   1   0  -8   18.90    3.40
  -1   0   8   19.80    3.10
   1   0  -8   14.30    3.10
   1   0  -8    9.90    2.90
  -1   0   8   19.60    2.80
   0   0   8   25.10    3.50
   0   0  -8   17.50    3.20
   0   0  -8   22.60    3.50
   0   0  -8   18.00    3.30
   0   0   8   20.30    3.10
  -1   0  -8   16.10    3.30
  -1   0  -8   16.50    3.40
   1   0   8   18.30    3.30
   2   0   8    1.10    2.80
  -2   0  -8   -2.40    2.70
   3   0   8   26.50    4.00
  -3   0  -8   28.60    4.50
   4   0   8   52.59    5.80
  -4   0  -8   55.89    7.10
  -8  -1   8    2.10    4.20
  -8   1   8    3.50    4.00
  -7  -1   8    0.40    3.40
   7  -1  -8   -9.80    3.20
  -7  -1   8   -2.20    3.20
   7  -1  -8    2.60    3.10
   7   1  -8    2.50    2.80
  -7   1   8    6.40    3.70
  -7   1   8   -2.70    3.40
   7   1  -8    3.00    3.90
   6  -1  -8    3.00    2.90
   6  -1  -8    1.10    3.00
  -6  -1   8    0.80    3.10
   6  -1  -8    1.20    3.40
   6   1  -8    4.40    2.80
   6   1  -8    2.00    3.40
   6   1  -8   -5.40    2.70
  -6   1   8    1.00    3.10
   5  -1  -8    2.40    3.30
  -5  -1   8    2.70    3.00
   5  -1  -8    1.90    2.80
   5  -1  -8    5.90    2.80
   5   1  -8    7.20    3.50
  -5   1   8    2.00    2.90
   5   1  -8    2.10    2.60
   5   1  -8    2.60    2.70
   4  -1  -8   61.29    5.90
   4  -1  -8   65.59    5.50
  -4  -1   8   60.09    5.70
   4  -1  -8   65.49    5.70
   4   1  -8   70.99    5.60
   4   1  -8   65.49    5.90
   4   1  -8   71.29    5.70
  -4   1   8   59.69    5.60
   3  -1  -8  185.18    9.00
   3  -1  -8  178.68    9.50
  -3  -1   8  182.98    9.00
   3  -1  -8  200.38    9.00
  -3  -1   8  189.78    8.50
   3   1  -8  188.18    8.80
  -3   1   8  168.98    8.90
   3   1  -8  187.78    9.50
   3   1  -8  176.58    9.10
  -3   1   8  190.38    8.50
   2  -1  -8   33.90    4.60
   2  -1  -8   30.00    4.10
  -2  -1   8   26.60    4.10
  -2  -1   8   32.50    4.20
   2  -1  -8   22.80    3.40
   2   1  -8   24.50    3.60
  -2   1   8   28.20    3.90
  -2   1   8   25.80    4.00
   2   1  -8   30.10    4.40
   2   1  -8   30.50    4.60
  -1  -1   8   61.69    4.80
   1  -1  -8   63.49    5.70
   1  -1  -8   56.29    5.20
  -1  -1   8   59.29    5.10
   1  -1  -8   60.79    5.20
  -1   1   8   51.49    4.70
   1   1  -8   61.09    5.10
  -1   1   8   58.69    4.60
   1   1  -8   67.29    5.60
   1   1  -8   56.99    5.50
   0  -1  -8   26.30    3.50
   0  -1  -8   31.20    4.60
   0  -1   8   22.50    2.90
   0  -1  -8   36.90    5.10
   0  -1   8   29.10    3.60
   0   1   8   34.40    4.20
   0   1  -8   32.20    4.60
   0   1  -8   30.80    5.00
   0   1   8   28.70    3.70
   0   1  -8   29.20    4.50
  -1  -1  -8   59.79    5.70
   1  -1   8   58.19    5.10
  -1  -1  -8   57.89    5.60
  -1   1  -8   53.59    5.40
  -1   1  -8   50.29    5.20
   1   1   8   46.50    4.80
  -1   1  -8   59.69    5.90
  -2  -1  -8   52.59    5.90
  -2  -1  -8   65.59    6.10
   2  -1   8   58.09    5.30
  -2   1  -8   55.89    6.10
   2   1   8   59.89    5.40
   3  -1   8   23.10    3.80
  -3  -1  -8   25.50    4.20
  -3   1  -8   22.60    4.10
   3   1   8   21.00    3.70
  -4  -1  -8   24.40    4.50
   4  -1   8   22.50    3.90
   4   1   8   19.80    3.90
  -4   1  -8   27.20    4.70
  -8  -2   8    0.80    3.80
  -8   2   8    4.60    3.90
   7  -2  -8   -4.40    2.90
   7  -2  -8   -3.70    3.50
  -7  -2   8    1.90    3.30
   7   2  -8   -2.20    3.60
  -7   2   8   -1.90    3.40
   7   2  -8    1.30    2.80
  -7   2   8   -0.90    3.40
   6  -2  -8   -3.40    3.10
  -6  -2   8   -0.40    3.00
   6  -2  -8   -1.00    2.70
  -6   2   8   -1.30    3.00
   6   2  -8   -2.50    3.30
   6   2  -8    2.30    3.00
   6   2  -8    0.00    2.60
   5  -2  -8   16.40    3.40
  -5  -2   8   28.10    4.00
   5  -2  -8   22.20    3.70
   5  -2  -8   22.90    4.10
   5   2  -8   19.80    3.10
   5   2  -8   20.00    3.50
  -5   2   8   19.90    3.60
   5   2  -8   18.30    4.00
   4  -2  -8   19.80    3.80
  -4  -2   8   19.60    3.40
   4  -2  -8   16.30    3.20
   4  -2  -8   17.30    3.20
   4   2  -8   23.00    3.80
  -4   2   8   13.80    3.20
   4   2  -8   20.50    3.50
   4   2  -8   22.20    3.30
   3  -2  -8   97.19    6.90
   3  -2  -8   93.39    6.10
  -3  -2   8   90.59    5.60
  -3  -2   8   84.89    6.20
   3   2  -8   83.29    6.50
   3   2  -8   96.59    5.90
  -3   2   8   94.29    6.10
   3   2  -8   86.99    6.20
  -3   2   8   89.89    5.50
   2  -2  -8   19.40    3.30
  -2  -2   8   13.50    2.90
   2  -2  -8   15.00    3.00
   2  -2  -8   17.10    3.70
  -2  -2   8   16.70    2.90
  -2   2   8   18.90    3.10
   2   2  -8   16.90    3.20
   2   2  -8   20.80    3.10
   2   2  -8   21.40    3.50
  -2   2   8   28.50    3.80
   1  -2  -8   15.80    3.00
  -1  -2   8   16.00    2.90
   1  -2  -8   19.80    3.30
  -1  -2   8   13.50    2.70
   1  -2  -8   21.60    3.70
   1   2  -8   17.60    3.10
   1   2  -8   14.30    3.20
  -1   2   8   24.30    3.00
  -1   2   8   21.50    3.20
   1   2  -8   19.90    3.30
   0  -2  -8  279.17   12.20
   0  -2  -8  273.27   12.30
   0  -2  -8  289.67   12.70
   0  -2   8  293.27   11.80
   0  -2   8  280.77   12.20
   0   2   8  289.27   12.10
   0   2   8  276.07   11.50
   0   2  -8  281.37   12.10
   0   2  -8  287.67   12.50
   0   2  -8  278.47   12.30
  -1  -2  -8    0.80    2.50
  -1  -2  -8    3.70    3.00
   1  -2   8   -0.70    2.40
  -1   2  -8    1.10    2.70
  -1   2  -8    0.30    2.70
   1   2   8    0.90    2.40
  -2  -2  -8   32.80    4.50
   2  -2   8   39.20    4.90
  -2  -2  -8   36.50    5.40
  -2   2  -8   34.90    4.40
   2   2   8   23.80    3.70
  -3  -2  -8   25.90    4.30
   3  -2   8   25.70    4.00
  -3  -2  -8   24.00    4.10
  -3   2  -8   27.50    4.50
   3   2   8   26.30    3.90
  -4  -2  -8    1.40    3.50
   4  -2   8    9.70    3.40
   4   2   8    2.90    3.10
  -4   2  -8    6.40    3.80
  -7  -3   8    3.40    3.40
   7  -3  -8    7.80    3.50
   7  -3  -8    6.20    3.90
   7   3  -8    8.10    4.00
  -7   3   8    1.50    3.50
   7   3  -8   10.50    3.00
  -7   3   8    4.60    3.60
   6  -3  -8    1.80    3.00
  -6  -3   8    6.30    3.40
   6  -3  -8    4.60    3.60
  -6   3   8    3.70    3.30
   6   3  -8    7.70    2.80
   6   3  -8    8.10    3.20
   6   3  -8    2.30    3.50
   5  -3  -8   21.60    3.30
  -5  -3   8   14.70    3.50
   5  -3  -8   17.00    3.60
   5  -3  -8   20.90    4.10
   5   3  -8   19.30    3.50
   5   3  -8   20.20    4.10
  -5   3   8   12.70    3.40
   5   3  -8   14.50    2.90
   4  -3  -8    9.30    3.00
  -4  -3   8   12.80    3.10
   4  -3  -8   14.60    3.70
   4  -3  -8   12.50    2.90
   4   3  -8   13.80    3.40
   4   3  -8   10.30    2.90
   4   3  -8   15.80    3.30
  -4   3   8   10.10    3.10
   3  -3  -8  136.39    7.40
  -3  -3   8  146.09    7.80
   3  -3  -8  134.79    8.40
  -3  -3   8  132.79    7.10
   3   3  -8  150.08    7.30
   3   3  -8  147.49    8.00
  -3   3   8  148.09    7.10
   3   3  -8  138.89    8.00
  -3   3   8  134.69    7.50
   2  -3  -8   65.69    5.90
   2  -3  -8   67.19    5.50
   2  -3  -8   64.19    5.10
  -2  -3   8   54.99    5.10
  -2  -3   8   62.79    5.10
  -2   3   8   74.89    5.10
   2   3  -8   60.29    5.30
   2   3  -8   72.99    5.30
  -2   3   8   61.49    4.90
   2   3  -8   63.79    5.60
   1  -3  -8   96.19    6.40
   1  -3  -8   90.89    6.10
  -1  -3   8  103.19    6.00
   1  -3  -8  102.09    7.10
  -1  -3   8  100.09    6.30
   1   3  -8  102.59    6.80
   1   3  -8  105.29    6.40
   1   3  -8  109.89    6.50
  -1   3   8  104.19    6.10
  -1   3   8   97.59    5.80
   0  -3   8   -0.60    2.30
   0  -3  -8    5.00    2.50
   0  -3  -8   -5.50    2.60
   0  -3   8    2.80    2.20
   0   3   8    2.80    2.30
   0   3  -8    3.60    2.80
   0   3  -8    0.20    2.40
  -1  -3  -8   24.80    3.90
  -1  -3  -8   15.80    3.20
   1  -3   8   15.30    3.10
   1  -3   8   18.00    3.30
  -1   3  -8   18.70    3.60
  -1   3  -8   15.10    3.40
   1   3   8   18.80    3.20
  -2  -3  -8    5.20    3.00
   2  -3   8   11.50    3.10
  -2  -3  -8    7.00    3.40
   2   3   8   12.80    3.20
  -2   3  -8    1.20    3.20
   3  -3   8    4.50    3.10
  -3  -3  -8    2.30    3.00
  -3  -3  -8    2.60    3.40
  -3   3  -8    0.50    3.20
   3   3   8    3.00    2.80
   4  -3   8   68.69    6.40
  -4  -3  -8   63.89    7.00
  -4   3  -8   66.49    7.40
   4   3   8   73.49    6.60
   7  -4  -8   -4.00    3.40
   7  -4  -8    0.00    3.30
  -7  -4   8   -0.20    3.30
   7   4  -8    2.90    3.80
   7   4  -8   -3.60    2.50
  -7   4   8    4.80    3.60
  -7   4   8   -2.90    3.50
   6  -4  -8   10.20    3.40
   6  -4  -8   15.50    3.90
  -6  -4   8   12.00    3.60
   6   4  -8    9.60    3.30
  -6   4   8   10.40    3.60
   6   4  -8    5.00    3.60
   6   4  -8   10.10    2.80
   5  -4  -8   67.89    6.10
  -5  -4   8   57.29    5.80
   5  -4  -8   67.09    5.60
   5  -4  -8   81.79    6.80
   5   4  -8   60.19    6.00
  -5   4   8   71.89    6.30
   5   4  -8   77.29    5.30
   5   4  -8   73.49    6.60
  -4  -4   8  103.79    6.70
   4  -4  -8   96.99    7.10
   4  -4  -8   95.39    6.10
   4  -4  -8  107.59    6.90
   4   4  -8   92.19    6.90
  -4   4   8   95.69    6.60
   4   4  -8  100.29    6.10
   4   4  -8   93.49    6.60
   3  -4  -8    3.70    3.10
  -3  -4   8    2.20    2.30
   3  -4  -8   -0.40    2.30
   3  -4  -8   -1.90    2.50
  -3  -4   8   -0.50    2.40
   3   4  -8   -0.80    2.60
   3   4  -8    1.50    2.40
   3   4  -8   -2.70    2.50
  -3   4   8    0.50    2.30
  -3   4   8    3.60    2.30
   2  -4  -8    0.80    2.60
  -2  -4   8    1.00    2.30
   2  -4  -8    0.50    2.90
   2  -4  -8    1.40    2.30
  -2  -4   8   -1.80    2.20
  -2   4   8   -0.40    2.20
  -2   4   8    0.70    2.30
   2   4  -8   -0.50    2.40
   2   4  -8   -0.60    2.40
   2   4  -8    1.80    2.70
   1  -4  -8   16.10    3.70
  -1  -4   8   24.70    3.40
   1  -4  -8   15.90    3.30
  -1  -4   8   23.00    3.20
   1  -4  -8   22.00    3.10
  -1   4   8   23.50    3.30
   1   4  -8   24.60    3.40
   1   4  -8   26.70    4.20
  -1   4   8   17.90    2.70
   1   4  -8   20.60    3.60
   0  -4   8    0.90    2.10
   0  -4  -8    6.30    3.20
   0  -4   8    8.20    2.70
   0  -4  -8    3.00    2.40
   0   4  -8    9.60    3.00
   0   4   8   -0.40    2.30
   0   4  -8    2.90    2.70
  -1  -4  -8  116.19    6.90
  -1  -4  -8  118.69    8.00
   1  -4   8  121.79    6.40
   1  -4   8  103.89    6.90
  -1   4  -8  109.29    7.40
  -1   4  -8  117.89    7.20
   1   4   8  110.29    6.80
   2  -4   8  118.19    7.20
  -2  -4  -8  110.09    8.10
  -2  -4  -8  115.29    7.40
   2   4   8  113.69    7.30
  -2   4  -8  120.19    8.00
  -3  -4  -8   36.00    5.60
  -3  -4  -8   30.40    4.80
   3  -4   8   34.90    5.40
   3   4   8   39.10    5.30
  -3   4  -8   43.70    6.20
  -4  -4  -8   23.00    4.80
  -4  -4  -8   18.70    4.20
   4  -4   8   19.70    4.00
   4   4   8   19.40    4.10
  -4   4  -8   23.00    4.60
   7  -5  -8   28.20    4.50
  -7  -5   8   27.20    4.40
   7  -5  -8   28.40    5.10
  -7   5   8   29.50    4.70
   7   5  -8   27.20    3.40
  -7   5   8   21.40    4.50
   7   5  -8   28.20    5.20
   6  -5  -8   40.50    5.80
   6  -5  -8   38.80    6.10
  -6  -5   8   40.60    5.80
  -6   5   8   36.20    5.50
   6   5  -8   42.10    5.80
   6   5  -8   38.50    4.60
  -6   5   8   46.70    6.10
   6   5  -8   54.09    6.40
   5  -5  -8  112.59    6.90
   5  -5  -8  123.39    7.80
   5  -5  -8  119.49    8.40
  -5  -5   8  123.69    7.60
   5   5  -8  126.69    6.60
   5   5  -8  109.19    7.90
  -5   5   8  117.49    7.60
   5   5  -8  118.69    7.60
  -4  -5   8  171.28    8.80
   4  -5  -8  153.38    8.10
   4  -5  -8  169.48    9.40
   4  -5  -8  161.78    8.90
   4   5  -8  176.08    8.20
   4   5  -8  154.18    8.90
   4   5  -8  175.38    9.00
  -4   5   8  174.18    8.90
   3  -5  -8    0.00    3.00
   3  -5  -8    1.40    2.70
   3  -5  -8   -0.90    2.10
  -3  -5   8    0.70    2.30
  -3  -5   8   -0.20    2.40
   3   5  -8    2.80    2.80
   3   5  -8   -0.50    2.50
   3   5  -8    0.80    2.30
  -3   5   8   -0.20    2.30
  -3   5   8    4.80    2.30
  -2  -5   8    4.20    2.60
   2  -5  -8    5.20    2.50
  -2  -5   8    6.00    2.60
   2  -5  -8    3.30    3.10
   2  -5  -8    5.20    2.90
  -2   5   8   -2.10    2.20
   2   5  -8    8.70    2.60
   2   5  -8    3.10    2.50
   2   5  -8    5.80    3.00
  -2   5   8    2.30    2.20
  -1  -5   8   72.79    5.30
  -1  -5   8   73.69    5.40
   1  -5  -8   73.29    6.50
   1  -5  -8   66.59    5.20
   1   5  -8   82.39    5.50
  -1   5   8   73.99    4.90
  -1   5   8   65.39    5.20
   1   5  -8   71.19    6.00
   0  -5   8  119.29    6.70
   0  -5  -8  112.99    6.70
   0  -5  -8  117.09    7.90
   0  -5   8  120.49    7.00
   0   5  -8  123.49    6.90
   0   5   8  112.89    6.80
   0   5  -8   98.49    7.20
   1  -5   8   94.89    5.90
  -1  -5  -8   87.39    6.20
   1  -5   8   77.59    6.20
  -1  -5  -8   95.49    7.40
  -1   5  -8   83.59    6.30
   1   5   8  103.59    6.40
  -1   5  -8   90.09    6.90
  -2  -5  -8    6.30    3.50
  -2  -5  -8    0.50    2.70
   2  -5   8   -2.70    2.60
   2   5   8   -1.30    2.70
  -2   5  -8   -0.50    2.90
  -2   5  -8    0.00    3.00
  -3  -5  -8   32.70    5.20
  -3  -5  -8   44.00    5.60
   3  -5   8   47.10    5.60
  -3   5  -8   41.80    6.60
   3   5   8   46.00    5.60
   4  -5   8   20.60    3.90
  -4  -5  -8   12.40    4.60
  -4  -5  -8   13.40    4.60
   4   5   8   11.40    3.70
  -4   5  -8   11.20    4.50
   7  -6  -8   40.60    6.40
   7  -6  -8   37.10    5.60
  -7  -6   8   49.40    6.50
   7   6  -8   27.40    5.00
  -7   6   8   47.80    6.50
   6  -6  -8   42.00    6.50
  -6  -6   8   43.60    6.00
   6  -6  -8   46.40    6.10
   6   6  -8   45.80    6.10
   6   6  -8   46.80    4.60
  -6   6   8   49.40    6.30
   6   6  -8   35.80    6.00
   5  -6  -8  111.99    7.60
   5  -6  -8  111.09    8.10
  -5  -6   8  111.49    7.60
  -5   6   8  123.19    7.80
   5   6  -8  110.39    7.50
   5   6  -8  122.29    6.40
   5   6  -8  111.19    7.80
   4  -6  -8  165.68   10.00
  -4  -6   8  168.78    9.20
   4  -6  -8  182.58    9.60
   4   6  -8  191.28    8.50
   4   6  -8  187.28    9.50
   4   6  -8  179.18    9.40
  -4   6   8  187.78    9.30
  -3  -6   8   25.10    3.60
   3  -6  -8   20.60    4.10
  -3  -6   8   27.60    3.40
   3  -6  -8   32.90    4.20
   3   6  -8   28.90    4.10
   3   6  -8   36.60    5.10
   3   6  -8   34.40    4.70
  -3   6   8   29.60    4.10
  -3   6   8   28.40    4.30
  -2  -6   8  207.78    9.70
  -2  -6   8  210.48    9.90
   2  -6  -8  224.68   11.00
   2   6  -8  207.68    9.50
  -2   6   8  206.18    9.60
   2   6  -8  218.88   10.50
  -2   6   8  211.08    9.70
  -1  -6   8    6.90    2.70
   1  -6  -8   -1.20    3.00
  -1  -6   8    3.80    2.50
  -1   6   8    6.40    2.30
  -1   6   8    5.20    2.60
   1   6  -8    4.40    2.50
   1   6  -8    3.40    2.80
   0  -6   8   -1.20    2.50
   0  -6  -8    0.80    3.10
   0  -6   8    1.70    2.40
   0   6  -8   -1.80    2.50
   0   6   8    2.00    2.50
   0   6  -8   -3.20    2.50
   1  -6   8   37.00    4.90
  -1  -6  -8   39.50    6.10
  -1   6  -8   31.60    4.00
  -1   6  -8   33.90    5.40
   1   6   8   36.60    4.60
  -2  -6  -8   23.20    4.50
   2  -6   8   33.80    5.10
   2   6   8   22.40    3.70
  -2   6  -8   23.70    4.10
  -2   6  -8   19.90    4.10
   3  -6   8  142.29    8.50
  -3  -6  -8  139.69    9.70
   3   6   8  143.19    8.60
  -3   6  -8  154.88    9.40
  -4  -6  -8   10.60    4.40
   4  -6   8   13.70    3.80
   4   6   8   13.70    3.70
  -7  -7   8   75.89    7.30
   7  -7  -8   71.09    7.30
   7  -7  -8   77.19    8.00
   7   7  -8   72.59    7.60
  -7   7   8   78.89    7.70
   6  -7  -8   13.80    4.00
   6  -7  -8   20.40    4.10
  -6  -7   8   15.40    3.80
  -6   7   8   16.80    4.10
   6   7  -8   18.40    3.90
   6   7  -8   13.50    4.10
   5  -7  -8   20.00    4.30
  -5  -7   8   21.40    3.90
   5  -7  -8   22.50    3.90
   5   7  -8   14.40    3.60
  -5   7   8   14.30    3.80
   5   7  -8   18.20    3.80
   4  -7  -8  114.19    8.10
  -4  -7   8   95.49    7.00
   4  -7  -8   87.59    7.70
   4   7  -8  101.89    7.00
  -4   7   8  112.59    7.20
   4   7  -8  118.79    6.20
   4   7  -8  109.49    7.30
  -3  -7   8   29.50    4.20
  -3  -7   8   17.70    3.40
   3  -7  -8   21.60    4.20
  -3   7   8   30.70    4.20
   3   7  -8   27.70    3.90
   3   7  -8   24.80    3.10
   3   7  -8   24.20    5.60
  -3   7   8   25.00    3.50
  -2  -7   8   -3.10    2.30
  -2  -7   8   -1.10    2.40
   2  -7  -8    6.20    3.60
   2   7  -8   -1.20    2.20
  -2   7   8    0.10    2.30
   2   7  -8   -2.10    2.70
  -2   7   8    4.20    2.30
   1  -7  -8  142.69    9.00
  -1  -7   8  147.59    7.80
  -1  -7   8  149.39    7.90
  -1   7   8  139.09    7.20
   1   7  -8  145.89    7.50
  -1   7   8  138.69    7.70
   1   7  -8  154.78    8.50
   0  -7   8   22.10    3.60
   0  -7  -8   28.50    4.60
   0   7   8   29.90    4.40
   0   7  -8   27.90    4.10
   0   7  -8   24.00    3.50
   1  -7   8   93.29    6.50
  -1  -7  -8   81.49    7.50
  -1   7  -8   94.19    6.90
  -1   7  -8   89.89    6.30
   1   7   8   75.29    6.10
   2  -7   8    8.00    3.20
  -2  -7  -8    2.70    3.60
   2   7   8    1.80    2.80
  -2   7  -8   -2.50    3.00
  -2   7  -8    3.70    3.20
   3  -7   8   35.40    4.80
  -3  -7  -8   38.40    5.50
  -3   7  -8   31.40    4.80
   3   7   8   28.80    4.40
   4  -7   8   69.89    6.90
  -4  -7  -8   75.59    8.30
   4   7   8   81.89   10.00
   7  -8  -8   58.89    7.60
  -7  -8   8   63.39    6.90
   7   8  -8   54.89    7.10
   6  -8  -8    9.40    4.10
  -6  -8   8   17.30    3.90
   6   8  -8   12.30    3.70
  -6   8   8   10.80    3.90
   6   8  -8   13.00    4.00
   5  -8  -8    6.90    3.80
  -5  -8   8   -3.90    2.90
  -5   8   8    0.80    3.10
   5   8  -8    1.00    3.20
   5   8  -8   -4.50    2.80
  -4  -8   8   52.79    5.80
   4  -8  -8   62.29    6.80
   4   8  -8   62.49    5.70
   4   8  -8   66.79    6.20
  -4   8   8   79.19    6.30
   4   8  -8   65.99    4.80
  -3  -8   8   22.80    3.60
   3  -8  -8   22.10    4.40
  -3  -8   8   18.90    3.20
   3   8  -8   20.80    2.80
  -3   8   8   20.30    3.10
   3   8  -8   19.70    3.70
  -3   8   8   15.10    3.10
  -2  -8   8  333.57   14.40
   2  -8  -8  356.96   15.80
  -2  -8   8  343.57   14.60
   2   8  -8  365.46   14.00
  -2   8   8  342.57   14.40
  -2   8   8  348.17   14.30
   2   8  -8  349.67   15.00
   1  -8  -8    2.70    3.20
  -1  -8   8    0.90    2.50
  -1  -8   8    4.00    2.70
   1   8  -8    4.40    2.50
   1   8  -8    3.80    2.90
  -1   8   8    1.20    2.50
   0  -8   8   12.00    3.20
   0  -8  -8   13.50    4.00
   0   8  -8    7.60    3.30
   0   8   8    8.90    2.90
   0   8  -8    9.10    2.90
   1  -8   8    1.10    2.80
  -1  -8  -8   -2.20    3.30
   1   8   8   -2.60    2.40
  -1   8  -8    5.20    3.20
  -1   8  -8    4.80    2.90
  -1   8  -8    1.70    2.80
   2  -8   8    7.60    3.30
  -2  -8  -8   11.60    4.10
   2   8   8   14.20    3.40
  -2   8  -8    4.10    3.30
  -2   8  -8   11.10    3.70
   2   8   8    8.30    3.40
  -3  -8  -8    8.70    4.30
   3  -8   8    3.30    3.30
   3   8   8   -3.80    2.80
   3   8   8   -0.10    3.20
  -3   8  -8   -2.40    3.30
  -7  -9   8   64.39    6.90
   7   9  -8   53.79    6.80
   6  -9  -8   26.50    5.20
  -6  -9   8   33.00    4.70
   6   9  -8   29.20    4.60
   6   9  -8   29.60    4.70
  -6   9   8   38.90    5.10
  -5  -9   8   26.00    4.20
   5  -9  -8   15.20    4.40
  -5   9   8   30.60    4.40
   5   9  -8   26.80    4.30
   5   9  -8   24.90    4.20
  -4  -9   8    5.60    3.00
   4  -9  -8    2.80    3.40
   4   9  -8    0.60    2.70
  -4   9   8    2.30    2.90
   3  -9  -8   10.00    4.00
  -3  -9   8   18.40    3.20
  -3  -9   8   18.90    3.50
  -3   9   8   16.20    3.20
  -3   9   8   12.60    3.00
   3   9  -8   15.20    3.60
   3   9  -8   14.50    2.60
  -2  -9   8   -1.00    2.50
  -2  -9   8    0.70    2.70
   2  -9  -8    5.50    3.50
   2   9  -8   -1.70    2.30
  -2   9   8   -2.10    2.30
   2   9  -8   -1.40    2.70
  -2   9   8   -1.70    2.20
   1  -9  -8    3.70    3.40
  -1  -9   8    2.20    2.70
  -1   9   8   -2.40    2.40
   1   9  -8    0.90    2.80
   1   9  -8    0.10    2.50
   0  -9  -8   17.90    4.30
   0  -9   8   13.70    3.30
   0   9   8   12.30    3.10
   0   9  -8   12.70    3.10
   0   9  -8   16.50    3.60
   0   9  -8   16.50    3.30
   1  -9   8   45.70    5.40
  -1  -9  -8   43.50    6.50
  -1   9  -8   51.39    5.90
   1   9   8   53.29    5.40
   1   9   8   42.60    5.80
  -1   9  -8   47.10    5.30
  -1   9  -8   49.80    5.30
   2  -9   8  134.09    8.30
  -2  -9  -8  128.79    9.50
  -2   9  -8  132.99    8.70
   2   9   8  142.59    8.70
  -2   9  -8  138.29    9.40
   2   9   8  140.89    8.20
  -2   9  -8  116.09    7.90
  -3  -9  -8   29.20    5.30
   3  -9   8   24.60    4.40
   3   9   8   22.20    4.20
  -3   9  -8   26.90    4.70
   3   9   8   28.40    4.40
  -6 -10   8   90.09    7.40
   6 -10  -8   63.49    7.80
   6  10  -8   71.09    6.80
   6  10  -8   79.39    7.20
  -6  10   8   73.79    7.40
  -5 -10   8   60.89    6.40
   5 -10  -8   65.79    7.30
  -5  10   8   61.69    6.50
   5  10  -8   53.99    6.50
   4 -10  -8   28.50    4.80
  -4 -10   8   25.00    4.00
  -4  10   8   28.30    4.00
   4  10  -8   23.10    4.00
   3 -10  -8   64.39    7.20
  -3 -10   8   70.09    6.00
  -3 -10   8   76.29    5.50
  -3  10   8   66.69    5.60
   3  10  -8   63.69    4.60
  -3  10   8   63.89    5.80
   3  10  -8   76.89    6.50
  -2 -10   8   70.89    6.10
   2 -10  -8   75.99    7.20
  -2 -10   8   76.09    5.70
   2  10  -8   80.89    5.20
   2  10  -8   70.69    6.50
  -2  10   8   78.19    5.80
  -2  10   8   77.99    5.70
   1 -10  -8   30.90    4.80
  -1 -10   8   31.20    4.80
   1  10  -8   37.80    5.40
  -1  10   8   25.40    3.70
   1  10  -8   30.50    4.20
   0 -10  -8    3.90    3.60
   0 -10   8    3.90    3.00
   0  10  -8   -5.50    2.60
   0  10   8    3.50    2.70
   0  10   8    1.70    3.20
   0  10  -8   -0.30    3.00
   0  10  -8   -2.20    2.50
   1 -10   8   52.29    5.70
  -1 -10  -8   40.80    6.50
   1  10   8   35.40    5.50
   1  10   8   37.70    5.20
  -1  10  -8   37.60    5.20
  -1  10  -8   44.70    5.10
  -1  10  -8   39.50    5.80
   2 -10   8  157.18    9.10
  -2 -10  -8  149.39   10.10
  -2  10  -8  149.59    8.70
  -2  10  -8  146.29    8.60
   2  10   8  157.58    9.40
   2  10   8  157.88    9.00
  -2  10  -8  149.88    9.40
  -3 -10  -8   71.69    8.30
   3 -10   8   72.29    6.80
   3  10   8   71.89    6.60
   3  10   8   68.19    6.80
  -3  10  -8   50.79    7.20
   6 -11  -8  111.49    9.30
  -6 -11   8  121.19    8.40
   6  11  -8  123.79    8.70
  -6  11   8  123.59    9.00
  -5 -11   8  163.28    9.60
   5 -11  -8  167.88   10.60
   5  11  -8  165.58    9.80
  -5  11   8  182.88    9.80
  -4 -11   8    9.80    3.50
   4 -11  -8    9.80    4.10
   4  11  -8   10.00    3.60
  -4  11   8   14.70    3.60
  -3 -11   8   17.20    3.30
   3 -11  -8   15.90    4.30
  -3 -11   8   13.90    3.50
   3  11  -8   21.90    3.90
  -3  11   8   15.70    3.20
  -3  11   8   20.30    3.40
  -2 -11   8   -1.50    2.40
   2 -11  -8    6.90    3.80
   2  11  -8    1.80    2.30
   2  11  -8    4.90    3.00
  -2  11   8    4.90    2.70
  -2  11   8    4.60    2.60
   1 -11  -8   11.30    3.90
  -1 -11   8   11.70    3.20
   1  11  -8   12.20    3.60
   1  11  -8    4.00    2.50
   1  11  -8    6.50    3.20
  -1  11   8    8.60    2.90
   0 -11  -8    7.10    4.00
   0 -11   8   10.30    3.30
   0  11   8    4.10    2.90
   0  11  -8    7.90    3.10
   0  11  -8    7.40    2.90
   0  11  -8    7.60    3.30
   0  11   8    4.40    3.00
   1 -11   8   37.70    5.60
  -1 -11  -8   42.00    7.10
   1  11   8   37.60    5.00
   1  11   8   28.80    4.20
  -1  11  -8   52.09    6.20
  -1  11  -8   34.20    5.30
  -1  11  -8   38.00    5.00
   2 -11   8   14.50    3.80
  -2 -11  -8    0.70    4.10
  -2  11  -8    6.40    3.70
   2  11   8    6.20    3.30
  -2  11  -8   11.00    3.60
   2  11   8    9.60    3.40
  -2  11  -8   13.10    3.40
   3  11   8   17.30    4.10
  -3  11  -8   20.70    4.20
  -6 -12   8    2.60    3.70
   6 -12  -8    4.30    4.30
   5 -12  -8   17.00    4.40
  -5 -12   8   11.10    3.80
   5  12  -8    9.70    3.90
  -5  12   8    7.40    3.80
   4 -12  -8    0.80    3.60
  -4 -12   8    0.50    3.00
   4  12  -8    0.90    3.10
  -4  12   8   -4.20    2.70
  -3 -12   8   18.00    3.40
  -3 -12   8   14.40    3.60
   3 -12  -8   23.20    4.70
  -3  12   8   14.10    3.50
   3  12  -8   22.20    4.00
  -3  12   8   21.80    3.50
   2 -12  -8   86.89    8.00
  -2 -12   8   87.99    6.30
   2  12  -8   87.39    6.90
  -2  12   8   75.99    6.30
   2  12  -8   91.09    5.40
  -2  12   8   76.79    6.10
  -1 -12   8    3.40    2.90
   1 -12  -8   -5.50    3.30
   1  12  -8    2.10    2.40
   1  12  -8    1.70    2.90
   1  12  -8    0.60    3.20
  -1  12   8   -1.70    2.60
   0 -12  -8  240.18   12.60
   0 -12   8  215.98   11.00
   0  12   8  231.28   11.20
   0  12  -8  233.28   11.30
   0  12  -8  199.38   10.70
   0  12   8  230.68   11.00
   0  12  -8  213.98   10.20
   1 -12   8    9.50    3.60
  -1 -12  -8    7.70    4.40
  -1  12  -8    9.20    3.40
   1  12   8    5.00    3.20
  -1  12  -8   11.80    3.70
   1  12   8    8.00    3.00
  -1  12  -8   14.30    3.50
   2 -12   8    5.00    3.50
  -2 -12  -8    1.50    4.40
   2  12   8    2.70    3.20
  -2  12  -8    4.10    3.30
  -2  12  -8    0.10    3.40
   2  12   8    3.70    3.20
  -2  12  -8   12.80    3.60
   5 -13  -8   14.70    4.60
  -5 -13   8    3.60    3.50
  -5  13   8    2.80    3.70
   5  13  -8    9.60    3.70
  -4 -13   8   -2.60    3.10
   4 -13  -8   -2.90    3.60
   4  13  -8    5.40    3.40
  -4  13   8    0.90    3.00
   3 -13  -8   21.30    4.80
  -3 -13   8   13.70    3.70
  -3 -13   8   12.80    3.30
  -3  13   8   16.40    3.60
   3  13  -8   18.00    3.80
  -3  13   8    8.20    2.90
  -2 -13   8   21.60    3.80
   2 -13  -8   22.60    4.80
  -2  13   8   15.80    3.60
   2  13  -8   23.90    3.00
   2  13  -8   21.60    4.00
   1 -13  -8    4.00    3.80
  -1 -13   8    3.70    3.00
   1  13  -8    0.40    3.00
   1  13  -8    2.50    3.20
  -1  13   8    1.60    2.90
   1  13  -8   -1.30    2.30
   0 -13  -8    1.00    3.90
   0 -13   8   -4.00    2.80
   0  13  -8    0.50    3.00
   0  13   8    0.20    2.80
   0  13   8    2.80    2.90
   0  13  -8    0.30    3.20
   0  13  -8    1.30    2.70
   1 -13   8    8.20    3.60
  -1 -13  -8    7.80    4.40
   1  13   8    1.60    3.00
  -1  13  -8    3.00    3.50
  -1  13  -8    3.60    3.00
   1  13   8    7.70    3.30
  -1  13  -8   10.00    3.60
   2 -13   8    2.40    5.70
  -2  13  -8    1.70    3.50
  -2  13  -8    1.20    3.20
   2  13   8    4.80    3.10
  -2  13  -8    5.20    3.40
   5 -14  -8   18.20    4.70
  -5 -14   8   19.30    4.30
  -5  14   8   13.50    4.60
   5  14  -8   17.90    4.30
   4 -14  -8    5.90    4.20
  -4 -14   8    6.50    3.60
  -4  14   8    7.40    3.50
   4  14  -8   -0.50    3.30
   3 -14  -8    1.10    3.90
  -3 -14   8    1.60    2.90
  -3 -14   8    0.50    3.20
  -3  14   8    1.20    2.80
   3  14  -8   -2.40    3.00
  -3  14   8    4.60    2.90
  -2 -14   8    0.40    2.90
   2 -14  -8    4.40    4.10
  -2  14   8    2.10    2.70
   2  14  -8   -1.70    2.90
   2  14  -8    0.60    3.20
   1 -14  -8   40.90    5.70
  -1 -14   8   41.40    5.50
   1  14  -8   35.20    4.60
  -1  14   8   36.80    4.70
  -1  14   8   25.60    4.50
   1  14  -8   38.60    5.80
   1  14  -8   43.00    4.40
   0 -14   8   38.40    5.70
   0 -14  -8   50.59    7.50
   0  14   8   30.50    4.50
   0  14  -8   32.70    4.70
   0  14  -8   21.50    4.30
   0  14   8   41.00    5.60
   0  14  -8   28.40    4.40
   1 -14   8  194.28   10.60
  -1  14  -8  186.58   10.30
   1  14   8  193.68   10.40
   1  14   8  193.58   10.40
  -1  14  -8  189.38    9.60
  -1  14  -8  186.08   10.70
   4 -15  -8    3.40    4.10
  -4 -15   8   -2.20    3.30
   4  15  -8   -2.20    3.30
  -4  15   8    1.50    3.20
  -3 -15   8    1.60    2.90
   3 -15  -8    8.50    4.40
  -3 -15   8    6.10    3.60
  -3  15   8    5.40    3.10
   3  15  -8   14.50    4.00
  -3  15   8    5.00    3.20
  -2 -15   8   13.70    3.50
   2 -15  -8    9.40    4.50
   2  15  -8   15.50    3.80
  -2  15   8   21.00    3.90
   2  15  -8   23.90    4.30
  -1 -15   8   13.20    3.60
   1 -15  -8   18.40    4.60
   1  15  -8   15.00    3.90
   1  15  -8   13.00    3.80
   1  15  -8   15.20    2.90
  -1  15   8   18.30    3.80
  -1  15   8   17.10    3.70
   0 -15   8   10.00    3.50
   0 -15  -8   14.80    4.80
   0  15   8    1.50    3.00
   0  15  -8    7.30    3.50
   0  15  -8    7.10    3.70
   0  15  -8   12.50    3.10
   0  15   8    4.40    3.20
  -1  15  -8   -2.70    3.30
   1  15   8   -0.20    3.10
  -1  15  -8    1.10    3.50
   4  16  -8  142.49    9.90
   3 -16  -8   16.70    5.00
  -3 -16   8   18.70    3.70
  -3  16   8   17.70    3.70
  -3  16   8   12.20    3.80
   3  16  -8   17.10    4.10
  -2 -16   8   79.39    6.80
   2 -16  -8   88.59    8.70
  -2  16   8   86.39    7.00
   2  16  -8   98.09    7.50
   2  16  -8   81.39    7.40
  -1 -16   8    1.60    3.10
   1 -16  -8    0.10    3.60
   1  16  -8    6.30    3.50
   1  16  -8    6.60    3.70
   1  16  -8    6.10    2.70
  -1  16   8    3.50    3.10
  -1  16   8    5.10    3.20
   0  16   8   -0.80    2.80
   0  16  -8    4.80    3.60
  -2  17   8   -0.40    3.10
   2  17  -8   -2.90    3.20
   1  17  -8   35.10    5.00
   7   0  -9    4.80    4.20
  -7   0   9   -3.70    3.40
   7   0  -9   -4.30    3.00
   6   0  -9    3.20    3.30
   6   0  -9   -0.60    2.90
  -6   0   9    1.50    3.30
   6   0  -9   -8.80    3.20
   5   0  -9   -4.00    3.10
  -5   0   9   -1.90    3.00
   5   0  -9    0.10    2.90
   5   0  -9    3.30    3.00
   4   0  -9   -0.20    2.70
   4   0  -9   -0.90    2.80
   4   0  -9    2.90    3.20
  -4   0   9    2.60    3.00
  -3   0   9    5.60    2.70
   3   0  -9   -0.10    2.90
  -3   0   9   -0.70    2.70
   3   0  -9    1.80    2.80
   3   0  -9   -3.00    2.70
  -2   0   9   -3.90    2.40
   2   0  -9    1.00    2.90
  -2   0   9    2.20    2.50
   2   0  -9    2.80    2.80
   2   0  -9    1.00    2.90
   1   0  -9   -1.90    3.00
   1   0  -9   -0.80    2.60
  -1   0   9   -2.30    2.30
   1   0  -9   -0.50    2.80
  -1   0   9   -0.30    2.70
   0   0  -9    1.40    3.00
   0   0  -9    1.80    2.80
   0   0   9   -1.40    2.70
   0   0  -9    1.70    2.90
  -1   0  -9   -2.40    2.80
   1   0   9   -0.50    2.70
   2   0   9    3.50    3.20
  -2   0  -9    1.40    3.10
   3   0   9   -0.10    3.20
  -3   0  -9    1.10    3.50
  -7  -1   9    1.00    3.60
   7  -1  -9    4.00    3.50
   7  -1  -9   -3.50    3.60
  -7   1   9    0.70    3.80
   7   1  -9    4.80    3.30
   7   1  -9    5.30    4.30
  -7   1   9    0.90    3.50
   6  -1  -9   -2.60    2.90
  -6  -1   9    4.30    3.40
   6  -1  -9    3.90    3.80
   6  -1  -9    2.10    3.00
   6   1  -9    0.70    3.20
   6   1  -9    6.20    3.20
   6   1  -9    1.90    3.60
  -6   1   9   -1.30    3.20
   5  -1  -9    8.60    3.20
   5  -1  -9    0.60    3.40
  -5  -1   9    4.50    3.30
   5  -1  -9    6.10    3.20
   5   1  -9    9.00    3.30
   5   1  -9   10.90    3.10
   5   1  -9    0.50    3.30
  -5   1   9    5.60    3.30
  -4  -1   9    1.50    2.90
   4  -1  -9    0.90    2.80
   4  -1  -9    4.20    3.30
   4  -1  -9   -0.20    2.70
   4   1  -9   -1.30    2.70
   4   1  -9   -0.40    3.00
  -4   1   9    4.40    3.00
   4   1  -9    0.70    2.80
  -3  -1   9  124.89    7.10
   3  -1  -9  135.59    7.60
   3  -1  -9  122.29    8.10
  -3  -1   9  129.09    7.50
   3  -1  -9  132.79    7.60
   3   1  -9  125.49    7.80
  -3   1   9  123.79    7.40
  -3   1   9  121.49    7.00
   3   1  -9  124.39    8.00
   3   1  -9  125.09    7.40
   2  -1  -9   93.79    6.70
  -2  -1   9   96.39    6.30
   2  -1  -9  102.89    6.80
   2  -1  -9   96.69    7.20
  -2  -1   9   99.39    6.50
  -2   1   9  103.99    6.30
   2   1  -9   89.79    6.60
   2   1  -9   96.09    6.90
  -2   1   9   87.79    6.10
   2   1  -9  103.79    7.00
  -1  -1   9    4.10    2.60
   1  -1  -9    4.90    3.30
  -1  -1   9    5.00    2.80
   1  -1  -9    5.40    2.80
   1  -1  -9    9.70    3.10
  -1   1   9    3.00    2.30
   1   1  -9    6.10    3.20
  -1   1   9    2.10    2.60
   1   1  -9    0.50    2.70
   1   1  -9    3.20    2.90
   0  -1  -9   74.69    6.20
   0  -1   9   55.39    7.40
   0  -1  -9   60.79    6.20
   0  -1   9   69.69    5.80
   0   1  -9   73.99    6.50
   0   1  -9   60.49    6.00
   0   1  -9   73.69    6.10
   0   1   9   76.49    5.80
  -1  -1  -9    0.20    3.10
   1  -1   9    3.70    3.00
  -1  -1  -9    1.90    2.90
  -1   1  -9    3.10    3.10
   1   1   9   -0.90    2.60
   2  -1   9   20.80    3.80
  -2  -1  -9    9.40    3.50
   2   1   9   13.50    3.50
  -2   1  -9   13.80    3.90
  -3  -1  -9   21.40    4.30
   3  -1   9   21.10    4.10
  -3   1  -9   16.10    4.20
   3   1   9   13.30    3.60
   7  -2  -9   -3.20    3.80
  -7  -2   9   -2.20    3.50
   7  -2  -9   -4.80    3.00
   7   2  -9   -0.20    3.90
   7   2  -9   -3.80    3.10
  -7   2   9    2.70    3.90
  -7   2   9    2.40    3.60
   6  -2  -9   -1.90    3.10
   6  -2  -9   -4.20    3.00
  -6  -2   9    0.60    3.30
   6  -2  -9    5.90    4.00
   6   2  -9    1.00    2.80
   6   2  -9    6.90    3.50
  -6   2   9    1.80    3.50
   6   2  -9    1.80    3.70
  -5  -2   9   31.50    4.50
   5  -2  -9   33.00    4.80
   5  -2  -9   22.50    4.00
   5  -2  -9   28.20    4.10
   5   2  -9   35.30    4.90
   5   2  -9   26.30    4.20
   5   2  -9   34.50    5.00
  -5   2   9   29.60    4.30
   4  -2  -9    3.60    2.80
   4  -2  -9    0.70    3.00
   4  -2  -9    3.50    3.40
  -4  -2   9    3.10    3.00
  -4   2   9    1.00    2.90
   4   2  -9    3.50    3.20
   4   2  -9    7.50    3.10
   4   2  -9    1.50    2.80
  -3  -2   9  139.29    7.40
   3  -2  -9  134.99    8.50
   3  -2  -9  127.99    7.70
  -3  -2   9  142.79    7.80
  -3   2   9  130.49    7.30
   3   2  -9  138.09    8.10
  -3   2   9  123.69    7.60
   3   2  -9  132.49    8.10
   3   2  -9  139.69    7.60
   2  -2  -9    2.80    2.80
   2  -2  -9    4.00    3.30
  -2  -2   9    3.20    2.70
   2  -2  -9    3.20    2.90
  -2  -2   9   -0.50    2.60
   2   2  -9    5.20    2.90
   2   2  -9   -1.80    2.70
  -2   2   9    5.60    2.70
  -2   2   9    2.30    2.50
   2   2  -9    0.10    2.90
   1  -2  -9  132.99    8.40
  -1  -2   9  126.79    7.60
   1  -2  -9  141.89    7.70
  -1  -2   9  133.49    7.40
   1  -2  -9  130.89    7.80
  -1   2   9  128.89    7.10
   1   2  -9  140.29    7.70
   1   2  -9  132.99    7.90
  -1   2   9  124.59    7.50
   1   2  -9  125.09    7.70
   0  -2   9   20.40    3.20
   0  -2  -9   25.20    4.10
   0  -2  -9   26.40    3.80
   0  -2   9   21.90    3.70
   0   2  -9   20.00    3.80
   0   2   9   20.10    3.50
   0   2  -9   23.30    3.60
  -1  -2  -9    2.40    2.90
   1  -2   9    8.70    3.20
  -1  -2  -9   12.30    3.70
  -1   2  -9   11.40    3.50
   1   2   9    8.20    3.20
  -2  -2  -9    7.20    3.20
   2  -2   9   -0.60    3.00
  -2   2  -9   -1.20    3.30
   2   2   9    1.10    3.00
  -3  -2  -9   51.49    6.50
   3  -2   9   32.10    4.70
  -3   2  -9   44.00    6.60
   3   2   9   32.30    4.60
   7  -3  -9   -2.90    3.30
  -7  -3   9    1.70    3.70
  -7   3   9   -5.50    4.90
  -7   3   9    0.90    3.60
   7   3  -9    1.60    4.10
   6  -3  -9    6.80    3.40
   6  -3  -9    3.70    3.20
   6  -3  -9   -2.00    3.40
  -6  -3   9    4.60    3.40
  -6   3   9   -1.50    3.30
   6   3  -9    3.90    3.60
   6   3  -9    8.90    3.50
   6   3  -9    5.00    3.00
  -5  -3   9   90.09    7.20
   5  -3  -9   79.49    7.60
   5  -3  -9   87.49    7.10
   5  -3  -9   93.39    6.70
   5   3  -9  104.89    6.50
  -5   3   9   89.49    7.00
   5   3  -9   91.09    7.10
   5   3  -9   82.79    7.30
   4  -3  -9   84.09    6.10
  -4  -3   9   72.39    6.50
   4  -3  -9   74.99    6.60
   4  -3  -9   65.89    6.60
   4   3  -9   78.49    6.50
   4   3  -9   75.09    6.00
  -4   3   9   67.89    6.30
   4   3  -9   72.89    6.70
   3  -3  -9   16.30    3.90
  -3  -3   9   14.20    3.10
   3  -3  -9   15.20    3.30
  -3  -3   9   14.90    3.30
   3   3  -9   14.90    3.20
  -3   3   9   19.10    3.40
   3   3  -9   20.30    3.70
  -3   3   9   13.60    3.00
   3   3  -9   16.30    3.60
   2  -3  -9   17.60    3.60
  -2  -3   9   28.20    3.70
  -2  -3   9   33.10    4.60
   2  -3  -9   24.10    3.60
   2  -3  -9   20.50    4.00
   2   3  -9   28.10    3.70
  -2   3   9   29.70    4.30
   2   3  -9   26.60    3.80
   2   3  -9   20.00    3.80
  -2   3   9   20.30    3.40
   1  -3  -9   19.30    4.10
  -1  -3   9   20.10    3.50
  -1  -3   9   22.70    3.70
   1  -3  -9   27.90    3.70
  -1   3   9   20.60    3.10
   1   3  -9   26.60    4.00
  -1   3   9   24.30    3.60
   1   3  -9   30.80    4.80
   0  -3   9   42.70    4.80
   0  -3  -9   55.39    6.10
   0  -3   9   49.90    5.50
   0  -3  -9   52.99    5.60
   0   3  -9   44.30    5.30
   0   3  -9   39.20    5.80
   0   3   9   59.19    5.40
   1  -3   9    4.00    3.00
  -1  -3  -9    5.00    2.90
  -1  -3  -9    9.30    3.70
  -1   3  -9    2.20    3.10
  -1   3  -9    3.80    3.20
   1   3   9    6.00    3.00
   2  -3   9   14.60    3.70
  -2  -3  -9    8.80    4.00
  -2  -3  -9    2.70    3.20
   2   3   9    7.00    3.20
  -2   3  -9    2.60    3.50
  -3  -3  -9    1.90    3.40
   3  -3   9    8.40    3.60
  -3   3  -9    5.60    3.70
   3   3   9    3.30    3.30
   7  -4  -9   21.10    4.30
  -7  -4   9   25.70    5.30
  -7   4   9   24.80    5.90
   7   4  -9   15.10    4.60
  -6  -4   9    8.40    3.90
   6  -4  -9    8.00    4.00
   6  -4  -9   15.50    4.00
   6   4  -9    6.70    4.00
   6   4  -9    9.70    3.00
   6   4  -9   16.40    4.00
  -6   4   9    5.10    3.70
   5  -4  -9   10.00    3.60
   5  -4  -9   11.20    3.10
   5  -4  -9   11.10    4.00
  -5  -4   9    8.80    3.20
   5   4  -9    3.00    3.20
  -5   4   9    5.10    3.30
   5   4  -9    6.20    2.70
   5   4  -9   10.30    3.70
   4  -4  -9   35.90    5.60
   4  -4  -9   33.50    4.10
   4  -4  -9   35.60    4.90
  -4  -4   9   39.10    5.50
  -4   4   9   28.70    4.10
   4   4  -9   32.30    4.50
   4   4  -9   37.60    5.60
   4   4  -9   41.40    5.00
   3  -4  -9   -0.60    2.50
   3  -4  -9   -1.80    3.10
  -3  -4   9    1.80    2.50
  -3  -4   9    1.10    2.90
   3   4  -9   -1.40    2.90
   3   4  -9    3.40    2.60
  -3   4   9   -2.00    2.60
   3   4  -9    1.50    2.90
  -3   4   9    3.50    2.60
  -2  -4   9    8.90    2.90
   2  -4  -9    7.80    3.40
   2  -4  -9   14.10    3.60
  -2  -4   9   11.80    3.10
   2  -4  -9    9.70    2.90
  -2   4   9    6.10    2.90
   2   4  -9    9.70    3.40
  -2   4   9    6.90    2.70
   2   4  -9   10.00    4.50
   2   4  -9   10.80    3.10
   1  -4  -9  189.18    9.30
   1  -4  -9  185.18   10.30
  -1  -4   9  182.38    9.10
  -1  -4   9  194.48    9.40
  -1   4   9  181.38    8.90
   1   4  -9  190.48    9.80
   1   4  -9  179.98    9.20
  -1   4   9  184.78    9.30
   0  -4   9    1.30    2.40
   0  -4   9   -0.60    2.70
   0  -4  -9    5.80    2.90
   0  -4  -9   -1.80    3.10
   0   4   9    4.10    2.90
   0   4  -9   -2.20    2.70
   0   4  -9   -0.70    3.00
  -1  -4  -9   87.89    6.40
  -1  -4  -9   84.89    7.60
   1  -4   9   86.09    6.60
  -1   4  -9   77.59    6.70
  -1   4  -9   85.69    7.00
   1   4   9   74.99    6.40
  -2  -4  -9   21.70    3.90
  -2  -4  -9   38.40    6.30
   2  -4   9   20.50    4.00
   2   4   9   21.20    4.10
  -2   4  -9   24.60    4.40
   3  -4   9    5.60    3.50
  -3  -4  -9   -0.80    3.90
  -3  -4  -9   -3.60    3.20
   3   4   9    6.10    3.40
  -3   4  -9    2.50    3.80
   7  -5  -9    1.00    3.60
   7   5  -9   -1.00    3.80
   6  -5  -9    0.80    3.60
   6  -5  -9   -1.10    3.10
  -6  -5   9   -3.20    3.30
  -6   5   9   -0.40    3.50
   6   5  -9    3.20    3.70
   6   5  -9    1.20    3.30
   6   5  -9   -0.60    2.60
  -5  -5   9    5.90    3.30
   5  -5  -9    3.20    3.50
   5  -5  -9    0.60    3.20
  -5   5   9   -2.80    3.00
   5   5  -9    1.30    3.10
   5   5  -9    2.30    2.60
   5   5  -9    1.50    3.40
   4  -5  -9   53.39    6.50
  -4  -5   9   49.70    5.90
   4  -5  -9   54.19    6.10
   4   5  -9   58.59    5.30
   4   5  -9   59.09    6.00
  -4   5   9   61.79    6.10
   4   5  -9   49.40    6.00
   3  -5  -9   45.30    5.90
  -3  -5   9   48.20    5.70
  -3  -5   9   51.69    5.10
   3  -5  -9   55.69    6.50
   3   5  -9   56.19    5.60
  -3   5   9   45.20    4.90
   3   5  -9   52.19    5.10
  -3   5   9   51.39    5.40
   3   5  -9   50.19    5.90
  -2  -5   9   31.20    4.70
   2  -5  -9   35.50    5.90
  -2  -5   9   35.70    5.00
   2   5  -9   38.50    4.90
  -2   5   9   33.00    4.70
  -2   5   9   43.70    4.70
   2   5  -9   39.90    5.60
  -1  -5   9  117.59    7.40
   1  -5  -9  125.89    8.40
  -1  -5   9  114.19    7.20
   1   5  -9  123.09    7.20
   1   5  -9  119.09    7.90
  -1   5   9  119.19    7.20
   0  -5  -9   14.70    4.00
   0  -5   9   13.80    3.10
   0  -5   9   13.80    3.40
   0   5   9   21.00    3.70
   0   5  -9   19.80    4.00
   0   5  -9   19.80    3.60
   1  -5   9   45.90    5.40
  -1  -5  -9   47.80    6.80
  -1   5  -9   25.50    4.10
   1   5   9   47.00    5.30
  -1   5  -9   40.80    6.00
   2  -5   9   14.80    3.80
  -2  -5  -9   14.30    4.30
   2   5   9   10.60    3.60
  -2   5  -9   17.00    4.20
   3  -5   9   14.90    4.60
  -3  -5  -9   14.70    4.60
   7  -6  -9   21.50    4.50
   7   6  -9   26.80    6.80
  -6  -6   9   12.30    3.90
   6  -6  -9   10.40    4.10
   6  -6  -9   10.90    3.90
  -6   6   9   13.00    4.20
   6   6  -9   13.10    2.90
   6   6  -9    7.20    3.70
   6   6  -9   11.70    4.00
  -5  -6   9   86.59    7.00
   5  -6  -9   64.99    7.30
   5  -6  -9   66.69    7.10
   5   6  -9   69.39    6.80
  -5   6   9   74.59    7.10
   5   6  -9   76.29    7.10
   5   6  -9   86.39    5.70
   4  -6  -9   88.99    7.40
   4  -6  -9   89.79    8.10
  -4  -6   9   74.59    6.70
   4   6  -9   81.59    6.80
   4   6  -9   95.29    6.10
   4   6  -9   86.69    7.00
  -4   6   9   85.79    6.80
  -3  -6   9   37.40    4.80
  -3  -6   9   39.60    5.30
   3  -6  -9   29.90    4.70
  -3   6   9   34.30    4.60
  -3   6   9   32.40    4.10
   3   6  -9   34.70    5.60
   3   6  -9   39.50    4.70
   2  -6  -9   69.79    7.00
  -2  -6   9   64.19    5.70
  -2  -6   9   76.59    5.80
  -2   6   9   62.99    5.40
   2   6  -9   61.19    5.50
  -2   6   9   65.09    5.50
   2   6  -9   67.69    6.40
  -1  -6   9  273.47   12.20
  -1  -6   9  257.47   11.90
   1  -6  -9  277.17   13.10
  -1   6   9  268.77   12.00
   1   6  -9  253.27   12.40
   1   6  -9  256.37   11.70
   0  -6   9   27.30    3.70
   0  -6  -9   20.00    4.40
   0  -6   9   26.80    4.00
   0   6  -9   24.40    4.30
   0   6  -9   31.20    4.00
   0   6   9   27.70    4.10
  -1  -6  -9    4.40    3.80
   1  -6   9    6.50    3.40
   1   6   9    1.90    2.90
  -1   6  -9    8.60    3.60
  -1   6  -9   -0.90    3.10
   2  -6   9   40.70    5.60
  -2  -6  -9   29.00    5.20
   2   6   9   25.60    4.20
  -2   6  -9   27.70    4.80
  -3  -6  -9   -2.70    3.70
   6  -7  -9   46.40    7.20
  -6  -7   9   40.00    6.20
  -6   7   9   53.19    7.10
   6   7  -9   46.80    6.50
   6   7  -9   43.20    6.50
   5  -7  -9    5.70    4.00
  -5  -7   9   -1.60    3.10
  -5   7   9   -3.10    3.20
   5   7  -9    1.70    2.50
   5   7  -9    0.40    3.40
   5   7  -9    0.80    3.20
  -4  -7   9    4.00    3.20
   4  -7  -9    7.90    3.70
   4   7  -9    3.60    3.30
  -4   7   9    5.50    3.30
   4   7  -9   10.20    2.80
  -3  -7   9    7.60    3.20
  -3  -7   9    4.10    2.90
   3  -7  -9    4.40    3.60
   3   7  -9    6.60    2.70
   3   7  -9    7.90    3.40
  -3   7   9    9.80    3.10
  -3   7   9    4.20    2.60
  -2  -7   9    1.60    2.90
  -2  -7   9   -0.70    2.80
   2  -7  -9   -0.50    3.40
  -2   7   9    6.70    2.80
  -2   7   9    5.00    2.60
   2   7  -9   -1.40    2.60
   2   7  -9    7.90    3.30
   1  -7  -9   25.60    4.70
  -1  -7   9   29.50    3.90
  -1  -7   9   27.20    4.00
   1   7  -9   31.60    4.30
  -1   7   9   31.00    4.80
   1   7  -9   30.70    4.80
   0  -7   9    8.50    3.30
   0  -7  -9    7.60    3.90
   0  -7   9   12.50    3.10
   0   7  -9    5.60    3.30
   0   7  -9   13.90    3.40
   0   7   9    3.50    2.90
   1  -7   9   57.49    6.00
  -1  -7  -9   52.79    7.10
  -1   7  -9   54.29    6.50
  -1   7  -9   50.29    5.80
   1   7   9   55.79    5.80
   2  -7   9    4.10    3.50
  -2  -7  -9   11.70    4.20
  -2   7  -9    3.70    3.70
  -2   7  -9    1.80    4.90
   2   7   9   -3.10    3.00
  -6  -8   9    3.90    3.70
   6  -8  -9    6.40    4.30
  -6   8   9    6.70    4.00
   6   8  -9    7.40    3.90
   6   8  -9   13.80    4.00
  -5  -8   9    1.90    3.40
   5  -8  -9    5.00    3.90
   5   8  -9    4.40    3.60
  -5   8   9    0.30    3.40
  -4  -8   9   15.40    3.80
   4  -8  -9   24.90    4.80
  -4   8   9   29.70    4.20
   4   8  -9   19.50    4.20
   4   8  -9   24.30    3.30
  -3  -8   9   55.39    5.50
  -3  -8   9   62.39    5.90
   3  -8  -9   58.89    7.20
  -3   8   9   62.09    5.90
  -3   8   9   54.49    5.30
   3   8  -9   68.39    5.20
   3   8  -9   61.79    6.40
   2  -8  -9    7.70    3.90
  -2  -8   9   13.40    3.20
  -2  -8   9    6.70    3.10
  -2   8   9    5.40    2.80
   2   8  -9    4.80    2.70
   2   8  -9    9.20    3.50
  -2   8   9    5.60    2.80
  -1  -8   9   49.30    5.40
  -1  -8   9   42.50    5.40
   1  -8  -9   40.30    6.30
  -1   8   9   54.79    5.30
   1   8  -9   43.50    5.90
   1   8  -9   37.60    5.00
   0  -8   9    0.80    3.10
   0  -8  -9    2.70    3.50
   0  -8   9   -1.10    2.70
   0   8  -9    5.70    3.00
   0   8  -9   10.10    3.50
  -1  -8  -9   74.69    7.90
   1  -8   9   70.99    6.50
   1  -8   9   68.29    6.10
  -1   8  -9   60.79    6.20
   1   8   9   73.09    6.30
  -1   8  -9   66.89    7.10
  -2  -8  -9   12.20    4.50
   2  -8   9    3.60    3.50
   2   8   9    8.90    3.50
  -2   8  -9   11.60    4.10
  -2   8  -9   11.70    3.60
  -6  -9   9   43.90    6.20
  -5  -9   9   10.50    3.90
   5  -9  -9    7.20    4.10
  -5   9   9    9.40    3.70
   5   9  -9    5.10    3.80
  -4  -9   9   -0.20    3.10
   4  -9  -9    6.10    4.00
  -4   9   9    5.50    3.30
   4   9  -9    2.80    3.20
   4   9  -9    1.80    2.50
   3  -9  -9   36.70    5.40
  -3  -9   9   36.50    5.70
  -3  -9   9   41.80    5.10
  -3   9   9   34.40    4.80
   3   9  -9   33.90    4.60
  -3   9   9   29.20    4.20
   3   9  -9   39.40    4.50
  -2  -9   9   53.19    5.60
   2  -9  -9   53.09    6.90
  -2  -9   9   44.40    5.60
   2   9  -9   47.20    4.90
  -2   9   9   49.90    5.30
  -2   9   9   41.50    5.40
   2   9  -9   50.69    6.10
  -1  -9   9    9.80    3.40
  -1  -9   9    2.50    3.00
   1  -9  -9    5.90    3.80
  -1   9   9   -0.90    2.60
   1   9  -9    3.20    2.80
   1   9  -9    2.10    3.10
   0  -9   9  118.09    7.90
   0  -9   9  128.69    8.20
   0  -9  -9  129.69    9.40
   0   9  -9  135.39    8.60
   0   9   9  125.79    8.00
   0   9  -9  141.59    7.80
   1  -9   9  122.59    8.10
  -1  -9  -9  126.29    9.50
   1   9   9  112.59    7.70
  -1   9  -9  102.49    7.50
  -1   9  -9  111.19    8.30
   2  -9   9   25.90    5.80
  -2  -9  -9   30.20    5.50
  -2   9  -9   20.50    5.50
   2   9   9   13.40    4.80
  -2   9  -9   21.20    4.20
   5 -10  -9    2.90    4.00
  -5 -10   9    6.70    3.70
   5  10  -9   -2.80    3.40
  -5  10   9    0.80    3.40
   4 -10  -9    0.30    3.80
  -4 -10   9    5.50    3.30
  -4  10   9    5.70    3.30
   4  10  -9    0.90    3.30
   3 -10  -9   45.30    5.90
  -3 -10   9   50.79    5.40
  -3 -10   9   41.40    6.00
   3  10  -9   37.70    6.10
  -3  10   9   44.70    5.40
   3  10  -9   43.20    4.50
  -3  10   9   45.60    5.30
  -2 -10   9   67.99    6.40
   2 -10  -9   70.99    8.00
  -2 -10   9   72.19    6.20
   2  10  -9   64.29    6.70
   2  10  -9   71.89    5.50
  -2  10   9   64.49    6.00
  -1 -10   9    3.00    3.20
  -1 -10   9    0.60    3.00
   1 -10  -9    3.90    3.90
   1  10  -9    1.10    3.30
   1  10  -9    4.60    2.80
  -1  10   9    2.60    2.80
   0 -10  -9  101.89    8.20
   0 -10   9   88.59    7.30
   0  10   9   92.89    7.10
   0  10  -9   89.99    7.50
   0  10  -9   99.69    6.70
   1 -10   9   17.20    4.00
  -1 -10  -9    8.40    4.50
  -1  10  -9   11.80    3.50
  -1  10  -9    6.00    3.70
   1  10   9   12.40    3.50
  -2  10  -9    4.00    3.30
  -5 -11   9   23.60    4.60
   5 -11  -9   24.60    5.20
  -5  11   9   24.90    4.50
   5  11  -9   32.60    5.10
  -4 -11   9   31.60    4.40
   4 -11  -9   34.30    5.50
  -4  11   9   24.30    4.20
   4  11  -9   21.40    4.30
   3 -11  -9   11.40    4.60
  -3 -11   9    9.30    3.60
  -3 -11   9    5.70    3.00
   3  11  -9    4.90    3.50
  -3  11   9    7.20    3.20
  -3  11   9    8.40    3.10
  -2 -11   9   42.20    5.40
  -2 -11   9   39.60    6.10
   2 -11  -9   35.40    5.60
   2  11  -9   38.70    4.60
  -2  11   9   44.40    5.40
   2  11  -9   36.70    6.00
   1 -11  -9    3.80    3.80
  -1 -11   9   -2.70    3.00
  -1 -11   9   -5.70    2.90
   1  11  -9    1.80    3.50
  -1  11   9   -1.00    2.70
   1  11  -9   -3.50    2.50
   0 -11  -9   37.00    5.80
   0 -11   9   32.20    4.70
   0  11  -9   37.50    5.30
   0  11   9   37.30    5.50
   0  11  -9   46.00    6.20
  -1 -11  -9   12.50    4.80
   1 -11   9    9.80    3.90
   1  11   9    3.40    3.10
  -1  11  -9   11.40    4.00
  -1  11  -9   14.50    3.90
  -1  11  -9    4.50    3.30
   4 -12  -9   10.10    4.40
  -4 -12   9   10.90    3.80
  -4  12   9   10.00    3.40
   4  12  -9    9.90    4.00
  -3 -12   9    9.60    3.40
  -3 -12   9    7.20    3.50
   3 -12  -9   11.90    4.70
  -3  12   9    9.90    3.30
  -3  12   9   11.20    3.30
   3  12  -9    5.70    3.60
  -2 -12   9    6.40    3.40
   2 -12  -9    4.60    4.30
  -2 -12   9    2.30    3.40
  -2  12   9    4.90    3.10
   2  12  -9    1.70    3.30
   2  12  -9    8.80    2.80
  -1 -12   9   -0.30    3.20
   1 -12  -9    4.20    4.10
   1  12  -9    7.50    2.90
   1  12  -9   -1.60    3.30
  -1  12   9    3.00    3.20
   0 -12  -9    7.50    4.30
   0 -12   9    2.90    3.40
   0  12   9    2.10    3.10
   0  12  -9    3.50    3.50
   0  12  -9    9.30    3.80
   0  12  -9    5.30    3.20
  -1  12  -9    3.50    3.40
  -1  12  -9   -1.50    3.00
   4 -13  -9   13.20    6.40
  -4  13   9    3.30    3.40
   4  13  -9    9.50    4.40
   3 -13  -9    5.40    4.50
  -3 -13   9    6.40    3.20
  -3 -13   9    9.90    3.70
  -3  13   9   10.20    3.50
  -3  13   9    7.30    3.20
   3  13  -9   14.80    4.00
  -2 -13   9    2.10    3.20
  -2 -13   9    0.50    3.40
   2 -13  -9    1.70    4.40
  -2  13   9   -0.30    2.90
   2  13  -9    0.60    2.50
   2  13  -9    0.30    3.40
   1 -13  -9    2.70    4.00
  -1 -13   9   14.90    4.00
  -1  13   9   19.10    3.90
   1  13  -9   20.80    3.40
   1  13  -9   22.40    4.40
   0  13  -9   -1.20    3.30
   0  13   9   -5.80    3.30
   0  13  -9   -1.10    3.00
   0  13  -9   -1.30    3.50
  -3 -14   9    3.40    3.10
  -3  14   9   -1.60    3.40
   3  14  -9   -0.80    3.50
  -2 -14   9    2.10    3.30
   2 -14  -9    1.40    5.60
   2  14  -9   -1.40    3.30
  -2  14   9    1.30    3.00
  -1 -14   9    3.80    3.90
  -1  14   9   -1.60    3.00
   1  14  -9    3.30    3.70
   6   0 -10   75.39    8.10
   6   0 -10   75.49    7.00
  -6   0  10   76.59    8.20
   6   0 -10   94.59    7.50
   5   0 -10   -4.70    2.90
   5   0 -10    4.30    3.80
  -5   0  10    0.60    3.40
   5   0 -10    1.40    3.30
   4   0 -10   62.39    6.80
   4   0 -10   63.89    6.60
   4   0 -10   62.99    6.40
  -4   0  10   68.49    6.60
  -3   0  10   72.39    6.20
   3   0 -10   68.69    6.30
   3   0 -10   49.99    6.30
  -3   0  10   66.09    5.60
   3   0 -10   58.89    6.30
   2   0 -10  122.09    7.70
  -2   0  10  119.39    7.50
   2   0 -10  102.09    7.70
  -2   0  10  110.19    7.20
   2   0 -10  121.99    7.90
   1   0 -10   32.90    4.60
   1   0 -10   42.40    5.70
   1   0 -10   29.50    4.60
  -1   0  10   36.40    5.20
  -1   0  10   33.30    4.20
   0   0  10   72.79    6.40
   0   0 -10   61.09    6.60
  -1   0 -10  569.74   23.20
   1   0  10  584.14   23.20
  -2   0 -10  137.49    9.20
   6  -1 -10   -2.70    3.10
   6  -1 -10    1.90    3.30
  -6  -1  10    8.10    4.50
   6  -1 -10    2.10    4.00
  -6   1  10    8.10    4.40
   6   1 -10    2.70    3.90
   6   1 -10    2.50    3.40
   6   1 -10    0.60    3.20
   5  -1 -10   18.40    3.90
   5  -1 -10   14.20    4.20
  -5  -1  10   20.60    4.20
   5  -1 -10   11.20    3.80
   5   1 -10   18.90    4.00
   5   1 -10   13.90    3.70
  -5   1  10   19.80    4.30
   5   1 -10    8.40    4.00
   4  -1 -10   12.40    3.60
  -4  -1  10   18.20    3.90
   4  -1 -10   14.60    3.80
   4  -1 -10   11.90    3.90
   4   1 -10   16.70    3.80
   4   1 -10   16.60    3.70
  -4   1  10   22.30    3.90
   4   1 -10   11.90    3.80
   3  -1 -10    0.80    3.10
  -3  -1  10   -1.90    2.90
   3  -1 -10    3.50    3.10
  -3  -1  10    3.40    2.90
   3  -1 -10    2.50    3.40
  -3   1  10   -1.70    2.60
   3   1 -10    1.50    3.00
   3   1 -10   -2.00    3.00
   3   1 -10    6.30    3.50
  -3   1  10    4.70    3.10
  -2  -1  10  156.68    8.40
   2  -1 -10  136.89    8.40
   2  -1 -10  149.09    8.60
  -2  -1  10  142.69    8.10
   2  -1 -10  136.79    8.80
  -2   1  10  135.19    8.10
   2   1 -10  137.69    8.40
   2   1 -10  145.99    8.60
   2   1 -10  132.39    8.50
  -2   1  10  125.19    7.90
   1  -1 -10   -3.20    2.90
  -1  -1  10    1.60    2.70
  -1  -1  10   -3.90    2.80
   1  -1 -10    1.80    3.40
   1   1 -10   -4.00    2.80
   1   1 -10    6.10    3.40
  -1   1  10    1.00    2.90
   0  -1 -10    6.90    3.70
   0  -1 -10    2.70    3.20
   0  -1  10    1.40    3.20
   0   1  10    4.20    3.20
   0   1 -10    0.00    3.30
  -1  -1 -10   42.60    6.10
   1  -1  10   35.70    5.60
  -1   1 -10   45.70    6.20
   1   1  10   44.90    5.90
  -2  -1 -10    5.50    3.60
  -2   1 -10    8.50    3.90
  -6  -2  10   11.70    5.40
   6  -2 -10   10.40    3.90
   6  -2 -10   21.20    5.00
   6  -2 -10   10.90    3.60
   6   2 -10   15.40    4.50
   6   2 -10    8.50    3.60
   6   2 -10   18.90    4.30
   5  -2 -10   95.49    7.40
   5  -2 -10   73.19    7.80
  -5  -2  10   99.89    7.60
   5  -2 -10   79.19    7.00
   5   2 -10   81.79    7.30
   5   2 -10  100.39    7.00
   5   2 -10   77.89    7.80
  -5   2  10   81.39    7.30
   4  -2 -10    8.80    3.60
   4  -2 -10    8.40    3.40
  -4  -2  10   14.60    3.80
   4  -2 -10   11.00    4.10
  -4   2  10   13.40    3.70
   4   2 -10   17.00    3.60
   4   2 -10    7.60    3.50
   4   2 -10    8.90    3.70
   3  -2 -10   38.50    6.20
  -3  -2  10   46.10    5.40
  -3  -2  10   48.40    5.70
   3  -2 -10   49.90    5.80
   3   2 -10   48.20    6.10
   3   2 -10   40.60    5.60
  -3   2  10   58.69    5.60
  -3   2  10   53.69    5.40
   3   2 -10   51.99    6.10
  -2  -2  10    2.60    3.00
   2  -2 -10    2.10    3.00
  -2  -2  10   -3.60    2.80
   2  -2 -10    1.40    3.10
   2  -2 -10    4.80    3.20
  -2   2  10   -1.50    2.60
   2   2 -10    3.10    3.20
  -2   2  10   -0.60    2.70
   2   2 -10    0.80    3.10
   2   2 -10   -1.10    3.00
  -1  -2  10   36.90    5.40
   1  -2 -10   33.60    4.80
  -1  -2  10   38.20    5.10
   1  -2 -10   23.80    4.20
  -1   2  10   34.70    5.10
   1   2 -10   30.40    4.30
   1   2 -10   22.40    4.20
   0  -2  10    4.90    3.30
   0  -2 -10    6.60    3.80
   0  -2 -10    6.20    3.30
   0   2  10   -0.20    3.00
   0   2 -10   -1.30    3.10
   0   2 -10   -4.00    3.00
   1  -2  10    6.20    3.60
  -1  -2 -10   -3.20    3.10
  -1   2 -10   -2.60    3.20
   1   2  10    5.50    3.40
  -2  -2 -10    9.40    3.70
  -2   2 -10   -0.60    3.50
   6  -3 -10   31.60    4.70
   6  -3 -10   32.80    4.90
   6  -3 -10   39.30    8.70
   6   3 -10   37.30    5.20
   6   3 -10   32.70    5.40
   5  -3 -10    3.40    3.80
   5  -3 -10    4.30    3.20
  -5  -3  10    0.50    3.50
   5  -3 -10    4.40    3.50
   5   3 -10    3.70    3.10
   5   3 -10    4.00    3.60
  -5   3  10    5.30    3.60
   5   3 -10    5.00    3.70
   4  -3 -10    2.10    3.10
   4  -3 -10    3.50    3.40
  -4  -3  10   -4.10    3.00
   4  -3 -10   -0.70    3.30
   4   3 -10    4.40    3.60
   4   3 -10    2.30    3.00
   4   3 -10    1.90    3.30
  -4   3  10    0.90    3.00
  -3  -3  10  140.09    8.10
  -3  -3  10  149.49    8.70
   3  -3 -10  127.99    8.20
   3  -3 -10  148.29    9.10
   3   3 -10  130.49    8.00
   3   3 -10  124.99    8.40
  -3   3  10  140.69    8.40
   3   3 -10  147.39    8.80
  -3   3  10  139.49    7.90
  -2  -3  10  135.09    8.30
   2  -3 -10  131.69    9.00
   2  -3 -10  136.59    8.30
  -2  -3  10  130.09    8.10
  -2   3  10  136.19    8.10
   2   3 -10  143.69    8.80
   2   3 -10  148.89    8.40
  -2   3  10  151.28    8.10
  -1  -3  10   19.40    3.70
  -1  -3  10   15.60    3.70
   1  -3 -10   16.10    4.20
   1  -3 -10   20.30    3.80
   1   3 -10   18.70    3.70
  -1   3  10   17.80    3.60
   1   3 -10   21.10    4.10
   0  -3 -10   41.90    5.70
   0  -3  10   50.49    5.90
   0  -3 -10   49.10    6.50
   0   3 -10   49.40    6.40
   0   3 -10   42.10    5.90
   0   3  10   52.29    5.80
  -1  -3 -10   16.60    3.90
   1  -3  10   20.70    4.10
  -1  -3 -10   18.00    4.40
  -1   3 -10   15.50    4.10
   1   3  10   19.70    3.90
  -2  -3 -10   29.80    4.80
   6  -4 -10   52.69    7.00
   6   4 -10   51.09    9.30
   6   4 -10   41.80    7.00
  -5  -4  10   23.70    4.40
   5  -4 -10   23.60    4.60
   5  -4 -10   39.30    5.60
  -5   4  10   26.10    4.60
   5   4 -10   28.40    4.70
   5   4 -10   29.00    4.00
   5   4 -10   24.40    4.70
   4  -4 -10  120.49    8.90
  -4  -4  10  139.79    8.50
   4  -4 -10  122.69    8.60
   4   4 -10  122.29    8.60
   4   4 -10  134.69    7.90
  -4   4  10  126.19    8.30
   4   4 -10  124.29    8.50
  -3  -4  10    0.70    3.00
  -3  -4  10    4.60    3.20
   3  -4 -10    4.40    3.80
   3   4 -10   -1.00    3.20
  -3   4  10    2.90    2.80
  -3   4  10   -1.90    2.80
   3   4 -10   -0.40    2.90
  -2  -4  10   74.29    6.40
  -2  -4  10   68.09    6.20
   2  -4 -10   74.19    7.50
   2   4 -10   72.99    6.30
   2   4 -10   75.29    7.00
  -2   4  10   71.39    6.10
  -2   4  10   82.99    6.20
   1  -4 -10   20.00    4.40
  -1  -4  10   16.20    3.60
  -1  -4  10   27.50    4.20
   1   4 -10   22.10    4.10
  -1   4  10   19.20    3.70
   1   4 -10   15.70    3.70
   0  -4  10   -2.00    3.20
   0  -4 -10    6.40    3.70
   0   4  10    4.10    3.20
   0   4 -10    1.10    3.10
   0   4 -10    3.00    3.40
  -1  -4 -10  277.77   13.70
   1  -4  10  278.07   13.20
  -1   4 -10  265.87   13.40
   1   4  10  258.57   12.90
   6  -5 -10   14.30    4.40
   6   5 -10    8.60    4.10
   5  -5 -10   19.00    4.70
  -5  -5  10   27.30    4.50
   5  -5 -10   21.10    4.40
  -5   5  10   15.60    4.10
   5   5 -10   25.20    4.50
   5   5 -10   19.80    3.60
   5   5 -10   20.20    4.40
  -4  -5  10   -1.20    3.10
   4  -5 -10   -2.90    3.60
   4   5 -10    0.90    3.30
   4   5 -10    2.80    2.90
  -4   5  10    4.90    3.20
   3  -5 -10   -3.30    3.50
  -3  -5  10   -1.50    3.10
  -3  -5  10    0.60    2.90
  -3   5  10    3.00    2.90
  -3   5  10    2.10    3.00
   3   5 -10   -1.90    2.80
   3   5 -10    3.30    3.30
  -2  -5  10   14.60    3.50
  -2  -5  10   13.00    3.50
   2  -5 -10   10.80    4.10
  -2   5  10    8.70    3.30
  -2   5  10   10.30    3.10
   2   5 -10    9.40    3.50
   2   5 -10   13.90    3.40
  -1  -5  10    8.40    3.50
   1  -5 -10   10.80    4.00
  -1  -5  10    5.50    3.20
  -1   5  10    7.10    3.30
   1   5 -10   12.40    3.80
   1   5 -10   12.10    3.50
   0  -5 -10  140.79    9.60
   0  -5  10  145.99    8.90
   0   5  10  143.99    8.60
   0   5 -10  134.59    8.50
   0   5 -10  137.69    9.00
  -1  -5 -10  148.39   10.10
   1  -5  10  151.98    9.30
  -1   5 -10  152.88    9.60
   1   5  10  144.79    9.00
  -5  -6  10   14.30    4.00
   5  -6 -10   13.30    4.60
   5   6 -10    7.00    3.00
  -5   6  10   14.60    4.10
   5   6 -10    9.90    4.00
  -4  -6  10   -1.30    3.40
   4  -6 -10    0.00    3.60
   4   6 -10   -1.40    2.70
   4   6 -10   -0.70    3.30
  -4   6  10   -6.00    2.90
  -3  -6  10    5.10    3.20
  -3  -6  10    1.20    3.20
   3  -6 -10    5.90    3.80
  -3   6  10    2.90    2.90
  -3   6  10    7.80    3.00
   3   6 -10    2.30    2.90
   3   6 -10    2.40    3.40
  -2  -6  10   -0.40    3.10
  -2  -6  10    7.20    3.30
   2  -6 -10    3.30    3.70
   2   6 -10   -1.80    3.20
  -2   6  10    0.00    2.70
   2   6 -10    7.70    3.20
   1  -6 -10  267.27   13.30
  -1  -6  10  236.88   11.80
  -1  -6  10  255.47   12.10
  -1   6  10  247.38   11.90
   1   6 -10  246.18   11.70
   1   6 -10  242.38   12.60
   0  -6  10    0.60    2.90
   0  -6  10    2.90    3.30
   0  -6 -10    1.90    3.80
   0   6 -10   -0.90    3.50
   0   6  10    2.90    3.20
   0   6 -10    3.30    3.30
  -1  -6 -10    2.60    4.00
   1  -6  10    6.90    3.80
  -1   6 -10   11.30    4.10
   1   6  10   10.70    4.00
  -1   6 -10    5.70    3.40
   5  -7 -10    7.20    4.40
  -5  -7  10    8.30    4.40
   5   7 -10   12.10    4.20
   5   7 -10    7.40    3.10
  -5   7  10   12.40    4.10
  -4  -7  10  462.65   19.30
   4  -7 -10  458.05   20.20
   4   7 -10  439.16   19.50
  -4   7  10  442.76   19.10
   4   7 -10  478.35   18.30
  -3  -7  10   44.20    6.30
  -3  -7  10   47.30    5.70
   3  -7 -10   47.90    6.80
   3   7 -10   49.99    5.30
   3   7 -10   43.00    6.50
  -3   7  10   57.49    6.10
  -3   7  10   52.99    5.50
  -2  -7  10   39.60    5.70
   2  -7 -10   50.29    7.30
  -2  -7  10   51.79    6.10
   2   7 -10   48.70    5.50
  -2   7  10   46.10    5.50
   2   7 -10   44.70    6.30
  -1  -7  10    0.20    3.00
   1  -7 -10    4.90    4.20
  -1  -7  10    0.80    3.30
   1   7 -10   -1.50    3.30
  -1   7  10   -2.20    2.80
   1   7 -10    3.90    3.10
   0  -7  10  100.19    7.40
   0  -7 -10  104.19    8.80
   0  -7  10  102.29    7.80
   0   7  10  110.09    7.70
   0   7 -10  110.39    8.10
   0   7 -10  109.89    7.50
  -1  -7 -10    4.80    4.20
  -1   7 -10    1.40    3.30
  -5   8  10   10.00    4.20
  -4  -8  10   12.20    4.10
   4  -8 -10   17.90    4.80
   4   8 -10   17.60    4.40
  -4   8  10   20.60    3.90
   4   8 -10   17.40    3.40
   3  -8 -10   -3.20    3.90
  -3  -8  10   -1.10    3.20
  -3  -8  10   -2.70    2.90
   3   8 -10    0.20    2.80
  -3   8  10   -2.10    2.90
  -3   8  10   -2.10    2.60
   3   8 -10    1.70    3.40
  -2  -8  10   77.99    6.70
   2  -8 -10   85.09    8.10
  -2  -8  10   82.89    6.70
  -2   8  10   71.59    6.30
   2   8 -10   74.69    7.20
   2   8 -10   68.29    6.10
   1  -8 -10    9.60    4.30
  -1  -8  10    5.90    3.40
  -1  -8  10    6.50    3.40
   1   8 -10    6.10    3.60
  -1   8  10    1.40    3.00
   1   8 -10    5.00    3.10
   0  -8 -10   13.30    4.70
   0  -8  10    5.90    3.60
   0  -8  10    8.00    3.30
   0   8 -10    9.10    3.50
   0   8 -10    4.50    3.70
   0   8  10   10.10    3.50
  -1   8 -10    5.80    3.60
   4  -9 -10   -0.40    3.90
  -4  -9  10    1.40    3.80
   4   9 -10   -0.50    2.80
   4   9 -10    3.00    3.80
  -4   9  10    5.20    3.40
  -3  -9  10   41.90    6.40
   3  -9 -10   52.49    7.70
  -3  -9  10   46.70    5.90
   3   9 -10   54.49    6.80
   3   9 -10   45.70    5.10
  -3   9  10   59.49    6.00
  -3   9  10   39.60    6.00
   2  -9 -10   10.70    4.50
  -2  -9  10    7.00    3.60
  -2  -9  10    2.30    3.30
   2   9 -10    9.80    3.20
   2   9 -10   19.80    4.30
  -2   9  10    8.10    3.20
  -1  -9  10   21.00    3.80
   1  -9 -10   24.90    5.30
  -1  -9  10   16.80    4.00
  -1   9  10   17.90    3.80
   1   9 -10   21.30    4.60
   1   9 -10   15.10    3.60
   0  -9  10   13.70    3.50
   0  -9 -10   13.70    4.70
   0  -9  10   17.40    5.30
   0   9  10   13.10    3.80
   0   9 -10   14.60    3.80
   0   9 -10   10.00    6.20
  -4  10  10    5.00    3.60
  -3 -10  10    7.40    3.40
   3 -10 -10    8.80    4.70
  -3 -10  10   10.60    3.80
   3  10 -10   10.30    3.10
  -3  10  10    9.80    3.90
   3  10 -10    5.80    3.90
  -3  10  10    5.30    4.70
   2 -10 -10   17.30    5.10
  -2 -10  10   23.10    4.20
  -2 -10  10   19.10    4.30
  -2  10  10   17.90    3.80
   2  10 -10   22.50    3.70
   2  10 -10   19.60    4.40
  -1 -10  10   28.70    4.30
  -1 -10  10   32.10    4.80
   1 -10 -10   23.00    5.40
   1  10 -10   27.30    5.00
   1  10 -10   29.50    4.10
  -1  10  10   16.80    3.90
   0 -10  10   26.50    4.50
  -3 -11  10   44.70    5.90
  -2 -11  10   55.69    8.90
  -2 -11  10   65.69    6.50
  -2  11  10   43.70    6.00
  -1 -11  10    8.90    4.70
  -1  11  10    5.00    4.10
  -2  12  10   46.60    6.10
   5   0 -11   -0.10    3.40
   5   0 -11   -9.00    4.40
   4   0 -11   -1.30    3.30
   4   0 -11    2.30    3.80
  -4   0  11    1.00    3.40
   4   0 -11   -0.40    3.50
   3   0 -11    1.10    3.30
   3   0 -11    3.10    3.40
   3   0 -11   -1.30    3.40
  -3   0  11   -2.30    3.20
  -3   0  11   -3.70    3.20
   2   0 -11    1.60    3.40
   2   0 -11    1.10    3.30
  -2   0  11    3.80    3.30
   2   0 -11   -2.00    3.10
  -2   0  11    6.00    3.50
   1   0 -11   -0.80    3.10
  -1   0  11    5.80    3.60
   0   0 -11   -0.40    3.30
   5  -1 -11   62.09    7.80
   5  -1 -11   73.79    7.10
   5   1 -11   59.99    7.50
   5   1 -11   78.89    7.50
  -4  -1  11   10.80    4.00
   4  -1 -11    6.50    3.60
   4  -1 -11    3.10    3.70
   4  -1 -11    8.30    3.50
   4   1 -11    3.80    3.50
   4   1 -11    7.50    4.00
   4   1 -11    7.10    3.70
  -4   1  11    2.40    3.70
   3  -1 -11   11.40    3.70
   3  -1 -11    9.60    3.90
  -3  -1  11    8.00    3.70
  -3  -1  11   12.80    3.80
  -3   1  11    1.10    3.90
   3   1 -11    6.30    3.70
  -3   1  11    9.20    3.50
   3   1 -11   10.70    3.80
   3   1 -11    3.00    3.50
  -2  -1  11   43.10    5.20
  -2  -1  11   36.70    4.90
   2  -1 -11   42.10    6.40
   2  -1 -11   48.00    6.10
  -2   1  11   49.30    5.90
   2   1 -11   50.99    6.30
   2   1 -11   45.00    6.20
  -2   1  11   46.10    5.70
  -1  -1  11   85.69    7.20
   1  -1 -11   79.59    7.10
  -1   1  11   93.49    7.30
   1   1 -11   83.19    7.60
   0  -1 -11  293.77   13.80
   0   1 -11  281.07   13.90
   5  -2 -11   86.69    7.70
   5  -2 -11   75.89    7.30
   5   2 -11   65.59    7.70
   4  -2 -11  112.89    8.90
   4  -2 -11  110.79    8.00
   4  -2 -11  115.19    8.70
  -4  -2  11  117.09    8.50
  -4   2  11  117.79    8.40
   4   2 -11  123.59    8.50
   4   2 -11  121.09    8.30
   4   2 -11  112.19    8.50
  -3  -2  11   77.89    7.00
  -3  -2  11   60.89    6.20
   3  -2 -11   60.69    6.60
   3  -2 -11   60.79    7.10
   3   2 -11   64.49    7.00
  -3   2  11   57.39    8.70
  -3   2  11   62.59    6.60
   3   2 -11   63.49    6.60
  -2  -2  11   71.39    6.70
   2  -2 -11   70.19    6.80
   2  -2 -11   66.89    7.30
  -2  -2  11   73.19    6.60
   2   2 -11   78.19    7.30
   2   2 -11   60.49    6.70
  -2   2  11   80.29    6.70
   1  -2 -11    4.90    3.30
  -1  -2  11    2.70    3.50
   1  -2 -11    1.20    3.60
  -1   2  11   -3.90    3.20
   1   2 -11    0.30    3.30
   1   2 -11   -2.20    3.20
   0  -2 -11   56.29    6.60
   0   2 -11   57.09    7.10
   4  -3 -11   29.90    5.20
   4  -3 -11   37.50    5.20
  -4  -3  11   27.20    4.90
  -4   3  11   36.30    4.90
   4   3 -11   31.50    4.50
   4   3 -11   23.80    4.60
  -3  -3  11   11.80    4.00
   3  -3 -11   15.80    4.50
  -3  -3  11   18.00    4.00
   3   3 -11   18.50    4.00
   3   3 -11   19.00    4.30
  -3   3  11   16.40    3.90
   2  -3 -11   29.10    5.00
  -2  -3  11   43.90    6.10
  -2  -3  11   37.80    5.00
   2   3 -11   39.50    6.00
   2   3 -11   37.70    5.10
  -2   3  11   36.90    5.70
   1  -3 -11   14.10    4.30
  -1  -3  11   14.30    4.20
  -1   3  11   18.40    4.10
   1   3 -11   11.70    3.80
   1   3 -11   15.80    4.20
   0  -3 -11  172.48   12.30
   4  -4 -11   20.70    5.30
   4   4 -11   12.40    4.80
   4   4 -11   14.30    4.50
  -4   4  11   15.60    4.00
  -3  -4  11   98.79    7.60
  -3  -4  11   98.39    7.90
   3  -4 -11   99.39    8.50
   3   4 -11  101.19    7.40
   3   4 -11  105.39    8.20
  -3   4  11  101.39    7.50
   2  -4 -11   -2.90    3.60
  -2  -4  11   -2.70    3.10
  -2  -4  11   -0.40    3.30
   2   4 -11   -5.90    3.10
   2   4 -11   -3.60    3.40
  -2   4  11    2.40    3.30
  -1  -4  11  173.78   10.10
  -1  -4  11  182.78   13.00
   1  -4 -11  168.08   10.70
  -1   4  11  183.98   10.00
   1   4 -11  163.38    9.70
   1   4 -11  170.48   10.50
  -4   5  11   -4.50    3.10
  -3  -5  11   16.40    4.10
   3  -5 -11    9.40    4.30
  -3  -5  11   10.30    3.90
  -3   5  11    6.90    3.50
   3   5 -11   16.70    4.50
   3   5 -11   12.20    3.60
   2  -5 -11    9.30    4.40
  -2  -5  11   16.60    4.30
  -2  -5  11   17.00    4.00
  -2   5  11   15.20    3.80
   2   5 -11   12.80    4.10
   2   5 -11   16.20    4.00
  -1  -5  11   62.49    6.70
  -1  -5  11   78.49    8.40
   1  -5 -11   62.69    7.70
  -1   5  11   84.89    7.30
   1   5 -11   62.99    6.70
  -3  -6  11    5.20    6.50
  -3  -6  11   11.20    3.90
  -3   6  11    8.60    3.60
  -2  -6  11   51.59    6.40
  -2  -6  11   42.80    6.50
   2  -6 -11   45.40    7.70
  -2   6  11   50.19    6.00
   2   6 -11   57.69    6.20
  -1  -6  11   34.90    4.70
   1  -6 -11   35.10    7.00
   1   6 -11   32.90    4.70
  -3  -7  11    4.70    3.40
  -2  -7  11   71.89    9.70
  -2  -7  11   49.90    6.30
  -2   7  11   61.69    6.30

_computing_structure_solution     'SHELXT 2014/4 (Sheldrick, 2014)'
;
_shelx_hkl_checksum              88923
loop_
_space_group_symop_operation_xyz
'x, y, z'
'-x, y+1/2, -z+1/2'
'-x, -y, -z'
'x, -y-1/2, z-1/2'
loop_
_atom_site_type_symbol
_atom_site_label
_atom_site_fract_x
_atom_site_fract_y
_atom_site_fract_z
_atom_site_U_iso_or_equiv
_atom_site_adp_type
_atom_site_calc_flag
_atom_site_refinement_flags_adp
_atom_site_refinement_flags_posn
_atom_site_occupancy
C C1 0.64806(17) 0.39665(6) 0.67385(13) 0.0128(2) Uani d . . 1
C C2 0.76050(18) 0.43304(7) 0.57684(13) 0.0148(2) Uani d . . 1
H H2 0.8919 0.4609 0.6279 0.018 Uiso calc U R 1
C C3 0.67309(18) 0.42840(6) 0.38784(13) 0.0136(2) Uani d . . 1
C C4 0.47192(18) 0.38204(7) 0.31506(14) 0.0158(2) Uani d . . 1
H H4 0.4183 0.3774 0.1938 0.019 Uiso calc U R 1
C C5 0.36228(18) 0.34617(7) 0.41579(14) 0.0161(2) Uani d . . 1
H H5 0.2326 0.3169 0.3672 0.019 Uiso calc U R 1
C C6 0.44796(17) 0.35367(6) 0.59971(14) 0.0139(2) Uani d . . 1
C C7 0.68106(17) 0.39086(6) 0.86513(13) 0.0130(2) Uani d . . 1
C C8 0.87494(19) 0.33676(7) 0.95286(14) 0.0175(2) Uani d . . 1
N N1 0.35822(16) 0.32520(6) 0.71450(13) 0.0178(2) Uani d . . 1
O O1 0.48890(13) 0.34569(5) 0.87856(10) 0.01791(18) Uani d . . 1
O O2 0.69447(14) 0.46519(5) 0.94113(10) 0.01714(18) Uani d . . 1
H H2O 0.709(3) 0.4604(10) 1.045(2) 0.021 Uiso d U . 1
O O3 0.76742(14) 0.46356(5) 0.29363(10) 0.01853(18) Uani d . . 1
F F1 0.88861(13) 0.32745(5) 1.11992(9) 0.0272(2) Uani d . . 1
F F2 1.06001(12) 0.36928(5) 0.94041(10) 0.02771(19) Uani d . . 1
F F3 0.85718(14) 0.26327(5) 0.88176(10) 0.0282(2) Uani d . . 1
loop_
_atom_site_aniso_label
_atom_site_aniso_U_11
_atom_site_aniso_U_22
_atom_site_aniso_U_33
_atom_site_aniso_U_12
_atom_site_aniso_U_13
_atom_site_aniso_U_23
C1 0.0143(5) 0.0138(4) 0.0100(4) -0.0002(4) 0.0029(3) -0.0011(3)
C2 0.0158(5) 0.0177(5) 0.0106(4) -0.0026(4) 0.0029(4) -0.0016(4)
C3 0.0168(5) 0.0137(4) 0.0105(4) 0.0003(4) 0.0040(4) -0.0008(3)
C4 0.0183(5) 0.0158(5) 0.0115(4) -0.0011(4) 0.0008(4) -0.0017(4)
C5 0.0163(5) 0.0155(5) 0.0142(5) -0.0021(4) 0.0003(4) -0.0014(4)
C6 0.0142(5) 0.0133(4) 0.0140(5) -0.0005(4) 0.0033(4) -0.0006(4)
C7 0.0147(4) 0.0148(5) 0.0102(4) -0.0013(4) 0.0042(3) -0.0001(3)
C8 0.0193(5) 0.0204(5) 0.0125(5) 0.0027(4) 0.0037(4) -0.0006(4)
N1 0.0168(4) 0.0209(5) 0.0149(4) -0.0035(4) 0.0030(3) 0.0002(3)
O1 0.0171(4) 0.0253(4) 0.0118(4) -0.0046(3) 0.0048(3) 0.0011(3)
O2 0.0262(4) 0.0157(4) 0.0102(3) 0.0004(3) 0.0059(3) -0.0011(3)
O3 0.0227(4) 0.0219(4) 0.0120(4) -0.0045(3) 0.0063(3) 0.0000(3)
F1 0.0344(4) 0.0341(4) 0.0122(3) 0.0129(3) 0.0048(3) 0.0060(3)
F2 0.0143(3) 0.0405(5) 0.0272(4) 0.0006(3) 0.0036(3) -0.0001(3)
F3 0.0353(4) 0.0196(4) 0.0275(4) 0.0088(3) 0.0045(3) -0.0047(3)
loop_
_atom_type_symbol
_atom_type_description
_atom_type_scat_dispersion_real
_atom_type_scat_dispersion_imag
_atom_type_scat_source
C C 0.0033 0.0016 'International Tables Vol C Tables 4.2.6.8 and 6.1.1.4'
H H 0.0000 0.0000 'International Tables Vol C Tables 4.2.6.8 and 6.1.1.4'
N N 0.0061 0.0033 'International Tables Vol C Tables 4.2.6.8 and 6.1.1.4'
O O 0.0106 0.0060 'International Tables Vol C Tables 4.2.6.8 and 6.1.1.4'
F F 0.0171 0.0103 'International Tables Vol C Tables 4.2.6.8 and 6.1.1.4'
loop_
_geom_angle_atom_site_label_1
_geom_angle_atom_site_label_2
_geom_angle_atom_site_label_3
_geom_angle
C2 C1 C6 122.28(10)
C2 C1 C7 132.84(10)
C6 C1 C7 104.85(9)
C1 C2 C3 117.84(10)
C1 C2 H2 121.1
C3 C2 H2 121.1
O3 C3 C4 121.15(10)
O3 C3 C2 119.96(10)
C4 C3 C2 118.89(9)
C5 C4 C3 121.92(10)
C5 C4 H4 119.0
C3 C4 H4 119.0
C4 C5 C6 117.97(10)
C4 C5 H5 121.0
C6 C5 H5 121.0
N1 C6 C5 125.69(10)
N1 C6 C1 113.24(10)
C5 C6 C1 121.06(10)
O2 C7 O1 112.12(9)
O2 C7 C1 112.23(9)
O1 C7 C1 102.76(8)
O2 C7 C8 111.82(9)
O1 C7 C8 104.92(9)
C1 C7 C8 112.42(9)
F2 C8 F3 108.02(10)
F2 C8 F1 107.88(10)
F3 C8 F1 107.68(10)
F2 C8 C7 110.73(10)
F3 C8 C7 111.54(9)
F1 C8 C7 110.85(9)
C6 N1 O1 108.64(9)
N1 O1 C7 110.49(8)
C7 O2 H2O 110.3(12)
loop_
_geom_bond_atom_site_label_1
_geom_bond_atom_site_label_2
_geom_bond_distance
C1 C2 1.3422(15)
C1 C6 1.4460(15)
C1 C7 1.5056(14)
C2 C3 1.4796(14)
C2 H2 0.95
C3 O3 1.2380(13)
C3 C4 1.4777(15)
C4 C5 1.3483(16)
C4 H4 0.95
C5 C6 1.4436(15)
C5 H5 0.95
C6 N1 1.3046(15)
C7 O2 1.3671(13)
C7 O1 1.4688(13)
C7 C8 1.5391(16)
C8 F2 1.3300(14)
C8 F3 1.3367(14)
C8 F1 1.3381(13)
N1 O1 1.4043(12)
O2 H2O 0.822(18)
loop_
_geom_torsion_atom_site_label_1
_geom_torsion_atom_site_label_2
_geom_torsion_atom_site_label_3
_geom_torsion_atom_site_label_4
_geom_torsion
C6 C1 C2 C3 0.19(16)
C7 C1 C2 C3 -177.69(11)
C1 C2 C3 O3 177.40(11)
C1 C2 C3 C4 -2.03(15)
O3 C3 C4 C5 -177.22(11)
C2 C3 C4 C5 2.20(16)
C3 C4 C5 C6 -0.43(17)
C4 C5 C6 N1 177.45(11)
C4 C5 C6 C1 -1.48(16)
C2 C1 C6 N1 -177.42(11)
C7 C1 C6 N1 0.97(12)
C2 C1 C6 C5 1.64(17)
C7 C1 C6 C5 -179.97(10)
C2 C1 C7 O2 56.28(16)
C6 C1 C7 O2 -121.87(10)
C2 C1 C7 O1 176.92(12)
C6 C1 C7 O1 -1.23(10)
C2 C1 C7 C8 -70.81(16)
C6 C1 C7 C8 111.04(10)
O2 C7 C8 F2 -61.79(12)
O1 C7 C8 F2 176.44(8)
C1 C7 C8 F2 65.51(12)
O2 C7 C8 F3 177.87(9)
O1 C7 C8 F3 56.11(11)
C1 C7 C8 F3 -54.82(13)
O2 C7 C8 F1 57.90(12)
O1 C7 C8 F1 -63.86(11)
C1 C7 C8 F1 -174.79(9)
C5 C6 N1 O1 -179.24(10)
C1 C6 N1 O1 -0.24(13)
C6 N1 O1 C7 -0.64(12)
O2 C7 O1 N1 121.89(9)
C1 C7 O1 N1 1.17(11)
C8 C7 O1 N1 -116.54(9)
