#------------------------------------------------------------------------------
#$Date: 2019-11-03 13:43:12 +0200 (Sun, 03 Nov 2019) $
#$Revision: 221557 $
#$URL: file:///home/coder/svn-repositories/cod/cif/4/12/84/4128453.cif $
#------------------------------------------------------------------------------
#
# This file is available in the Crystallography Open Database (COD),
# http://www.crystallography.net/
#
# All data on this site have been placed in the public domain by the
# contributors.
#
data_4128453
loop_
_publ_author_name
'Landry, Matthew L.'
'McKenna, Grace M.'
'Burns, Noah Z.'
_publ_section_title
;
 Enantioselective Synthesis of Azamerone.
;
_journal_issue                   7
_journal_name_full               'Journal of the American Chemical Society'
_journal_page_first              2867
_journal_page_last               2871
_journal_paper_doi               10.1021/jacs.8b12566
_journal_volume                  141
_journal_year                    2019
_chemical_formula_moiety         'C10 H18 B Cl O2'
_chemical_formula_sum            'C10 H18 B Cl O2'
_chemical_formula_weight         216.50
_space_group_crystal_system      triclinic
_space_group_IT_number           2
_space_group_name_Hall           '-P 1'
_space_group_name_H-M_alt        'P -1'
_atom_sites_solution_hydrogens   mixed
_atom_sites_solution_primary     dual
_atom_sites_solution_secondary   difmap
_audit_creation_method           SHELXL-2018/1
_cell_angle_alpha                105.065(2)
_cell_angle_beta                 95.119(2)
_cell_angle_gamma                114.634(2)
_cell_formula_units_Z            2
_cell_length_a                   7.3390(7)
_cell_length_b                   7.6739(7)
_cell_length_c                   11.4931(10)
_cell_measurement_reflns_used    7439
_cell_measurement_temperature    120(2)
_cell_measurement_theta_max      28.39
_cell_measurement_theta_min      3.05
_cell_volume                     553.57(9)
_computing_cell_refinement       'Bruker SAINT (Bruker, 2015)'
_computing_data_collection       'Bruker APEX-3 (Bruker, 2015)'
_computing_data_reduction        'Bruker SAINT (Bruker, 2015)'
_computing_molecular_graphics    'Bruker XP (Bruker, 2015)'
_computing_publication_material  'CIFTAB (Sheldrick, 2008)'
_computing_structure_refinement  'SHELXL-2018/1 (Sheldrick, 2015)'
_computing_structure_solution    'SHELXT-2014/2 (Sheldrick, 2015)'
_diffrn_ambient_temperature      120(2)
_diffrn_detector_area_resol_mean 8.33
_diffrn_measured_fraction_theta_full 1.000
_diffrn_measured_fraction_theta_max 1.000
_diffrn_measurement_device_type  'Bruker Kappa X8-APEX-II'
_diffrn_measurement_method       'combination of \w and \f-scans '
_diffrn_radiation_monochromator  graphite
_diffrn_radiation_source         'fine-focus sealed tube'
_diffrn_radiation_type           MoK\a
_diffrn_radiation_wavelength     0.71073
_diffrn_reflns_av_R_equivalents  0.0201
_diffrn_reflns_av_unetI/netI     0.0141
_diffrn_reflns_Laue_measured_fraction_full 1.000
_diffrn_reflns_Laue_measured_fraction_max 1.000
_diffrn_reflns_limit_h_max       9
_diffrn_reflns_limit_h_min       -9
_diffrn_reflns_limit_k_max       10
_diffrn_reflns_limit_k_min       -10
_diffrn_reflns_limit_l_max       15
_diffrn_reflns_limit_l_min       -15
_diffrn_reflns_number            16616
_diffrn_reflns_point_group_measured_fraction_full 1.000
_diffrn_reflns_point_group_measured_fraction_max 1.000
_diffrn_reflns_theta_full        25.242
_diffrn_reflns_theta_max         28.437
_diffrn_reflns_theta_min         1.883
_exptl_absorpt_coefficient_mu    0.316
_exptl_absorpt_correction_T_max  0.9939
_exptl_absorpt_correction_T_min  0.9327
_exptl_absorpt_correction_type   numerical
_exptl_absorpt_process_details   'SADABS (Krause et al., 2015)'
_exptl_crystal_colour            colorless
_exptl_crystal_density_diffrn    1.299
_exptl_crystal_description       block
_exptl_crystal_F_000             232
_exptl_crystal_size_max          0.238
_exptl_crystal_size_mid          0.171
_exptl_crystal_size_min          0.110
_refine_diff_density_max         1.283
_refine_diff_density_min         -0.332
_refine_diff_density_rms         0.064
_refine_ls_extinction_method     none
_refine_ls_goodness_of_fit_ref   1.085
_refine_ls_hydrogen_treatment    mixed
_refine_ls_matrix_type           full
_refine_ls_number_parameters     134
_refine_ls_number_reflns         2788
_refine_ls_number_restraints     0
_refine_ls_restrained_S_all      1.085
_refine_ls_R_factor_all          0.0485
_refine_ls_R_factor_gt           0.0434
_refine_ls_shift/su_max          0.000
_refine_ls_shift/su_mean         0.000
_refine_ls_structure_factor_coef Fsqd
_refine_ls_weighting_details
'w=1/[\s^2^(Fo^2^)+(0.0559P)^2^+0.4249P] where P=(Fo^2^+2Fc^2^)/3'
_refine_ls_weighting_scheme      calc
_refine_ls_wR_factor_gt          0.1122
_refine_ls_wR_factor_ref         0.1157
_reflns_Friedel_coverage         0.000
_reflns_number_gt                2509
_reflns_number_total             2788
_reflns_threshold_expression     'I > 2\s(I)'
_cod_data_source_file            ja8b12566_si_005.cif
_cod_data_source_block           su1713
_cod_database_code               4128453
_shelx_shelxl_version_number     2018/1
_shelx_space_group_comment
;
The symmetry employed for this shelxl refinement is uniquely defined
by the following loop, which should always be used as a source of
symmetry information in preference to the above space-group names.
They are only intended as comments.
;
_shelx_estimated_absorpt_t_min   0.928
_shelx_estimated_absorpt_t_max   0.966
_shelx_res_file
;
TITL su1713 in P-1
    su1713.res
    created by SHELXL-2018/1 at 16:12:55 on 14-Dec-2017
CELL 0.71073   7.33900   7.67390  11.49310 105.0648  95.1193 114.6339
ZERR    2.00   0.00070   0.00070   0.00100   0.0021   0.0023   0.0021
LATT  1
SFAC C H B O CL
UNIT 20 36 2 4 2
TEMP -153.140
SIZE 0.11 0.171 0.238
L.S. 10
BOND $H
FMAP 2
PLAN 20
CONF

EQIV $1 -x+2, -y+2, -z+1
HTAB O2 O1_$1

ACTA
WGHT    0.055900    0.424900
FVAR       0.31585
CL1   5    0.229217    0.664569    0.898646    11.00000    0.02404    0.02694 =
         0.02670    0.01084    0.01435    0.01111
O1    4    0.829554    0.907334    0.583607    11.00000    0.02777    0.02378 =
         0.02521    0.01433    0.01674    0.01620
O2    4    1.036641    0.760631    0.497418    11.00000    0.03638    0.03160 =
         0.03503    0.02102    0.02412    0.02387
H2O   2    1.064267    0.834355    0.472770    11.00000    0.03953
B1    3    0.908550    0.769439    0.572272    11.00000    0.02342    0.02209 =
         0.02193    0.00931    0.00940    0.01293
C1    1    0.823900    0.633771    0.656023    11.00000    0.02368    0.02473 =
         0.02746    0.01434    0.01290    0.01651
AFIX  23
H1A   2    0.770955    0.487592    0.610117    11.00000   -1.20000
H1B   2    0.928968    0.673870    0.731152    11.00000   -1.20000
AFIX   0
C2    1    0.650374    0.687262    0.686418    11.00000    0.01921    0.01692 =
         0.01942    0.00757    0.00765    0.00972
AFIX  13
H2    2    0.538446    0.606968    0.609583    11.00000   -1.20000
AFIX   0
C3    1    0.542710    0.636218    0.790193    11.00000    0.01677    0.01684 =
         0.01750    0.00758    0.00571    0.00722
C4    1    0.365926    0.694413    0.775338    11.00000    0.01662    0.02040 =
         0.01870    0.00653    0.00660    0.00706
AFIX  13
H4    2    0.266283    0.597860    0.695557    11.00000   -1.20000
AFIX   0
C5    1    0.430807    0.909600    0.771630    11.00000    0.02402    0.02222 =
         0.02972    0.01133    0.01360    0.01402
AFIX  23
H5A   2    0.519516    1.008733    0.852633    11.00000   -1.20000
H5B   2    0.306937    0.929612    0.757249    11.00000   -1.20000
AFIX   0
C6    1    0.548289    0.949735    0.669129    11.00000    0.02671    0.02334 =
         0.03054    0.01456    0.01310    0.01593
AFIX  23
H6A   2    0.456509    0.860379    0.586989    11.00000   -1.20000
H6B   2    0.595921    1.092497    0.672511    11.00000   -1.20000
AFIX   0
C7    1    0.730435    0.907965    0.688294    11.00000    0.01786    0.01659 =
         0.01934    0.00786    0.00922    0.00811
C8    1    0.682077    0.742236    0.920365    11.00000    0.02229    0.03389 =
         0.01995    0.01119    0.00440    0.01119
AFIX 137
H8A   2    0.813732    0.738792    0.918088    11.00000   -1.50000
H8B   2    0.615414    0.672175    0.976415    11.00000   -1.50000
H8C   2    0.706239    0.883563    0.949865    11.00000   -1.50000
AFIX   0
C9    1    0.452208    0.407327    0.764170    11.00000    0.02999    0.02066 =
         0.03189    0.01338    0.01301    0.01195
AFIX 137
H9A   2    0.563733    0.371474    0.778614    11.00000   -1.50000
H9B   2    0.375339    0.336009    0.677965    11.00000   -1.50000
H9C   2    0.359506    0.367696    0.819242    11.00000   -1.50000
AFIX   0
C10   1    0.900143    1.073556    0.798350    11.00000    0.02225    0.02185 =
         0.02809    0.00316    0.00910    0.00205
AFIX 137
H10A  2    0.965859    1.198271    0.777551    11.00000   -1.50000
H10B  2    1.002956    1.029233    0.818160    11.00000   -1.50000
H10C  2    0.840574    1.099480    0.869999    11.00000   -1.50000

AFIX   0
HKLF 4




REM  su1713 in P-1
REM R1 =  0.0434 for    2509 Fo > 4sig(Fo)  and  0.0485 for all    2788 data
REM    134 parameters refined using      0 restraints

END

WGHT      0.0559      0.4250

REM Highest difference peak  1.283,  deepest hole -0.332,  1-sigma level  0.064
Q1    1   0.3329  0.6987  0.9471  11.00000  0.05    1.28
Q2    1   0.9364  0.9731  0.6321  11.00000  0.05    0.52
Q3    1   0.7579  0.7355  0.7300  11.00000  0.05    0.47
Q4    1   0.5480  0.8055  0.5543  11.00000  0.05    0.47
Q5    1   0.8588  0.6761  0.6026  11.00000  0.05    0.43
Q6    1   0.8047  0.9832  0.7395  11.00000  0.05    0.43
Q7    1   0.5938  0.6642  0.7428  11.00000  0.05    0.41
Q8    1   0.5433  0.8166  0.8793  11.00000  0.05    0.41
Q9    1   0.4676  0.6760  0.7964  11.00000  0.05    0.39
Q10   1   0.7183  1.0788  0.7750  11.00000  0.05    0.38
Q11   1   0.3807  0.4779  0.6954  11.00000  0.05    0.37
Q12   1   0.6033  0.6835  0.8454  11.00000  0.05    0.36
Q13   1   0.5038  0.5334  0.7841  11.00000  0.05    0.35
Q14   1   0.7344  0.6375  0.6650  11.00000  0.05    0.34
Q15   1   0.6478  0.9301  0.6892  11.00000  0.05    0.33
Q16   1   0.6992  0.8138  0.6932  11.00000  0.05    0.32
Q17   1   0.8446  0.8277  0.5633  11.00000  0.05    0.29
Q18   1   0.6378  0.5275  0.8605  11.00000  0.05    0.28
Q19   1   1.1191  0.8404  0.5559  11.00000  0.05    0.27
Q20   1   0.2561  0.6331  0.8381  11.00000  0.05    0.27
;
_shelx_res_checksum              14637
_shelx_hkl_file
;
  -1   0   0   36.91    0.47
  -1   0   0   37.11    0.48
   1   0   0   37.30    0.48
   1   0   0   37.58    0.47
   1   0   0   37.48    0.44
  -2   0   0    8.07    0.21
  -2   0   0    7.78    0.21
  -2   0   0    8.04    0.15
   2   0   0    7.81    0.22
   2   0   0    8.04    0.16
   2   0   0    7.92    0.21
   2   0   0    7.64    0.19
  -3   0   0   12.97    0.24
  -3   0   0   13.27    0.32
  -3   0   0   13.79    0.33
   3   0   0   13.69    0.30
   3   0   0   13.75    0.26
   3   0   0   13.81    0.32
   3   0   0   13.54    0.34
  -4   0   0    6.95    0.26
  -4   0   0    6.94    0.18
  -4   0   0    6.84    0.27
   4   0   0    7.08    0.20
   4   0   0    7.17    0.27
   4   0   0    6.46    0.23
   4   0   0    7.08    0.29
  -5   0   0    4.10    0.24
   5   0   0    4.53    0.18
   5   0   0    3.65    0.26
   5   0   0    4.40    0.22
   5   0   0    3.86    0.24
   5   0   0    4.10    0.27
  -6   0   0    2.78    0.25
   6   0   0    3.09    0.23
   6   0   0    2.72    0.25
   6   0   0    2.96    0.28
   6   0   0    3.31    0.29
  -7   0   0    3.26    0.31
   7   0   0    3.13    0.32
   7   0   0    3.07    0.30
   7   0   0    3.68    0.27
  -8   0   0    0.27    0.19
   8   0   0    0.07    0.18
   8   0   0    0.43    0.24
   8   0   0    0.23    0.20
   9  -1   0    4.65    0.44
   9  -1   0    4.94    0.47
   9  -1   0    4.72    0.42
  -9   1   0    4.01    0.39
   8  -1   0    0.13    0.18
   8  -1   0    0.18    0.17
   8  -1   0   -0.05    0.18
  -8   1   0   -0.05    0.15
   7  -1   0   34.54    0.83
   7  -1   0   34.25    0.80
   7  -1   0   34.45    0.79
   7  -1   0   34.57    0.82
  -7   1   0   34.00    0.80
   6  -1   0   26.53    0.55
   6  -1   0   26.13    0.65
   6  -1   0   27.03    0.62
   6  -1   0   26.69    0.64
   6  -1   0   26.03    0.65
  -6   1   0   25.96    0.62
   5  -1   0   48.50    0.86
   5  -1   0   47.23    0.70
   5  -1   0   48.56    0.82
   5  -1   0   48.76    0.76
   5  -1   0   48.21    0.84
  -5   1   0   47.68    0.72
  -5   1   0   47.33    0.83
   4  -1   0    6.53    0.24
   4  -1   0    6.82    0.21
   4  -1   0    6.70    0.26
   4  -1   0    7.11    0.24
  -4   1   0    6.94    0.26
  -4   1   0    7.08    0.20
  -4   1   0    7.18    0.21
   3  -1   0    4.67    0.18
   3  -1   0    4.75    0.18
   3  -1   0    4.98    0.20
   3  -1   0    4.81    0.16
  -3   1   0    4.90    0.19
  -3   1   0    4.58    0.17
  -3   1   0    4.48    0.14
  -3   1   0    4.39    0.17
   2  -1   0    1.13    0.09
   2  -1   0    0.95    0.09
   2  -1   0    0.99    0.08
   2  -1   0    1.03    0.09
  -2   1   0    0.82    0.08
  -2   1   0    0.85    0.09
  -2   1   0    0.97    0.08
  -2   1   0    1.02    0.07
  -2   1   0    0.99    0.09
   1  -1   0   45.96    0.56
   1  -1   0   45.29    0.56
   1  -1   0   46.30    0.57
   1  -1   0   45.81    0.52
   1  -1   0   44.03    0.51
   1  -1   0   45.53    0.56
  -1   1   0   46.08    0.57
  -1   1   0   45.28    0.57
  -1   1   0   43.92    0.58
  -1   1   0   45.68    0.54
  -1   1   0   46.13    0.56
  -1   1   0   45.10    0.56
   0  -1   0    5.75    0.13
   0  -1   0    5.87    0.12
   0  -1   0    5.74    0.11
   0  -1   0    6.07    0.13
   0  -1   0    5.75    0.13
   0  -1   0    5.77    0.13
   0   1   0    6.16    0.13
   0   1   0    5.80    0.13
   0   1   0    5.87    0.13
   0   1   0    6.25    0.14
   0   1   0    5.63    0.13
  -1  -1   0    6.80    0.17
  -1  -1   0    7.03    0.13
  -1  -1   0    7.21    0.17
   1   1   0    7.28    0.20
   1   1   0    7.14    0.19
   1   1   0    6.97    0.16
  -2  -1   0   37.87    0.59
  -2  -1   0   36.95    0.60
  -2  -1   0   38.07    0.57
  -2  -1   0   36.84    0.50
   2   1   0   37.64    0.53
   2   1   0   38.05    0.62
   2   1   0   37.70    0.59
  -3  -1   0   10.70    0.32
  -3  -1   0   10.97    0.31
   3   1   0   11.40    0.25
   3   1   0   10.80    0.30
   3   1   0   11.60    0.35
   3   1   0   10.86    0.32
  -4  -1   0    3.49    0.22
  -4  -1   0    3.53    0.23
   4   1   0    3.50    0.25
   4   1   0    3.61    0.16
   4   1   0    3.62    0.23
   4   1   0    3.41    0.21
  -5  -1   0    2.15    0.22
   5   1   0    1.68    0.22
   5   1   0    1.69    0.19
   5   1   0    2.32    0.23
  -6  -1   0   13.18    0.48
   6   1   0   13.49    0.45
   6   1   0   12.44    0.48
   6   1   0   12.49    0.51
  -7  -1   0    0.35    0.19
   7   1   0    0.17    0.16
   7   1   0    0.35    0.20
   7   1   0   -0.07    0.16
  -8  -1   0    1.13    0.27
   8   1   0    1.11    0.28
   8   1   0    1.24    0.27
   9  -2   0    0.04    0.18
   9  -2   0    0.11    0.20
  -9   2   0    0.04    0.19
   8  -2   0    1.57    0.25
   8  -2   0    1.71    0.24
   8  -2   0    2.48    0.28
  -8   2   0    1.42    0.24
   7  -2   0    0.14    0.13
   7  -2   0    0.33    0.14
   7  -2   0    0.36    0.16
   7  -2   0    0.52    0.17
  -7   2   0    0.21    0.16
   6  -2   0    8.28    0.32
   6  -2   0    8.64    0.28
   6  -2   0    8.21    0.32
   6  -2   0    8.16    0.35
   6  -2   0    8.00    0.34
  -6   2   0    8.37    0.26
  -6   2   0    8.96    0.36
  -6   2   0    8.52    0.31
   5  -2   0    0.23    0.08
   5  -2   0    0.10    0.09
   5  -2   0    0.29    0.10
   5  -2   0    0.37    0.12
   5  -2   0    0.33    0.10
  -5   2   0    0.08    0.10
  -5   2   0    0.29    0.10
  -5   2   0    0.31    0.08
   4  -2   0    0.34    0.08
   4  -2   0    0.32    0.09
   4  -2   0    0.31    0.08
   4  -2   0    0.28    0.09
  -4   2   0    0.28    0.07
  -4   2   0    0.29    0.09
  -4   2   0    0.16    0.09
   3  -2   0  506.78    5.70
   3  -2   0  506.39    5.56
   3  -2   0  512.66    5.62
   3  -2   0  522.96    5.65
   3  -2   0  490.05    5.89
  -3   2   0  506.47    5.66
  -3   2   0  495.77    5.79
  -3   2   0  509.99    5.64
  -3   2   0  495.98    5.74
   2  -2   0   64.95    0.75
   2  -2   0   63.39    0.85
   2  -2   0   64.85    0.83
   2  -2   0   63.36    0.82
   2  -2   0   64.06    0.83
  -2   2   0   62.46    0.83
  -2   2   0   61.77    0.86
  -2   2   0   63.92    0.83
  -2   2   0   64.73    0.79
  -2   2   0   63.94    0.82
  -2   2   0   63.74    0.85
   1  -2   0    0.28    0.07
   1  -2   0    0.19    0.07
   1  -2   0    0.24    0.07
   1  -2   0    0.29    0.03
   1  -2   0    0.23    0.06
  -1   2   0    0.32    0.07
  -1   2   0    0.30    0.07
  -1   2   0    0.30    0.08
  -1   2   0    0.23    0.03
  -1   2   0    0.31    0.05
  -1   2   0    0.15    0.06
   0  -2   0   67.06    0.88
   0  -2   0   68.82    0.88
   0  -2   0   68.41    0.87
   0  -2   0   68.25    0.83
   0  -2   0   66.64    0.87
   0  -2   0   69.65    0.85
   0   2   0   67.17    0.88
   0   2   0   69.84    0.90
   0   2   0   68.64    0.87
   0   2   0   69.40    0.88
   0   2   0   69.77    0.89
  -1  -2   0   81.32    1.05
  -1  -2   0   81.34    0.96
  -1  -2   0   81.69    1.07
  -1  -2   0   83.51    1.07
   1   2   0   80.26    1.08
   1   2   0   80.84    1.04
   1   2   0   82.18    1.09
   1   2   0   82.45    1.10
   1   2   0   81.60    0.99
  -2  -2   0    0.49    0.09
  -2  -2   0    0.52    0.09
  -2  -2   0    0.54    0.10
  -2  -2   0    0.45    0.06
   2   2   0    0.52    0.11
   2   2   0    0.45    0.10
   2   2   0    0.42    0.08
  -3  -2   0   15.41    0.38
  -3  -2   0   14.46    0.40
  -3  -2   0   15.64    0.42
   3   2   0   15.70    0.41
   3   2   0   15.67    0.41
   3   2   0   15.38    0.45
   3   2   0   15.00    0.34
  -4  -2   0    0.10    0.11
   4   2   0    0.05    0.10
   4   2   0    0.09    0.11
   4   2   0   -0.01    0.07
   4   2   0    0.13    0.13
  -5  -2   0    3.08    0.27
   5   2   0    4.00    0.31
   5   2   0    2.58    0.28
   5   2   0    3.99    0.29
  -6  -2   0    9.09    0.44
   6   2   0    8.69    0.48
   6   2   0    9.20    0.43
   6   2   0    8.21    0.42
  -7  -2   0   19.17    0.67
   7   2   0   17.97    0.62
   7   2   0   17.41    0.65
   7   2   0   18.41    0.72
   9  -3   0   23.62    0.69
   9  -3   0   24.28    0.72
   9  -3   0   23.77    0.76
  -9   3   0   23.03    0.75
   8  -3   0    9.47    0.43
   8  -3   0    8.90    0.45
   8  -3   0    8.70    0.40
   8  -3   0    9.18    0.44
  -8   3   0    8.78    0.45
   7  -3   0    0.15    0.14
   7  -3   0    0.19    0.14
   7  -3   0    0.17    0.11
   7  -3   0    0.04    0.11
   7  -3   0    0.07    0.13
  -7   3   0    0.26    0.15
  -7   3   0    0.00    0.12
   6  -3   0    0.06    0.08
   6  -3   0   -0.04    0.08
   6  -3   0    0.18    0.09
   6  -3   0    0.04    0.10
   6  -3   0    0.04    0.11
   6  -3   0    0.25    0.11
  -6   3   0    0.00    0.11
  -6   3   0   -0.01    0.08
  -6   3   0    0.04    0.11
   5  -3   0   30.57    0.61
   5  -3   0   31.36    0.54
   5  -3   0   31.49    0.54
   5  -3   0   31.55    0.61
   5  -3   0   30.39    0.60
  -5   3   0   30.64    0.54
  -5   3   0   30.63    0.62
  -5   3   0   30.91    0.63
   4  -3   0    5.63    0.18
   4  -3   0    5.52    0.22
   4  -3   0    5.33    0.17
   4  -3   0    5.71    0.23
   4  -3   0    5.29    0.22
  -4   3   0    5.65    0.24
  -4   3   0    5.13    0.20
  -4   3   0    4.84    0.25
   3  -3   0    7.34    0.23
   3  -3   0    7.34    0.23
   3  -3   0    6.91    0.24
   3  -3   0    7.19    0.22
   3  -3   0    7.00    0.16
  -3   3   0    7.52    0.26
  -3   3   0    6.71    0.26
  -3   3   0    7.36    0.23
   2  -3   0   16.44    0.34
   2  -3   0   15.99    0.35
   2  -3   0   16.40    0.33
   2  -3   0   16.77    0.32
   2  -3   0   16.16    0.22
  -2   3   0   16.37    0.24
  -2   3   0   15.82    0.33
  -2   3   0   16.32    0.35
  -2   3   0   16.34    0.32
  -2   3   0   16.12    0.38
   1  -3   0   11.53    0.27
   1  -3   0   11.68    0.27
   1  -3   0   11.86    0.28
   1  -3   0   11.89    0.21
   1  -3   0   11.93    0.28
   1  -3   0   12.03    0.29
  -1   3   0   11.77    0.24
  -1   3   0   11.94    0.30
  -1   3   0   11.66    0.30
  -1   3   0   11.89    0.28
  -1   3   0   12.25    0.29
   0  -3   0  190.59    2.24
   0  -3   0  193.51    2.28
   0  -3   0  195.86    2.31
   0  -3   0  194.02    2.22
   0  -3   0  192.57    2.29
   0  -3   0  192.00    2.29
   0   3   0  188.97    2.29
   0   3   0  193.19    2.30
   0   3   0  192.29    2.28
   0   3   0  191.47    2.32
  -1  -3   0   38.32    0.63
  -1  -3   0   36.80    0.52
  -1  -3   0   37.55    0.61
   1   3   0   37.30    0.66
   1   3   0   37.84    0.62
   1   3   0   37.15    0.57
   1   3   0   37.09    0.66
  -2  -3   0   18.07    0.45
  -2  -3   0   18.58    0.42
  -2  -3   0   18.16    0.44
  -2  -3   0   18.69    0.31
   2   3   0   18.21    0.46
   2   3   0   18.75    0.49
   2   3   0   18.63    0.41
  -3  -3   0    0.48    0.12
  -3  -3   0    0.56    0.14
  -3  -3   0    0.54    0.13
   3   3   0    0.38    0.11
   3   3   0    0.51    0.14
   3   3   0    0.34    0.14
   3   3   0    0.37    0.13
  -4  -3   0   19.72    0.52
  -4  -3   0   19.33    0.55
   4   3   0   17.65    0.58
   4   3   0   19.37    0.55
   4   3   0   18.40    0.53
   4   3   0   19.32    0.45
  -5  -3   0    0.39    0.17
   5   3   0    0.97    0.21
   5   3   0    0.66    0.18
   5   3   0    0.68    0.21
  -6  -3   0    0.62    0.21
   6   3   0    0.49    0.23
   6   3   0    0.41    0.20
   6   3   0    0.58    0.21
   9  -4   0    0.05    0.18
   9  -4   0   -0.06    0.18
  -9   4   0   -0.11    0.17
   8  -4   0    8.83    0.43
   8  -4   0    9.46    0.43
   8  -4   0    8.91    0.36
   8  -4   0    9.04    0.44
  -8   4   0    8.52    0.45
   7  -4   0    8.45    0.37
   7  -4   0    8.22    0.38
   7  -4   0    8.11    0.31
   7  -4   0    8.51    0.38
  -7   4   0    8.50    0.39
  -7   4   0    8.79    0.39
   6  -4   0    0.05    0.11
   6  -4   0   -0.02    0.08
   6  -4   0    0.05    0.11
   6  -4   0   -0.08    0.10
  -6   4   0    0.01    0.09
  -6   4   0    0.03    0.11
  -6   4   0    0.10    0.12
   5  -4   0   38.45    0.71
   5  -4   0   37.91    0.55
   5  -4   0   37.33    0.69
   5  -4   0   38.82    0.74
   5  -4   0   36.90    0.58
   5  -4   0   36.90    0.68
  -5   4   0   36.76    0.75
  -5   4   0   36.62    0.65
  -5   4   0   36.78    0.73
   4  -4   0    0.30    0.06
   4  -4   0    0.19    0.09
   4  -4   0    0.20    0.10
   4  -4   0    0.28    0.10
   4  -4   0    0.13    0.09
  -4   4   0    0.09    0.10
  -4   4   0    0.21    0.09
   3  -4   0   89.38    1.21
   3  -4   0   89.07    1.21
   3  -4   0   88.18    1.02
   3  -4   0   90.28    1.25
   3  -4   0   89.94    1.19
  -3   4   0   91.15    1.26
  -3   4   0   88.04    1.30
  -3   4   0   89.57    1.23
  -3   4   0   88.15    1.18
   2  -4   0   19.55    0.41
   2  -4   0   19.03    0.42
   2  -4   0   19.39    0.42
   2  -4   0   19.09    0.39
  -2   4   0   19.30    0.46
  -2   4   0   19.11    0.32
  -2   4   0   18.97    0.41
  -2   4   0   19.03    0.44
   1  -4   0    4.95    0.20
   1  -4   0    4.90    0.22
   1  -4   0    5.20    0.22
   1  -4   0    4.60    0.21
   1  -4   0    4.60    0.20
   1  -4   0    4.87    0.16
  -1   4   0    4.86    0.23
  -1   4   0    4.99    0.23
  -1   4   0    4.87    0.23
  -1   4   0    4.75    0.19
   0  -4   0   34.55    0.63
   0  -4   0   35.06    0.62
   0  -4   0   34.73    0.58
   0  -4   0   34.95    0.55
   0  -4   0   34.53    0.62
   0   4   0   34.57    0.61
   0   4   0   34.91    0.63
   0   4   0   34.12    0.65
   0   4   0   34.64    0.64
  -1  -4   0   21.42    0.47
  -1  -4   0   22.69    0.49
  -1  -4   0   21.81    0.38
  -1  -4   0   21.87    0.50
   1   4   0   21.29    0.52
   1   4   0   22.41    0.44
   1   4   0   21.53    0.53
   1   4   0   22.04    0.49
  -2  -4   0   13.21    0.41
  -2  -4   0   12.50    0.38
   2   4   0   12.54    0.43
   2   4   0   12.84    0.39
   2   4   0   12.63    0.37
   2   4   0   13.14    0.45
  -3  -4   0   13.26    0.44
  -3  -4   0   12.72    0.41
   3   4   0   13.17    0.47
   3   4   0   13.55    0.44
   3   4   0   12.43    0.39
   3   4   0   12.51    0.50
  -4  -4   0    5.42    0.32
  -4  -4   0    5.46    0.36
   4   4   0    5.26    0.39
   4   4   0    6.29    0.36
   4   4   0    6.12    0.39
  -5  -4   0   -0.03    0.15
   5   4   0    0.20    0.20
   5   4   0   -0.22    0.15
   5   4   0   -0.25    0.16
  -6  -4   0    3.22    0.37
   6   4   0    4.06    0.40
   6   4   0    3.68    0.40
   6   4   0    3.58    0.42
   9  -5   0    0.13    0.17
   9  -5   0    0.23    0.18
   9  -5   0   -0.12    0.17
  -9   5   0    0.19    0.19
   8  -5   0   19.50    0.60
   8  -5   0   19.11    0.63
   8  -5   0   19.64    0.60
   8  -5   0   19.23    0.60
  -8   5   0   19.02    0.63
  -8   5   0   18.40    0.62
   7  -5   0    2.34    0.25
   7  -5   0    2.47    0.25
   7  -5   0    1.67    0.22
   7  -5   0    2.17    0.25
  -7   5   0    2.01    0.26
  -7   5   0    1.95    0.25
  -7   5   0    2.43    0.23
   6  -5   0    0.35    0.13
   6  -5   0    0.21    0.12
   6  -5   0    0.31    0.13
   6  -5   0    0.27    0.14
  -6   5   0    0.25    0.12
  -6   5   0    0.37    0.15
   5  -5   0    0.54    0.13
   5  -5   0    0.49    0.13
   5  -5   0    0.37    0.12
   5  -5   0    0.30    0.11
  -5   5   0    0.26    0.11
  -5   5   0    0.22    0.13
   4  -5   0    0.01    0.09
   4  -5   0    0.03    0.09
   4  -5   0   -0.12    0.07
   4  -5   0    0.01    0.10
  -4   5   0   -0.19    0.08
  -4   5   0   -0.07    0.07
  -4   5   0    0.16    0.11
   3  -5   0   34.77    0.65
   3  -5   0   33.13    0.66
   3  -5   0   34.82    0.61
   3  -5   0   34.08    0.63
  -3   5   0   33.10    0.67
  -3   5   0   33.40    0.47
  -3   5   0   35.49    0.72
  -3   5   0   33.62    0.62
  -3   5   0   33.09    0.66
   2  -5   0   34.17    0.65
   2  -5   0   35.20    0.62
   2  -5   0   34.65    0.64
   2  -5   0   35.12    0.65
   2  -5   0   34.62    0.64
  -2   5   0   34.78    0.68
  -2   5   0   34.76    0.56
  -2   5   0   35.42    0.70
  -2   5   0   33.89    0.65
   1  -5   0   18.16    0.45
   1  -5   0   18.04    0.45
   1  -5   0   17.87    0.41
   1  -5   0   17.67    0.45
   1  -5   0   18.00    0.43
  -1   5   0   17.88    0.47
  -1   5   0   18.14    0.42
  -1   5   0   17.82    0.47
  -1   5   0   18.34    0.47
   0  -5   0   28.72    0.60
   0  -5   0   28.76    0.52
   0  -5   0   29.15    0.61
   0   5   0   29.47    0.59
   0   5   0   29.04    0.63
   0   5   0   28.42    0.61
   0   5   0   28.20    0.64
  -1  -5   0    6.47    0.30
  -1  -5   0    6.27    0.30
   1   5   0    6.03    0.33
   1   5   0    5.88    0.29
   1   5   0    6.19    0.32
   1   5   0    5.76    0.27
   1   5   0    5.93    0.26
  -2  -5   0   14.66    0.48
  -2  -5   0   14.76    0.45
   2   5   0   14.73    0.45
   2   5   0   15.00    0.45
   2   5   0   14.29    0.52
   2   5   0   15.11    0.52
  -3  -5   0    3.87    0.30
  -3  -5   0    4.06    0.32
   3   5   0    3.77    0.27
   3   5   0    3.95    0.36
   3   5   0    4.20    0.31
   3   5   0    3.32    0.33
  -4  -5   0    1.62    0.27
  -4  -5   0    1.34    0.22
   4   5   0    1.33    0.27
   4   5   0    1.20    0.25
   4   5   0    1.11    0.22
  -5  -5   0    2.97    0.37
   5   5   0    2.44    0.32
   5   5   0    2.84    0.36
   5   5   0    3.14    0.40
   9  -6   0    2.57    0.30
   9  -6   0    2.87    0.32
   9  -6   0    2.86    0.34
  -9   6   0    2.40    0.33
   8  -6   0    3.03    0.29
   8  -6   0    3.15    0.31
   8  -6   0    3.06    0.33
   8  -6   0    3.48    0.32
  -8   6   0    2.65    0.33
   7  -6   0    9.13    0.45
   7  -6   0    9.42    0.42
   7  -6   0   10.34    0.44
   7  -6   0   10.31    0.41
  -7   6   0    9.69    0.39
  -7   6   0    9.65    0.48
   6  -6   0    5.85    0.35
   6  -6   0    5.43    0.31
   6  -6   0    5.50    0.32
   6  -6   0    5.90    0.33
  -6   6   0    6.07    0.32
  -6   6   0    6.51    0.38
   5  -6   0   17.08    0.48
   5  -6   0   16.35    0.50
   5  -6   0   16.24    0.45
   5  -6   0   16.64    0.48
  -5   6   0   16.24    0.48
  -5   6   0   16.32    0.54
   4  -6   0    2.46    0.21
   4  -6   0    2.04    0.20
   4  -6   0    2.09    0.21
   4  -6   0    2.32    0.23
  -4   6   0    2.40    0.26
  -4   6   0    2.43    0.24
  -4   6   0    2.10    0.22
  -4   6   0    1.98    0.19
   3  -6   0    6.03    0.28
   3  -6   0    5.66    0.30
   3  -6   0    5.80    0.30
   3  -6   0    6.14    0.27
   3  -6   0    5.54    0.28
  -3   6   0    5.40    0.31
  -3   6   0    5.80    0.29
  -3   6   0    6.05    0.33
  -3   6   0    5.57    0.31
   2  -6   0   28.18    0.62
   2  -6   0   28.24    0.59
   2  -6   0   27.80    0.60
   2  -6   0   28.31    0.61
   2  -6   0   26.90    0.62
  -2   6   0   28.17    0.66
  -2   6   0   27.62    0.63
  -2   6   0   27.43    0.53
  -2   6   0   28.06    0.66
   1  -6   0    0.67    0.15
   1  -6   0    0.62    0.14
   1  -6   0    0.97    0.15
   1  -6   0    0.60    0.13
   1  -6   0    0.83    0.16
  -1   6   0    0.92    0.16
  -1   6   0    0.98    0.17
  -1   6   0    0.69    0.16
  -1   6   0    0.83    0.17
   0  -6   0    1.81    0.21
   0  -6   0    1.89    0.21
   0   6   0    1.65    0.21
   0   6   0    1.84    0.18
   0   6   0    1.65    0.20
   0   6   0    1.75    0.19
   0   6   0    1.60    0.23
  -1  -6   0    1.12    0.18
  -1  -6   0    0.52    0.16
   1   6   0    0.70    0.19
   1   6   0    0.92    0.21
   1   6   0    1.05    0.18
   1   6   0    0.87    0.16
  -2  -6   0    4.67    0.32
  -2  -6   0    3.83    0.32
   2   6   0    4.85    0.39
   2   6   0    3.58    0.30
   2   6   0    4.05    0.31
   2   6   0    4.32    0.38
  -3  -6   0    1.98    0.25
  -3  -6   0    2.43    0.30
   3   6   0    3.06    0.37
   3   6   0    2.48    0.28
   3   6   0    2.53    0.33
  -4  -6   0    6.47    0.48
   4   6   0    6.22    0.48
   4   6   0    6.27    0.54
   4   6   0    6.45    0.45
   9  -7   0   -0.02    0.18
   9  -7   0    0.29    0.22
  -9   7   0    0.00    0.20
   8  -7   0    6.21    0.42
   8  -7   0    5.73    0.43
  -8   7   0    5.77    0.44
   7  -7   0    1.48    0.23
   7  -7   0    1.06    0.22
   7  -7   0    1.41    0.21
   7  -7   0    1.22    0.21
  -7   7   0    1.35    0.22
  -7   7   0    1.53    0.28
   6  -7   0    2.77    0.26
   6  -7   0    2.75    0.29
   6  -7   0    2.66    0.25
   6  -7   0    2.61    0.26
  -6   7   0    2.59    0.31
  -6   7   0    2.97    0.29
   5  -7   0    1.90    0.23
   5  -7   0    2.09    0.23
   5  -7   0    2.18    0.26
   5  -7   0    2.13    0.22
  -5   7   0    2.22    0.25
  -5   7   0    1.83    0.26
  -5   7   0    1.90    0.20
   4  -7   0   -0.08    0.13
   4  -7   0    0.23    0.13
   4  -7   0    0.06    0.11
   4  -7   0    0.10    0.13
   4  -7   0    0.10    0.14
  -4   7   0    0.12    0.14
  -4   7   0   -0.08    0.13
  -4   7   0   -0.09    0.12
  -4   7   0   -0.04    0.11
   3  -7   0   47.89    0.92
   3  -7   0   49.63    0.94
   3  -7   0   48.32    0.87
   3  -7   0   48.36    0.91
   3  -7   0   48.78    0.95
  -3   7   0   49.13    0.94
  -3   7   0   49.74    1.00
  -3   7   0   48.21    1.00
  -3   7   0   48.50    0.98
   2  -7   0    0.41    0.14
   2  -7   0    0.35    0.15
   2  -7   0    0.52    0.16
   2  -7   0    0.38    0.13
   2  -7   0    0.47    0.14
  -2   7   0    0.63    0.17
  -2   7   0    0.51    0.16
  -2   7   0    0.71    0.18
   1  -7   0   26.26    0.63
   1  -7   0   25.01    0.65
   1  -7   0   25.53    0.66
  -1   7   0   25.36    0.68
  -1   7   0   25.71    0.66
  -1   7   0   25.47    0.71
   0  -7   0   20.11    0.59
   0  -7   0   22.66    0.64
   0   7   0   21.39    0.62
   0   7   0   20.92    0.63
   0   7   0   22.28    0.69
  -1  -7   0    4.47    0.34
  -1  -7   0    4.65    0.37
   1   7   0    4.08    0.34
   1   7   0    4.88    0.41
   1   7   0    4.71    0.38
  -2  -7   0    2.05    0.28
  -2  -7   0    2.05    0.28
   2   7   0    1.82    0.28
   2   7   0    2.30    0.31
   2   7   0    1.70    0.30
  -3  -7   0    0.14    0.21
  -3  -7   0   -0.08    0.20
   3   7   0   -0.31    0.19
   3   7   0    0.22    0.22
   8  -8   0   14.20    0.61
   8  -8   0   13.73    0.58
  -8   8   0   13.49    0.64
   7  -8   0    1.09    0.24
   7  -8   0    1.01    0.25
   7  -8   0    0.85    0.24
  -7   8   0    0.88    0.26
  -7   8   0    1.06    0.24
   6  -8   0    3.61    0.36
   6  -8   0    3.33    0.33
   6  -8   0    3.16    0.29
   6  -8   0    3.47    0.35
  -6   8   0    3.19    0.32
  -6   8   0    2.79    0.34
   5  -8   0   10.47    0.46
   5  -8   0    9.91    0.47
   5  -8   0    9.29    0.46
   5  -8   0    9.93    0.42
  -5   8   0    9.38    0.50
  -5   8   0    9.75    0.47
  -5   8   0   10.09    0.42
   4  -8   0    0.42    0.17
   4  -8   0    0.29    0.17
   4  -8   0    0.66    0.19
   4  -8   0    0.51    0.15
  -4   8   0    0.42    0.19
  -4   8   0    0.50    0.16
  -4   8   0    0.61    0.19
  -4   8   0    0.68    0.20
   3  -8   0    0.55    0.15
   3  -8   0    0.43    0.15
   3  -8   0    0.57    0.17
   3  -8   0    0.62    0.19
   3  -8   0    0.50    0.18
  -3   8   0    0.49    0.19
  -3   8   0    0.49    0.19
  -3   8   0    0.30    0.16
  -3   8   0    0.23    0.18
   2  -8   0    0.26    0.16
   2  -8   0    0.19    0.14
   2  -8   0    0.22    0.16
  -2   8   0    0.11    0.15
  -2   8   0    0.29    0.17
  -2   8   0    0.16    0.17
   1  -8   0    3.41    0.31
   1  -8   0    3.56    0.33
  -1   8   0    3.20    0.33
  -1   8   0    3.60    0.33
  -1   8   0    2.89    0.31
   0  -8   0    1.35    0.25
   0  -8   0    1.00    0.21
   0   8   0    0.65    0.21
   0   8   0    0.43    0.22
  -1  -8   0    0.01    0.16
   1   8   0   -0.26    0.25
   1   8   0   -0.04    0.17
   1   8   0   -0.26    0.19
   7  -9   0    3.87    0.39
   7  -9   0    3.70    0.39
   7  -9   0    3.95    0.42
  -7   9   0    3.88    0.43
  -7   9   0    3.16    0.37
   6  -9   0    6.50    0.46
   6  -9   0    6.27    0.43
   6  -9   0    6.26    0.44
  -6   9   0    6.53    0.45
  -6   9   0    5.03    0.48
   5  -9   0    0.94    0.23
   5  -9   0    0.73    0.21
   5  -9   0    0.65    0.23
  -5   9   0    1.04    0.26
  -5   9   0    0.98    0.25
   4  -9   0    0.42    0.20
   4  -9   0    0.51    0.20
   4  -9   0    0.27    0.18
  -4   9   0    0.55    0.22
  -4   9   0    0.42    0.22
  -4   9   0    0.23    0.19
  -4   9   0    0.36    0.18
   3  -9   0    2.96    0.33
   3  -9   0    2.70    0.31
  -3   9   0    2.99    0.35
  -3   9   0    2.37    0.34
  -3   9   0    3.09    0.37
  -3   9   0    2.36    0.31
   2  -9   0    6.92    0.44
   2  -9   0    6.31    0.43
  -2   9   0    7.31    0.48
  -2   9   0    7.40    0.47
  -2   9   0    7.24    0.45
  -2   9   0    6.40    0.46
   1  -9   0    1.31    0.25
   1  -9   0    1.21    0.25
  -1   9   0    0.95    0.27
  -1   9   0    1.35    0.27
  -4  10  -1    4.58    0.45
  -4  10  -1    4.87    0.46
  -4  10  -1    5.26    0.48
   4 -10   1    5.58    0.46
   4 -10   1    5.16    0.44
  -5  10  -1    0.12    0.20
  -5  10  -1    0.24    0.25
   5 -10   1   -0.18    0.18
   5 -10   1    0.07    0.21
   0   9  -1    0.35    0.21
   0   9  -1    0.32    0.27
   0  -9   1    0.18    0.21
  -1   9  -1    1.76    0.31
  -1   9  -1    1.95    0.30
   1  -9   1    1.75    0.27
   1  -9   1    1.91    0.28
  -2   9  -1    0.16    0.20
  -2   9  -1    0.18    0.20
  -2   9  -1    0.26    0.18
   2  -9   1    0.31    0.18
   2  -9   1    0.00    0.15
   2  -9   1    0.22    0.18
  -3   9  -1    9.77    0.50
  -3   9  -1    9.76    0.50
  -3   9  -1    9.64    0.53
  -3   9  -1   11.19    0.55
   3  -9   1   10.08    0.50
   3  -9   1    9.56    0.49
  -4   9  -1    3.86    0.38
  -4   9  -1    3.81    0.38
  -4   9  -1    4.33    0.39
  -4   9  -1    3.40    0.33
   4  -9   1    4.31    0.36
   4  -9   1    3.39    0.32
   4  -9   1    4.12    0.37
  -5   9  -1    3.32    0.36
  -5   9  -1    2.92    0.36
  -5   9  -1    3.06    0.37
   5  -9   1    2.98    0.34
   5  -9   1    2.66    0.31
   5  -9   1    3.71    0.36
  -6   9  -1    0.67    0.23
  -6   9  -1    0.37    0.22
   6  -9   1    0.62    0.23
   6  -9   1    0.49    0.21
   6  -9   1    0.57    0.22
  -7   9  -1    0.02    0.20
  -7   9  -1    0.75    0.24
   7  -9   1    0.18    0.21
   7  -9   1    0.40    0.23
   7  -9   1    0.00    0.19
   1   8  -1    4.82    0.45
   1   8  -1    4.58    0.39
  -1  -8   1    6.08    0.43
   0   8  -1   14.00    0.60
   0   8  -1   15.43    0.59
   0  -8   1   15.12    0.57
   0  -8   1   15.57    0.54
  -1   8  -1    1.29    0.21
  -1   8  -1    1.68    0.26
  -1   8  -1    1.74    0.27
   1  -8   1    1.19    0.21
   1  -8   1    1.09    0.21
  -2   8  -1    7.51    0.41
  -2   8  -1    7.25    0.42
  -2   8  -1    7.00    0.41
   2  -8   1    8.18    0.40
   2  -8   1    7.42    0.40
   2  -8   1    7.45    0.40
   2  -8   1    7.50    0.38
  -3   8  -1    0.79    0.20
  -3   8  -1    0.66    0.19
  -3   8  -1    0.82    0.22
   3  -8   1    0.65    0.19
   3  -8   1    0.55    0.16
   3  -8   1    0.97    0.19
   3  -8   1    0.71    0.17
   3  -8   1    0.79    0.19
  -4   8  -1    8.44    0.45
  -4   8  -1    8.42    0.40
  -4   8  -1    8.28    0.45
  -4   8  -1    8.57    0.45
   4  -8   1    9.20    0.43
   4  -8   1    8.67    0.40
   4  -8   1    9.07    0.39
   4  -8   1    8.06    0.42
   4  -8   1    8.22    0.41
  -5   8  -1    3.98    0.34
  -5   8  -1    3.97    0.36
  -5   8  -1    3.88    0.37
   5  -8   1    3.64    0.33
   5  -8   1    3.41    0.30
   5  -8   1    4.02    0.31
   5  -8   1    4.95    0.36
   5  -8   1    3.87    0.33
  -6   8  -1    5.34    0.43
  -6   8  -1    5.97    0.38
   6  -8   1    5.78    0.40
   6  -8   1    5.88    0.41
   6  -8   1    5.82    0.37
   6  -8   1    5.55    0.36
  -7   8  -1    1.22    0.24
  -7   8  -1    1.54    0.29
   7  -8   1    0.91    0.24
   7  -8   1    1.27    0.24
   7  -8   1    1.20    0.23
  -8   8  -1    0.87    0.26
   8  -8   1    1.10    0.26
   8  -8   1    1.17    0.26
   3   7  -1    3.50    0.42
   3   7  -1    3.54    0.41
  -3  -7   1    2.32    0.32
   2   7  -1    0.04    0.17
   2   7  -1    0.26    0.20
   2   7  -1    0.20    0.20
  -2  -7   1    0.49    0.20
   1   7  -1   -0.02    0.16
   1   7  -1   -0.10    0.14
   1   7  -1   -0.31    0.15
  -1  -7   1    0.12    0.16
  -1  -7   1   -0.04    0.13
   0   7  -1    3.68    0.31
   0   7  -1    2.97    0.27
   0   7  -1    3.60    0.35
   0   7  -1    3.51    0.33
   0  -7   1    3.35    0.28
   0  -7   1    3.23    0.29
  -1   7  -1    1.43    0.20
  -1   7  -1    1.43    0.23
  -1   7  -1    1.36    0.22
   1  -7   1    1.55    0.20
   1  -7   1    1.51    0.20
   1  -7   1    1.57    0.21
  -2   7  -1    7.93    0.38
  -2   7  -1    6.98    0.38
  -2   7  -1    6.77    0.37
   2  -7   1    7.68    0.35
   2  -7   1    6.86    0.35
   2  -7   1    6.27    0.33
   2  -7   1    7.39    0.34
   2  -7   1    7.56    0.32
  -3   7  -1   13.73    0.45
  -3   7  -1   13.86    0.49
  -3   7  -1   13.22    0.50
   3  -7   1   13.65    0.43
   3  -7   1   12.78    0.44
   3  -7   1   13.18    0.44
   3  -7   1   13.45    0.45
   3  -7   1   13.15    0.44
  -4   7  -1    6.57    0.31
  -4   7  -1    6.70    0.37
  -4   7  -1    6.98    0.39
  -4   7  -1    7.13    0.38
   4  -7   1    6.52    0.33
   4  -7   1    6.87    0.35
   4  -7   1    6.40    0.35
   4  -7   1    6.50    0.33
  -5   7  -1    3.20    0.28
  -5   7  -1    3.40    0.32
   5  -7   1    3.32    0.29
   5  -7   1    3.15    0.27
   5  -7   1    3.11    0.27
   5  -7   1    3.53    0.31
  -6   7  -1    5.46    0.34
  -6   7  -1    5.73    0.41
   6  -7   1    5.79    0.37
   6  -7   1    6.11    0.35
   6  -7   1    5.74    0.35
   6  -7   1    5.53    0.37
  -7   7  -1   -0.05    0.16
  -7   7  -1    0.13    0.15
   7  -7   1    0.51    0.18
   7  -7   1    0.20    0.16
   7  -7   1    0.27    0.17
   7  -7   1    0.10    0.15
  -8   7  -1    1.82    0.30
   8  -7   1    1.66    0.26
   8  -7   1    1.23    0.25
   8  -7   1    1.94    0.29
  -9   7  -1    0.23    0.21
   9  -7   1    0.46    0.23
   9  -7   1    0.54    0.22
   9  -7   1    0.35    0.23
   4   6  -1    3.36    0.37
   4   6  -1    3.14    0.40
   4   6  -1    3.08    0.33
  -4  -6   1    2.91    0.35
   3   6  -1    0.56    0.19
   3   6  -1    0.78    0.24
   3   6  -1    0.80    0.24
   3   6  -1    0.52    0.19
  -3  -6   1    0.42    0.18
   2   6  -1    4.40    0.32
   2   6  -1    4.76    0.38
   2   6  -1    4.47    0.31
   2   6  -1    4.64    0.38
  -2  -6   1    3.81    0.28
  -2  -6   1    4.62    0.33
   1   6  -1    0.37    0.14
   1   6  -1    0.53    0.17
   1   6  -1    0.75    0.18
  -1  -6   1    0.76    0.16
  -1  -6   1    0.74    0.17
  -1  -6   1    0.55    0.14
   0   6  -1   15.21    0.46
   0   6  -1   17.33    0.53
   0   6  -1   16.28    0.46
   0   6  -1   16.85    0.50
   0  -6   1   15.04    0.47
   0  -6   1   16.25    0.48
   0  -6   1   16.21    0.45
   0  -6   1   16.02    0.43
  -1   6  -1   27.10    0.65
  -1   6  -1   27.85    0.57
  -1   6  -1   26.67    0.64
  -1   6  -1   27.35    0.62
   1  -6   1   27.56    0.61
   1  -6   1   26.50    0.59
   1  -6   1   27.08    0.62
   1  -6   1   27.70    0.52
   1  -6   1   27.91    0.62
   1  -6   1   27.54    0.54
  -2   6  -1    1.97    0.21
  -2   6  -1    1.91    0.20
  -2   6  -1    2.32    0.23
  -2   6  -1    2.19    0.18
   2  -6   1    2.06    0.20
   2  -6   1    2.34    0.20
   2  -6   1    2.26    0.20
   2  -6   1    2.30    0.21
   2  -6   1    2.27    0.20
  -3   6  -1   69.48    1.09
  -3   6  -1   70.19    1.17
  -3   6  -1   71.16    1.21
   3  -6   1   70.37    1.12
   3  -6   1   72.31    1.13
   3  -6   1   70.32    1.09
   3  -6   1   69.58    1.12
  -4   6  -1   45.92    0.78
  -4   6  -1   48.33    0.90
  -4   6  -1   48.46    0.87
  -4   6  -1   47.39    0.95
   4  -6   1   47.71    0.86
   4  -6   1   47.10    0.86
   4  -6   1   46.97    0.83
   4  -6   1   44.34    0.86
  -5   6  -1    5.82    0.35
  -5   6  -1    6.24    0.30
   5  -6   1    5.85    0.31
   5  -6   1    6.38    0.32
   5  -6   1    5.58    0.32
   5  -6   1    5.76    0.31
  -6   6  -1    0.15    0.15
  -6   6  -1   -0.11    0.11
   6  -6   1    0.09    0.13
   6  -6   1   -0.10    0.12
   6  -6   1    0.11    0.12
   6  -6   1    0.11    0.13
  -7   6  -1    6.32    0.41
   7  -6   1    7.19    0.39
   7  -6   1    6.66    0.40
   7  -6   1    6.98    0.37
   7  -6   1    6.77    0.37
  -8   6  -1    0.31    0.20
   8  -6   1    0.18    0.17
   8  -6   1    0.23    0.19
   8  -6   1    0.38    0.18
  -9   6  -1    2.63    0.34
  -9   6  -1    2.48    0.33
   9  -6   1    3.12    0.35
   9  -6   1    2.65    0.33
   9  -6   1    3.29    0.35
   5   5  -1    1.11    0.28
   5   5  -1    1.61    0.28
   5   5  -1    1.37    0.28
  -5  -5   1    1.32    0.27
   4   5  -1    3.93    0.34
   4   5  -1    3.69    0.38
   4   5  -1    4.31    0.39
  -4  -5   1    3.80    0.35
   3   5  -1   13.58    0.45
   3   5  -1   13.32    0.52
   3   5  -1   13.15    0.54
   3   5  -1   13.06    0.47
  -3  -5   1   13.94    0.50
  -3  -5   1   13.59    0.48
  -3  -5   1   14.21    0.44
   2   5  -1    0.21    0.15
   2   5  -1    0.33    0.15
   2   5  -1    0.63    0.15
  -2  -5   1    0.52    0.15
  -2  -5   1    0.34    0.13
  -2  -5   1    0.28    0.12
   1   5  -1   24.02    0.57
   1   5  -1   23.90    0.59
   1   5  -1   24.42    0.50
   1   5  -1   23.98    0.60
  -1  -5   1   23.86    0.56
  -1  -5   1   24.41    0.55
  -1  -5   1   23.97    0.52
   0   5  -1   16.41    0.47
   0   5  -1   17.08    0.46
   0   5  -1   18.01    0.45
   0   5  -1   16.23    0.42
   0  -5   1   16.70    0.34
   0  -5   1   17.29    0.40
   0  -5   1   17.62    0.45
   0  -5   1   16.93    0.42
  -1   5  -1    6.18    0.27
  -1   5  -1    6.07    0.23
  -1   5  -1    6.45    0.28
  -1   5  -1    6.55    0.29
   1  -5   1    6.67    0.28
   1  -5   1    6.40    0.27
   1  -5   1    6.24    0.21
   1  -5   1    6.56    0.23
   1  -5   1    6.46    0.26
   1  -5   1    6.29    0.27
  -2   5  -1   11.38    0.25
  -2   5  -1   10.89    0.36
  -2   5  -1   11.03    0.37
  -2   5  -1   11.42    0.34
   2  -5   1   11.10    0.23
   2  -5   1   11.86    0.35
   2  -5   1   11.07    0.34
   2  -5   1   11.36    0.34
   2  -5   1   11.02    0.33
  -3   5  -1   14.47    0.41
  -3   5  -1   14.01    0.44
  -3   5  -1   13.99    0.35
   3  -5   1   14.50    0.39
   3  -5   1   14.17    0.38
   3  -5   1   13.72    0.39
   3  -5   1   13.95    0.39
   3  -5   1   13.66    0.25
  -4   5  -1    0.17    0.08
  -4   5  -1    0.35    0.12
  -4   5  -1    0.02    0.11
  -4   5  -1    0.13    0.10
   4  -5   1    0.18    0.10
   4  -5   1    0.18    0.10
   4  -5   1    0.34    0.06
   4  -5   1    0.33    0.12
   4  -5   1    0.42    0.12
  -5   5  -1    0.81    0.13
  -5   5  -1    0.66    0.16
   5  -5   1    0.69    0.09
   5  -5   1    1.00    0.15
   5  -5   1    0.70    0.14
   5  -5   1    0.68    0.15
   5  -5   1    0.71    0.14
  -6   5  -1   20.17    0.58
  -6   5  -1   19.87    0.47
  -6   5  -1   20.03    0.59
   6  -5   1   19.25    0.56
   6  -5   1   19.76    0.43
   6  -5   1   20.89    0.55
   6  -5   1   20.22    0.54
   6  -5   1   20.06    0.53
  -7   5  -1   14.13    0.52
  -7   5  -1   13.94    0.52
   7  -5   1   14.09    0.51
   7  -5   1   13.87    0.49
   7  -5   1   13.35    0.48
   7  -5   1   13.39    0.48
  -8   5  -1    0.56    0.21
  -8   5  -1    0.45    0.19
   8  -5   1    0.78    0.20
   8  -5   1    0.66    0.21
   8  -5   1    0.24    0.17
  -9   5  -1    1.08    0.26
   9  -5   1    1.19    0.24
   9  -5   1    1.03    0.25
   6   4  -1    8.42    0.50
   6   4  -1    8.16    0.49
   6   4  -1    9.22    0.56
  -6  -4   1    8.58    0.50
   5   4  -1   10.94    0.49
   5   4  -1   11.13    0.51
   5   4  -1   11.84    0.56
  -5  -4   1   10.74    0.49
   4   4  -1    2.71    0.23
   4   4  -1    2.90    0.30
   4   4  -1    2.75    0.27
   4   4  -1    2.97    0.32
  -4  -4   1    2.59    0.28
  -4  -4   1    3.00    0.29
  -4  -4   1    2.72    0.25
   3   4  -1    5.91    0.29
   3   4  -1    5.17    0.33
   3   4  -1    5.84    0.33
  -3  -4   1    5.46    0.30
  -3  -4   1    5.57    0.32
  -3  -4   1    5.94    0.28
   2   4  -1   12.30    0.37
   2   4  -1   12.02    0.40
   2   4  -1   12.35    0.42
  -2  -4   1   12.50    0.39
  -2  -4   1   12.33    0.35
  -2  -4   1   12.72    0.39
   1   4  -1    0.82    0.14
   1   4  -1    0.72    0.14
   1   4  -1    0.83    0.11
   1   4  -1    0.66    0.12
  -1  -4   1    0.69    0.11
  -1  -4   1    0.83    0.07
  -1  -4   1    0.67    0.12
  -1  -4   1    1.02    0.14
   0   4  -1   58.35    0.92
   0   4  -1   59.97    0.88
   0   4  -1   59.83    0.92
   0   4  -1   58.12    0.88
   0  -4   1   58.70    0.91
   0  -4   1   58.54    0.79
   0  -4   1   59.56    0.92
   0  -4   1   58.86    0.90
   0  -4   1   58.06    0.86
   0  -4   1   58.76    0.85
  -1   4  -1  245.81    2.79
  -1   4  -1  247.03    2.91
  -1   4  -1  245.70    2.91
  -1   4  -1  241.59    2.88
   1  -4   1  242.11    2.76
   1  -4   1  236.60    2.84
   1  -4   1  245.16    2.89
   1  -4   1  238.79    2.86
   1  -4   1  237.75    2.86
  -2   4  -1   26.23    0.36
  -2   4  -1   25.49    0.53
  -2   4  -1   26.32    0.52
  -2   4  -1   25.96    0.47
   2  -4   1   26.39    0.50
   2  -4   1   25.31    0.38
   2  -4   1   26.24    0.49
   2  -4   1   25.85    0.49
   2  -4   1   25.37    0.36
   2  -4   1   25.78    0.50
  -3   4  -1    0.11    0.08
  -3   4  -1   -0.02    0.06
  -3   4  -1   -0.16    0.09
  -3   4  -1    0.21    0.09
   3  -4   1   -0.03    0.08
   3  -4   1   -0.04    0.08
   3  -4   1    0.02    0.08
   3  -4   1    0.11    0.05
   3  -4   1   -0.01    0.08
  -4   4  -1    1.09    0.14
  -4   4  -1    1.26    0.14
  -4   4  -1    0.99    0.15
   4  -4   1    0.86    0.13
   4  -4   1    1.28    0.15
   4  -4   1    1.23    0.15
   4  -4   1    1.23    0.14
   4  -4   1    1.31    0.10
  -5   4  -1    4.39    0.26
  -5   4  -1    4.12    0.20
  -5   4  -1    3.96    0.26
   5  -4   1    3.96    0.24
   5  -4   1    4.14    0.18
   5  -4   1    3.88    0.14
   5  -4   1    4.08    0.24
   5  -4   1    3.64    0.23
  -6   4  -1    0.81    0.16
  -6   4  -1    0.90    0.13
  -6   4  -1    0.66    0.16
   6  -4   1    0.91    0.17
   6  -4   1    0.88    0.13
   6  -4   1    0.98    0.16
   6  -4   1    0.70    0.16
  -7   4  -1    3.88    0.29
  -7   4  -1    3.49    0.32
   7  -4   1    3.77    0.29
   7  -4   1    3.55    0.24
   7  -4   1    3.91    0.30
   7  -4   1    3.81    0.29
  -8   4  -1    1.51    0.26
   8  -4   1    2.33    0.44
   8  -4   1    2.18    0.27
   8  -4   1    1.61    0.21
   8  -4   1    2.00    0.25
  -9   4  -1    0.34    0.22
   9  -4   1    0.78    0.25
   9  -4   1    0.91    0.23
   9  -4   1    0.78    0.21
   7   3  -1    9.20    0.57
   7   3  -1    8.75    0.53
   7   3  -1    9.85    0.52
   6   3  -1   12.66    0.53
   6   3  -1   11.58    0.57
   6   3  -1   11.33    0.52
  -6  -3   1   12.26    0.52
   5   3  -1    2.83    0.29
   5   3  -1    2.58    0.31
   5   3  -1    2.73    0.28
  -5  -3   1    2.94    0.28
   4   3  -1   17.27    0.44
   4   3  -1   16.07    0.49
   4   3  -1   16.85    0.52
   4   3  -1   15.97    0.55
  -4  -3   1   17.60    0.50
  -4  -3   1   17.06    0.53
   3   3  -1   -0.09    0.08
   3   3  -1    0.03    0.11
   3   3  -1   -0.05    0.10
  -3  -3   1    0.02    0.10
  -3  -3   1   -0.03    0.08
  -3  -3   1    0.06    0.09
  -3  -3   1    0.05    0.09
   2   3  -1   12.15    0.37
   2   3  -1   12.12    0.38
   2   3  -1   11.98    0.21
   2   3  -1   12.33    0.33
  -2  -3   1   12.28    0.31
  -2  -3   1   11.53    0.34
  -2  -3   1   12.74    0.36
   1   3  -1    3.57    0.20
   1   3  -1    3.92    0.20
   1   3  -1    3.93    0.15
   1   3  -1    3.77    0.19
   1   3  -1    3.56    0.13
  -1  -3   1    4.01    0.19
  -1  -3   1    3.94    0.17
  -1  -3   1    3.63    0.10
   0   3  -1   75.87    1.02
   0   3  -1   77.67    1.06
   0   3  -1   78.45    1.02
   0   3  -1   76.61    0.98
   0   3  -1   77.51    1.05
   0  -3   1   77.99    1.06
   0  -3   1   77.29    1.00
   0  -3   1   77.51    1.05
   0  -3   1   78.22    1.04
   0  -3   1   76.27    1.00
   0  -3   1   76.58    0.95
  -1   3  -1   13.67    0.31
  -1   3  -1   13.51    0.29
  -1   3  -1   13.21    0.31
  -1   3  -1   12.86    0.29
  -1   3  -1   13.32    0.24
  -1   3  -1   13.07    0.31
   1  -3   1   13.32    0.24
   1  -3   1   13.33    0.29
   1  -3   1   13.32    0.29
   1  -3   1   13.35    0.30
   1  -3   1   13.46    0.31
  -2   3  -1   56.13    0.80
  -2   3  -1   56.23    0.79
  -2   3  -1   56.35    0.74
  -2   3  -1   54.90    0.83
   2  -3   1   55.14    0.66
   2  -3   1   55.58    0.78
   2  -3   1   55.20    0.79
   2  -3   1   56.92    0.80
   2  -3   1   55.67    0.69
   2  -3   1   55.67    0.78
  -3   3  -1  114.71    1.50
  -3   3  -1  113.26    1.51
  -3   3  -1  113.70    1.41
  -3   3  -1  113.44    1.45
   3  -3   1  116.40    1.46
   3  -3   1  115.85    1.37
   3  -3   1  114.58    1.46
   3  -3   1  117.76    1.48
  -4   3  -1   87.97    1.14
  -4   3  -1   88.71    1.27
  -4   3  -1   88.57    1.27
   4  -3   1   90.70    1.16
   4  -3   1   91.12    1.24
   4  -3   1   87.77    1.10
   4  -3   1   90.44    1.25
   4  -3   1   89.79    1.23
  -5   3  -1   18.97    0.47
  -5   3  -1   18.42    0.36
  -5   3  -1   18.05    0.48
   5  -3   1   18.58    0.41
   5  -3   1   18.47    0.47
   5  -3   1   18.97    0.47
   5  -3   1   18.21    0.38
   5  -3   1   18.78    0.34
   5  -3   1   18.69    0.45
  -6   3  -1    0.43    0.13
  -6   3  -1    0.40    0.15
   6  -3   1    0.49    0.14
   6  -3   1    0.53    0.12
   6  -3   1    0.50    0.15
   6  -3   1    0.49    0.12
   6  -3   1    0.63    0.15
  -7   3  -1   25.77    0.61
  -7   3  -1   25.54    0.68
   7  -3   1   25.42    0.67
   7  -3   1   25.19    0.59
   7  -3   1   25.27    0.66
   7  -3   1   25.55    0.61
   7  -3   1   24.24    0.63
  -8   3  -1    3.72    0.34
   8  -3   1    4.40    0.32
   8  -3   1    3.60    0.31
   8  -3   1    4.67    0.36
  -9   3  -1    0.66    0.24
   9  -3   1    1.11    0.23
   9  -3   1    0.65    0.21
   9  -3   1    0.53    0.24
   7   2  -1    7.67    0.43
   7   2  -1    7.92    0.51
   7   2  -1    7.56    0.45
  -7  -2   1    7.67    0.46
   6   2  -1    4.01    0.36
   6   2  -1    4.83    0.34
   6   2  -1    4.70    0.35
  -6  -2   1    4.78    0.34
   5   2  -1    4.65    0.34
   5   2  -1    5.28    0.31
   5   2  -1    5.33    0.37
   5   2  -1    5.00    0.31
  -5  -2   1    4.60    0.32
  -5  -2   1    4.80    0.29
   4   2  -1    2.71    0.25
   4   2  -1    2.65    0.23
   4   2  -1    2.48    0.17
  -4  -2   1    2.48    0.21
  -4  -2   1    2.42    0.23
   3   2  -1   16.02    0.36
   3   2  -1   16.02    0.45
   3   2  -1   15.94    0.41
  -3  -2   1   15.97    0.37
  -3  -2   1   15.74    0.39
  -3  -2   1   16.72    0.43
   2   2  -1  145.13    1.81
   2   2  -1  143.48    1.83
   2   2  -1  140.16    1.60
   2   2  -1  141.73    1.74
  -2  -2   1  141.24    1.76
  -2  -2   1  142.24    1.80
  -2  -2   1  145.13    1.72
   1   2  -1    0.80    0.10
   1   2  -1    0.84    0.10
   1   2  -1    1.07    0.07
   1   2  -1    0.85    0.10
   1   2  -1    1.00    0.11
   1   2  -1    0.88    0.07
  -1  -2   1    1.06    0.09
  -1  -2   1    1.20    0.11
  -1  -2   1    0.89    0.10
   0   2  -1   41.57    0.58
   0   2  -1   41.59    0.55
   0   2  -1   42.96    0.60
   0   2  -1   42.39    0.60
   0   2  -1   42.27    0.60
   0   2  -1   41.52    0.57
   0  -2   1   42.09    0.60
   0  -2   1   42.79    0.56
   0  -2   1   42.81    0.60
   0  -2   1   42.39    0.58
   0  -2   1   42.18    0.57
  -1   2  -1    3.70    0.08
  -1   2  -1    3.66    0.12
  -1   2  -1    3.87    0.15
  -1   2  -1    3.82    0.14
  -1   2  -1    3.50    0.15
   1  -2   1    3.71    0.10
   1  -2   1    3.70    0.11
   1  -2   1    4.03    0.15
   1  -2   1    4.23    0.16
   1  -2   1    3.71    0.13
   1  -2   1    3.80    0.14
  -2   2  -1  137.16    1.67
  -2   2  -1  135.73    1.61
  -2   2  -1  136.45    1.59
  -2   2  -1  140.29    1.54
  -2   2  -1  134.37    1.65
  -2   2  -1  133.68    1.63
   2  -2   1  138.31    1.58
   2  -2   1  141.54    1.66
   2  -2   1  138.52    1.64
   2  -2   1  140.27    1.63
  -3   2  -1    0.60    0.10
  -3   2  -1    0.73    0.07
  -3   2  -1    0.59    0.10
   3  -2   1    0.73    0.09
   3  -2   1    0.60    0.10
   3  -2   1    0.58    0.09
   3  -2   1    0.61    0.10
  -4   2  -1    1.81    0.11
  -4   2  -1    1.76    0.16
  -4   2  -1    1.70    0.15
   4  -2   1    1.48    0.15
   4  -2   1    1.63    0.13
   4  -2   1    1.79    0.11
   4  -2   1    1.98    0.15
   4  -2   1    1.61    0.15
  -5   2  -1    0.93    0.15
  -5   2  -1    0.76    0.12
  -5   2  -1    0.87    0.10
   5  -2   1    0.89    0.15
   5  -2   1    1.03    0.13
   5  -2   1    0.81    0.13
   5  -2   1    0.85    0.14
   5  -2   1    0.81    0.10
  -6   2  -1    1.98    0.19
  -6   2  -1    1.87    0.21
   6  -2   1    1.83    0.20
   6  -2   1    1.78    0.21
   6  -2   1    1.93    0.19
   6  -2   1    1.97    0.22
   6  -2   1    1.67    0.14
  -7   2  -1   12.59    0.49
   7  -2   1   12.67    0.49
   7  -2   1   12.24    0.45
   7  -2   1   12.72    0.49
   7  -2   1   12.63    0.45
  -8   2  -1    5.95    0.41
   8  -2   1    6.34    0.39
   8  -2   1    6.12    0.38
   8  -2   1    6.00    0.42
  -9   2  -1    3.47    0.38
   9  -2   1    4.12    0.41
   9  -2   1    4.27    0.39
   8   1  -1    5.55    0.45
   8   1  -1    6.08    0.49
  -8  -1   1    4.24    0.40
   7   1  -1   19.23    0.59
   7   1  -1   19.11    0.67
   7   1  -1   18.96    0.63
  -7  -1   1   18.27    0.60
   6   1  -1    2.54    0.27
   6   1  -1    2.62    0.25
   6   1  -1    3.11    0.31
  -6  -1   1    2.27    0.24
   5   1  -1    5.77    0.30
   5   1  -1    6.32    0.30
   5   1  -1    6.19    0.24
   5   1  -1    5.31    0.33
  -5  -1   1    6.16    0.32
  -5  -1   1    5.88    0.29
   4   1  -1   23.36    0.36
   4   1  -1   23.80    0.45
   4   1  -1   24.10    0.58
   4   1  -1   23.60    0.51
  -4  -1   1   24.49    0.55
  -4  -1   1   23.96    0.51
   3   1  -1    9.75    0.19
   3   1  -1    9.92    0.25
   3   1  -1   10.14    0.29
   3   1  -1   10.02    0.32
  -3  -1   1    9.69    0.27
  -3  -1   1   10.05    0.30
   2   1  -1    6.36    0.23
   2   1  -1    6.28    0.13
   2   1  -1    5.93    0.18
   2   1  -1    5.83    0.20
  -2  -1   1    6.70    0.19
  -2  -1   1    6.08    0.21
  -2  -1   1    6.19    0.17
   1   1  -1  115.11    1.39
   1   1  -1  117.17    1.38
   1   1  -1  118.63    1.32
   1   1  -1  119.48    1.41
  -1  -1   1  115.66    1.36
  -1  -1   1  119.44    1.33
  -1  -1   1  115.65    1.39
   0   1  -1  172.65    2.03
   0   1  -1  176.17    1.99
   0   1  -1  174.36    2.00
   0   1  -1  175.17    1.97
   0   1  -1  174.14    1.96
   0  -1   1  177.22    1.97
   0  -1   1  178.53    1.95
   0  -1   1  178.69    2.02
   0  -1   1  175.19    2.04
   0  -1   1  175.32    2.00
  -1   1  -1  453.09    5.33
  -1   1  -1  437.95    5.20
  -1   1  -1  451.08    5.22
  -1   1  -1  452.74    5.11
   1  -1   1  463.94    5.35
   1  -1   1  456.00    5.20
   1  -1   1  464.21    5.08
   1  -1   1  466.28    5.35
   1  -1   1  460.50    5.22
  -2   1  -1  129.23    1.44
  -2   1  -1  127.53    1.53
  -2   1  -1  123.52    1.49
  -2   1  -1  128.52    1.55
  -2   1  -1  128.31    1.55
   2  -1   1  132.17    1.55
   2  -1   1  130.40    1.44
   2  -1   1  129.88    1.52
   2  -1   1  130.33    1.51
   2  -1   1  129.58    1.54
  -3   1  -1   61.58    0.89
  -3   1  -1   63.04    0.85
  -3   1  -1   61.73    0.76
   3  -1   1   64.25    0.91
   3  -1   1   63.56    0.90
   3  -1   1   63.16    0.79
   3  -1   1   63.38    0.87
   3  -1   1   63.33    0.87
  -4   1  -1   11.50    0.33
  -4   1  -1   11.67    0.29
   4  -1   1   11.48    0.33
   4  -1   1   11.36    0.35
   4  -1   1   11.73    0.27
   4  -1   1   11.85    0.23
   4  -1   1   11.49    0.34
   4  -1   1   11.14    0.32
  -5   1  -1    3.05    0.18
  -5   1  -1    3.16    0.23
   5  -1   1    3.79    0.23
   5  -1   1    3.36    0.25
   5  -1   1    3.35    0.24
   5  -1   1    3.53    0.22
   5  -1   1    3.04    0.17
   5  -1   1    3.35    0.14
  -6   1  -1    0.03    0.13
   6  -1   1    0.01    0.08
   6  -1   1    0.07    0.12
   6  -1   1    0.02    0.12
   6  -1   1    0.25    0.14
   6  -1   1    0.15    0.13
  -7   1  -1    6.21    0.38
   7  -1   1    5.55    0.40
   7  -1   1    6.03    0.37
   7  -1   1    5.70    0.38
   7  -1   1    5.90    0.36
  -8   1  -1    7.50    0.46
   8  -1   1    7.96    0.46
   8  -1   1    7.71    0.49
   8  -1   1    7.16    0.43
   8   0  -1    2.36    0.30
   8   0  -1    2.18    0.30
  -8   0   1    2.24    0.29
   7   0  -1   -0.01    0.15
   7   0  -1    0.17    0.12
   7   0  -1    0.19    0.16
   7   0  -1    0.39    0.17
  -7   0   1    0.07    0.15
   6   0  -1   26.88    0.66
   6   0  -1   29.55    0.72
   6   0  -1   29.22    0.63
   6   0  -1   29.16    0.70
  -6   0   1   29.42    0.66
   5   0  -1    2.97    0.25
   5   0  -1    2.84    0.20
   5   0  -1    2.87    0.15
   5   0  -1    2.50    0.16
   5   0  -1    3.03    0.22
  -5   0   1    2.97    0.23
  -5   0   1    2.42    0.21
   4   0  -1   26.13    0.43
   4   0  -1   26.26    0.56
   4   0  -1   27.33    0.51
   4   0  -1   27.10    0.47
  -4   0   1   27.15    0.54
  -4   0   1   26.15    0.39
  -4   0   1   26.84    0.52
   3   0  -1   19.15    0.34
   3   0  -1   19.54    0.38
   3   0  -1   19.16    0.41
  -3   0   1   18.80    0.37
  -3   0   1   18.96    0.39
  -3   0   1   19.11    0.29
   2   0  -1    7.25    0.17
   2   0  -1    6.99    0.19
  -2   0   1    6.92    0.17
  -2   0   1    6.99    0.18
  -2   0   1    7.07    0.14
  -2   0   1    6.84    0.19
   1   0  -1    5.67    0.12
  -1   0   1    5.63    0.11
  -1   0   1    5.29    0.13
  -1   0   1    5.84    0.13
  -1   0   1    5.76    0.11
   0   0  -1    9.73    0.13
   0   0  -1    9.35    0.14
   0   0  -1    9.60    0.14
   0   0  -1    9.53    0.14
   0   0   1    9.61    0.14
   0   0   1    9.51    0.13
   0   0   1    9.72    0.14
   0   0   1    9.65    0.14
   0   0   1    9.72    0.13
  -1   0  -1  186.99    2.25
  -1   0  -1  191.81    2.16
  -1   0  -1  189.42    2.09
  -1   0  -1  191.97    2.15
   1   0   1  191.13    2.12
   1   0   1  192.39    2.15
   1   0   1  194.07    2.17
  -2   0  -1  186.90    2.20
  -2   0  -1  192.55    2.24
   2   0   1  191.92    2.18
   2   0   1  191.44    2.10
   2   0   1  192.30    2.25
   2   0   1  192.44    2.23
  -3   0  -1    6.16    0.23
   3   0   1    6.22    0.14
   3   0   1    6.33    0.20
   3   0   1    6.44    0.23
   3   0   1    7.04    0.25
  -4   0  -1    0.89    0.13
  -4   0  -1    0.93    0.10
   4   0   1    0.96    0.15
   4   0   1    1.13    0.12
   4   0   1    1.05    0.15
   4   0   1    0.92    0.08
   4   0   1    1.24    0.15
  -5   0  -1    4.60    0.28
   5   0   1    5.72    0.31
   5   0   1    5.26    0.24
   5   0   1    4.98    0.27
   5   0   1    5.25    0.30
  -6   0  -1    1.26    0.21
   6   0   1    1.10    0.19
   6   0   1    1.39    0.22
   6   0   1    0.90    0.15
   6   0   1    1.36    0.22
  -7   0  -1   11.93    0.50
   7   0   1   11.36    0.51
   7   0   1   11.56    0.49
   7   0   1   11.31    0.54
  -8   0  -1    0.12    0.20
   8   0   1    0.53    0.21
   8   0   1    0.36    0.22
   8   0   1    0.08    0.21
   9  -1  -1    0.74    0.25
   9  -1  -1    0.76    0.24
   9  -1  -1    0.95    0.27
  -9   1   1    1.02    0.25
   8  -1  -1    0.95    0.22
   8  -1  -1    0.84    0.21
   8  -1  -1    0.89    0.23
  -8   1   1    0.95    0.22
   7  -1  -1   11.35    0.44
   7  -1  -1   11.08    0.38
   7  -1  -1   11.26    0.46
   7  -1  -1   11.49    0.47
   7  -1  -1    9.75    0.44
  -7   1   1   11.01    0.43
   6  -1  -1    0.58    0.15
   6  -1  -1    0.79    0.16
   6  -1  -1    0.54    0.16
   6  -1  -1    0.69    0.13
   6  -1  -1    0.74    0.12
  -6   1   1    0.67    0.15
   5  -1  -1    2.70    0.18
   5  -1  -1    2.66    0.16
   5  -1  -1    2.65    0.20
   5  -1  -1    2.59    0.20
   5  -1  -1    3.03    0.21
  -5   1   1    2.78    0.20
  -5   1   1    2.91    0.20
  -5   1   1    2.26    0.16
  -5   1   1    3.01    0.17
   4  -1  -1    5.46    0.23
   4  -1  -1    5.55    0.20
   4  -1  -1    5.25    0.21
   4  -1  -1    5.28    0.22
  -4   1   1    5.16    0.19
  -4   1   1    5.48    0.22
  -4   1   1    5.19    0.21
  -4   1   1    5.34    0.19
   3  -1  -1   44.18    0.65
  -3   1   1   43.11    0.61
  -3   1   1   43.31    0.62
  -3   1   1   41.84    0.62
  -3   1   1   42.16    0.63
   2  -1  -1   79.13    0.95
   2  -1  -1   78.90    0.95
   2  -1  -1   78.00    0.94
  -2   1   1   76.59    0.93
  -2   1   1   77.45    0.96
  -2   1   1   77.29    0.95
  -2   1   1   76.74    0.96
  -2   1   1   77.60    0.97
   1  -1  -1   21.16    0.27
   1  -1  -1   21.16    0.32
   1  -1  -1   21.01    0.29
   1  -1  -1   20.39    0.33
   1  -1  -1   20.76    0.28
  -1   1   1   21.25    0.32
  -1   1   1   21.04    0.28
  -1   1   1   20.69    0.32
  -1   1   1   20.66    0.30
  -1   1   1   20.49    0.33
   0  -1  -1  768.43    8.63
   0  -1  -1  759.82    8.62
   0  -1  -1  755.67    8.60
   0   1   1  757.49    8.49
   0   1   1  767.28    8.72
   0   1   1  767.98    8.73
   0   1   1  754.63    8.59
   0   1   1  751.47    8.71
  -1  -1  -1   34.57    0.52
  -1  -1  -1   35.19    0.48
  -1  -1  -1   34.62    0.51
   1   1   1   35.42    0.52
   1   1   1   34.88    0.54
   1   1   1   34.91    0.51
   1   1   1   35.36    0.47
  -2  -1  -1   96.28    1.18
  -2  -1  -1   96.94    1.24
  -2  -1  -1   96.25    1.26
   2   1   1   94.87    1.23
   2   1   1   94.95    1.24
   2   1   1   95.77    1.14
   2   1   1   97.16    1.29
  -3  -1  -1   -0.06    0.08
  -3  -1  -1   -0.03    0.07
  -3  -1  -1    0.02    0.06
   3   1   1   -0.09    0.07
   3   1   1    0.05    0.09
   3   1   1    0.02    0.09
   3   1   1    0.09    0.05
  -4  -1  -1   33.25    0.68
   4   1   1   34.10    0.68
   4   1   1   34.71    0.72
   4   1   1   34.06    0.64
   4   1   1   33.81    0.51
  -5  -1  -1   11.06    0.42
   5   1   1   11.00    0.45
   5   1   1   10.91    0.41
   5   1   1   11.42    0.38
  -6  -1  -1    4.56    0.33
   6   1   1    4.67    0.36
   6   1   1    3.96    0.33
   6   1   1    4.28    0.29
   6   1   1    3.80    0.34
  -7  -1  -1    1.22    0.24
   7   1   1    1.53    0.28
   7   1   1    0.96    0.23
  -8  -1  -1    1.28    0.29
   8   1   1    1.27    0.33
   8   1   1    1.91    0.32
   8   1   1    0.96    0.28
   9  -2  -1    3.28    0.36
   9  -2  -1    3.68    0.36
  -9   2   1    3.29    0.35
   8  -2  -1    0.20    0.14
   8  -2  -1    0.30    0.17
   8  -2  -1    0.29    0.16
  -8   2   1    0.37    0.19
   7  -2  -1   42.00    0.88
   7  -2  -1   42.31    0.77
   7  -2  -1   42.63    0.86
   7  -2  -1   43.13    0.83
   7  -2  -1   42.08    0.88
  -7   2   1   41.67    0.86
   6  -2  -1   17.23    0.48
   6  -2  -1   17.44    0.46
   6  -2  -1   17.86    0.45
   6  -2  -1   16.94    0.48
   6  -2  -1   17.40    0.42
  -6   2   1   16.48    0.47
  -6   2   1   17.37    0.41
  -6   2   1   16.97    0.43
   5  -2  -1   12.10    0.36
   5  -2  -1   12.25    0.34
   5  -2  -1   11.92    0.36
   5  -2  -1   12.43    0.33
  -5   2   1   11.94    0.36
  -5   2   1   12.17    0.33
  -5   2   1   12.30    0.31
  -5   2   1   12.08    0.34
   4  -2  -1   14.60    0.34
   4  -2  -1   14.16    0.33
   4  -2  -1   14.08    0.31
   4  -2  -1   14.08    0.34
  -4   2   1   14.23    0.32
  -4   2   1   13.68    0.35
  -4   2   1   14.11    0.31
  -4   2   1   14.62    0.36
   3  -2  -1    8.62    0.22
   3  -2  -1    8.59    0.19
   3  -2  -1    8.72    0.23
   3  -2  -1    8.65    0.22
   3  -2  -1    8.62    0.25
  -3   2   1    8.50    0.23
  -3   2   1    8.30    0.22
  -3   2   1    8.21    0.24
  -3   2   1    7.77    0.26
  -3   2   1    8.32    0.18
   2  -2  -1   40.12    0.54
   2  -2  -1   40.07    0.57
   2  -2  -1   41.33    0.56
   2  -2  -1   41.54    0.48
   2  -2  -1   40.53    0.60
  -2   2   1   40.68    0.63
  -2   2   1   41.36    0.58
  -2   2   1   41.36    0.56
  -2   2   1   40.92    0.60
   1  -2  -1  285.17    3.20
   1  -2  -1  283.98    3.27
   1  -2  -1  291.94    3.27
   1  -2  -1  288.45    3.22
   1  -2  -1  287.12    3.24
  -1   2   1  290.05    3.27
  -1   2   1  290.63    3.23
  -1   2   1  292.09    3.30
  -1   2   1  291.02    3.28
  -1   2   1  289.06    3.28
  -1   2   1  293.11    3.27
   0  -2  -1    7.28    0.21
   0  -2  -1    7.15    0.20
   0  -2  -1    7.50    0.19
   0   2   1    7.20    0.19
   0   2   1    7.62    0.21
   0   2   1    7.50    0.23
   0   2   1    7.30    0.22
   0   2   1    7.49    0.20
   0   2   1    7.28    0.17
  -1  -2  -1   11.84    0.29
  -1  -2  -1   12.20    0.25
  -1  -2  -1   12.34    0.30
   1   2   1   11.63    0.30
   1   2   1   12.02    0.26
   1   2   1   12.22    0.32
   1   2   1   11.87    0.27
  -2  -2  -1    4.46    0.16
  -2  -2  -1    4.20    0.20
  -2  -2  -1    4.51    0.20
   2   2   1    4.19    0.20
   2   2   1    4.13    0.23
   2   2   1    4.11    0.21
   2   2   1    4.20    0.16
  -3  -2  -1   32.21    0.63
  -3  -2  -1   33.22    0.54
  -3  -2  -1   34.12    0.67
   3   2   1   32.60    0.53
   3   2   1   33.24    0.71
   3   2   1   33.28    0.65
   3   2   1   33.08    0.64
  -4  -2  -1   -0.09    0.10
  -4  -2  -1   -0.06    0.09
   4   2   1   -0.12    0.09
   4   2   1    0.02    0.12
   4   2   1    0.30    0.13
  -5  -2  -1    2.81    0.27
   5   2   1    3.39    0.27
   5   2   1    3.35    0.30
   5   2   1    3.02    0.30
  -6  -2  -1    6.10    0.41
   6   2   1    5.48    0.43
   6   2   1    5.84    0.36
   6   2   1    5.90    0.40
  -7  -2  -1    0.40    0.22
   7   2   1    0.51    0.23
   7   2   1    0.20    0.21
   9  -3  -1    4.45    0.36
   9  -3  -1    4.11    0.37
   9  -3  -1    4.50    0.34
  -9   3   1    5.83    0.43
   8  -3  -1    1.58    0.21
   8  -3  -1    1.48    0.23
   8  -3  -1    1.24    0.21
   8  -3  -1    1.54    0.23
  -8   3   1    1.35    0.23
   7  -3  -1   18.68    0.49
   7  -3  -1   18.50    0.54
   7  -3  -1   19.74    0.53
   7  -3  -1   19.40    0.51
   7  -3  -1   19.22    0.54
  -7   3   1   19.04    0.51
  -7   3   1   17.94    0.55
  -7   3   1   18.14    0.68
   6  -3  -1   39.63    0.73
   6  -3  -1   38.83    0.68
   6  -3  -1   39.85    0.76
   6  -3  -1   39.60    0.70
   6  -3  -1   38.95    0.74
  -6   3   1   39.31    0.69
  -6   3   1   39.24    0.76
  -6   3   1   39.23    0.77
   5  -3  -1    3.20    0.16
   5  -3  -1    3.61    0.21
   5  -3  -1    2.87    0.21
   5  -3  -1    3.34    0.20
   5  -3  -1    3.41    0.18
   5  -3  -1    3.37    0.20
  -5   3   1    3.33    0.23
  -5   3   1    3.34    0.20
  -5   3   1    3.29    0.22
   4  -3  -1    0.18    0.06
   4  -3  -1    0.28    0.07
   4  -3  -1    0.27    0.10
   4  -3  -1    0.09    0.08
   4  -3  -1    0.33    0.08
  -4   3   1    0.14    0.10
  -4   3   1    0.13    0.08
  -4   3   1    0.03    0.08
   3  -3  -1   62.14    0.73
   3  -3  -1   62.64    0.86
   3  -3  -1   61.36    0.83
   3  -3  -1   62.87    0.87
   3  -3  -1   62.37    0.91
  -3   3   1   62.26    0.95
  -3   3   1   62.61    0.89
  -3   3   1   62.50    0.86
   2  -3  -1   36.06    0.54
   2  -3  -1   34.74    0.51
   2  -3  -1   34.88    0.60
   2  -3  -1   34.96    0.59
   2  -3  -1   36.65    0.57
  -2   3   1   35.84    0.62
  -2   3   1   35.42    0.50
  -2   3   1   35.02    0.54
  -2   3   1   35.71    0.57
  -2   3   1   35.27    0.58
  -2   3   1   35.43    0.59
   1  -3  -1   19.83    0.38
   1  -3  -1   19.58    0.39
   1  -3  -1   19.94    0.37
   1  -3  -1   19.32    0.35
   1  -3  -1   19.17    0.40
  -1   3   1   20.62    0.41
  -1   3   1   19.59    0.41
  -1   3   1   19.68    0.37
  -1   3   1   20.60    0.42
  -1   3   1   19.34    0.37
  -1   3   1   19.81    0.28
   0  -3  -1   21.70    0.43
   0  -3  -1   21.79    0.44
   0  -3  -1   21.98    0.40
   0   3   1   21.78    0.44
   0   3   1   21.97    0.37
   0   3   1   21.36    0.45
   0   3   1   21.28    0.43
   0   3   1   21.61    0.43
  -1  -3  -1   69.42    1.01
  -1  -3  -1   69.95    0.92
  -1  -3  -1   69.63    1.01
   1   3   1   68.71    1.04
   1   3   1   69.20    0.96
   1   3   1   70.57    1.06
   1   3   1   69.16    0.98
  -2  -3  -1    0.11    0.10
  -2  -3  -1    0.16    0.09
  -2  -3  -1    0.16    0.07
   2   3   1    0.07    0.11
   2   3   1    0.19    0.10
   2   3   1    0.19    0.08
   2   3   1    0.32    0.11
  -3  -3  -1    5.19    0.27
  -3  -3  -1    4.84    0.28
   3   3   1    4.93    0.29
   3   3   1    5.02    0.22
   3   3   1    4.95    0.28
   3   3   1    4.96    0.32
  -4  -3  -1    0.16    0.14
  -4  -3  -1    0.08    0.12
   4   3   1    0.15    0.13
   4   3   1    0.05    0.15
   4   3   1   -0.06    0.12
  -5  -3  -1    0.25    0.16
   5   3   1   -0.10    0.14
   5   3   1   -0.15    0.13
   5   3   1    0.39    0.20
  -6  -3  -1    0.01    0.18
   6   3   1    0.24    0.18
   6   3   1    0.16    0.20
   6   3   1   -0.02    0.18
   9  -4  -1   18.49    0.64
   9  -4  -1   19.33    0.63
   9  -4  -1   17.82    0.63
  -9   4   1   17.39    0.65
   8  -4  -1    1.84    0.24
   8  -4  -1    1.74    0.23
   8  -4  -1    1.74    0.25
   8  -4  -1    1.57    0.23
  -8   4   1    1.63    0.24
   7  -4  -1    1.96    0.22
   7  -4  -1    2.28    0.19
   7  -4  -1    2.06    0.21
   7  -4  -1    2.19    0.22
   7  -4  -1    1.88    0.23
  -7   4   1    2.30    0.25
  -7   4   1    2.65    0.27
  -7   4   1    2.23    0.21
   6  -4  -1    5.05    0.26
   6  -4  -1    5.28    0.28
   6  -4  -1    5.61    0.31
   6  -4  -1    5.01    0.21
   6  -4  -1    4.99    0.27
  -6   4   1    4.62    0.26
  -6   4   1    5.10    0.30
  -6   4   1    5.18    0.30
   5  -4  -1   11.35    0.33
   5  -4  -1   11.40    0.34
   5  -4  -1   10.81    0.37
   5  -4  -1   11.61    0.34
   5  -4  -1   11.03    0.25
  -5   4   1   11.74    0.35
  -5   4   1   11.15    0.40
   4  -4  -1    2.97    0.10
   4  -4  -1    3.60    0.19
   4  -4  -1    3.03    0.17
   4  -4  -1    3.17    0.21
   4  -4  -1    3.32    0.20
  -4   4   1    3.05    0.20
  -4   4   1    3.18    0.22
   3  -4  -1    1.91    0.15
   3  -4  -1    1.89    0.16
   3  -4  -1    2.13    0.14
   3  -4  -1    1.88    0.18
  -3   4   1    1.85    0.17
  -3   4   1    2.00    0.19
  -3   4   1    1.97    0.11
  -3   4   1    1.91    0.15
   2  -4  -1   13.91    0.35
   2  -4  -1   14.12    0.33
   2  -4  -1   13.67    0.36
   2  -4  -1   13.73    0.31
   2  -4  -1   14.13    0.37
  -2   4   1   13.68    0.37
  -2   4   1   14.19    0.37
  -2   4   1   13.97    0.30
  -2   4   1   13.61    0.39
  -2   4   1   14.10    0.37
   1  -4  -1    9.17    0.30
   1  -4  -1    9.08    0.29
   1  -4  -1    9.67    0.28
   1  -4  -1    8.84    0.27
   1  -4  -1    8.93    0.26
  -1   4   1    9.61    0.28
  -1   4   1    9.53    0.32
  -1   4   1    9.38    0.30
  -1   4   1    9.64    0.32
  -1   4   1    9.16    0.20
   0  -4  -1  112.22    1.51
   0  -4  -1  112.85    1.43
   0  -4  -1  109.16    1.51
   0   4   1  111.68    1.55
   0   4   1  113.00    1.51
   0   4   1  111.10    1.49
   0   4   1  110.69    1.51
   0   4   1  109.94    1.39
  -1  -4  -1   48.08    0.84
  -1  -4  -1   48.40    0.72
  -1  -4  -1   48.00    0.83
   1   4   1   48.87    0.77
   1   4   1   49.04    0.88
   1   4   1   47.82    0.87
   1   4   1   48.42    0.81
  -2  -4  -1    4.89    0.27
  -2  -4  -1    4.70    0.26
   2   4   1    4.51    0.29
   2   4   1    4.67    0.31
   2   4   1    4.86    0.25
   2   4   1    5.12    0.26
  -3  -4  -1    2.18    0.23
  -3  -4  -1    1.59    0.21
   3   4   1    1.94    0.19
   3   4   1    1.73    0.24
   3   4   1    1.63    0.23
   3   4   1    1.84    0.22
  -4  -4  -1   12.08    0.47
  -4  -4  -1   13.71    0.53
   4   4   1   12.25    0.51
   4   4   1   11.50    0.47
   4   4   1   11.64    0.54
  -5  -4  -1    3.28    0.35
   5   4   1    3.74    0.36
   5   4   1    3.80    0.35
   5   4   1    3.88    0.39
   9  -5  -1    0.32    0.20
   9  -5  -1    0.11    0.17
   9  -5  -1    0.09    0.16
  -9   5   1    0.19    0.19
   8  -5  -1    0.00    0.13
   8  -5  -1    0.21    0.17
   8  -5  -1    0.15    0.14
   8  -5  -1    0.23    0.15
  -8   5   1    0.06    0.16
   7  -5  -1    0.27    0.14
   7  -5  -1    0.11    0.12
   7  -5  -1    0.35    0.13
   7  -5  -1    0.40    0.16
  -7   5   1    0.22    0.14
  -7   5   1    0.03    0.14
   6  -5  -1   42.03    0.79
   6  -5  -1   40.84    0.85
   6  -5  -1   41.34    0.79
   6  -5  -1   39.83    0.75
  -6   5   1   41.82    0.89
  -6   5   1   40.56    0.78
   5  -5  -1   18.67    0.47
   5  -5  -1   18.74    0.44
   5  -5  -1   19.08    0.46
   5  -5  -1   18.38    0.51
  -5   5   1   18.61    0.55
  -5   5   1   17.81    0.48
   4  -5  -1    2.21    0.17
   4  -5  -1    2.07    0.18
   4  -5  -1    2.18    0.19
   4  -5  -1    2.14    0.21
  -4   5   1    1.87    0.21
  -4   5   1    2.24    0.18
  -4   5   1    2.15    0.21
   3  -5  -1   34.75    0.69
   3  -5  -1   33.19    0.61
   3  -5  -1   33.04    0.58
   3  -5  -1   32.78    0.63
   3  -5  -1   33.44    0.67
  -3   5   1   33.68    0.68
  -3   5   1   34.22    0.72
  -3   5   1   33.48    0.64
  -3   5   1   34.03    0.68
  -3   5   1   32.77    0.52
   2  -5  -1    5.02    0.22
   2  -5  -1    4.83    0.25
   2  -5  -1    5.23    0.25
   2  -5  -1    5.11    0.27
   2  -5  -1    5.53    0.24
  -2   5   1    5.13    0.26
  -2   5   1    5.48    0.28
  -2   5   1    5.14    0.27
  -2   5   1    5.21    0.27
  -2   5   1    5.58    0.22
   1  -5  -1    7.52    0.29
   1  -5  -1    7.60    0.31
   1  -5  -1    7.51    0.27
   1  -5  -1    7.57    0.31
   1  -5  -1    6.96    0.27
  -1   5   1    7.52    0.32
  -1   5   1    7.63    0.31
  -1   5   1    7.54    0.32
  -1   5   1    7.23    0.20
  -1   5   1    7.45    0.29
   0  -5  -1    2.95    0.19
   0  -5  -1    2.48    0.22
   0  -5  -1    3.17    0.25
   0   5   1    2.65    0.23
   0   5   1    2.31    0.21
   0   5   1    2.92    0.23
   0   5   1    2.83    0.18
   0   5   1    2.67    0.22
  -1  -5  -1    6.13    0.31
  -1  -5  -1    6.33    0.31
   1   5   1    5.92    0.30
   1   5   1    5.64    0.32
   1   5   1    6.18    0.27
   1   5   1    6.05    0.34
  -2  -5  -1    0.30    0.13
  -2  -5  -1    0.34    0.14
   2   5   1    0.29    0.13
   2   5   1    0.46    0.17
   2   5   1    0.25    0.16
   2   5   1    0.36    0.14
  -3  -5  -1    0.72    0.18
   3   5   1    0.37    0.19
   3   5   1    0.51    0.18
   3   5   1    0.65    0.22
  -4  -5  -1    1.85    0.29
  -4  -5  -1    1.38    0.25
   4   5   1    1.94    0.27
   4   5   1    1.47    0.29
   4   5   1    1.97    0.29
  -5  -5  -1   -0.26    0.19
   5   5   1   -0.16    0.19
   5   5   1    0.20    0.20
   5   5   1    0.04    0.24
   9  -6  -1    0.70    0.23
   9  -6  -1    0.43    0.20
  -9   6   1    0.60    0.23
   8  -6  -1   13.15    0.51
   8  -6  -1   13.10    0.55
   8  -6  -1   12.72    0.50
   8  -6  -1   13.51    0.54
  -8   6   1   12.87    0.56
   7  -6  -1    0.52    0.15
   7  -6  -1    0.31    0.17
   7  -6  -1    0.23    0.15
   7  -6  -1    0.55    0.17
  -7   6   1    0.29    0.15
  -7   6   1    0.17    0.17
   6  -6  -1    5.28    0.34
   6  -6  -1    4.98    0.28
   6  -6  -1    4.87    0.30
   6  -6  -1    4.77    0.30
  -6   6   1    4.66    0.31
  -6   6   1    5.42    0.37
   5  -6  -1    2.88    0.22
   5  -6  -1    3.29    0.25
   5  -6  -1    3.08    0.27
   5  -6  -1    3.20    0.24
   5  -6  -1    2.96    0.28
  -5   6   1    3.67    0.29
  -5   6   1    2.67    0.28
   4  -6  -1    0.70    0.15
   4  -6  -1    0.82    0.17
   4  -6  -1    0.62    0.16
   4  -6  -1    0.66    0.14
   4  -6  -1    0.87    0.13
  -4   6   1    0.51    0.15
  -4   6   1    0.69    0.18
  -4   6   1    0.70    0.14
   3  -6  -1   18.08    0.51
   3  -6  -1   18.07    0.43
   3  -6  -1   18.46    0.48
   3  -6  -1   17.79    0.50
   3  -6  -1   18.13    0.46
  -3   6   1   18.55    0.55
  -3   6   1   18.04    0.50
  -3   6   1   17.65    0.53
  -3   6   1   17.43    0.51
   2  -6  -1   30.33    0.66
   2  -6  -1   31.40    0.69
   2  -6  -1   31.80    0.65
   2  -6  -1   30.36    0.61
   2  -6  -1   30.64    0.65
  -2   6   1   32.34    0.61
  -2   6   1   31.47    0.70
  -2   6   1   30.94    0.72
  -2   6   1   30.89    0.71
   1  -6  -1    2.13    0.23
   1  -6  -1    1.61    0.19
   1  -6  -1    2.13    0.19
  -1   6   1    1.98    0.23
  -1   6   1    2.32    0.24
  -1   6   1    2.26    0.22
  -1   6   1    1.91    0.21
   0  -6  -1   16.05    0.50
   0  -6  -1   15.21    0.49
   0   6   1   15.63    0.54
   0   6   1   15.50    0.49
   0   6   1   16.08    0.51
   0   6   1   15.82    0.48
  -1  -6  -1   16.71    0.53
  -1  -6  -1   16.82    0.53
   1   6   1   15.18    0.55
   1   6   1   17.68    0.60
   1   6   1   15.74    0.51
   1   6   1   16.43    0.66
  -2  -6  -1    0.00    0.15
  -2  -6  -1   -0.01    0.14
   2   6   1   -0.03    0.17
   2   6   1   -0.01    0.13
   2   6   1   -0.08    0.13
   2   6   1    0.10    0.18
  -3  -6  -1    1.37    0.27
  -3  -6  -1    1.95    0.27
   3   6   1    1.56    0.29
   3   6   1    1.57    0.29
   3   6   1    2.08    0.27
   9  -7  -1   24.26    0.80
   9  -7  -1   22.92    0.73
  -9   7   1   24.23    0.82
   8  -7  -1    0.95    0.24
   8  -7  -1    1.25    0.24
  -8   7   1    0.84    0.25
   7  -7  -1    3.90    0.35
   7  -7  -1    3.20    0.30
   7  -7  -1    3.23    0.34
  -7   7   1    3.25    0.36
  -7   7   1    3.13    0.31
   6  -7  -1    3.78    0.31
   6  -7  -1    2.94    0.31
   6  -7  -1    3.46    0.28
   6  -7  -1    3.15    0.32
  -6   7   1    3.45    0.32
  -6   7   1    3.05    0.33
   5  -7  -1   14.76    0.50
   5  -7  -1   14.08    0.45
   5  -7  -1   13.84    0.53
   5  -7  -1   14.33    0.52
  -5   7   1   14.70    0.56
  -5   7   1   13.52    0.45
  -5   7   1   14.46    0.52
   4  -7  -1    1.70    0.20
   4  -7  -1    1.33    0.20
   4  -7  -1    1.63    0.23
   4  -7  -1    2.06    0.25
   4  -7  -1    1.44    0.19
  -4   7   1    1.34    0.24
  -4   7   1    1.58    0.20
  -4   7   1    1.53    0.24
   3  -7  -1    1.27    0.20
   3  -7  -1    1.49    0.20
   3  -7  -1    1.19    0.21
   3  -7  -1    1.44    0.18
   3  -7  -1    1.38    0.18
  -3   7   1    1.17    0.22
  -3   7   1    1.23    0.22
  -3   7   1    0.98    0.20
  -3   7   1    1.52    0.22
   2  -7  -1    2.36    0.22
   2  -7  -1    2.37    0.25
   2  -7  -1    2.17    0.23
   2  -7  -1    2.28    0.26
   2  -7  -1    2.31    0.23
  -2   7   1    2.44    0.28
  -2   7   1    2.00    0.24
  -2   7   1    2.54    0.29
  -2   7   1    2.19    0.26
   1  -7  -1    0.46    0.16
   1  -7  -1    0.58    0.17
  -1   7   1    0.42    0.18
  -1   7   1    0.57    0.18
  -1   7   1    0.47    0.17
  -1   7   1    0.42    0.15
   0  -7  -1    0.73    0.19
   0  -7  -1    0.89    0.19
   0   7   1    0.67    0.18
   0   7   1    0.27    0.18
   0   7   1    0.81    0.23
  -1  -7  -1    9.91    0.49
  -1  -7  -1   10.24    0.47
   1   7   1   10.28    0.45
   1   7   1   10.77    0.54
   1   7   1    9.91    0.51
  -2  -7  -1    0.12    0.19
  -2  -7  -1   -0.04    0.17
   2   7   1   -0.04    0.20
   2   7   1   -0.03    0.21
   8  -8  -1    3.77    0.41
   8  -8  -1    3.44    0.39
   8  -8  -1    3.01    0.33
  -8   8   1    3.84    0.42
  -8   8   1    3.81    0.38
   7  -8  -1    0.24    0.19
   7  -8  -1    0.33    0.20
   7  -8  -1    0.49    0.21
  -7   8   1    0.30    0.20
  -7   8   1    0.44    0.22
   6  -8  -1    0.58    0.22
   6  -8  -1    0.42    0.20
   6  -8  -1    0.19    0.17
  -6   8   1    0.27    0.20
  -6   8   1    0.48    0.21
   5  -8  -1    0.55    0.20
   5  -8  -1    1.27    0.22
   5  -8  -1    0.96    0.23
  -5   8   1    0.98    0.24
  -5   8   1    1.02    0.20
  -5   8   1    1.13    0.24
   4  -8  -1    1.53    0.24
   4  -8  -1    1.38    0.23
   4  -8  -1    1.58    0.26
  -4   8   1    1.55    0.26
  -4   8   1    2.12    0.30
  -4   8   1    1.75    0.24
   3  -8  -1   11.98    0.48
   3  -8  -1   12.53    0.50
   3  -8  -1   12.21    0.51
   3  -8  -1   12.36    0.48
  -3   8   1   12.44    0.54
  -3   8   1   12.41    0.54
  -3   8   1   12.28    0.52
  -3   8   1   13.12    0.54
   2  -8  -1    0.21    0.17
   2  -8  -1   -0.04    0.14
  -2   8   1   -0.04    0.16
  -2   8   1    0.24    0.17
  -2   8   1    0.23    0.19
  -2   8   1    0.20    0.17
   1  -8  -1    1.21    0.23
   1  -8  -1    1.14    0.24
  -1   8   1    1.04    0.26
  -1   8   1    1.63    0.26
  -1   8   1    1.65    0.25
   0  -8  -1    3.34    0.35
   0  -8  -1    3.11    0.34
   0   8   1    3.81    0.40
   0   8   1    2.97    0.32
  -1  -8  -1   16.66    0.64
  -1  -8  -1   18.26    0.68
   1   8   1   18.54    0.75
   1   8   1   18.39    0.89
   7  -9  -1    0.31    0.24
   7  -9  -1    0.12    0.20
   7  -9  -1    0.06    0.22
  -7   9   1   -0.04    0.20
  -7   9   1    0.23    0.22
   6  -9  -1    1.31    0.26
   6  -9  -1    1.13    0.27
   6  -9  -1    0.68    0.24
  -6   9   1    0.53    0.23
  -6   9   1    0.70    0.24
   5  -9  -1    0.15    0.18
   5  -9  -1    0.39    0.21
   5  -9  -1    0.31    0.19
  -5   9   1    0.32    0.18
  -5   9   1    0.40    0.22
  -5   9   1    0.50    0.23
   4  -9  -1    6.79    0.44
   4  -9  -1    5.87    0.41
   4  -9  -1    6.01    0.44
  -4   9   1    6.63    0.46
  -4   9   1    5.48    0.42
  -4   9   1    6.08    0.45
   3  -9  -1    2.73    0.33
   3  -9  -1    3.30    0.34
  -3   9   1    2.62    0.33
  -3   9   1    2.72    0.34
  -3   9   1    2.72    0.35
  -3   9   1    2.12    0.30
   2  -9  -1    7.61    0.48
   2  -9  -1    8.65    0.48
  -2   9   1    8.25    0.48
  -2   9   1    8.54    0.53
  -2   9   1    7.94    0.51
  -2   9   1    7.73    0.49
   1  -9  -1    0.63    0.24
   1  -9  -1    0.63    0.23
  -1   9   1    1.24    0.31
  -1   9   1    0.89    0.24
  -1   9   1    0.47    0.26
  -3  10  -2    4.40    0.42
  -3  10  -2    5.27    0.46
  -3  10  -2    4.44    0.40
   3 -10   2    4.35    0.40
   3 -10   2    5.44    0.45
  -4  10  -2    3.60    0.40
  -4  10  -2    3.52    0.42
  -4  10  -2    3.69    0.39
   4 -10   2    3.69    0.37
   4 -10   2    3.75    0.37
  -5  10  -2    0.11    0.23
  -5  10  -2    0.40    0.27
  -5  10  -2    0.04    0.21
   5 -10   2    0.12    0.18
   5 -10   2    0.35    0.22
   0   9  -2    6.72    0.53
   0   9  -2    6.64    0.48
   0  -9   2    6.89    0.48
  -1   9  -2    5.06    0.44
  -1   9  -2    3.95    0.40
   1  -9   2    5.75    0.41
  -2   9  -2   -0.05    0.16
  -2   9  -2    0.03    0.18
  -2   9  -2    0.08    0.19
   2  -9   2    0.24    0.16
   2  -9   2    0.02    0.16
   2  -9   2    0.22    0.17
  -3   9  -2   15.04    0.57
  -3   9  -2   15.06    0.60
  -3   9  -2   14.11    0.60
   3  -9   2   14.72    0.55
   3  -9   2   14.66    0.55
   3  -9   2   14.73    0.57
  -4   9  -2    5.52    0.44
  -4   9  -2    5.30    0.43
  -4   9  -2    5.70    0.43
   4  -9   2    5.20    0.38
   4  -9   2    5.69    0.37
   4  -9   2    5.79    0.43
   4  -9   2    4.87    0.39
  -5   9  -2   -0.03    0.17
  -5   9  -2    0.06    0.18
  -5   9  -2   -0.25    0.16
   5  -9   2   -0.29    0.15
   5  -9   2   -0.19    0.16
   5  -9   2    0.10    0.15
   5  -9   2    0.20    0.17
  -6   9  -2    0.15    0.21
  -6   9  -2    0.17    0.18
   6  -9   2    0.27    0.21
   6  -9   2    0.31    0.18
   6  -9   2    0.11    0.19
  -7   9  -2    8.01    0.55
   7  -9   2    7.18    0.49
   7  -9   2    7.62    0.50
   2   8  -2    0.07    0.22
   2   8  -2    0.28    0.25
   2   8  -2    0.60    0.22
  -2  -8   2    0.22    0.22
   1   8  -2    3.17    0.37
   1   8  -2    3.07    0.34
  -1  -8   2    3.60    0.36
   0   8  -2    1.15    0.23
   0   8  -2    0.71    0.21
   0  -8   2    1.16    0.23
  -1   8  -2    0.20    0.17
  -1   8  -2    0.30    0.15
  -1   8  -2    0.10    0.18
   1  -8   2    0.63    0.18
   1  -8   2    0.52    0.18
   1  -8   2    0.69    0.17
  -2   8  -2    9.58    0.47
  -2   8  -2    9.80    0.45
  -2   8  -2    9.01    0.44
   2  -8   2    9.19    0.42
   2  -8   2    8.21    0.39
   2  -8   2    9.02    0.43
   2  -8   2    9.83    0.44
  -3   8  -2    0.54    0.19
  -3   8  -2    0.80    0.21
  -3   8  -2    0.91    0.19
   3  -8   2    0.74    0.18
   3  -8   2    0.68    0.19
   3  -8   2    1.11    0.20
   3  -8   2    0.95    0.20
   3  -8   2    0.59    0.17
  -4   8  -2    3.16    0.33
  -4   8  -2    3.10    0.31
  -4   8  -2    3.94    0.35
  -4   8  -2    3.12    0.26
   4  -8   2    3.33    0.30
   4  -8   2    4.12    0.33
   4  -8   2    3.35    0.30
   4  -8   2    3.20    0.29
  -5   8  -2    6.88    0.39
  -5   8  -2    5.97    0.41
  -5   8  -2    7.31    0.45
   5  -8   2    7.15    0.40
   5  -8   2    6.92    0.41
   5  -8   2    7.48    0.39
   5  -8   2    6.75    0.40
  -6   8  -2   14.48    0.61
  -6   8  -2   13.93    0.52
   6  -8   2   13.51    0.53
   6  -8   2   14.44    0.56
   6  -8   2   14.40    0.55
   6  -8   2   14.48    0.52
  -7   8  -2    0.50    0.22
   7  -8   2    0.17    0.18
   7  -8   2    0.04    0.17
   7  -8   2    0.24    0.19
  -8   8  -2    1.52    0.31
   8  -8   2    2.00    0.31
   8  -8   2    1.97    0.31
   8  -8   2    1.90    0.29
   3   7  -2   12.47    0.52
   3   7  -2   12.35    0.61
   3   7  -2   12.99    0.63
  -3  -7   2   12.79    0.57
   2   7  -2    0.29    0.19
   2   7  -2    0.24    0.17
   2   7  -2    0.48    0.21
  -2  -7   2    0.53    0.17
  -2  -7   2    0.15    0.17
   1   7  -2   14.91    0.59
   1   7  -2   14.55    0.54
   1   7  -2   15.44    0.55
  -1  -7   2   15.92    0.56
  -1  -7   2   14.50    0.49
   0   7  -2    8.14    0.36
   0   7  -2    7.58    0.41
   0   7  -2    7.65    0.37
   0   7  -2    7.55    0.40
   0  -7   2    8.68    0.40
   0  -7   2    8.24    0.34
   0  -7   2    8.62    0.35
   0  -7   2    8.45    0.39
  -1   7  -2   10.66    0.45
  -1   7  -2   10.81    0.45
  -1   7  -2   10.70    0.41
   1  -7   2   10.99    0.42
   1  -7   2   10.64    0.39
   1  -7   2   10.78    0.42
   1  -7   2   11.04    0.42
  -2   7  -2   18.73    0.56
  -2   7  -2   18.09    0.56
  -2   7  -2   17.77    0.52
   2  -7   2   18.43    0.52
   2  -7   2   18.10    0.51
   2  -7   2   17.58    0.53
   2  -7   2   18.34    0.53
   2  -7   2   18.48    0.48
  -3   7  -2    0.71    0.18
  -3   7  -2    0.59    0.15
  -3   7  -2    0.37    0.15
   3  -7   2    0.41    0.13
   3  -7   2    0.60    0.15
   3  -7   2    0.68    0.16
   3  -7   2    0.65    0.16
  -4   7  -2   24.56    0.70
  -4   7  -2   25.09    0.67
  -4   7  -2   25.59    0.57
  -4   7  -2   25.90    0.65
   4  -7   2   24.72    0.63
   4  -7   2   24.67    0.63
   4  -7   2   25.41    0.63
   4  -7   2   25.95    0.63
  -5   7  -2    0.48    0.18
  -5   7  -2    0.18    0.15
  -5   7  -2    0.52    0.17
   5  -7   2    0.54    0.16
   5  -7   2    0.38    0.16
   5  -7   2    0.16    0.15
   5  -7   2    0.54    0.16
  -6   7  -2    6.93    0.44
  -6   7  -2    6.87    0.36
   6  -7   2    7.03    0.39
   6  -7   2    6.75    0.37
   6  -7   2    7.13    0.40
   6  -7   2    7.36    0.39
  -7   7  -2    0.46    0.21
   7  -7   2    0.51    0.19
   7  -7   2    0.58    0.20
   7  -7   2    0.56    0.19
   7  -7   2    0.56    0.20
  -8   7  -2    2.79    0.35
   8  -7   2    3.01    0.34
   8  -7   2    2.40    0.30
   8  -7   2    2.76    0.33
  -9   7  -2    1.82    0.33
   9  -7   2    1.67    0.28
   9  -7   2    2.42    0.32
   9  -7   2    2.61    0.34
   4   6  -2    0.11    0.18
   4   6  -2    0.11    0.19
   4   6  -2   -0.11    0.17
  -4  -6   2   -0.02    0.17
   3   6  -2    3.69    0.32
   3   6  -2    3.52    0.36
   3   6  -2    3.03    0.33
  -3  -6   2    3.37    0.32
  -3  -6   2    2.89    0.30
   2   6  -2    5.03    0.36
   2   6  -2    4.59    0.36
   2   6  -2    5.16    0.33
  -2  -6   2    4.32    0.31
  -2  -6   2    4.72    0.33
   1   6  -2   12.21    0.47
   1   6  -2   11.92    0.45
   1   6  -2   11.89    0.44
  -1  -6   2   11.52    0.42
  -1  -6   2   11.75    0.38
  -1  -6   2   11.44    0.40
   0   6  -2    0.63    0.16
   0   6  -2    0.95    0.18
   0   6  -2    0.67    0.14
   0   6  -2    0.84    0.16
   0  -6   2    0.81    0.16
   0  -6   2    0.86    0.16
   0  -6   2    0.59    0.13
   0  -6   2    0.83    0.14
  -1   6  -2   -0.18    0.10
  -1   6  -2   -0.05    0.10
  -1   6  -2   -0.04    0.10
  -1   6  -2   -0.11    0.09
   1  -6   2    0.04    0.08
   1  -6   2    0.02    0.11
   1  -6   2    0.07    0.11
   1  -6   2    0.10    0.11
   1  -6   2   -0.03    0.09
   1  -6   2    0.17    0.10
  -2   6  -2    0.42    0.13
  -2   6  -2    0.31    0.13
  -2   6  -2    0.46    0.14
   2  -6   2    0.42    0.09
   2  -6   2    0.40    0.13
   2  -6   2    0.52    0.13
   2  -6   2    0.50    0.14
   2  -6   2    0.54    0.14
  -3   6  -2   47.46    0.81
  -3   6  -2   47.16    0.90
  -3   6  -2   49.88    0.94
   3  -6   2   47.37    0.85
   3  -6   2   46.90    0.87
   3  -6   2   48.69    0.86
   3  -6   2   48.88    0.86
  -4   6  -2   28.15    0.53
  -4   6  -2   27.08    0.69
  -4   6  -2   27.68    0.64
  -4   6  -2   27.98    0.61
   4  -6   2   28.58    0.64
   4  -6   2   26.67    0.62
   4  -6   2   27.31    0.62
   4  -6   2   27.73    0.62
  -5   6  -2    0.30    0.12
  -5   6  -2    0.11    0.14
  -5   6  -2    0.35    0.14
   5  -6   2    0.10    0.12
   5  -6   2    0.11    0.13
   5  -6   2    0.10    0.12
   5  -6   2    0.13    0.13
  -6   6  -2    0.14    0.15
  -6   6  -2    0.23    0.12
   6  -6   2    0.28    0.14
   6  -6   2    0.20    0.15
   6  -6   2    0.13    0.14
   6  -6   2    0.40    0.16
  -7   6  -2    4.90    0.39
  -7   6  -2    4.97    0.38
   7  -6   2    4.81    0.35
   7  -6   2    5.35    0.37
   7  -6   2    4.44    0.35
   7  -6   2    4.58    0.35
  -8   6  -2    2.25    0.31
  -8   6  -2    2.46    0.32
   8  -6   2    2.08    0.28
   8  -6   2    1.92    0.26
   8  -6   2    1.92    0.28
  -9   6  -2    0.91    0.26
  -9   6  -2    0.90    0.25
   9  -6   2    1.14    0.27
   9  -6   2    0.86    0.25
   9  -6   2    1.12    0.25
   5   5  -2    0.24    0.19
   5   5  -2    0.07    0.18
   5   5  -2    0.14    0.20
   4   5  -2   14.88    0.59
   4   5  -2   14.32    0.60
   4   5  -2   15.53    0.54
   4   5  -2   14.22    0.53
  -4  -5   2   14.70    0.56
  -4  -5   2   15.09    0.54
   3   5  -2    7.06    0.39
   3   5  -2    6.31    0.39
   3   5  -2    6.71    0.34
  -3  -5   2    6.58    0.36
  -3  -5   2    6.41    0.37
   2   5  -2    0.11    0.13
   2   5  -2   -0.07    0.10
   2   5  -2    0.09    0.12
  -2  -5   2   -0.03    0.11
  -2  -5   2    0.12    0.11
  -2  -5   2    0.14    0.10
   1   5  -2    0.98    0.16
   1   5  -2    0.32    0.13
   1   5  -2    0.53    0.11
   1   5  -2    0.73    0.15
  -1  -5   2    0.64    0.13
  -1  -5   2    0.68    0.12
  -1  -5   2    0.50    0.13
   0   5  -2    8.32    0.33
   0   5  -2    8.06    0.32
   0   5  -2    8.60    0.30
   0   5  -2    8.65    0.26
   0   5  -2    8.21    0.30
   0  -5   2    8.59    0.31
   0  -5   2    8.27    0.28
   0  -5   2    9.19    0.34
   0  -5   2    8.43    0.33
   0  -5   2    8.45    0.22
   0  -5   2    8.44    0.28
  -1   5  -2    3.18    0.21
  -1   5  -2    3.02    0.17
  -1   5  -2    3.26    0.19
  -1   5  -2    2.74    0.21
  -1   5  -2    3.01    0.20
   1  -5   2    3.12    0.21
   1  -5   2    2.67    0.20
   1  -5   2    2.59    0.17
   1  -5   2    2.73    0.16
   1  -5   2    2.88    0.20
  -2   5  -2    7.94    0.19
  -2   5  -2    7.91    0.31
  -2   5  -2    7.89    0.31
  -2   5  -2    7.92    0.28
   2  -5   2    8.20    0.28
   2  -5   2    8.65    0.30
   2  -5   2    8.03    0.29
   2  -5   2    8.23    0.20
   2  -5   2    8.20    0.30
  -3   5  -2   76.92    1.05
  -3   5  -2   78.49    1.22
  -3   5  -2   77.74    1.17
   3  -5   2   75.54    0.98
   3  -5   2   78.56    1.15
   3  -5   2   79.14    1.15
   3  -5   2   76.58    1.16
   3  -5   2   77.30    1.14
   3  -5   2   75.52    0.93
  -4   5  -2   23.50    0.50
  -4   5  -2   24.33    0.54
  -4   5  -2   23.63    0.59
  -4   5  -2   23.58    0.42
   4  -5   2   23.64    0.54
   4  -5   2   23.35    0.54
   4  -5   2   22.92    0.35
   4  -5   2   23.55    0.42
   4  -5   2   24.51    0.56
   4  -5   2   25.29    0.54
  -5   5  -2    9.91    0.40
  -5   5  -2    9.06    0.30
  -5   5  -2    9.81    0.39
   5  -5   2    9.49    0.36
   5  -5   2    9.51    0.37
   5  -5   2    9.96    0.36
   5  -5   2    8.87    0.36
   5  -5   2    9.45    0.27
  -6   5  -2    0.34    0.12
  -6   5  -2    0.30    0.15
  -6   5  -2    0.20    0.14
   6  -5   2    0.36    0.14
   6  -5   2    0.23    0.14
   6  -5   2    0.24    0.13
   6  -5   2    0.42    0.11
  -7   5  -2    0.28    0.17
  -7   5  -2    0.31    0.16
   7  -5   2    0.57    0.14
   7  -5   2    0.21    0.16
   7  -5   2    0.20    0.15
   7  -5   2    0.12    0.14
  -8   5  -2    2.74    0.30
  -8   5  -2    2.95    0.33
   8  -5   2    1.76    0.26
   8  -5   2    2.71    0.37
   8  -5   2    2.72    0.30
  -9   5  -2   18.25    0.70
   9  -5   2   19.06    0.67
   9  -5   2   18.60    0.68
   6   4  -2    0.25    0.20
   6   4  -2    0.51    0.21
   6   4  -2    0.45    0.22
   5   4  -2    1.42    0.25
   5   4  -2    2.01    0.27
   5   4  -2    2.02    0.31
  -5  -4   2    1.45    0.24
  -5  -4   2    1.76    0.25
   4   4  -2    2.61    0.23
   4   4  -2    2.68    0.31
   4   4  -2    2.61    0.27
  -4  -4   2    2.63    0.27
  -4  -4   2    2.91    0.26
   3   4  -2   32.44    0.67
   3   4  -2   32.22    0.74
   3   4  -2   31.60    0.76
  -3  -4   2   32.72    0.69
  -3  -4   2   31.72    0.72
  -3  -4   2   32.56    0.62
   2   4  -2    1.88    0.20
   2   4  -2    2.08    0.12
   2   4  -2    1.78    0.18
   2   4  -2    1.94    0.21
   2   4  -2    1.92    0.12
  -2  -4   2    2.05    0.19
  -2  -4   2    1.82    0.19
  -2  -4   2    1.88    0.16
   1   4  -2   20.51    0.40
   1   4  -2   19.60    0.49
   1   4  -2   20.55    0.37
   1   4  -2   20.04    0.48
   1   4  -2   20.37    0.47
  -1  -4   2   20.21    0.46
  -1  -4   2   20.22    0.48
  -1  -4   2   20.35    0.41
  -1  -4   2   20.28    0.45
   0   4  -2   49.35    0.80
   0   4  -2   48.92    0.81
   0   4  -2   48.91    0.72
   0   4  -2   49.34    0.77
   0   4  -2   48.96    0.75
   0  -4   2   49.32    0.81
   0  -4   2   49.12    0.74
   0  -4   2   48.62    0.77
   0  -4   2   49.11    0.72
   0  -4   2   47.91    0.66
   0  -4   2   48.83    0.81
  -1   4  -2   55.94    0.82
  -1   4  -2   56.08    0.87
  -1   4  -2   55.58    0.76
  -1   4  -2   56.35    0.83
  -1   4  -2   55.45    0.86
   1  -4   2   55.39    0.85
   1  -4   2   55.14    0.83
   1  -4   2   55.93    0.76
   1  -4   2   56.69    0.87
   1  -4   2   56.15    0.80
  -2   4  -2    0.44    0.08
  -2   4  -2    0.41    0.10
  -2   4  -2    0.32    0.10
  -2   4  -2    0.51    0.10
   2  -4   2    0.53    0.10
   2  -4   2    0.49    0.06
   2  -4   2    0.67    0.11
   2  -4   2    0.46    0.11
   2  -4   2    0.53    0.07
   2  -4   2    0.46    0.10
  -3   4  -2  115.70    1.40
  -3   4  -2  119.45    1.54
  -3   4  -2  114.42    1.60
   3  -4   2  116.73    1.52
   3  -4   2  116.14    1.55
   3  -4   2  118.62    1.54
   3  -4   2  116.20    1.53
   3  -4   2  116.12    1.41
  -4   4  -2   38.61    0.75
  -4   4  -2   39.36    0.67
  -4   4  -2   39.69    0.63
   4  -4   2   39.99    0.62
   4  -4   2   41.26    0.72
   4  -4   2   40.16    0.70
   4  -4   2   41.38    0.73
  -5   4  -2    0.19    0.08
  -5   4  -2    0.17    0.10
  -5   4  -2   -0.03    0.10
   5  -4   2    0.07    0.06
   5  -4   2    0.12    0.11
   5  -4   2    0.06    0.08
   5  -4   2    0.28    0.12
   5  -4   2    0.32    0.11
  -6   4  -2   28.01    0.68
  -6   4  -2   28.61    0.67
   6  -4   2   27.74    0.58
   6  -4   2   29.64    0.68
   6  -4   2   28.95    0.67
   6  -4   2   27.46    0.64
  -7   4  -2    0.60    0.18
  -7   4  -2    1.21    0.20
   7  -4   2    0.98    0.19
   7  -4   2    0.78    0.18
   7  -4   2    1.08    0.20
   7  -4   2    1.02    0.17
  -8   4  -2    0.03    0.17
   8  -4   2   -0.04    0.16
   8  -4   2    0.28    0.18
   8  -4   2   -0.02    0.13
  -9   4  -2    2.80    0.36
   9  -4   2    2.79    0.31
   9  -4   2    3.22    0.34
   9  -4   2    2.91    0.36
   7   3  -2    0.19    0.21
   7   3  -2    0.03    0.18
   7   3  -2   -0.05    0.18
   6   3  -2   31.05    0.82
   6   3  -2   29.96    0.88
   6   3  -2   30.91    0.81
  -6  -3   2   31.27    0.85
  -6  -3   2   29.91    0.77
   5   3  -2    0.01    0.15
   5   3  -2    0.24    0.16
   5   3  -2    0.03    0.13
   5   3  -2    0.12    0.14
  -5  -3   2    0.06    0.14
  -5  -3   2    0.21    0.13
   4   3  -2    8.93    0.41
   4   3  -2    9.70    0.40
   4   3  -2   10.45    0.35
  -4  -3   2    9.51    0.35
  -4  -3   2    9.70    0.40
   3   3  -2   10.21    0.37
   3   3  -2   11.12    0.41
   3   3  -2   10.63    0.24
   3   3  -2   10.83    0.34
  -3  -3   2   10.93    0.34
  -3  -3   2   11.11    0.34
  -3  -3   2   10.96    0.38
  -3  -3   2   10.30    0.30
   2   3  -2   14.74    0.41
   2   3  -2   14.58    0.27
   2   3  -2   15.09    0.25
   2   3  -2   15.59    0.42
   2   3  -2   15.49    0.38
  -2  -3   2   15.10    0.32
  -2  -3   2   14.64    0.39
  -2  -3   2   14.91    0.37
   1   3  -2   27.54    0.51
   1   3  -2   26.46    0.42
   1   3  -2   25.49    0.42
   1   3  -2   25.70    0.51
   1   3  -2   26.48    0.52
  -1  -3   2   26.54    0.48
  -1  -3   2   26.33    0.52
  -1  -3   2   26.92    0.50
  -1  -3   2   26.76    0.43
   0   3  -2  211.89    2.46
   0   3  -2  212.04    2.49
   0   3  -2  212.95    2.52
   0   3  -2  216.86    2.54
   0   3  -2  213.02    2.49
   0  -3   2  210.76    2.48
   0  -3   2  214.66    2.54
   0  -3   2  216.04    2.50
   0  -3   2  217.02    2.54
   0  -3   2  213.64    2.44
  -1   3  -2  119.52    1.50
  -1   3  -2  123.52    1.53
  -1   3  -2  124.04    1.53
  -1   3  -2  121.22    1.42
  -1   3  -2  123.41    1.48
  -1   3  -2  121.50    1.54
   1  -3   2  121.05    1.45
   1  -3   2  122.39    1.53
   1  -3   2  122.19    1.47
   1  -3   2  124.75    1.50
   1  -3   2  124.32    1.53
   1  -3   2  119.77    1.44
  -2   3  -2   16.94    0.39
  -2   3  -2   16.48    0.35
  -2   3  -2   16.88    0.28
  -2   3  -2   16.50    0.35
  -2   3  -2   16.71    0.36
   2  -3   2   16.76    0.36
   2  -3   2   16.88    0.34
   2  -3   2   16.64    0.36
   2  -3   2   16.99    0.30
   2  -3   2   16.73    0.35
  -3   3  -2    0.31    0.09
  -3   3  -2    0.61    0.11
  -3   3  -2    0.45    0.11
  -3   3  -2    0.41    0.08
  -3   3  -2    0.48    0.09
   3  -3   2    0.57    0.09
   3  -3   2    0.54    0.10
   3  -3   2    0.26    0.09
   3  -3   2    0.58    0.11
   3  -3   2    0.62    0.05
  -4   3  -2    0.94    0.14
  -4   3  -2    1.08    0.15
  -4   3  -2    1.19    0.10
   4  -3   2    0.99    0.13
   4  -3   2    1.08    0.09
   4  -3   2    1.02    0.14
   4  -3   2    0.97    0.13
   4  -3   2    1.21    0.12
  -5   3  -2    2.44    0.21
  -5   3  -2    2.59    0.23
  -5   3  -2    2.52    0.13
   5  -3   2    2.55    0.11
   5  -3   2    2.69    0.19
   5  -3   2    2.62    0.20
   5  -3   2    2.70    0.22
   5  -3   2    2.77    0.23
   5  -3   2    2.69    0.16
  -6   3  -2    3.23    0.25
  -6   3  -2    3.17    0.27
   6  -3   2    3.23    0.23
   6  -3   2    3.02    0.26
   6  -3   2    2.91    0.26
   6  -3   2    3.14    0.21
   6  -3   2    2.69    0.23
  -7   3  -2    3.37    0.27
  -7   3  -2    2.92    0.29
   7  -3   2    3.18    0.26
   7  -3   2    2.90    0.29
   7  -3   2    2.66    0.26
   7  -3   2    2.93    0.29
   7  -3   2    2.82    0.27
  -8   3  -2    0.39    0.20
   8  -3   2    0.27    0.17
   8  -3   2    0.22    0.18
   8  -3   2    0.52    0.20
  -9   3  -2    1.32    0.28
   9  -3   2    1.48    0.27
   9  -3   2    1.93    0.33
   9  -3   2    1.71    0.28
   7   2  -2    5.24    0.42
   7   2  -2    5.35    0.46
   7   2  -2    5.39    0.39
   6   2  -2   43.34    0.92
   6   2  -2   42.05    0.92
   6   2  -2   42.30    1.00
  -6  -2   2   42.48    0.96
  -6  -2   2   41.22    0.87
   5   2  -2    0.86    0.14
   5   2  -2    0.35    0.17
   5   2  -2    0.79    0.17
  -5  -2   2    0.42    0.15
  -5  -2   2    0.71    0.15
   4   2  -2    3.20    0.24
   4   2  -2    3.62    0.27
   4   2  -2    3.25    0.20
  -4  -2   2    3.00    0.20
  -4  -2   2    2.71    0.23
   3   2  -2    0.28    0.08
   3   2  -2    0.22    0.05
   3   2  -2    0.09    0.09
   3   2  -2    0.33    0.12
  -3  -2   2    0.26    0.09
  -3  -2   2    0.26    0.10
   2   2  -2    9.88    0.21
   2   2  -2   10.20    0.27
   2   2  -2    9.87    0.29
   2   2  -2   10.06    0.31
  -2  -2   2   10.15    0.22
  -2  -2   2   10.41    0.30
  -2  -2   2    9.81    0.26
   1   2  -2   78.01    1.04
   1   2  -2   78.64    0.95
   1   2  -2   79.76    0.97
  -1  -2   2   82.17    0.95
  -1  -2   2   78.06    1.06
  -1  -2   2   78.68    1.04
  -1  -2   2   78.95    1.01
   0   2  -2  470.59    5.28
   0   2  -2  463.19    5.39
   0   2  -2  472.94    5.36
   0   2  -2  473.67    5.41
   0   2  -2  473.04    5.40
   0  -2   2  472.04    5.38
   0  -2   2  459.95    5.38
   0  -2   2  463.52    5.26
   0  -2   2  462.61    5.21
   0  -2   2  462.74    5.44
   0  -2   2  465.25    5.28
  -1   2  -2    0.63    0.09
  -1   2  -2    0.89    0.09
  -1   2  -2    0.67    0.06
  -1   2  -2    0.81    0.09
  -1   2  -2    0.69    0.09
  -1   2  -2    0.61    0.08
   1  -2   2    0.63    0.08
   1  -2   2    0.57    0.09
   1  -2   2    0.74    0.08
   1  -2   2    0.62    0.09
  -2   2  -2    0.19    0.06
  -2   2  -2    0.24    0.08
  -2   2  -2    0.16    0.08
  -2   2  -2    0.32    0.08
  -2   2  -2    0.18    0.06
   2  -2   2    0.22    0.08
   2  -2   2    0.32    0.05
   2  -2   2    0.36    0.08
   2  -2   2    0.35    0.07
   2  -2   2    0.16    0.07
  -3   2  -2   60.59    0.89
  -3   2  -2   61.40    0.85
  -3   2  -2   60.08    0.89
  -3   2  -2   61.82    0.75
   3  -2   2   62.84    0.90
   3  -2   2   61.69    0.81
   3  -2   2   61.80    0.85
   3  -2   2   62.59    0.90
  -4   2  -2  158.84    2.00
  -4   2  -2  159.05    2.04
  -4   2  -2  155.94    1.80
   4  -2   2  160.45    2.03
   4  -2   2  161.22    1.82
   4  -2   2  161.23    1.98
   4  -2   2  159.30    2.03
   4  -2   2  158.23    1.95
  -5   2  -2    0.85    0.15
  -5   2  -2    0.79    0.13
   5  -2   2    0.69    0.08
   5  -2   2    0.89    0.13
   5  -2   2    0.75    0.14
   5  -2   2    0.64    0.14
   5  -2   2    0.53    0.13
  -6   2  -2    1.36    0.20
  -6   2  -2    1.38    0.18
   6  -2   2    1.39    0.18
   6  -2   2    1.17    0.18
   6  -2   2    1.02    0.18
   6  -2   2    1.14    0.19
  -7   2  -2   14.06    0.52
   7  -2   2   15.70    0.51
   7  -2   2   14.55    0.50
   7  -2   2   13.75    0.52
   7  -2   2   14.53    0.54
  -8   2  -2    0.02    0.19
   8  -2   2    0.05    0.16
   8  -2   2   -0.04    0.18
   8  -2   2   -0.12    0.16
  -9   2  -2    8.04    0.53
   9  -2   2    8.13    0.55
   9  -2   2    8.39    0.50
   8   1  -2    1.58    0.30
   8   1  -2    2.09    0.30
   8   1  -2    1.94    0.32
   7   1  -2    4.69    0.38
   7   1  -2    4.03    0.33
   7   1  -2    4.30    0.36
  -7  -1   2    4.76    0.34
   6   1  -2   10.43    0.41
   6   1  -2    9.50    0.45
   6   1  -2   10.31    0.43
  -6  -1   2    9.72    0.38
  -6  -1   2   10.15    0.45
   5   1  -2   36.74    0.80
   5   1  -2   35.96    0.65
   5   1  -2   35.87    0.72
  -5  -1   2   37.08    0.77
  -5  -1   2   36.20    0.70
   4   1  -2   12.67    0.37
   4   1  -2   12.41    0.26
   4   1  -2   12.36    0.32
   4   1  -2   12.18    0.40
  -4  -1   2   12.04    0.38
  -4  -1   2   11.71    0.33
   3   1  -2   11.14    0.28
   3   1  -2   11.25    0.23
   3   1  -2   11.52    0.34
   3   1  -2   11.59    0.32
  -3  -1   2   10.27    0.31
  -3  -1   2   10.99    0.27
   2   1  -2    0.11    0.08
   2   1  -2    0.27    0.07
   2   1  -2    0.12    0.05
   2   1  -2    0.27    0.05
  -2  -1   2    0.08    0.07
  -2  -1   2    0.21    0.06
   1   1  -2    3.07    0.13
   1   1  -2    3.64    0.12
   1   1  -2    3.26    0.09
   1   1  -2    3.52    0.15
  -1  -1   2    3.36    0.14
  -1  -1   2    3.23    0.11
   0   1  -2    1.44    0.08
   0   1  -2    1.47    0.10
   0   1  -2    1.29    0.07
   0   1  -2    1.28    0.09
   0   1  -2    1.37    0.10
   0  -1   2    1.43    0.09
   0  -1   2    1.39    0.07
   0  -1   2    1.41    0.09
   0  -1   2    1.30    0.10
   0  -1   2    1.40    0.09
  -1   1  -2   74.65    0.92
  -1   1  -2   73.94    0.88
  -1   1  -2   75.81    0.94
  -1   1  -2   74.54    0.92
   1  -1   2   77.05    0.93
   1  -1   2   75.54    0.92
   1  -1   2   75.81    0.93
   1  -1   2   76.62    0.91
  -2   1  -2   56.33    0.78
  -2   1  -2   57.01    0.66
  -2   1  -2   55.96    0.79
  -2   1  -2   57.31    0.79
  -2   1  -2   55.63    0.73
   2  -1   2   58.83    0.77
   2  -1   2   57.02    0.79
   2  -1   2   57.40    0.76
   2  -1   2   56.19    0.66
   2  -1   2   57.49    0.79
  -3   1  -2   17.80    0.33
  -3   1  -2   18.27    0.40
   3  -1   2   18.92    0.39
   3  -1   2   18.35    0.30
   3  -1   2   18.76    0.41
   3  -1   2   18.63    0.40
   3  -1   2   18.74    0.39
  -4   1  -2    9.58    0.32
  -4   1  -2   10.01    0.29
   4  -1   2    9.88    0.31
   4  -1   2   10.22    0.32
   4  -1   2    9.64    0.32
   4  -1   2    9.61    0.33
   4  -1   2    9.71    0.17
   4  -1   2    9.82    0.24
  -5   1  -2    1.45    0.15
  -5   1  -2    1.01    0.17
   5  -1   2    1.33    0.18
   5  -1   2    1.00    0.16
   5  -1   2    1.01    0.11
   5  -1   2    1.24    0.17
   5  -1   2    0.96    0.18
  -6   1  -2    3.94    0.31
   6  -1   2    5.10    0.33
   6  -1   2    4.85    0.31
   6  -1   2    4.94    0.31
   6  -1   2    5.50    0.33
  -7   1  -2    2.48    0.29
   7  -1   2    2.66    0.28
   7  -1   2    3.36    0.34
   7  -1   2    2.86    0.29
   7  -1   2    2.65    0.45
  -8   1  -2    2.98    0.34
   8  -1   2    3.12    0.35
   8  -1   2    3.12    0.36
   8  -1   2    3.24    0.34
   8   0  -2    2.21    0.29
   8   0  -2    2.23    0.30
   7   0  -2    0.09    0.12
   7   0  -2    0.02    0.14
   7   0  -2    0.00    0.16
   7   0  -2    0.04    0.15
  -7   0   2    0.06    0.14
  -7   0   2   -0.06    0.13
   6   0  -2    4.65    0.30
   6   0  -2    4.84    0.32
   6   0  -2    5.19    0.28
   6   0  -2    4.68    0.23
   6   0  -2    4.94    0.31
  -6   0   2    4.54    0.30
  -6   0   2    4.64    0.27
   5   0  -2    2.75    0.17
   5   0  -2    2.58    0.23
   5   0  -2    2.47    0.19
   5   0  -2    2.43    0.15
  -5   0   2    2.81    0.20
  -5   0   2    2.41    0.22
   4   0  -2   71.58    1.08
   4   0  -2   71.00    1.03
   4   0  -2   70.82    0.99
   4   0  -2   70.26    0.94
  -4   0   2   69.59    0.87
  -4   0   2   70.44    0.99
  -4   0   2   69.65    1.04
   3   0  -2   40.54    0.62
   3   0  -2   40.52    0.59
   3   0  -2   40.92    0.64
  -3   0   2   40.01    0.54
  -3   0   2   41.36    0.62
  -3   0   2   40.02    0.64
  -3   0   2   41.37    0.59
   2   0  -2   84.34    1.01
   2   0  -2   82.88    1.04
   2   0  -2   82.91    1.02
  -2   0   2   80.31    0.97
  -2   0   2   82.76    1.04
  -2   0   2   80.65    1.04
   1   0  -2    0.50    0.06
   1   0  -2    0.39    0.05
   1   0  -2    0.51    0.06
  -1   0   2    0.46    0.06
  -1   0   2    0.39    0.06
  -1   0   2    0.31    0.06
   0   0  -2  121.74    1.44
   0   0  -2  126.74    1.41
   0   0  -2  122.33    1.42
   0   0  -2  123.51    1.38
   0   0   2  124.68    1.41
   0   0   2  124.99    1.42
   0   0   2  124.52    1.38
   0   0   2  125.08    1.45
   0   0   2  123.68    1.39
  -1   0  -2  983.00   11.14
  -1   0  -2  952.78   11.20
  -1   0  -2 1000.00   10.86
  -1   0  -2  964.26   11.09
   1   0   2  966.13   10.89
   1   0   2  971.77   10.71
   1   0   2  969.34   11.07
   1   0   2  976.01   11.20
   1   0   2  992.61   11.06
   1   0   2  977.62   11.07
  -2   0  -2    0.33    0.05
  -2   0  -2    0.35    0.08
  -2   0  -2    0.40    0.09
  -2   0  -2    0.35    0.08
   2   0   2    0.21    0.08
   2   0   2    0.29    0.06
   2   0   2    0.38    0.09
   2   0   2    0.37    0.09
  -3   0  -2    8.64    0.26
  -3   0  -2    8.70    0.29
   3   0   2    8.65    0.29
   3   0   2    8.53    0.28
   3   0   2    8.94    0.29
   3   0   2    9.10    0.24
  -4   0  -2    7.20    0.30
   4   0   2    7.39    0.31
   4   0   2    7.42    0.29
   4   0   2    6.90    0.30
   4   0   2    7.28    0.24
  -5   0  -2    8.57    0.37
   5   0   2    8.89    0.38
   5   0   2    8.87    0.38
   5   0   2    9.60    0.37
   5   0   2    9.07    0.31
  -6   0  -2   11.64    0.47
   6   0   2   12.07    0.48
   6   0   2   11.79    0.48
   6   0   2   11.84    0.39
   6   0   2   11.52    0.46
   6   0   2   11.50    0.49
  -7   0  -2    2.80    0.32
   7   0   2    3.06    0.32
   7   0   2    2.32    0.31
   7   0   2    3.14    0.33
  -8   0  -2    1.50    0.29
   8   0   2    1.89    0.34
   8   0   2    1.71    0.30
   8   0   2    1.30    0.29
   9  -1  -2   15.61    0.60
   9  -1  -2   16.48    0.66
   9  -1  -2   15.00    0.65
   8  -1  -2    8.47    0.45
   8  -1  -2    8.59    0.46
   8  -1  -2    8.31    0.42
  -8   1   2    9.04    0.43
   7  -1  -2    3.51    0.29
   7  -1  -2    3.34    0.30
   7  -1  -2    3.59    0.31
   7  -1  -2    3.47    0.26
  -7   1   2    3.22    0.28
  -7   1   2    3.17    0.27
   6  -1  -2   40.19    0.79
   6  -1  -2   39.30    0.68
   6  -1  -2   40.18    0.71
   6  -1  -2   39.95    0.76
   6  -1  -2   39.73    0.74
   6  -1  -2   39.02    0.80
  -6   1   2   39.29    0.77
  -6   1   2   40.27    0.76
   5  -1  -2   29.34    0.59
   5  -1  -2   28.05    0.54
   5  -1  -2   29.01    0.61
   5  -1  -2   29.04    0.56
  -5   1   2   27.72    0.55
  -5   1   2   27.89    0.50
  -5   1   2   27.27    0.53
  -5   1   2   28.85    0.58
   4  -1  -2   33.22    0.58
  -4   1   2   32.43    0.57
  -4   1   2   32.57    0.53
  -4   1   2   33.16    0.56
  -4   1   2   32.76    0.56
   3  -1  -2   32.03    0.49
  -3   1   2   31.36    0.51
  -3   1   2   31.15    0.50
  -3   1   2   30.41    0.49
  -3   1   2   30.33    0.49
   2  -1  -2   70.34    0.85
   2  -1  -2   70.50    0.93
   2  -1  -2   71.65    0.85
   2  -1  -2   71.16    0.89
  -2   1   2   70.90    0.92
  -2   1   2   68.58    0.86
  -2   1   2   69.56    0.92
   1  -1  -2   13.31    0.21
   1  -1  -2   12.95    0.25
   1  -1  -2   12.79    0.27
   1  -1  -2   13.12    0.17
  -1   1   2   12.75    0.20
  -1   1   2   12.66    0.27
  -1   1   2   12.86    0.26
  -1   1   2   12.95    0.25
  -1   1   2   13.00    0.25
   0  -1  -2    1.22    0.08
   0  -1  -2    1.61    0.12
   0  -1  -2    1.59    0.10
   0  -1  -2    1.55    0.11
   0   1   2    1.42    0.10
   0   1   2    1.41    0.10
   0   1   2    1.58    0.13
   0   1   2    1.46    0.10
  -1  -1  -2    1.39    0.12
  -1  -1  -2    1.24    0.07
  -1  -1  -2    1.04    0.09
  -1  -1  -2    1.24    0.11
   1   1   2    1.13    0.10
   1   1   2    1.07    0.11
   1   1   2    1.13    0.08
   1   1   2    1.24    0.12
  -2  -1  -2   14.45    0.36
  -2  -1  -2   13.86    0.34
  -2  -1  -2   14.23    0.31
   2   1   2   14.00    0.33
   2   1   2   14.15    0.37
   2   1   2   13.85    0.32
   2   1   2   13.93    0.24
  -3  -1  -2    0.33    0.10
  -3  -1  -2    0.42    0.09
  -3  -1  -2    0.54    0.12
   3   1   2    0.49    0.10
   3   1   2    0.56    0.13
   3   1   2    0.43    0.11
   3   1   2    0.58    0.06
  -4  -1  -2   28.07    0.55
  -4  -1  -2   28.38    0.64
   4   1   2   28.86    0.62
   4   1   2   28.37    0.67
   4   1   2   28.84    0.59
  -5  -1  -2    2.31    0.25
   5   1   2    2.13    0.21
   5   1   2    2.81    0.27
   5   1   2    2.02    0.23
   5   1   2    2.73    0.27
  -6  -1  -2    3.02    0.32
   6   1   2    2.86    0.26
   6   1   2    2.85    0.30
   6   1   2    2.44    0.30
   6   1   2    2.71    0.34
  -7  -1  -2    7.07    0.47
   7   1   2    7.42    0.44
   7   1   2    6.73    0.48
   9  -2  -2    0.08    0.17
   9  -2  -2    0.82    0.21
   9  -2  -2    0.55    0.22
   8  -2  -2    1.05    0.21
   8  -2  -2    1.20    0.22
   8  -2  -2    1.29    0.23
   8  -2  -2    1.21    0.21
  -8   2   2    1.35    0.23
   7  -2  -2   14.08    0.47
   7  -2  -2   13.42    0.47
   7  -2  -2   13.56    0.43
   7  -2  -2   13.16    0.41
   7  -2  -2   14.46    0.47
   7  -2  -2   13.90    0.41
  -7   2   2   13.68    0.41
  -7   2   2   13.58    0.46
   6  -2  -2    0.24    0.11
   6  -2  -2    0.39    0.12
   6  -2  -2    0.22    0.10
   6  -2  -2    0.52    0.12
   6  -2  -2    0.55    0.12
  -6   2   2    0.30    0.11
  -6   2   2    0.27    0.12
  -6   2   2    0.24    0.11
  -6   2   2    0.29    0.11
   5  -2  -2   17.63    0.39
   5  -2  -2   18.36    0.43
   5  -2  -2   19.39    0.42
   5  -2  -2   18.56    0.43
  -5   2   2   18.31    0.44
  -5   2   2   18.52    0.43
  -5   2   2   18.81    0.42
  -5   2   2   18.21    0.41
   4  -2  -2    6.65    0.25
   4  -2  -2    6.92    0.22
   4  -2  -2    7.07    0.22
   4  -2  -2    7.12    0.22
  -4   2   2    6.67    0.21
  -4   2   2    6.83    0.25
  -4   2   2    6.73    0.24
  -4   2   2    6.60    0.24
   3  -2  -2    3.54    0.14
   3  -2  -2    3.99    0.14
   3  -2  -2    4.00    0.18
   3  -2  -2    3.71    0.15
  -3   2   2    3.62    0.13
  -3   2   2    3.56    0.18
  -3   2   2    4.01    0.15
  -3   2   2    3.84    0.19
   2  -2  -2   38.34    0.61
   2  -2  -2   37.98    0.51
   2  -2  -2   37.94    0.59
   2  -2  -2   38.18    0.54
   2  -2  -2   38.29    0.49
  -2   2   2   37.73    0.58
  -2   2   2   38.92    0.62
  -2   2   2   37.60    0.48
  -2   2   2   38.32    0.51
  -2   2   2   37.53    0.59
  -2   2   2   38.07    0.55
   1  -2  -2   32.91    0.45
   1  -2  -2   32.72    0.43
   1  -2  -2   34.19    0.54
   1  -2  -2   33.26    0.49
   1  -2  -2   33.86    0.54
  -1   2   2   32.61    0.52
  -1   2   2   33.29    0.53
  -1   2   2   33.01    0.55
  -1   2   2   32.49    0.45
  -1   2   2   33.67    0.41
  -1   2   2   33.18    0.51
   0  -2  -2    5.68    0.18
   0  -2  -2    5.67    0.20
   0  -2  -2    5.61    0.19
   0   2   2    5.93    0.21
   0   2   2    5.73    0.17
   0   2   2    5.57    0.16
   0   2   2    5.45    0.18
   0   2   2    5.17    0.20
  -1  -2  -2   47.17    0.72
  -1  -2  -2   48.41    0.59
  -1  -2  -2   46.94    0.69
  -1  -2  -2   47.95    0.75
   1   2   2   47.08    0.67
   1   2   2   47.66    0.75
   1   2   2   47.30    0.77
   1   2   2   47.58    0.70
  -2  -2  -2   73.83    1.08
  -2  -2  -2   73.56    1.00
   2   2   2   72.61    0.95
   2   2   2   72.65    1.04
   2   2   2   72.36    1.07
   2   2   2   71.55    1.12
  -3  -2  -2   12.57    0.41
  -3  -2  -2   12.79    0.40
  -3  -2  -2   13.16    0.33
   3   2   2   13.74    0.45
   3   2   2   12.21    0.28
   3   2   2   13.03    0.39
   3   2   2   13.24    0.39
  -4  -2  -2   10.47    0.42
  -4  -2  -2   11.21    0.40
  -4  -2  -2   10.58    0.40
   4   2   2   10.21    0.43
   4   2   2   10.48    0.39
   4   2   2   10.84    0.40
  -5  -2  -2    0.11    0.15
   5   2   2    0.03    0.15
   5   2   2    0.07    0.14
   5   2   2   -0.06    0.12
  -6  -2  -2    2.66    0.32
   6   2   2    2.73    0.29
   6   2   2    2.45    0.31
   6   2   2    2.89    0.37
  -7  -2  -2    0.32    0.22
   7   2   2    0.46    0.25
   7   2   2    0.62    0.24
   9  -3  -2    5.04    0.35
   9  -3  -2    6.37    0.39
   9  -3  -2    5.80    0.40
  -9   3   2    6.00    0.41
   8  -3  -2   11.18    0.45
   8  -3  -2   12.03    0.45
   8  -3  -2   11.31    0.45
   8  -3  -2   12.82    0.43
  -8   3   2   11.57    0.47
   7  -3  -2    8.64    0.34
   7  -3  -2    8.20    0.32
   7  -3  -2    8.58    0.36
   7  -3  -2    8.79    0.36
   7  -3  -2    8.24    0.35
   7  -3  -2    7.83    0.37
   7  -3  -2    8.13    0.32
  -7   3   2    8.25    0.37
  -7   3   2    7.99    0.35
  -7   3   2    8.18    0.33
   6  -3  -2    0.33    0.10
   6  -3  -2    0.22    0.10
   6  -3  -2    0.25    0.10
   6  -3  -2    0.06    0.09
   6  -3  -2    0.34    0.12
   6  -3  -2    0.40    0.11
  -6   3   2    0.24    0.11
  -6   3   2    0.27    0.12
  -6   3   2    0.26    0.12
   5  -3  -2    2.84    0.21
   5  -3  -2    2.32    0.18
   5  -3  -2    2.12    0.16
   5  -3  -2    2.47    0.15
   5  -3  -2    2.11    0.17
  -5   3   2    2.27    0.20
  -5   3   2    2.66    0.20
  -5   3   2    2.48    0.20
  -5   3   2    2.15    0.15
   4  -3  -2   49.97    0.74
   4  -3  -2   49.37    0.65
   4  -3  -2   49.55    0.75
   4  -3  -2   49.04    0.72
   4  -3  -2   48.94    0.80
  -4   3   2   49.00    0.84
  -4   3   2   48.12    0.64
  -4   3   2   48.95    0.79
   3  -3  -2    8.76    0.22
   3  -3  -2    8.40    0.20
   3  -3  -2    8.39    0.24
   3  -3  -2    8.65    0.30
   3  -3  -2    8.96    0.28
  -3   3   2    8.87    0.28
  -3   3   2    8.15    0.30
  -3   3   2    9.13    0.22
   2  -3  -2   10.23    0.23
   2  -3  -2    9.57    0.20
   2  -3  -2   10.26    0.29
   2  -3  -2    9.62    0.29
   2  -3  -2    9.84    0.26
  -2   3   2    9.51    0.30
  -2   3   2   10.11    0.29
  -2   3   2    9.79    0.23
  -2   3   2    9.77    0.28
  -2   3   2    9.91    0.25
   1  -3  -2   19.48    0.34
   1  -3  -2   20.12    0.40
   1  -3  -2   20.52    0.37
   1  -3  -2   19.92    0.42
   1  -3  -2   20.27    0.42
  -1   3   2   20.13    0.44
  -1   3   2   20.98    0.41
  -1   3   2   20.36    0.42
  -1   3   2   20.27    0.43
  -1   3   2   20.09    0.30
  -1   3   2   20.11    0.37
  -1   3   2   20.31    0.44
   0  -3  -2    1.93    0.15
   0  -3  -2    1.98    0.15
   0  -3  -2    2.28    0.18
   0   3   2    1.99    0.17
   0   3   2    2.16    0.17
   0   3   2    2.07    0.16
   0   3   2    2.08    0.18
   0   3   2    2.05    0.13
  -1  -3  -2   57.99    0.89
  -1  -3  -2   57.55    0.91
  -1  -3  -2   57.09    0.73
  -1  -3  -2   57.64    0.84
   1   3   2   57.91    0.93
   1   3   2   57.15    0.84
   1   3   2   58.67    0.85
   1   3   2   57.62    0.95
  -2  -3  -2   36.05    0.69
  -2  -3  -2   35.03    0.69
  -2  -3  -2   35.07    0.60
   2   3   2   35.82    0.71
   2   3   2   35.64    0.60
   2   3   2   35.76    0.66
   2   3   2   35.09    0.74
  -3  -3  -2   23.11    0.57
  -3  -3  -2   21.76    0.59
   3   3   2   22.93    0.64
   3   3   2   22.76    0.46
   3   3   2   23.67    0.59
   3   3   2   23.70    0.57
  -4  -3  -2    0.04    0.15
  -4  -3  -2    0.19    0.14
   4   3   2    0.38    0.16
   4   3   2    0.23    0.17
   4   3   2    0.08    0.14
  -5  -3  -2    2.10    0.29
   5   3   2    2.00    0.27
   5   3   2    2.06    0.32
   5   3   2    1.86    0.26
  -6  -3  -2    0.42    0.22
   6   3   2    0.53    0.22
   6   3   2    0.87    0.25
   6   3   2    0.75    0.25
   9  -4  -2    5.05    0.41
   9  -4  -2    4.78    0.37
   9  -4  -2    5.57    0.37
  -9   4   2    4.67    0.39
   8  -4  -2    1.81    0.25
   8  -4  -2    2.38    0.25
   8  -4  -2    2.31    0.25
   8  -4  -2    2.46    0.25
  -8   4   2    2.18    0.26
   7  -4  -2   24.04    0.59
   7  -4  -2   23.07    0.57
   7  -4  -2   24.02    0.63
   7  -4  -2   23.70    0.58
  -7   4   2   23.44    0.57
  -7   4   2   23.70    0.63
  -7   4   2   24.44    0.64
   6  -4  -2   14.99    0.43
   6  -4  -2   15.32    0.42
   6  -4  -2   15.15    0.47
   6  -4  -2   15.06    0.35
   6  -4  -2   15.13    0.41
  -6   4   2   15.18    0.44
  -6   4   2   15.42    0.49
   5  -4  -2   17.99    0.48
   5  -4  -2   17.66    0.40
   5  -4  -2   18.21    0.32
   5  -4  -2   17.79    0.42
   5  -4  -2   18.57    0.44
  -5   4   2   18.18    0.51
  -5   4   2   18.14    0.46
   4  -4  -2   30.28    0.64
   4  -4  -2   27.96    0.49
   4  -4  -2   29.13    0.60
   4  -4  -2   29.38    0.56
   4  -4  -2   29.74    0.53
  -4   4   2   30.20    0.65
  -4   4   2   30.69    0.61
   3  -4  -2    0.03    0.06
   3  -4  -2    0.15    0.09
   3  -4  -2    0.19    0.11
   3  -4  -2    0.07    0.07
   3  -4  -2    0.24    0.09
  -3   4   2   -0.04    0.09
  -3   4   2    0.04    0.08
  -3   4   2    0.09    0.07
  -3   4   2    0.15    0.10
  -3   4   2    0.14    0.07
   2  -4  -2   56.13    0.80
   2  -4  -2   55.31    0.89
   2  -4  -2   55.66    0.89
   2  -4  -2   55.55    0.77
   2  -4  -2   55.75    0.85
  -2   4   2   55.47    0.89
  -2   4   2   55.77    0.90
  -2   4   2   55.99    0.82
  -2   4   2   56.43    0.94
  -2   4   2   55.29    0.81
   1  -4  -2   22.11    0.50
   1  -4  -2   21.72    0.47
   1  -4  -2   21.90    0.47
  -1   4   2   22.01    0.35
  -1   4   2   22.68    0.50
  -1   4   2   22.59    0.50
  -1   4   2   22.33    0.48
  -1   4   2   22.59    0.52
  -1   4   2   21.05    0.50
   0  -4  -2   15.85    0.38
   0  -4  -2   15.43    0.40
   0  -4  -2   15.46    0.42
   0   4   2   15.62    0.43
   0   4   2   15.89    0.41
   0   4   2   15.32    0.41
   0   4   2   15.75    0.34
   0   4   2   15.31    0.44
  -1  -4  -2   16.68    0.45
  -1  -4  -2   16.43    0.46
  -1  -4  -2   16.58    0.39
   1   4   2   16.76    0.42
   1   4   2   16.91    0.49
   1   4   2   16.19    0.40
   1   4   2   16.16    0.48
  -2  -4  -2   11.97    0.41
  -2  -4  -2   12.25    0.42
   2   4   2   12.20    0.47
   2   4   2   11.71    0.38
   2   4   2   11.63    0.36
   2   4   2   12.01    0.45
  -3  -4  -2    1.47    0.23
  -3  -4  -2    1.34    0.19
   3   4   2    1.23    0.20
   3   4   2    1.24    0.23
   3   4   2    1.15    0.21
  -4  -4  -2   -0.04    0.14
  -4  -4  -2    0.10    0.17
   4   4   2   -0.06    0.17
   4   4   2    0.07    0.17
   4   4   2   -0.01    0.16
  -5  -4  -2    1.82    0.30
   5   4   2    2.28    0.35
   5   4   2    1.69    0.28
   5   4   2    1.78    0.28
   9  -5  -2    5.98    0.42
   9  -5  -2    6.09    0.40
   8  -5  -2    0.05    0.14
   8  -5  -2   -0.02    0.15
   8  -5  -2    0.15    0.14
   8  -5  -2   -0.09    0.11
  -8   5   2    0.19    0.17
  -8   5   2   -0.01    0.23
   7  -5  -2   12.61    0.44
   7  -5  -2   13.25    0.43
   7  -5  -2   12.23    0.41
   7  -5  -2   12.50    0.48
  -7   5   2   12.68    0.45
  -7   5   2   12.59    0.49
   6  -5  -2   24.28    0.54
   6  -5  -2   24.67    0.64
   6  -5  -2   26.59    0.60
   6  -5  -2   25.94    0.57
  -6   5   2   24.83    0.61
  -6   5   2   25.38    0.68
   5  -5  -2   -0.03    0.12
   5  -5  -2    0.05    0.08
   5  -5  -2    0.01    0.09
   5  -5  -2    0.12    0.11
   5  -5  -2    0.05    0.11
  -5   5   2    0.10    0.11
  -5   5   2   -0.06    0.11
   4  -5  -2    2.24    0.19
   4  -5  -2    2.02    0.22
   4  -5  -2    2.33    0.21
   4  -5  -2    2.37    0.16
   4  -5  -2    2.31    0.18
  -4   5   2    2.03    0.21
  -4   5   2    2.64    0.24
  -4   5   2    1.92    0.18
   3  -5  -2    4.18    0.20
   3  -5  -2    4.45    0.24
   3  -5  -2    4.08    0.18
   3  -5  -2    4.43    0.26
   3  -5  -2    3.95    0.26
  -3   5   2    4.51    0.28
  -3   5   2    3.78    0.25
  -3   5   2    4.59    0.20
  -3   5   2    4.39    0.25
   2  -5  -2    0.94    0.12
   2  -5  -2    1.13    0.16
   2  -5  -2    1.10    0.15
   2  -5  -2    1.11    0.12
   2  -5  -2    1.01    0.14
  -2   5   2    1.00    0.16
  -2   5   2    0.74    0.14
  -2   5   2    1.06    0.16
  -2   5   2    1.05    0.16
  -2   5   2    1.10    0.14
   1  -5  -2   35.01    0.68
   1  -5  -2   33.82    0.70
   1  -5  -2   35.05    0.67
  -1   5   2   34.60    0.71
  -1   5   2   34.05    0.68
  -1   5   2   34.18    0.73
  -1   5   2   36.06    0.73
   0  -5  -2   24.65    0.53
   0  -5  -2   24.94    0.58
   0  -5  -2   24.04    0.60
   0   5   2   25.28    0.48
   0   5   2   25.58    0.59
   0   5   2   25.08    0.63
   0   5   2   25.62    0.62
  -1  -5  -2   16.08    0.50
  -1  -5  -2   18.08    0.51
   1   5   2   15.80    0.43
   1   5   2   15.94    0.54
   1   5   2   16.34    0.54
   1   5   2   16.17    0.46
  -2  -5  -2    0.42    0.15
  -2  -5  -2    0.35    0.14
   2   5   2    0.38    0.15
   2   5   2    0.11    0.17
   2   5   2    0.30    0.17
   2   5   2    0.25    0.12
  -3  -5  -2    2.34    0.28
  -3  -5  -2    2.47    0.31
   3   5   2    2.46    0.31
   3   5   2    1.82    0.25
   3   5   2    2.42    0.32
  -4  -5  -2    1.48    0.26
  -4  -5  -2    2.16    0.32
   4   5   2    2.39    0.31
   4   5   2    2.06    0.32
   4   5   2    1.24    0.27
   9  -6  -2    0.10    0.19
   9  -6  -2    0.01    0.16
   9  -6  -2    0.04    0.18
  -9   6   2   -0.08    0.18
   8  -6  -2    4.02    0.33
   8  -6  -2    4.20    0.38
   8  -6  -2    3.61    0.38
  -8   6   2    3.77    0.38
  -8   6   2    4.02    0.34
   7  -6  -2    1.63    0.22
   7  -6  -2    1.51    0.26
   7  -6  -2    1.35    0.24
  -7   6   2    1.39    0.22
  -7   6   2    1.20    0.24
   6  -6  -2   36.88    0.88
   6  -6  -2   39.19    0.75
   6  -6  -2   39.00    0.80
   6  -6  -2   38.42    0.86
  -6   6   2   38.70    0.83
  -6   6   2   36.75    0.90
   5  -6  -2    6.32    0.34
   5  -6  -2    5.12    0.30
   5  -6  -2    5.65    0.36
   5  -6  -2    5.81    0.28
  -5   6   2    5.42    0.36
  -5   6   2    5.98    0.34
   4  -6  -2    7.87    0.37
   4  -6  -2    6.95    0.35
   4  -6  -2    7.77    0.30
   4  -6  -2    7.74    0.33
   4  -6  -2    7.50    0.29
  -4   6   2    7.34    0.36
  -4   6   2    7.57    0.39
  -4   6   2    7.25    0.34
   3  -6  -2    0.21    0.13
   3  -6  -2    0.28    0.14
   3  -6  -2    0.28    0.13
   3  -6  -2    0.20    0.09
   3  -6  -2    0.23    0.10
  -3   6   2    0.15    0.14
  -3   6   2    0.27    0.13
  -3   6   2    0.10    0.13
   2  -6  -2    0.90    0.17
   2  -6  -2    0.72    0.13
   2  -6  -2    0.98    0.15
   2  -6  -2    1.07    0.17
   2  -6  -2    0.91    0.18
  -2   6   2    1.03    0.19
  -2   6   2    0.85    0.17
  -2   6   2    0.51    0.15
  -2   6   2    1.07    0.16
  -2   6   2    1.08    0.19
   1  -6  -2   18.43    0.49
   1  -6  -2   19.13    0.55
   1  -6  -2   18.95    0.53
  -1   6   2   18.56    0.58
  -1   6   2   18.68    0.53
  -1   6   2   18.40    0.55
  -1   6   2   19.60    0.56
  -1   6   2   17.65    0.53
   0  -6  -2    1.43    0.20
   0  -6  -2    1.63    0.23
   0   6   2    1.53    0.23
   0   6   2    1.74    0.24
   0   6   2    1.88    0.22
  -1  -6  -2    3.74    0.32
  -1  -6  -2    3.57    0.30
   1   6   2    4.70    0.38
   1   6   2    3.99    0.36
   1   6   2    3.73    0.28
  -2  -6  -2    0.10    0.17
  -2  -6  -2    0.91    0.22
   2   6   2    0.62    0.22
   2   6   2    0.19    0.19
  -3  -6  -2    4.23    0.42
  -3  -6  -2    4.13    0.36
   3   6   2    4.90    0.44
   3   6   2    4.61    0.45
   9  -7  -2    2.23    0.30
   9  -7  -2    2.22    0.32
   9  -7  -2    2.55    0.35
  -9   7   2    1.75    0.32
   8  -7  -2    0.68    0.23
   8  -7  -2    0.57    0.20
   8  -7  -2    0.74    0.23
  -8   7   2    0.89    0.23
  -8   7   2    0.54    0.22
   7  -7  -2   13.19    0.55
   7  -7  -2   11.07    0.47
   7  -7  -2   11.39    0.55
  -7   7   2   10.93    0.49
  -7   7   2   12.04    0.57
   6  -7  -2    3.95    0.36
   6  -7  -2    3.67    0.33
   6  -7  -2    4.56    0.33
  -6   7   2    3.82    0.36
  -6   7   2    3.69    0.33
   5  -7  -2    0.02    0.13
   5  -7  -2    0.49    0.18
   5  -7  -2    0.50    0.18
  -5   7   2    0.35    0.15
  -5   7   2    0.34    0.17
  -5   7   2    0.32    0.18
   4  -7  -2    6.11    0.34
   4  -7  -2    5.98    0.36
   4  -7  -2    5.66    0.37
  -4   7   2    5.90    0.35
  -4   7   2    6.53    0.40
  -4   7   2    5.81    0.36
   3  -7  -2   -0.04    0.10
   3  -7  -2   -0.04    0.13
   3  -7  -2    0.10    0.14
   3  -7  -2    0.19    0.14
  -3   7   2    0.14    0.17
  -3   7   2   -0.25    0.12
  -3   7   2    0.36    0.16
   2  -7  -2   19.98    0.56
   2  -7  -2   20.66    0.62
   2  -7  -2   19.30    0.57
  -2   7   2   21.02    0.62
  -2   7   2   19.24    0.62
  -2   7   2   19.93    0.62
  -2   7   2   20.39    0.63
   1  -7  -2    0.35    0.16
   1  -7  -2    0.50    0.17
  -1   7   2    0.43    0.16
  -1   7   2    0.60    0.20
  -1   7   2    0.29    0.17
  -1   7   2    0.24    0.17
  -1   7   2    0.40    0.18
   0  -7  -2    2.48    0.28
   0  -7  -2    3.21    0.31
   0   7   2    2.57    0.32
   0   7   2    2.45    0.29
   0   7   2    2.42    0.28
  -1  -7  -2    8.30    0.45
  -1  -7  -2    8.36    0.46
   1   7   2    8.57    0.43
   1   7   2    8.52    0.51
   1   7   2    7.33    0.49
  -2  -7  -2    2.42    0.32
  -2  -7  -2    3.11    0.35
   2   7   2    3.01    0.39
   2   7   2    2.83    0.38
   8  -8  -2    0.25    0.23
   8  -8  -2    0.06    0.20
   8  -8  -2   -0.02    0.20
  -8   8   2    0.13    0.23
  -8   8   2    0.09    0.21
   7  -8  -2    5.32    0.45
   7  -8  -2    5.38    0.46
   7  -8  -2    5.09    0.39
  -7   8   2    4.94    0.42
  -7   8   2    4.50    0.44
   6  -8  -2    0.17    0.18
   6  -8  -2   -0.12    0.17
   6  -8  -2   -0.01    0.16
  -6   8   2    0.10    0.17
  -6   8   2    0.09    0.19
   5  -8  -2    4.44    0.34
   5  -8  -2    4.98    0.41
   5  -8  -2    4.36    0.37
  -5   8   2    3.24    0.36
  -5   8   2    3.78    0.33
  -5   8   2    4.11    0.37
   4  -8  -2    3.83    0.35
   4  -8  -2    4.37    0.35
   4  -8  -2    4.69    0.39
  -4   8   2    3.82    0.34
  -4   8   2    4.46    0.40
  -4   8   2    4.71    0.40
   3  -8  -2    1.82    0.27
   3  -8  -2    1.31    0.22
   3  -8  -2    1.72    0.24
  -3   8   2    1.63    0.25
  -3   8   2    1.57    0.27
  -3   8   2    1.32    0.27
   2  -8  -2    3.14    0.33
   2  -8  -2    3.10    0.32
  -2   8   2    2.88    0.32
  -2   8   2    2.57    0.32
  -2   8   2    2.66    0.32
  -2   8   2    2.39    0.31
   1  -8  -2    1.02    0.23
   1  -8  -2    0.50    0.20
  -1   8   2    0.32    0.18
  -1   8   2    1.06    0.26
  -1   8   2    0.20    0.19
   0  -8  -2    3.43    0.36
   0  -8  -2    4.23    0.39
   0   8   2    2.80    0.36
   0   8   2    2.69    0.35
   0   8   2    3.35    0.33
   7  -9  -2    0.12    0.24
   7  -9  -2    0.02    0.22
   7  -9  -2   -0.02    0.19
  -7   9   2    0.42    0.26
  -7   9   2   -0.19    0.20
   6  -9  -2    6.64    0.49
   6  -9  -2    7.16    0.48
   6  -9  -2    7.08    0.45
  -6   9   2    6.80    0.52
  -6   9   2    6.44    0.49
   5  -9  -2    0.32    0.20
   5  -9  -2    0.09    0.20
   5  -9  -2    0.26    0.20
  -5   9   2    0.39    0.22
  -5   9   2    0.18    0.20
  -5   9   2    0.46    0.24
   4  -9  -2    1.48    0.26
   4  -9  -2    1.43    0.29
   4  -9  -2    1.20    0.25
  -4   9   2    1.03    0.27
  -4   9   2    1.47    0.26
  -4   9   2    1.15    0.27
   3  -9  -2    1.18    0.25
   3  -9  -2    0.91    0.26
  -3   9   2    0.83    0.24
  -3   9   2    0.41    0.22
  -3   9   2    0.78    0.27
   2  -9  -2   -0.08    0.18
   2  -9  -2    0.02    0.16
  -2   9   2    0.08    0.19
  -2   9   2   -0.30    0.21
  -2   9   2   -0.10    0.19
  -3  10  -3    0.24    0.21
  -3  10  -3    0.07    0.18
   3 -10   3   -0.17    0.19
   3 -10   3    0.14    0.18
  -4  10  -3   25.97    0.87
  -4  10  -3   27.43    0.86
  -4  10  -3   25.62    0.85
   4 -10   3   27.34    0.79
   4 -10   3   25.94    0.78
   4 -10   3   26.54    0.81
  -5  10  -3    0.60    0.26
  -5  10  -3    0.23    0.24
  -5  10  -3    0.75    0.25
   5 -10   3    0.85    0.24
   5 -10   3    0.59    0.21
   5 -10   3    0.77    0.24
  -6  10  -3    2.87    0.41
  -6  10  -3    2.58    0.35
   6 -10   3    2.67    0.35
   6 -10   3    2.74    0.34
   6 -10   3    3.44    0.38
   0   9  -3    0.23    0.22
   0   9  -3    0.30    0.21
   0  -9   3    0.34    0.20
  -1   9  -3    0.01    0.18
  -1   9  -3    0.36    0.21
   1  -9   3    0.03    0.17
   1  -9   3    0.12    0.17
  -2   9  -3    0.18    0.18
  -2   9  -3    0.07    0.19
  -2   9  -3    0.00    0.16
   2  -9   3    0.33    0.17
   2  -9   3   -0.01    0.17
  -3   9  -3    0.09    0.17
  -3   9  -3   -0.11    0.15
  -3   9  -3    0.16    0.18
   3  -9   3    0.05    0.16
   3  -9   3    0.09    0.16
   3  -9   3   -0.15    0.16
  -4   9  -3    9.38    0.50
  -4   9  -3    9.27    0.52
   4  -9   3    9.11    0.45
   4  -9   3    9.20    0.47
   4  -9   3    9.50    0.48
   4  -9   3    9.24    0.45
  -5   9  -3    1.15    0.26
  -5   9  -3    0.63    0.23
  -5   9  -3    1.24    0.25
   5  -9   3    0.76    0.23
   5  -9   3    1.16    0.24
   5  -9   3    0.91    0.21
  -6   9  -3    3.03    0.37
  -6   9  -3    3.87    0.37
  -6   9  -3    2.55    0.33
   6  -9   3    3.34    0.35
   6  -9   3    3.47    0.34
   6  -9   3    3.67    0.37
  -7   9  -3   -0.27    0.17
   7  -9   3   -0.25    0.17
   7  -9   3    0.19    0.22
   7  -9   3    0.00    0.20
   2   8  -3    5.72    0.47
   2   8  -3    6.21    0.52
   2   8  -3    5.91    0.44
  -2  -8   3    6.87    0.47
   1   8  -3    1.12    0.25
   1   8  -3    1.49    0.27
  -1  -8   3    2.21    0.29
   0   8  -3    4.66    0.40
   0   8  -3    4.56    0.39
   0  -8   3    4.87    0.37
  -1   8  -3   21.82    0.63
  -1   8  -3   22.33    0.67
  -1   8  -3   22.14    0.70
   1  -8   3   23.13    0.67
   1  -8   3   22.53    0.62
   1  -8   3   21.97    0.64
   1  -8   3   21.78    1.00
  -2   8  -3    0.24    0.16
  -2   8  -3    0.18    0.16
  -2   8  -3    0.40    0.19
   2  -8   3    0.22    0.16
   2  -8   3    0.26    0.14
   2  -8   3   -0.05    0.13
   2  -8   3    0.15    0.15
  -3   8  -3    5.86    0.34
  -3   8  -3    6.11    0.39
  -3   8  -3    6.46    0.39
   3  -8   3    5.90    0.37
   3  -8   3    5.89    0.36
   3  -8   3    5.61    0.34
   3  -8   3    6.36    0.36
  -4   8  -3    4.25    0.35
  -4   8  -3    5.23    0.38
   4  -8   3    4.94    0.34
   4  -8   3    4.89    0.34
   4  -8   3    4.68    0.33
   4  -8   3    5.06    0.36
  -5   8  -3    5.53    0.36
  -5   8  -3    4.67    0.38
  -5   8  -3    5.20    0.39
   5  -8   3    4.99    0.36
   5  -8   3    4.64    0.36
   5  -8   3    4.70    0.35
   5  -8   3    4.84    0.35
  -6   8  -3    0.66    0.21
  -6   8  -3    1.06    0.21
   6  -8   3    1.34    0.24
   6  -8   3    1.33    0.25
   6  -8   3    1.48    0.25
  -7   8  -3   11.82    0.60
   7  -8   3   11.87    0.55
   7  -8   3   12.24    0.53
   7  -8   3   11.32    0.52
  -8   8  -3    1.36    0.31
   8  -8   3    0.83    0.25
   8  -8   3    0.92    0.26
   8  -8   3    0.57    0.24
   3   7  -3    2.96    0.37
   3   7  -3    2.43    0.33
   3   7  -3    2.18    0.29
  -3  -7   3    2.33    0.30
  -3  -7   3    2.77    0.32
   2   7  -3    0.19    0.18
   2   7  -3    0.02    0.16
   2   7  -3    0.11    0.18
  -2  -7   3    0.27    0.16
  -2  -7   3   -0.05    0.16
   1   7  -3    2.36    0.27
   1   7  -3    2.33    0.28
   1   7  -3    2.82    0.31
  -1  -7   3    2.32    0.24
  -1  -7   3    2.61    0.28
   0   7  -3    0.53    0.16
   0   7  -3    0.63    0.16
   0   7  -3    0.19    0.16
   0   7  -3    0.49    0.18
   0  -7   3    0.34    0.15
   0  -7   3    0.25    0.15
   0  -7   3    0.48    0.14
   0  -7   3    0.29    0.13
  -1   7  -3    0.25    0.13
  -1   7  -3    0.17    0.14
  -1   7  -3    0.34    0.15
   1  -7   3   -0.10    0.10
   1  -7   3    0.05    0.12
   1  -7   3    0.15    0.13
   1  -7   3   -0.05    0.12
   1  -7   3   -0.13    0.09
  -2   7  -3    1.47    0.20
  -2   7  -3    2.01    0.21
  -2   7  -3    1.59    0.22
   2  -7   3    1.81    0.22
   2  -7   3    1.71    0.21
   2  -7   3    1.85    0.21
   2  -7   3    1.63    0.21
  -3   7  -3    3.01    0.29
  -3   7  -3    3.72    0.32
  -3   7  -3    3.15    0.25
   3  -7   3    3.17    0.27
   3  -7   3    3.75    0.29
   3  -7   3    3.48    0.27
   3  -7   3    3.44    0.27
  -4   7  -3    7.93    0.39
  -4   7  -3    7.83    0.41
   4  -7   3    7.56    0.36
   4  -7   3    7.26    0.36
   4  -7   3    7.11    0.37
   4  -7   3    7.36    0.36
  -5   7  -3    2.78    0.26
  -5   7  -3    1.98    0.24
  -5   7  -3    2.19    0.28
   5  -7   3    1.89    0.23
   5  -7   3    2.06    0.24
   5  -7   3    1.63    0.22
   5  -7   3    2.19    0.25
  -6   7  -3   17.18    0.50
  -6   7  -3   17.81    0.64
   6  -7   3   16.35    0.55
   6  -7   3   16.75    0.56
   6  -7   3   17.72    0.58
   6  -7   3   17.35    0.57
  -7   7  -3    0.54    0.23
   7  -7   3    0.63    0.20
   7  -7   3    0.87    0.21
   7  -7   3    0.33    0.19
  -8   7  -3    0.45    0.22
   8  -7   3    0.36    0.20
   8  -7   3   -0.28    0.17
   8  -7   3    0.27    0.20
  -9   7  -3    2.06    0.33
   9  -7   3    2.36    0.33
   9  -7   3    2.70    0.34
   9  -7   3    2.60    0.35
   4   6  -3    0.26    0.20
   4   6  -3    0.32    0.22
  -4  -6   3    0.11    0.18
   3   6  -3    4.99    0.41
   3   6  -3    4.89    0.42
   3   6  -3    5.00    0.35
  -3  -6   3    5.05    0.36
  -3  -6   3    5.08    0.36
   2   6  -3    0.00    0.14
   2   6  -3    0.16    0.15
   2   6  -3    0.10    0.16
  -2  -6   3    0.01    0.12
  -2  -6   3    0.10    0.13
   1   6  -3    8.85    0.39
   1   6  -3    7.60    0.39
   1   6  -3    8.81    0.40
  -1  -6   3    8.63    0.36
  -1  -6   3    8.45    0.31
  -1  -6   3    8.73    0.37
   0   6  -3    3.38    0.24
   0   6  -3    2.81    0.22
   0   6  -3    2.91    0.20
   0   6  -3    2.58    0.24
   0   6  -3    2.55    0.24
   0  -6   3    2.60    0.22
   0  -6   3    3.26    0.28
   0  -6   3    2.87    0.22
   0  -6   3    2.58    0.20
   0  -6   3    2.85    0.26
  -1   6  -3   59.86    1.00
  -1   6  -3   58.22    0.94
  -1   6  -3   59.10    1.04
  -1   6  -3   59.22    1.00
  -1   6  -3   57.92    0.90
   1  -6   3   59.03    1.02
   1  -6   3   58.55    0.92
   1  -6   3   57.32    0.97
   1  -6   3   58.32    0.89
   1  -6   3   58.40    1.02
  -2   6  -3   33.04    0.65
  -2   6  -3   33.74    0.72
  -2   6  -3   33.83    0.72
  -2   6  -3   34.09    0.67
   2  -6   3   31.50    0.68
   2  -6   3   32.81    0.55
   2  -6   3   32.79    0.64
   2  -6   3   31.83    0.66
   2  -6   3   32.49    0.69
  -3   6  -3    1.25    0.14
  -3   6  -3    1.33    0.19
  -3   6  -3    0.96    0.17
   3  -6   3    1.52    0.19
   3  -6   3    1.23    0.18
   3  -6   3    1.26    0.12
   3  -6   3    1.24    0.14
   3  -6   3    1.33    0.19
   3  -6   3    1.54    0.18
  -4   6  -3   63.21    1.06
  -4   6  -3   62.79    1.04
  -4   6  -3   61.44    1.13
   4  -6   3   62.75    1.05
   4  -6   3   61.90    1.05
   4  -6   3   62.88    1.06
   4  -6   3   64.21    1.08
   4  -6   3   62.62    0.88
  -5   6  -3   12.41    0.48
  -5   6  -3   12.76    0.39
  -5   6  -3   12.88    0.43
   5  -6   3   12.98    0.44
   5  -6   3   12.60    0.44
   5  -6   3   12.90    0.46
   5  -6   3   12.57    0.33
   5  -6   3   12.34    0.43
  -6   6  -3    0.95    0.19
  -6   6  -3    1.10    0.21
   6  -6   3    0.77    0.19
   6  -6   3    0.88    0.19
   6  -6   3    1.01    0.20
   6  -6   3    0.87    0.19
  -7   6  -3    0.60    0.20
  -7   6  -3    0.89    0.22
   7  -6   3    0.73    0.19
   7  -6   3    0.58    0.19
   7  -6   3    0.89    0.21
   7  -6   3    0.75    0.20
  -8   6  -3    2.15    0.30
  -8   6  -3    1.59    0.28
   8  -6   3    1.88    0.27
   8  -6   3    1.80    0.28
  -9   6  -3    0.53    0.24
  -9   6  -3    0.70    0.25
   9  -6   3    0.89    0.25
   9  -6   3    0.95    0.27
   5   5  -3    1.31    0.29
   5   5  -3    1.32    0.26
   5   5  -3    1.73    0.28
  -5  -5   3    1.47    0.27
   4   5  -3    9.51    0.48
   4   5  -3    9.66    0.43
   4   5  -3    9.75    0.50
  -4  -5   3    9.04    0.41
  -4  -5   3   10.12    0.48
   3   5  -3   13.92    0.48
   3   5  -3   13.61    0.53
   3   5  -3   14.15    0.53
  -3  -5   3   14.58    0.49
  -3  -5   3   14.33    0.51
   2   5  -3   16.94    0.53
   2   5  -3   17.01    0.53
   2   5  -3   17.58    0.51
  -2  -5   3   16.39    0.40
  -2  -5   3   17.48    0.51
  -2  -5   3   16.58    0.48
   1   5  -3    4.34    0.27
   1   5  -3    4.57    0.21
   1   5  -3    4.58    0.28
   1   5  -3    4.59    0.20
   1   5  -3    5.07    0.28
  -1  -5   3    4.22    0.20
  -1  -5   3    4.94    0.28
  -1  -5   3    4.57    0.25
  -1  -5   3    4.15    0.25
   0   5  -3    3.93    0.22
   0   5  -3    4.30    0.25
   0   5  -3    4.49    0.23
   0   5  -3    4.23    0.24
   0   5  -3    4.40    0.21
   0  -5   3    4.20    0.20
   0  -5   3    4.11    0.23
   0  -5   3    4.79    0.26
   0  -5   3    4.77    0.26
   0  -5   3    4.28    0.16
   0  -5   3    4.34    0.22
  -1   5  -3    0.53    0.11
  -1   5  -3    0.44    0.10
  -1   5  -3    0.32    0.11
  -1   5  -3    0.40    0.12
  -1   5  -3    0.54    0.11
   1  -5   3    0.51    0.09
   1  -5   3    0.50    0.12
   1  -5   3    0.54    0.12
   1  -5   3    0.32    0.12
   1  -5   3    0.50    0.10
  -2   5  -3    3.31    0.13
  -2   5  -3    3.10    0.18
  -2   5  -3    3.54    0.22
  -2   5  -3    2.86    0.22
  -2   5  -3    3.16    0.22
   2  -5   3    2.93    0.22
   2  -5   3    3.25    0.22
   2  -5   3    3.06    0.16
   2  -5   3    3.10    0.20
   2  -5   3    3.26    0.15
   2  -5   3    3.36    0.19
  -3   5  -3   22.72    0.56
  -3   5  -3   22.24    0.41
  -3   5  -3   21.49    0.50
  -3   5  -3   23.11    0.52
   3  -5   3   22.28    0.49
   3  -5   3   22.56    0.52
   3  -5   3   23.07    0.53
   3  -5   3   22.11    0.50
   3  -5   3   22.05    0.38
   3  -5   3   21.97    0.41
  -4   5  -3   29.07    0.60
  -4   5  -3   29.40    0.56
  -4   5  -3   29.87    0.68
  -4   5  -3   29.00    0.47
   4  -5   3   29.77    0.64
   4  -5   3   29.50    0.61
   4  -5   3   30.34    0.63
   4  -5   3   29.41    0.52
   4  -5   3   30.49    0.64
  -5   5  -3    6.71    0.34
  -5   5  -3    6.96    0.26
  -5   5  -3    7.16    0.36
  -5   5  -3    7.50    0.30
   5  -5   3    6.99    0.26
   5  -5   3    7.14    0.34
   5  -5   3    7.62    0.35
   5  -5   3    7.14    0.31
  -6   5  -3   -0.22    0.11
  -6   5  -3    0.02    0.13
   6  -5   3    0.04    0.12
   6  -5   3    0.03    0.13
   6  -5   3    0.06    0.12
   6  -5   3    0.05    0.10
  -7   5  -3   13.89    0.53
  -7   5  -3   14.66    0.54
   7  -5   3   14.33    0.53
   7  -5   3   14.40    0.51
   7  -5   3   13.99    0.53
   7  -5   3   14.22    0.44
  -8   5  -3    0.25    0.19
  -8   5  -3    0.14    0.18
   8  -5   3    0.02    0.17
   8  -5   3   -0.07    0.14
   8  -5   3    0.05    0.18
  -9   5  -3   -0.02    0.21
   9  -5   3   -0.12    0.19
   9  -5   3    0.02    0.19
   6   4  -3    0.53    0.23
   6   4  -3    0.46    0.22
   6   4  -3    0.81    0.24
  -6  -4   3    0.48    0.22
   5   4  -3    2.07    0.30
   5   4  -3    2.26    0.29
  -5  -4   3    2.14    0.28
   4   4  -3   15.38    0.54
   4   4  -3   15.85    0.49
   4   4  -3   16.11    0.58
  -4  -4   3   15.15    0.47
  -4  -4   3   16.48    0.55
   3   4  -3   29.51    0.73
   3   4  -3   28.83    0.64
   3   4  -3   29.53    0.70
  -3  -4   3   28.81    0.64
  -3  -4   3   29.20    0.68
  -3  -4   3   29.02    0.55
   2   4  -3   13.62    0.41
   2   4  -3   13.69    0.28
   2   4  -3   13.73    0.44
   2   4  -3   13.85    0.43
   2   4  -3   13.36    0.30
  -2  -4   3   13.51    0.41
  -2  -4   3   13.82    0.32
  -2  -4   3   14.09    0.39
   1   4  -3    2.88    0.15
   1   4  -3    2.69    0.21
   1   4  -3    2.63    0.15
   1   4  -3    2.66    0.20
   1   4  -3    2.66    0.21
  -1  -4   3    2.63    0.21
  -1  -4   3    2.57    0.18
  -1  -4   3    2.70    0.19
  -1  -4   3    2.56    0.14
   0   4  -3    0.08    0.08
   0   4  -3    0.02    0.08
   0   4  -3    0.05    0.08
   0   4  -3    0.37    0.09
   0   4  -3    0.26    0.08
   0  -4   3    0.09    0.07
   0  -4   3    0.12    0.08
   0  -4   3    0.12    0.09
   0  -4   3    0.02    0.08
   0  -4   3    0.14    0.06
  -1   4  -3   18.45    0.35
  -1   4  -3   18.61    0.39
  -1   4  -3   18.78    0.40
  -1   4  -3   17.92    0.42
  -1   4  -3   18.12    0.42
   1  -4   3   17.68    0.42
   1  -4   3   18.06    0.39
   1  -4   3   18.79    0.43
   1  -4   3   17.77    0.36
   1  -4   3   18.04    0.35
   1  -4   3   18.46    0.36
  -2   4  -3   75.49    1.07
  -2   4  -3   73.13    1.06
  -2   4  -3   74.61    1.11
  -2   4  -3   74.38    0.97
   2  -4   3   75.44    1.05
   2  -4   3   74.94    0.96
   2  -4   3   74.64    0.98
   2  -4   3   75.96    1.09
   2  -4   3   74.16    1.02
   2  -4   3   75.64    1.09
  -3   4  -3   10.63    0.21
  -3   4  -3   10.69    0.33
  -3   4  -3   11.09    0.31
  -3   4  -3   11.33    0.33
  -3   4  -3   10.65    0.35
   3  -4   3   10.97    0.34
   3  -4   3   10.73    0.31
   3  -4   3   10.49    0.27
   3  -4   3   10.65    0.33
  -4   4  -3    2.02    0.19
  -4   4  -3    2.01    0.16
  -4   4  -3    1.60    0.19
  -4   4  -3    2.08    0.18
  -4   4  -3    1.96    0.14
   4  -4   3    2.05    0.18
   4  -4   3    2.07    0.20
   4  -4   3    2.06    0.16
   4  -4   3    1.68    0.18
  -5   4  -3    0.08    0.11
  -5   4  -3    0.12    0.07
  -5   4  -3    0.28    0.12
   5  -4   3    0.09    0.07
   5  -4   3    0.10    0.11
   5  -4   3    0.22    0.10
   5  -4   3    0.11    0.11
   5  -4   3    0.06    0.10
  -6   4  -3    6.82    0.36
  -6   4  -3    6.49    0.35
   6  -4   3    5.87    0.32
   6  -4   3    6.67    0.30
   6  -4   3    6.17    0.34
   6  -4   3    6.63    0.35
  -7   4  -3    1.14    0.21
  -7   4  -3    1.23    0.23
   7  -4   3    1.01    0.18
   7  -4   3    1.09    0.22
   7  -4   3    1.14    0.20
   7  -4   3    0.95    0.21
  -8   4  -3    1.48    0.27
   8  -4   3    1.70    0.24
   8  -4   3    1.40    0.27
   8  -4   3    1.27    0.24
  -9   4  -3    8.47    0.54
   9  -4   3    7.41    0.46
   9  -4   3    7.44    0.45
   9  -4   3    7.81    0.53
   7   3  -3    2.16    0.34
   7   3  -3    2.20    0.31
   7   3  -3    2.03    0.30
   6   3  -3    8.57    0.46
   6   3  -3    9.13    0.47
   6   3  -3    8.83    0.49
  -6  -3   3    7.41    0.45
   5   3  -3    4.89    0.33
   5   3  -3    4.87    0.38
   5   3  -3    4.92    0.29
  -5  -3   3    4.76    0.35
  -5  -3   3    4.98    0.29
   4   3  -3    0.55    0.16
   4   3  -3    0.80    0.17
   4   3  -3    0.46    0.13
  -4  -3   3    0.62    0.13
  -4  -3   3    0.63    0.16
   3   3  -3    4.93    0.25
   3   3  -3    4.89    0.28
   3   3  -3    5.14    0.29
   3   3  -3    4.84    0.17
  -3  -3   3    4.97    0.27
  -3  -3   3    4.73    0.23
  -3  -3   3    4.91    0.22
   2   3  -3    6.03    0.27
   2   3  -3    5.59    0.18
   2   3  -3    5.71    0.25
   2   3  -3    5.43    0.25
   2   3  -3    5.58    0.15
  -2  -3   3    5.88    0.23
  -2  -3   3    5.78    0.26
  -2  -3   3    5.69    0.17
   1   3  -3   34.59    0.60
   1   3  -3   34.76    0.61
   1   3  -3   33.84    0.53
   1   3  -3   32.43    0.51
  -1  -3   3   33.40    0.48
  -1  -3   3   34.80    0.56
  -1  -3   3   33.55    0.59
  -1  -3   3   33.75    0.61
  -1  -3   3   33.69    0.61
   0   3  -3    2.97    0.18
   0   3  -3    2.47    0.15
   0   3  -3    2.93    0.16
   0   3  -3    2.65    0.15
   0  -3   3    2.82    0.15
   0  -3   3    2.81    0.15
   0  -3   3    2.69    0.18
   0  -3   3    2.53    0.17
   0  -3   3    2.71    0.11
  -1   3  -3  148.82    1.80
  -1   3  -3  148.67    1.81
  -1   3  -3  147.73    1.83
  -1   3  -3  148.53    1.74
   1  -3   3  146.43    1.76
   1  -3   3  144.74    1.75
   1  -3   3  147.12    1.76
   1  -3   3  148.50    1.82
   1  -3   3  149.30    1.82
   1  -3   3  145.99    1.73
  -2   3  -3   30.46    0.42
  -2   3  -3   30.29    0.57
  -2   3  -3   30.66    0.53
  -2   3  -3   30.56    0.53
  -2   3  -3   30.54    0.51
   2  -3   3   30.50    0.51
   2  -3   3   30.51    0.49
   2  -3   3   30.50    0.54
   2  -3   3   30.90    0.55
  -3   3  -3   67.37    0.90
  -3   3  -3   66.92    0.98
  -3   3  -3   66.28    1.01
  -3   3  -3   65.47    0.95
   3  -3   3   65.07    0.94
   3  -3   3   66.17    0.91
   3  -3   3   64.93    0.83
   3  -3   3   66.78    0.98
   3  -3   3   66.15    0.98
  -4   3  -3   71.95    1.10
  -4   3  -3   69.93    1.03
  -4   3  -3   68.96    0.87
  -4   3  -3   71.40    1.09
   4  -3   3   69.06    1.08
   4  -3   3   70.91    1.04
   4  -3   3   72.57    1.02
   4  -3   3   71.19    0.94
   4  -3   3   73.20    1.09
  -5   3  -3   37.05    0.75
  -5   3  -3   38.12    0.75
   5  -3   3   39.45    0.76
   5  -3   3   37.22    0.75
   5  -3   3   37.74    0.69
   5  -3   3   37.51    0.64
   5  -3   3   37.86    0.72
  -6   3  -3    4.56    0.31
  -6   3  -3    4.95    0.29
   6  -3   3    4.88    0.28
   6  -3   3    4.59    0.25
   6  -3   3    4.60    0.31
   6  -3   3    5.05    0.31
   6  -3   3    5.32    0.30
  -7   3  -3    6.27    0.38
  -7   3  -3    5.79    0.33
   7  -3   3    5.63    0.34
   7  -3   3    6.23    0.40
   7  -3   3    5.77    0.38
  -8   3  -3    6.17    0.44
   8  -3   3    5.77    0.45
   8  -3   3    6.02    0.39
   8  -3   3    5.99    0.41
  -9   3  -3    3.42    0.40
   9  -3   3    3.84    0.43
   9  -3   3    2.56    0.32
   9  -3   3    2.72    0.32
   7   2  -3    0.51    0.19
   7   2  -3    0.38    0.22
   7   2  -3    0.51    0.19
  -7  -2   3    0.29    0.20
   6   2  -3   36.98    0.93
   6   2  -3   36.65    0.85
  -6  -2   3   37.04    0.88
  -6  -2   3   36.79    0.91
   5   2  -3    2.42    0.27
   5   2  -3    2.13    0.20
   5   2  -3    2.60    0.26
  -5  -2   3    2.57    0.26
  -5  -2   3    2.28    0.20
   4   2  -3   47.33    0.68
   4   2  -3   46.98    0.86
   4   2  -3   48.38    0.92
   4   2  -3   46.98    0.81
  -4  -2   3   48.02    0.89
  -4  -2   3   47.23    0.77
   3   2  -3   14.95    0.30
   3   2  -3   14.68    0.41
   3   2  -3   14.50    0.43
   3   2  -3   15.52    0.38
  -3  -2   3   14.96    0.33
  -3  -2   3   14.71    0.41
   2   2  -3   49.38    0.62
   2   2  -3   51.17    0.78
   2   2  -3   50.50    0.69
   2   2  -3   49.80    0.79
  -2  -2   3   49.64    0.72
  -2  -2   3   50.13    0.79
   1   2  -3   66.46    0.91
   1   2  -3   66.22    0.86
   1   2  -3   66.14    0.77
   1   2  -3   66.14    0.91
   1   2  -3   65.19    0.90
  -1  -2   3   64.84    0.84
  -1  -2   3   64.39    0.90
  -1  -2   3   63.97    0.91
  -1  -2   3   66.20    0.75
  -1  -2   3   65.49    0.90
   0   2  -3    2.49    0.14
   0   2  -3    2.07    0.14
   0   2  -3    2.25    0.13
   0   2  -3    2.24    0.13
   0   2  -3    2.18    0.11
   0  -2   3    2.23    0.13
   0  -2   3    2.07    0.14
   0  -2   3    2.19    0.08
   0  -2   3    2.24    0.15
   0  -2   3    2.14    0.13
   0  -2   3    2.12    0.11
  -1   2  -3   10.72    0.24
  -1   2  -3   10.47    0.24
  -1   2  -3   10.25    0.19
  -1   2  -3   10.64    0.25
  -1   2  -3   10.27    0.25
  -1   2  -3    9.91    0.24
   1  -2   3   10.22    0.21
   1  -2   3   10.48    0.26
   1  -2   3   10.11    0.24
   1  -2   3   10.05    0.22
   1  -2   3   10.76    0.26
  -2   2  -3   17.48    0.36
  -2   2  -3   17.63    0.30
  -2   2  -3   16.78    0.34
  -2   2  -3   17.62    0.36
  -2   2  -3   17.30    0.37
   2  -2   3   17.43    0.37
   2  -2   3   17.20    0.33
   2  -2   3   17.67    0.34
   2  -2   3   17.89    0.37
   2  -2   3   18.02    0.31
  -3   2  -3   47.26    0.62
  -3   2  -3   48.14    0.72
  -3   2  -3   48.46    0.77
   3  -2   3   48.49    0.74
   3  -2   3   49.21    0.77
   3  -2   3   48.80    0.77
   3  -2   3   48.86    0.70
  -4   2  -3    9.17    0.32
  -4   2  -3    9.74    0.27
  -4   2  -3    9.04    0.31
   4  -2   3    9.10    0.28
   4  -2   3    9.18    0.30
  -5   2  -3    0.19    0.11
  -5   2  -3    0.15    0.11
   5  -2   3    0.11    0.11
   5  -2   3    0.09    0.11
   5  -2   3   -0.13    0.11
   5  -2   3    0.17    0.10
  -6   2  -3    4.40    0.27
  -6   2  -3    4.53    0.32
   6  -2   3    4.16    0.30
   6  -2   3    5.13    0.33
   6  -2   3    4.35    0.29
   6  -2   3    4.59    0.28
  -7   2  -3    0.43    0.19
   7  -2   3    0.53    0.18
   7  -2   3    0.35    0.16
   7  -2   3    0.61    0.20
   7  -2   3    0.29    0.17
  -8   2  -3    0.06    0.19
   8  -2   3    0.16    0.18
   8  -2   3   -0.15    0.15
   8  -2   3    0.14    0.21
   8   1  -3    0.05    0.19
   8   1  -3    0.35    0.20
   8   1  -3    0.22    0.18
   7   1  -3    0.71    0.22
   7   1  -3    0.85    0.19
   7   1  -3    0.69    0.20
  -7  -1   3    0.99    0.22
   6   1  -3   12.34    0.39
   6   1  -3   12.55    0.50
   6   1  -3   12.77    0.45
  -6  -1   3   12.43    0.41
  -6  -1   3   12.78    0.48
   5   1  -3    0.52    0.11
   5   1  -3    0.14    0.12
   5   1  -3    0.46    0.15
   5   1  -3    0.36    0.15
   5   1  -3    0.43    0.09
  -5  -1   3    0.51    0.12
  -5  -1   3    0.48    0.14
   4   1  -3    1.82    0.13
   4   1  -3    1.77    0.13
   4   1  -3    1.65    0.19
   4   1  -3    2.16    0.20
   4   1  -3    1.89    0.16
  -4  -1   3    1.86    0.19
  -4  -1   3    2.06    0.15
   3   1  -3   47.58    0.77
   3   1  -3   48.44    0.75
   3   1  -3   47.82    0.68
   3   1  -3   47.15    0.64
  -3  -1   3   46.97    0.77
  -3  -1   3   46.40    0.66
   2   1  -3   38.96    0.60
   2   1  -3   40.40    0.63
   2   1  -3   40.24    0.58
   2   1  -3   39.64    0.53
   2   1  -3   40.36    0.64
  -2  -1   3   39.82    0.51
  -2  -1   3   39.08    0.63
   1   1  -3   34.79    0.46
   1   1  -3   33.34    0.49
   1   1  -3   33.50    0.49
  -1  -1   3   32.48    0.51
  -1  -1   3   32.93    0.50
  -1  -1   3   33.51    0.43
  -1  -1   3   33.24    0.49
  -1  -1   3   33.66    0.50
   0   1  -3  150.86    1.75
   0   1  -3  151.64    1.75
   0   1  -3  153.49    1.73
   0   1  -3  148.23    1.75
   0   1  -3  149.97    1.68
   0  -1   3  151.31    1.76
   0  -1   3  151.26    1.73
   0  -1   3  150.52    1.67
   0  -1   3  147.31    1.74
   0  -1   3  149.68    1.75
  -1   1  -3   16.72    0.30
  -1   1  -3   16.37    0.26
  -1   1  -3   16.77    0.30
  -1   1  -3   16.73    0.31
   1  -1   3   17.21    0.32
   1  -1   3   17.70    0.31
   1  -1   3   16.66    0.31
  -2   1  -3   66.15    0.77
  -2   1  -3   67.59    0.88
  -2   1  -3   67.73    0.95
  -2   1  -3   66.74    0.93
   2  -1   3   68.97    0.93
   2  -1   3   68.18    0.81
   2  -1   3   67.63    0.92
   2  -1   3   69.18    0.93
   2  -1   3   68.21    0.92
  -3   1  -3    2.12    0.17
  -3   1  -3    2.34    0.17
  -3   1  -3    2.28    0.13
   3  -1   3    2.42    0.11
   3  -1   3    2.23    0.17
   3  -1   3    2.36    0.18
   3  -1   3    2.26    0.17
   3  -1   3    2.25    0.17
  -4   1  -3   90.89    1.34
   4  -1   3   91.34    1.33
   4  -1   3   92.44    1.33
   4  -1   3   91.96    1.31
   4  -1   3   91.01    1.15
   4  -1   3   90.62    1.30
  -5   1  -3    0.23    0.11
  -5   1  -3    0.03    0.11
   5  -1   3    0.17    0.08
   5  -1   3    0.29    0.14
   5  -1   3   -0.02    0.11
   5  -1   3    0.12    0.12
   5  -1   3    0.12    0.12
  -6   1  -3    1.52    0.22
   6  -1   3    1.54    0.22
   6  -1   3    1.49    0.22
   6  -1   3    1.54    0.22
   6  -1   3    1.40    0.22
  -7   1  -3    0.84    0.22
   7  -1   3    1.11    0.23
   7  -1   3    1.44    0.24
   7  -1   3    1.32    0.26
  -8   1  -3    0.02    0.19
   8  -1   3    0.00    0.20
   8  -1   3    0.00    0.22
   8  -1   3   -0.08    0.17
   8   0  -3    3.84    0.32
   8   0  -3    3.69    0.36
   8   0  -3    3.24    0.35
   7   0  -3   18.35    0.55
   7   0  -3   19.84    0.59
   7   0  -3   18.87    0.59
   7   0  -3   18.86    0.62
  -7   0   3   18.90    0.61
  -7   0   3   17.97    0.52
   6   0  -3    0.10    0.10
   6   0  -3    0.13    0.09
   6   0  -3   -0.07    0.12
   6   0  -3    0.02    0.09
  -6   0   3   -0.04    0.11
  -6   0   3   -0.01    0.10
   5   0  -3   33.16    0.71
   5   0  -3   32.68    0.57
   5   0  -3   33.31    0.63
   5   0  -3   32.28    0.65
  -5   0   3   32.65    0.67
  -5   0   3   32.43    0.60
   4   0  -3    4.06    0.20
   4   0  -3    4.05    0.17
   4   0  -3    4.30    0.19
   4   0  -3    4.00    0.22
  -4   0   3    3.89    0.17
  -4   0   3    3.52    0.21
  -4   0   3    3.76    0.20
   3   0  -3   60.51    0.82
   3   0  -3   60.02    0.87
   3   0  -3   58.69    0.82
  -3   0   3   60.86    0.87
  -3   0   3   58.37    0.86
  -3   0   3   59.17    0.77
   2   0  -3  114.63    1.38
   2   0  -3  112.72    1.32
   2   0  -3  116.57    1.42
   2   0  -3  115.72    1.39
  -2   0   3  112.69    1.29
  -2   0   3  111.79    1.41
  -2   0   3  110.70    1.39
   1   0  -3   23.59    0.38
   1   0  -3   23.72    0.33
   1   0  -3   23.68    0.39
   1   0  -3   22.75    0.31
  -1   0   3   23.01    0.33
  -1   0   3   23.19    0.36
  -1   0   3   23.20    0.38
  -1   0   3   23.64    0.38
   0   0  -3   12.79    0.20
   0   0  -3   12.32    0.25
   0   0  -3   12.87    0.27
   0   0  -3   12.79    0.25
   0   0   3   12.77    0.21
   0   0   3   13.18    0.25
   0   0   3   12.42    0.27
   0   0   3   12.90    0.24
   0   0   3   12.85    0.22
  -1   0  -3   43.39    0.64
  -1   0  -3   44.10    0.63
  -1   0  -3   42.79    0.58
  -1   0  -3   43.13    0.63
   1   0   3   43.37    0.59
   1   0   3   43.40    0.62
   1   0   3   43.06    0.66
   1   0   3   44.09    0.61
   1   0   3   43.33    0.54
   1   0   3   44.18    0.61
  -2   0  -3   17.07    0.38
  -2   0  -3   17.21    0.29
   2   0   3   17.82    0.38
   2   0   3   17.01    0.25
   2   0   3   17.82    0.37
   2   0   3   17.64    0.37
   2   0   3   17.44    0.33
   2   0   3   17.26    0.39
  -3   0  -3   34.55    0.62
  -3   0  -3   34.64    0.49
  -3   0  -3   34.58    0.66
   3   0   3   35.67    0.67
   3   0   3   36.86    0.65
   3   0   3   34.71    0.56
   3   0   3   35.74    0.65
   3   0   3   35.40    0.64
  -4   0  -3    2.14    0.19
  -4   0  -3    2.27    0.21
   4   0   3    2.15    0.21
   4   0   3    2.58    0.18
   4   0   3    2.00    0.20
   4   0   3    2.19    0.21
   4   0   3    2.39    0.22
  -5   0  -3   10.51    0.41
   5   0   3    9.64    0.41
   5   0   3   10.16    0.42
   5   0   3    9.73    0.39
   5   0   3   10.24    0.33
   5   0   3    9.76    0.41
  -6   0  -3    9.76    0.46
   6   0   3    9.77    0.46
   6   0   3    8.47    0.45
   6   0   3    8.60    0.42
   6   0   3    9.11    0.45
  -7   0  -3    2.14    0.30
   7   0   3    2.04    0.30
   7   0   3    1.74    0.27
   7   0   3    1.70    0.31
  -8   0  -3    3.47    0.40
   8   0   3    3.63    0.42
   8   0   3    3.95    0.42
   8   0   3    2.98    0.37
   9  -1  -3    0.34    0.20
   9  -1  -3    0.40    0.21
   9  -1  -3    0.16    0.20
   8  -1  -3    0.15    0.14
   8  -1  -3    0.25    0.16
   8  -1  -3   -0.19    0.15
   8  -1  -3   -0.26    0.13
   7  -1  -3    9.15    0.41
   7  -1  -3    8.25    0.33
   7  -1  -3    9.17    0.39
   7  -1  -3    8.33    0.32
   7  -1  -3    8.22    0.38
   7  -1  -3    8.30    0.36
  -7   1   3    7.67    0.35
  -7   1   3    8.99    0.40
   6  -1  -3   19.15    0.53
   6  -1  -3   18.68    0.50
   6  -1  -3   19.09    0.47
   6  -1  -3   19.01    0.50
   6  -1  -3   18.48    0.45
  -6   1   3   18.82    0.48
  -6   1   3   18.11    0.50
  -6   1   3   19.22    0.47
   5  -1  -3    1.81    0.17
   5  -1  -3    1.64    0.15
   5  -1  -3    2.34    0.18
  -5   1   3    1.53    0.16
  -5   1   3    1.84    0.18
  -5   1   3    1.94    0.16
  -5   1   3    1.83    0.15
   4  -1  -3    3.23    0.17
   4  -1  -3    3.34    0.17
   4  -1  -3    3.05    0.18
  -4   1   3    3.24    0.19
  -4   1   3    2.93    0.16
  -4   1   3    3.28    0.18
  -4   1   3    3.07    0.17
   3  -1  -3    7.80    0.25
   3  -1  -3    7.77    0.20
   3  -1  -3    7.99    0.20
   3  -1  -3    8.01    0.22
  -3   1   3    7.64    0.21
  -3   1   3    7.82    0.22
  -3   1   3    8.14    0.24
  -3   1   3    8.24    0.25
   2  -1  -3  109.35    1.32
   2  -1  -3  109.07    1.37
   2  -1  -3  109.80    1.24
   2  -1  -3  108.79    1.36
   2  -1  -3  107.41    1.25
  -2   1   3  107.77    1.36
  -2   1   3  107.44    1.37
  -2   1   3  108.67    1.31
   1  -1  -3   13.37    0.28
   1  -1  -3   13.49    0.30
   1  -1  -3   13.74    0.22
   1  -1  -3   13.75    0.28
  -1   1   3   13.93    0.29
  -1   1   3   13.78    0.30
  -1   1   3   14.09    0.30
  -1   1   3   13.45    0.24
   0  -1  -3   75.36    0.95
   0  -1  -3   75.80    1.01
   0  -1  -3   75.70    0.94
   0  -1  -3   78.72    1.01
   0   1   3   76.89    1.03
   0   1   3   76.72    0.97
   0   1   3   76.11    0.95
   0   1   3   78.09    1.00
  -1  -1  -3  408.57    4.65
  -1  -1  -3  413.86    4.53
  -1  -1  -3  413.35    4.65
   1   1   3  407.99    4.56
   1   1   3  415.87    4.70
   1   1   3  411.07    4.63
   1   1   3  408.93    4.61
  -2  -1  -3    6.93    0.27
  -2  -1  -3    7.23    0.26
  -2  -1  -3    7.26    0.16
  -2  -1  -3    7.29    0.25
   2   1   3    7.28    0.26
   2   1   3    7.78    0.30
   2   1   3    7.04    0.24
  -3  -1  -3   15.68    0.39
  -3  -1  -3   15.78    0.43
  -3  -1  -3   15.70    0.44
   3   1   3   15.72    0.41
   3   1   3   15.65    0.45
   3   1   3   15.70    0.39
  -4  -1  -3    2.40    0.24
  -4  -1  -3    2.46    0.24
  -4  -1  -3    2.81    0.21
   4   1   3    2.58    0.21
   4   1   3    2.90    0.25
   4   1   3    2.38    0.25
   4   1   3    2.56    0.24
  -5  -1  -3    0.91    0.20
   5   1   3    0.83    0.16
   5   1   3    1.09    0.22
   5   1   3    1.04    0.19
   5   1   3    1.05    0.19
  -6  -1  -3    4.93    0.38
   6   1   3    5.44    0.40
   6   1   3    5.42    0.38
  -7  -1  -3    1.74    0.30
   7   1   3    1.73    0.31
   7   1   3    1.62    0.28
   7   1   3    2.42    0.35
   9  -2  -3    6.03    0.38
   9  -2  -3    6.86    0.43
   9  -2  -3    6.92    0.40
   8  -2  -3    0.47    0.15
   8  -2  -3    0.57    0.16
   8  -2  -3    0.48    0.17
   8  -2  -3    0.66    0.17
   8  -2  -3    0.52    0.16
   8  -2  -3    0.47    0.17
   8  -2  -3    0.49    0.17
  -8   2   3    0.84    0.19
   7  -2  -3    0.27    0.11
   7  -2  -3    0.20    0.11
   7  -2  -3    0.14    0.11
   7  -2  -3    0.14    0.11
   7  -2  -3    0.35    0.14
   7  -2  -3   -0.03    0.10
   7  -2  -3    0.21    0.12
   7  -2  -3    0.31    0.12
  -7   2   3    0.03    0.12
  -7   2   3    0.12    0.12
  -7   2   3    0.21    0.13
   6  -2  -3   64.06    1.02
   6  -2  -3   63.92    0.99
   6  -2  -3   61.85    1.00
   6  -2  -3   63.74    1.02
   6  -2  -3   61.45    0.97
  -6   2   3   62.06    0.99
  -6   2   3   62.95    0.99
  -6   2   3   61.47    1.00
  -6   2   3   62.01    1.01
   5  -2  -3   97.87    1.40
   5  -2  -3   98.63    1.36
   5  -2  -3   96.95    1.30
   5  -2  -3   97.69    1.32
   5  -2  -3   95.34    1.32
  -5   2   3   98.64    1.31
  -5   2   3   95.76    1.35
  -5   2   3   97.71    1.34
  -5   2   3   96.72    1.36
   4  -2  -3   33.59    0.60
   4  -2  -3   34.48    0.55
   4  -2  -3   34.23    0.65
   4  -2  -3   34.29    0.55
   4  -2  -3   33.64    0.54
  -4   2   3   34.21    0.62
  -4   2   3   33.96    0.62
  -4   2   3   33.77    0.54
   3  -2  -3    0.01    0.05
   3  -2  -3   -0.02    0.05
   3  -2  -3    0.04    0.04
   3  -2  -3    0.21    0.10
   3  -2  -3    0.08    0.07
  -3   2   3   -0.01    0.08
  -3   2   3   -0.02    0.05
  -3   2   3    0.08    0.08
   2  -2  -3    3.12    0.10
   2  -2  -3    2.69    0.16
   2  -2  -3    2.76    0.18
   2  -2  -3    2.89    0.13
  -2   2   3    2.75    0.09
  -2   2   3    2.72    0.16
  -2   2   3    2.63    0.15
  -2   2   3    2.61    0.18
   1  -2  -3    0.95    0.09
   1  -2  -3    1.01    0.12
   1  -2  -3    1.09    0.12
  -1   2   3    0.84    0.10
  -1   2   3    1.15    0.12
  -1   2   3    1.01    0.11
  -1   2   3    0.95    0.07
  -1   2   3    0.96    0.08
   0  -2  -3   40.75    0.65
   0  -2  -3   39.99    0.61
   0  -2  -3   40.53    0.66
   0  -2  -3   41.07    0.58
   0   2   3   40.31    0.58
   0   2   3   40.35    0.68
   0   2   3   40.91    0.67
   0   2   3   40.66    0.58
   0   2   3   40.56    0.63
  -1  -2  -3    0.89    0.12
  -1  -2  -3    1.05    0.08
  -1  -2  -3    1.21    0.14
  -1  -2  -3    1.08    0.12
   1   2   3    0.89    0.13
   1   2   3    0.89    0.14
   1   2   3    1.05    0.12
  -2  -2  -3    3.72    0.20
  -2  -2  -3    3.40    0.22
   2   2   3    3.66    0.25
   2   2   3    3.46    0.22
   2   2   3    3.55    0.21
   2   2   3    3.82    0.16
  -3  -2  -3    0.08    0.11
  -3  -2  -3    0.15    0.12
  -3  -2  -3    0.17    0.10
   3   2   3    0.18    0.12
   3   2   3    0.02    0.11
   3   2   3    0.08    0.13
  -4  -2  -3   55.04    0.92
  -4  -2  -3   55.88    1.07
  -4  -2  -3   57.14    1.04
   4   2   3   54.24    1.01
   4   2   3   55.85    1.10
   4   2   3   55.67    0.99
  -5  -2  -3    1.74    0.27
   5   2   3    1.62    0.24
   5   2   3    1.89    0.27
   5   2   3    1.66    0.28
   5   2   3    1.63    0.22
  -6  -2  -3    0.87    0.24
   6   2   3    0.43    0.21
   6   2   3    0.83    0.26
   9  -3  -3    1.82    0.25
   9  -3  -3    2.23    0.27
   9  -3  -3    1.51    0.24
   9  -3  -3    2.39    0.29
   8  -3  -3    0.67    0.15
   8  -3  -3    0.39    0.16
   8  -3  -3    0.53    0.16
   8  -3  -3    0.69    0.16
   8  -3  -3    0.09    0.14
   8  -3  -3    0.39    0.14
   8  -3  -3    0.75    0.16
  -8   3   3    0.42    0.17
   7  -3  -3    1.31    0.18
   7  -3  -3    1.46    0.18
   7  -3  -3    1.27    0.17
   7  -3  -3    1.62    0.19
   7  -3  -3    1.37    0.17
   7  -3  -3    1.54    0.20
  -7   3   3    1.45    0.20
  -7   3   3    1.41    0.20
  -7   3   3    1.67    0.20
   6  -3  -3   17.84    0.45
   6  -3  -3   18.57    0.42
   6  -3  -3   18.93    0.53
   6  -3  -3   17.80    0.44
   6  -3  -3   19.24    0.50
   6  -3  -3   19.14    0.45
  -6   3   3   18.57    0.42
  -6   3   3   18.02    0.50
  -6   3   3   18.84    0.49
   5  -3  -3   41.35    0.64
   5  -3  -3   43.43    0.77
   5  -3  -3   44.30    0.71
   5  -3  -3   43.79    0.70
   5  -3  -3   41.25    0.68
   5  -3  -3   43.83    0.82
  -5   3   3   42.56    0.80
  -5   3   3   41.95    0.64
  -5   3   3   42.43    0.77
   4  -3  -3    0.67    0.08
   4  -3  -3    0.84    0.14
   4  -3  -3    0.98    0.11
   4  -3  -3    0.74    0.09
   4  -3  -3    0.82    0.13
  -4   3   3    0.65    0.13
  -4   3   3    0.74    0.08
  -4   3   3    0.69    0.09
  -4   3   3    0.45    0.12
   3  -3  -3   46.21    0.75
   3  -3  -3   44.39    0.60
   3  -3  -3   44.93    0.78
   3  -3  -3   46.72    0.69
   3  -3  -3   45.30    0.63
  -3   3   3   45.63    0.63
  -3   3   3   45.52    0.70
  -3   3   3   45.57    0.76
  -3   3   3   45.95    0.59
  -3   3   3   44.97    0.80
   2  -3  -3    0.19    0.05
   2  -3  -3    0.13    0.09
   2  -3  -3    0.15    0.07
   2  -3  -3    0.22    0.06
   2  -3  -3    0.19    0.09
  -2   3   3    0.14    0.05
  -2   3   3    0.08    0.08
  -2   3   3    0.17    0.09
  -2   3   3    0.05    0.09
  -2   3   3    0.33    0.10
   1  -3  -3   15.19    0.39
   1  -3  -3   15.78    0.39
   1  -3  -3   15.92    0.35
  -1   3   3   16.44    0.39
  -1   3   3   16.63    0.40
  -1   3   3   15.86    0.27
  -1   3   3   16.66    0.41
  -1   3   3   15.64    0.31
  -1   3   3   14.97    0.38
   0  -3  -3    0.14    0.07
   0  -3  -3    0.25    0.09
   0  -3  -3    0.17    0.08
   0  -3  -3    0.24    0.10
   0   3   3    0.14    0.10
   0   3   3    0.25    0.08
   0   3   3    0.19    0.10
   0   3   3    0.16    0.09
  -1  -3  -3    3.75    0.24
  -1  -3  -3    3.76    0.21
  -1  -3  -3    4.01    0.15
  -1  -3  -3    4.46    0.23
   1   3   3    4.29    0.27
   1   3   3    4.27    0.21
   1   3   3    4.17    0.20
   1   3   3    4.33    0.26
  -2  -3  -3    2.74    0.20
  -2  -3  -3    2.21    0.19
  -2  -3  -3    2.38    0.22
   2   3   3    2.36    0.21
   2   3   3    3.03    0.25
   2   3   3    2.60    0.17
   2   3   3    2.39    0.25
  -3  -3  -3    0.11    0.14
  -3  -3  -3    0.01    0.11
   3   3   3   -0.04    0.12
   3   3   3   -0.03    0.13
   3   3   3    0.11    0.14
  -4  -3  -3    3.10    0.31
  -4  -3  -3    2.57    0.27
   4   3   3    3.68    0.36
   4   3   3    2.88    0.28
   4   3   3    3.02    0.29
  -5  -3  -3    0.23    0.19
   5   3   3    0.04    0.17
   5   3   3    0.28    0.18
   5   3   3    0.56    0.22
  -6  -3  -3    4.07    0.44
   6   3   3    3.30    0.38
   6   3   3    3.24    0.40
   9  -4  -3    7.04    0.40
   9  -4  -3    7.11    0.43
   9  -4  -3    7.33    0.45
   8  -4  -3   25.40    0.65
   8  -4  -3   28.05    0.72
   8  -4  -3   28.05    0.77
   8  -4  -3   27.37    0.66
   8  -4  -3   27.30    0.73
  -8   4   3   26.56    0.66
   7  -4  -3    1.36    0.18
   7  -4  -3    1.46    0.17
   7  -4  -3    1.77    0.23
   7  -4  -3    1.74    0.24
   7  -4  -3    1.64    0.19
  -7   4   3    1.55    0.21
  -7   4   3    2.13    0.25
   6  -4  -3    0.25    0.14
   6  -4  -3    0.33    0.11
   6  -4  -3    0.57    0.12
   6  -4  -3    0.35    0.10
   6  -4  -3    0.48    0.15
  -6   4   3    0.58    0.16
  -6   4   3    0.19    0.13
   5  -4  -3    0.43    0.11
   5  -4  -3    0.15    0.13
   5  -4  -3    0.17    0.08
   5  -4  -3    0.45    0.13
   5  -4  -3    0.21    0.09
  -5   4   3    0.29    0.13
  -5   4   3    0.31    0.14
   4  -4  -3    3.58    0.25
   4  -4  -3    4.41    0.22
   4  -4  -3    4.08    0.18
   4  -4  -3    3.91    0.24
   4  -4  -3    3.60    0.15
  -4   4   3    3.60    0.24
  -4   4   3    3.61    0.26
  -4   4   3    3.57    0.22
   3  -4  -3    0.19    0.11
   3  -4  -3    0.40    0.08
   3  -4  -3    0.25    0.11
   3  -4  -3    0.12    0.09
   3  -4  -3    0.27    0.06
  -3   4   3    0.31    0.12
  -3   4   3    0.08    0.10
  -3   4   3    0.33    0.09
  -3   4   3    0.24    0.10
  -3   4   3    0.26    0.07
   2  -4  -3   16.42    0.31
   2  -4  -3   16.73    0.39
   2  -4  -3   17.11    0.44
   2  -4  -3   16.44    0.44
   2  -4  -3   16.86    0.34
  -2   4   3   17.15    0.47
  -2   4   3   17.05    0.44
  -2   4   3   16.42    0.44
  -2   4   3   16.72    0.35
  -2   4   3   16.48    0.40
   1  -4  -3    0.15    0.10
   1  -4  -3   -0.05    0.08
   1  -4  -3    0.12    0.09
  -1   4   3    0.06    0.09
  -1   4   3    0.08    0.06
  -1   4   3    0.06    0.10
  -1   4   3   -0.04    0.09
  -1   4   3    0.21    0.11
   0  -4  -3    4.78    0.25
   0  -4  -3    4.85    0.27
   0  -4  -3    4.88    0.25
   0   4   3    4.87    0.24
   0   4   3    4.65    0.20
   0   4   3    4.98    0.28
   0   4   3    5.55    0.30
   0   4   3    5.17    0.26
  -1  -4  -3  116.95    1.62
  -1  -4  -3  112.86    1.55
  -1  -4  -3  114.60    1.66
   1   4   3  114.06    1.53
   1   4   3  113.45    1.70
   1   4   3  112.87    1.55
   1   4   3  114.00    1.68
  -2  -4  -3   20.20    0.57
  -2  -4  -3   21.37    0.56
   2   4   3   21.09    0.64
   2   4   3   21.65    0.54
   2   4   3   21.63    0.61
   2   4   3   20.92    0.49
  -3  -4  -3    2.32    0.27
  -3  -4  -3    2.72    0.31
   3   4   3    2.24    0.25
   3   4   3    1.77    0.24
   3   4   3    2.11    0.29
  -4  -4  -3    5.44    0.39
  -4  -4  -3    5.97    0.44
   4   4   3    5.89    0.40
   4   4   3    5.37    0.38
   4   4   3    5.26    0.43
  -5  -4  -3    3.44    0.38
  -5  -4  -3    3.07    0.38
   5   4   3    2.99    0.35
   5   4   3    3.27    0.35
   5   4   3    2.72    0.40
   9  -5  -3    5.49    0.43
   9  -5  -3    6.20    0.44
   9  -5  -3    4.96    0.36
   8  -5  -3   -0.03    0.16
   8  -5  -3    0.07    0.13
   8  -5  -3    0.02    0.16
  -8   5   3    0.07    0.16
  -8   5   3    0.02    0.15
   7  -5  -3    3.94    0.33
   7  -5  -3    4.69    0.29
   7  -5  -3    3.49    0.33
  -7   5   3    3.77    0.31
  -7   5   3    4.12    0.35
   6  -5  -3   19.14    0.56
   6  -5  -3   19.14    0.50
   6  -5  -3   18.32    0.46
   6  -5  -3   19.03    0.60
  -6   5   3   19.72    0.61
  -6   5   3   19.45    0.55
   5  -5  -3   97.44    1.34
   5  -5  -3   98.94    1.41
   5  -5  -3   97.64    1.55
   5  -5  -3   98.40    1.50
  -5   5   3   97.08    1.57
  -5   5   3  100.76    1.51
   4  -5  -3   27.86    0.66
   4  -5  -3   28.09    0.58
   4  -5  -3   27.84    0.52
   4  -5  -3   27.05    0.63
  -4   5   3   26.96    0.68
  -4   5   3   26.07    0.63
  -4   5   3   26.81    0.61
   3  -5  -3    1.94    0.14
   3  -5  -3    2.02    0.19
   3  -5  -3    2.14    0.21
   3  -5  -3    2.21    0.16
   3  -5  -3    1.91    0.21
  -3   5   3    1.97    0.20
  -3   5   3    2.18    0.22
  -3   5   3    1.91    0.17
  -3   5   3    1.86    0.22
   2  -5  -3   12.01    0.41
   2  -5  -3   11.79    0.37
   2  -5  -3   11.82    0.40
  -2   5   3   11.59    0.43
  -2   5   3   11.53    0.37
  -2   5   3   11.85    0.41
  -2   5   3   12.02    0.42
   1  -5  -3    0.14    0.12
   1  -5  -3    0.40    0.13
   1  -5  -3    0.25    0.12
  -1   5   3    0.50    0.14
  -1   5   3    0.21    0.13
  -1   5   3    0.26    0.13
  -1   5   3    0.30    0.13
   0  -5  -3   -0.01    0.10
   0  -5  -3    0.34    0.13
   0  -5  -3    0.18    0.13
   0   5   3   -0.03    0.12
   0   5   3   -0.03    0.11
   0   5   3    0.00    0.13
   0   5   3    0.33    0.16
   0   5   3   -0.10    0.10
  -1  -5  -3    1.49    0.20
  -1  -5  -3    1.15    0.20
   1   5   3    1.66    0.24
   1   5   3    1.25    0.18
   1   5   3    1.46    0.18
   1   5   3    1.47    0.23
  -2  -5  -3    7.11    0.38
  -2  -5  -3    7.73    0.40
   2   5   3    6.87    0.42
   2   5   3    6.54    0.43
   2   5   3    7.38    0.35
  -3  -5  -3    4.92    0.39
  -3  -5  -3    5.85    0.47
   3   5   3    5.59    0.42
   3   5   3    5.07    0.45
   3   5   3    4.90    0.35
  -4  -5  -3    0.60    0.22
  -4  -5  -3    0.91    0.27
   4   5   3    0.17    0.19
   4   5   3    0.43    0.26
   4   5   3    0.32    0.21
   9  -6  -3    1.05    0.25
   9  -6  -3    0.71    0.25
   9  -6  -3    0.71    0.21
  -9   6   3    0.70    0.23
   8  -6  -3    1.75    0.29
   8  -6  -3    1.43    0.26
   8  -6  -3    1.35    0.22
  -8   6   3    1.04    0.22
  -8   6   3    1.16    0.25
   7  -6  -3    1.42    0.21
   7  -6  -3    1.40    0.24
   7  -6  -3    1.42    0.25
  -7   6   3    1.46    0.25
  -7   6   3    1.33    0.23
   6  -6  -3    3.20    0.30
   6  -6  -3    3.35    0.27
   6  -6  -3    3.70    0.34
  -6   6   3    2.83    0.31
  -6   6   3    3.06    0.29
   5  -6  -3    3.29    0.31
   5  -6  -3    3.65    0.28
   5  -6  -3    3.86    0.31
  -5   6   3    3.43    0.30
  -5   6   3    3.35    0.31
   4  -6  -3    1.81    0.20
   4  -6  -3    1.03    0.20
   4  -6  -3    1.27    0.20
  -4   6   3    1.23    0.21
  -4   6   3    1.62    0.23
  -4   6   3    1.55    0.21
   3  -6  -3    3.22    0.21
   3  -6  -3    3.28    0.29
   3  -6  -3    3.15    0.25
   3  -6  -3    2.75    0.27
  -3   6   3    2.85    0.26
  -3   6   3    2.66    0.28
  -3   6   3    3.28    0.28
   2  -6  -3   11.38    0.40
   2  -6  -3   11.57    0.45
   2  -6  -3   11.57    0.43
  -2   6   3   11.96    0.41
  -2   6   3   11.48    0.46
  -2   6   3   12.27    0.47
  -2   6   3   11.13    0.45
   1  -6  -3    9.32    0.39
   1  -6  -3    9.75    0.39
   1  -6  -3    9.60    0.42
  -1   6   3    9.09    0.40
  -1   6   3   10.05    0.43
  -1   6   3    9.35    0.44
   0  -6  -3    0.87    0.18
   0  -6  -3    0.62    0.18
   0   6   3    0.42    0.19
   0   6   3    0.89    0.21
   0   6   3    0.87    0.18
   0   6   3    0.92    0.20
  -1  -6  -3   15.33    0.57
  -1  -6  -3   17.15    0.56
   1   6   3   16.12    0.61
   1   6   3   15.69    0.60
   1   6   3   16.10    0.51
   1   6   3   15.43    0.54
  -2  -6  -3   -0.01    0.17
  -2  -6  -3    0.10    0.15
   2   6   3    0.12    0.20
   2   6   3    0.17    0.21
  -3  -6  -3    0.50    0.26
  -3  -6  -3    0.47    0.21
   3   6   3    0.00    0.20
   3   6   3    0.18    0.24
   8  -7  -3   28.15    0.75
   8  -7  -3   28.20    0.87
   8  -7  -3   27.83    0.82
  -8   7   3   26.49    0.78
  -8   7   3   27.05    0.85
   7  -7  -3    2.39    0.32
   7  -7  -3    2.95    0.34
   7  -7  -3    3.01    0.31
  -7   7   3    3.04    0.33
  -7   7   3    2.31    0.32
   6  -7  -3    5.30    0.39
   6  -7  -3    5.19    0.39
   6  -7  -3    5.10    0.34
  -6   7   3    4.58    0.38
  -6   7   3    5.77    0.42
   5  -7  -3    0.43    0.16
   5  -7  -3    0.10    0.16
   5  -7  -3    0.35    0.17
  -5   7   3   -0.01    0.16
  -5   7   3    0.50    0.17
  -5   7   3    0.50    0.20
   4  -7  -3   17.38    0.59
   4  -7  -3   18.55    0.54
   4  -7  -3   17.84    0.60
  -4   7   3   18.53    0.64
  -4   7   3   17.70    0.61
  -4   7   3   18.10    0.59
   3  -7  -3    0.01    0.16
   3  -7  -3    0.16    0.14
   3  -7  -3    0.06    0.14
  -3   7   3    0.26    0.17
  -3   7   3    0.03    0.15
  -3   7   3    0.39    0.18
   2  -7  -3   -0.08    0.13
   2  -7  -3   -0.25    0.12
   2  -7  -3    0.24    0.18
  -2   7   3    0.06    0.14
  -2   7   3    0.33    0.17
  -2   7   3   -0.27    0.14
   1  -7  -3    4.26    0.37
   1  -7  -3    3.62    0.31
  -1   7   3    4.20    0.39
  -1   7   3    4.00    0.34
  -1   7   3    4.13    0.36
   0  -7  -3    0.49    0.18
   0  -7  -3   -0.13    0.15
   0   7   3    0.13    0.21
   0   7   3    0.21    0.18
   0   7   3    0.51    0.20
  -1  -7  -3    2.58    0.31
  -1  -7  -3    2.07    0.28
   1   7   3    2.65    0.33
   1   7   3    2.46    0.35
   1   7   3    1.75    0.32
   8  -8  -3   -0.05    0.18
   8  -8  -3    0.01    0.23
   8  -8  -3    0.19    0.23
  -8   8   3   -0.04    0.20
  -8   8   3   -0.05    0.23
   7  -8  -3    7.99    0.44
   7  -8  -3    7.47    0.49
   7  -8  -3    6.98    0.49
  -7   8   3    7.36    0.52
  -7   8   3    7.00    0.47
   6  -8  -3    0.64    0.20
   6  -8  -3    1.15    0.26
   6  -8  -3    0.72    0.23
  -6   8   3    0.31    0.21
  -6   8   3    0.90    0.25
   5  -8  -3    0.97    0.21
   5  -8  -3    0.45    0.21
   5  -8  -3    0.63    0.22
  -5   8   3    0.75    0.20
  -5   8   3    0.55    0.22
  -5   8   3    0.89    0.25
   4  -8  -3    0.13    0.19
   4  -8  -3    0.25    0.16
   4  -8  -3    0.35    0.19
  -4   8   3    0.51    0.22
  -4   8   3    0.25    0.19
  -4   8   3    0.23    0.17
   3  -8  -3    3.04    0.30
   3  -8  -3    3.21    0.34
   3  -8  -3    3.07    0.32
  -3   8   3    3.16    0.34
  -3   8   3    3.34    0.35
  -3   8   3    2.67    0.33
   2  -8  -3    9.99    0.51
   2  -8  -3   10.12    0.47
  -2   8   3    9.36    0.52
  -2   8   3    8.90    0.52
   1  -8  -3    4.69    0.41
   1  -8  -3    6.42    0.42
  -1   8   3    6.32    0.46
  -1   8   3    6.69    0.49
   0  -8  -3    0.44    0.21
   0  -8  -3    0.60    0.21
   0   8   3    0.92    0.25
   0   8   3    0.78    0.27
   6  -9  -3    0.41    0.20
   6  -9  -3    0.33    0.22
   6  -9  -3    0.16    0.24
  -6   9   3    0.15    0.25
  -6   9   3    0.21    0.23
   5  -9  -3    3.78    0.40
   5  -9  -3    4.35    0.38
   5  -9  -3    3.27    0.37
  -5   9   3    3.54    0.39
  -5   9   3    3.74    0.43
  -5   9   3    4.16    0.41
   4  -9  -3    0.20    0.21
   4  -9  -3   -0.13    0.17
   4  -9  -3    0.40    0.20
  -4   9   3    0.21    0.23
  -4   9   3   -0.01    0.20
  -4   9   3    0.11    0.19
   3  -9  -3    0.65    0.25
   3  -9  -3    0.71    0.21
  -3   9   3    0.57    0.25
  -3   9   3    0.73    0.27
  -3   9   3    0.34    0.21
  -2  10  -4   -0.19    0.20
  -2  10  -4    0.29    0.23
   2 -10   4    0.22    0.20
   2 -10   4    0.39    0.23
  -3  10  -4    2.86    0.35
  -3  10  -4    3.52    0.42
   3 -10   4    3.08    0.36
   3 -10   4    2.92    0.34
  -4  10  -4    1.05    0.27
  -4  10  -4    1.65    0.31
   4 -10   4    1.49    0.27
   4 -10   4    0.59    0.37
   4 -10   4    1.50    0.29
  -5  10  -4    1.52    0.30
  -5  10  -4    0.84    0.25
  -5  10  -4    1.13    0.30
   5 -10   4    0.83    0.25
   5 -10   4    0.98    0.28
   5 -10   4    0.98    0.25
   6 -10   4    0.96    0.25
   0   9  -4    2.86    0.36
   0   9  -4    2.67    0.34
   0  -9   4    2.14    0.30
  -1   9  -4    3.73    0.37
  -1   9  -4    3.31    0.37
   1  -9   4    3.72    0.36
   1  -9   4    3.73    0.37
  -2   9  -4    2.21    0.31
  -2   9  -4    2.40    0.29
  -2   9  -4    1.61    0.26
   2  -9   4    2.26    0.29
   2  -9   4    2.22    0.31
  -3   9  -4   -0.22    0.14
  -3   9  -4    0.04    0.18
   3  -9   4   -0.13    0.14
   3  -9   4   -0.04    0.17
   3  -9   4   -0.05    0.15
  -4   9  -4   13.01    0.59
  -4   9  -4   13.37    0.57
   4  -9   4   12.34    0.51
   4  -9   4   12.46    0.52
   4  -9   4   12.45    0.54
  -5   9  -4    3.41    0.36
  -5   9  -4    4.11    0.37
  -5   9  -4    3.53    0.38
   5  -9   4    3.34    0.34
   5  -9   4    3.45    0.34
   5  -9   4    2.83    0.32
  -6   9  -4    6.25    0.60
  -6   9  -4    6.95    0.47
  -6   9  -4    6.26    0.48
   6  -9   4    5.87    0.44
   6  -9   4    6.68    0.45
   6  -9   4    5.89    0.45
  -7   9  -4    0.63    0.25
   7  -9   4    0.64    0.25
   7  -9   4    0.45    0.24
   7  -9   4    0.66    0.24
   2   8  -4   13.49    0.60
   2   8  -4   14.94    0.61
   2   8  -4   14.66    0.66
  -2  -8   4   12.69    0.57
  -2  -8   4   14.47    0.58
   1   8  -4    0.30    0.20
   1   8  -4    0.24    0.20
  -1  -8   4    0.13    0.18
   0   8  -4    0.36    0.20
   0   8  -4    0.35    0.18
   0  -8   4    0.23    0.17
   0  -8   4    0.62    0.19
  -1   8  -4    3.03    0.31
  -1   8  -4    2.41    0.27
  -1   8  -4    2.84    0.32
   1  -8   4    2.66    0.30
   1  -8   4    2.62    0.28
  -2   8  -4    2.01    0.27
  -2   8  -4    1.89    0.24
  -2   8  -4    1.65    0.26
   2  -8   4    1.94    0.26
   2  -8   4    1.63    0.21
   2  -8   4    1.73    0.24
   2  -8   4    1.76    0.25
  -3   8  -4   13.54    0.46
  -3   8  -4   14.15    0.54
  -3   8  -4   13.44    0.53
   3  -8   4   12.89    0.50
   3  -8   4   14.15    0.53
   3  -8   4   13.15    0.46
   3  -8   4   13.87    0.50
  -4   8  -4    0.06    0.16
  -4   8  -4    0.11    0.16
   4  -8   4   -0.01    0.16
   4  -8   4    0.07    0.16
   4  -8   4    0.04    0.14
   4  -8   4   -0.11    0.14
  -5   8  -4   -0.10    0.16
  -5   8  -4   -0.26    0.15
  -5   8  -4   -0.08    0.15
   5  -8   4   -0.02    0.16
   5  -8   4   -0.09    0.14
   5  -8   4   -0.01    0.16
   5  -8   4   -0.12    0.14
  -6   8  -4    2.49    0.28
  -6   8  -4    2.42    0.33
   6  -8   4    1.70    0.26
   6  -8   4    2.23    0.30
   6  -8   4    1.82    0.26
  -7   8  -4    9.15    0.54
   7  -8   4    8.75    0.49
   7  -8   4    7.96    0.49
   7  -8   4    8.84    0.48
  -8   8  -4    1.84    0.35
   8  -8   4    1.50    0.29
   8  -8   4    1.04    0.27
   8  -8   4    1.16    0.27
   3   7  -4    0.31    0.21
   3   7  -4    0.04    0.18
   3   7  -4    0.34    0.20
  -3  -7   4    0.02    0.17
  -3  -7   4    0.39    0.18
   2   7  -4    7.42    0.44
   2   7  -4    6.96    0.45
   2   7  -4    7.16    0.44
  -2  -7   4    7.29    0.41
  -2  -7   4    7.15    0.41
   1   7  -4    0.23    0.15
   1   7  -4    0.15    0.17
   1   7  -4    0.14    0.16
  -1  -7   4    0.20    0.14
  -1  -7   4   -0.03    0.14
   0   7  -4   12.72    0.44
   0   7  -4   12.38    0.48
   0   7  -4   12.84    0.43
   0   7  -4   12.75    0.40
   0   7  -4   13.23    0.50
   0  -7   4   12.67    0.46
   0  -7   4   13.15    0.43
   0  -7   4   12.57    0.50
  -1   7  -4    1.60    0.23
  -1   7  -4    1.08    0.18
  -1   7  -4    1.39    0.18
  -1   7  -4    1.31    0.20
   1  -7   4    1.72    0.18
   1  -7   4    1.56    0.21
   1  -7   4    1.84    0.23
   1  -7   4    1.74    0.18
   1  -7   4    1.67    0.23
  -2   7  -4    1.44    0.21
  -2   7  -4    2.28    0.23
  -2   7  -4    1.91    0.21
  -2   7  -4    1.75    0.24
   2  -7   4    1.70    0.22
   2  -7   4    1.76    0.19
   2  -7   4    2.07    0.23
   2  -7   4    2.14    0.24
  -3   7  -4   38.61    0.73
  -3   7  -4   38.53    0.85
  -3   7  -4   40.51    0.88
   3  -7   4   38.05    0.76
   3  -7   4   39.00    0.80
   3  -7   4   40.31    0.84
   3  -7   4   39.04    0.84
  -4   7  -4    0.10    0.15
  -4   7  -4    0.13    0.13
   4  -7   4    0.36    0.15
   4  -7   4   -0.03    0.14
   4  -7   4    0.12    0.13
   4  -7   4    0.08    0.14
  -5   7  -4   16.98    0.50
  -5   7  -4   18.37    0.62
  -5   7  -4   18.27    0.56
   5  -7   4   17.09    0.54
   5  -7   4   18.46    0.58
   5  -7   4   17.55    0.54
   5  -7   4   17.46    0.57
  -6   7  -4    1.39    0.26
  -6   7  -4    1.57    0.22
   6  -7   4    1.39    0.25
   6  -7   4    1.13    0.22
   6  -7   4    1.01    0.21
   6  -7   4    1.77    0.25
  -7   7  -4    4.14    0.40
   7  -7   4    3.48    0.32
   7  -7   4    4.21    0.37
   7  -7   4    4.09    0.36
  -8   7  -4    6.36    0.48
  -8   7  -4    4.63    0.42
   8  -7   4    5.26    0.44
   8  -7   4    5.62    0.46
   8  -7   4    5.21    0.42
   4   6  -4    1.43    0.25
   4   6  -4    0.84    0.23
   4   6  -4    1.29    0.28
  -4  -6   4    1.01    0.24
   3   6  -4    4.31    0.39
   3   6  -4    4.71    0.41
   3   6  -4    5.19    0.37
  -3  -6   4    4.79    0.34
  -3  -6   4    3.99    0.35
   2   6  -4   14.26    0.54
   2   6  -4   15.20    0.52
   2   6  -4   15.39    0.55
  -2  -6   4   15.52    0.50
  -2  -6   4   15.00    0.50
   1   6  -4    2.62    0.20
   1   6  -4    2.33    0.24
   1   6  -4    3.56    0.30
   1   6  -4    2.68    0.27
  -1  -6   4    2.72    0.24
  -1  -6   4    2.62    0.27
  -1  -6   4    3.69    0.28
   0   6  -4   13.89    0.47
   0   6  -4   14.15    0.41
   0   6  -4   13.43    0.45
   0   6  -4   13.88    0.43
   0   6  -4   13.68    0.39
   0  -6   4   13.33    0.42
   0  -6   4   13.63    0.40
   0  -6   4   14.40    0.48
   0  -6   4   13.17    0.35
   0  -6   4   13.31    0.46
  -1   6  -4    1.49    0.18
  -1   6  -4    1.50    0.19
  -1   6  -4    1.08    0.17
  -1   6  -4    1.56    0.16
  -1   6  -4    1.63    0.18
   1  -6   4    1.22    0.15
   1  -6   4    1.50    0.16
   1  -6   4    1.39    0.19
   1  -6   4    1.43    0.18
   1  -6   4    1.34    0.19
  -2   6  -4   14.77    0.43
  -2   6  -4   14.69    0.47
  -2   6  -4   16.08    0.48
  -2   6  -4   16.05    0.42
   2  -6   4   15.00    0.35
   2  -6   4   14.49    0.42
   2  -6   4   15.81    0.47
   2  -6   4   14.48    0.39
   2  -6   4   14.77    0.46
  -3   6  -4   17.75    0.50
  -3   6  -4   18.52    0.49
  -3   6  -4   17.27    0.40
  -3   6  -4   17.46    0.53
   3  -6   4   17.04    0.51
   3  -6   4   17.48    0.36
   3  -6   4   17.43    0.46
   3  -6   4   17.46    0.39
   3  -6   4   17.58    0.50
   3  -6   4   16.42    0.46
  -4   6  -4   32.76    0.70
  -4   6  -4   33.17    0.78
  -4   6  -4   33.87    0.72
   4  -6   4   33.00    0.69
   4  -6   4   32.83    0.69
   4  -6   4   32.87    0.73
   4  -6   4   32.64    0.59
   4  -6   4   32.81    0.73
  -5   6  -4   13.07    0.38
  -5   6  -4   13.05    0.42
  -5   6  -4   13.01    0.50
   5  -6   4   12.52    0.36
   5  -6   4   12.52    0.45
   5  -6   4   12.58    0.47
   5  -6   4   12.31    0.44
   5  -6   4   12.74    0.47
  -6   6  -4    4.26    0.36
  -6   6  -4    4.53    0.37
   6  -6   4    4.47    0.35
   6  -6   4    3.80    0.32
   6  -6   4    4.40    0.34
   6  -6   4    4.55    0.32
   6  -6   4    4.24    0.26
  -7   6  -4    0.11    0.17
  -7   6  -4    0.39    0.19
   7  -6   4    0.08    0.15
   7  -6   4   -0.21    0.16
   7  -6   4    0.20    0.16
  -8   6  -4    2.57    0.33
  -8   6  -4    2.58    0.34
   8  -6   4    1.94    0.29
   8  -6   4    2.38    0.30
  -9   6  -4    0.82    0.40
  -9   6  -4    1.33    0.32
   9  -6   4    1.53    0.30
   9  -6   4    1.90    0.30
   5   5  -4    0.77    0.24
   5   5  -4    0.60    0.22
  -5  -5   4    0.96    0.23
   4   5  -4    0.02    0.14
   4   5  -4    0.08    0.18
   4   5  -4    0.26    0.18
  -4  -5   4    0.18    0.16
   3   5  -4    4.53    0.32
   3   5  -4    4.82    0.35
   3   5  -4    4.01    0.35
  -3  -5   4    4.57    0.30
  -3  -5   4    4.77    0.33
   2   5  -4   31.78    0.74
   2   5  -4   33.87    0.73
   2   5  -4   31.88    0.74
   2   5  -4   31.47    0.57
  -2  -5   4   32.42    0.68
  -2  -5   4   33.02    0.72
   1   5  -4    4.73    0.28
   1   5  -4    4.75    0.22
   1   5  -4    4.85    0.22
   1   5  -4    4.42    0.29
   1   5  -4    4.31    0.27
  -1  -5   4    4.48    0.19
  -1  -5   4    4.14    0.25
  -1  -5   4    4.65    0.25
  -1  -5   4    4.41    0.28
   0   5  -4    2.30    0.19
   0   5  -4    2.45    0.18
   0   5  -4    2.22    0.20
   0   5  -4    2.02    0.20
   0   5  -4    2.66    0.20
   0  -5   4    2.31    0.15
   0  -5   4    2.64    0.20
   0  -5   4    2.48    0.22
   0  -5   4    2.15    0.21
   0  -5   4    2.24    0.18
  -1   5  -4   29.19    0.52
  -1   5  -4   29.19    0.58
  -1   5  -4   29.33    0.57
  -1   5  -4   29.77    0.61
   1  -5   4   31.25    0.64
   1  -5   4   29.77    0.63
   1  -5   4   29.28    0.57
   1  -5   4   28.64    0.54
   1  -5   4   28.60    0.51
  -2   5  -4    8.25    0.26
  -2   5  -4    9.07    0.33
  -2   5  -4    8.56    0.33
  -2   5  -4    8.50    0.30
  -2   5  -4    8.08    0.20
   2  -5   4    8.16    0.27
   2  -5   4    8.43    0.25
   2  -5   4    8.11    0.30
   2  -5   4    7.98    0.31
   2  -5   4    9.22    0.34
   2  -5   4    8.08    0.26
  -3   5  -4    1.72    0.13
  -3   5  -4    1.51    0.17
  -3   5  -4    1.65    0.19
  -3   5  -4    1.75    0.18
   3  -5   4    1.57    0.13
   3  -5   4    1.64    0.17
   3  -5   4    1.91    0.21
   3  -5   4    1.40    0.15
   3  -5   4    1.63    0.19
   3  -5   4    1.64    0.15
  -4   5  -4   27.65    0.57
  -4   5  -4   26.63    0.60
  -4   5  -4   26.66    0.66
  -4   5  -4   25.97    0.61
   4  -5   4   27.93    0.63
   4  -5   4   27.62    0.62
   4  -5   4   27.29    0.53
   4  -5   4   27.13    0.58
  -5   5  -4   22.69    0.62
  -5   5  -4   21.70    0.52
  -5   5  -4   22.41    0.60
  -5   5  -4   21.62    0.50
   5  -5   4   22.45    0.59
   5  -5   4   22.18    0.55
   5  -5   4   22.39    0.50
   5  -5   4   21.74    0.59
  -6   5  -4    1.31    0.22
  -6   5  -4    1.43    0.21
   6  -5   4    1.36    0.21
   6  -5   4    1.37    0.22
   6  -5   4    1.40    0.20
   6  -5   4    1.56    0.19
  -7   5  -4    1.75    0.25
  -7   5  -4    1.30    0.24
   7  -5   4    1.31    0.20
   7  -5   4    1.10    0.22
   7  -5   4    1.59    0.26
   7  -5   4    1.19    0.22
  -8   5  -4    0.17    0.18
  -8   5  -4    0.19    0.20
   8  -5   4    0.24    0.20
   8  -5   4    0.15    0.17
   8  -5   4    0.01    0.16
  -9   5  -4    0.84    0.28
   9  -5   4    1.12    0.26
   9  -5   4    0.26    0.21
   9  -5   4    0.87    0.26
   6   4  -4    5.12    0.43
   6   4  -4    6.10    0.48
  -6  -4   4    7.00    0.47
   5   4  -4    0.56    0.20
   5   4  -4    0.22    0.19
   5   4  -4    0.59    0.18
  -5  -4   4    0.78    0.21
   4   4  -4    1.05    0.22
   4   4  -4    1.38    0.21
   4   4  -4    1.36    0.23
  -4  -4   4    1.12    0.21
   3   4  -4   11.08    0.44
   3   4  -4   11.11    0.43
   3   4  -4   11.43    0.41
  -3  -4   4   10.36    0.37
  -3  -4   4   10.97    0.42
   2   4  -4   54.07    0.93
   2   4  -4   53.50    0.95
   2   4  -4   54.44    0.96
   2   4  -4   52.54    0.74
   2   4  -4   53.21    0.79
  -2  -4   4   52.61    0.74
  -2  -4   4   53.60    0.93
  -2  -4   4   53.82    0.87
   1   4  -4   35.87    0.60
   1   4  -4   37.14    0.61
   1   4  -4   36.93    0.69
   1   4  -4   36.22    0.70
   1   4  -4   36.33    0.70
  -1  -4   4   37.31    0.68
  -1  -4   4   37.00    0.64
  -1  -4   4   37.10    0.71
  -1  -4   4   36.26    0.53
  -1  -4   4   36.95    0.71
   0   4  -4   58.38    0.93
   0   4  -4   57.27    0.86
   0   4  -4   56.83    0.89
   0   4  -4   57.90    0.87
   0  -4   4   57.98    0.85
   0  -4   4   58.03    0.92
   0  -4   4   56.68    0.76
   0  -4   4   56.45    0.92
   0  -4   4   57.21    0.87
  -1   4  -4   29.92    0.58
  -1   4  -4   29.49    0.52
  -1   4  -4   30.17    0.58
  -1   4  -4   30.36    0.56
   1  -4   4   30.90    0.59
   1  -4   4   29.38    0.52
   1  -4   4   30.40    0.59
   1  -4   4   29.14    0.53
   1  -4   4   30.35    0.52
   1  -4   4   30.16    0.49
  -2   4  -4    5.13    0.23
  -2   4  -4    4.92    0.23
  -2   4  -4    4.63    0.25
  -2   4  -4    4.96    0.17
   2  -4   4    5.03    0.25
   2  -4   4    5.37    0.25
   2  -4   4    4.88    0.20
   2  -4   4    5.08    0.19
   2  -4   4    5.28    0.22
   2  -4   4    5.09    0.20
  -3   4  -4    7.85    0.29
  -3   4  -4    6.61    0.27
  -3   4  -4    7.14    0.26
  -3   4  -4    6.99    0.30
   3  -4   4    6.80    0.26
   3  -4   4    7.00    0.24
   3  -4   4    7.38    0.29
   3  -4   4    7.35    0.30
  -4   4  -4   30.90    0.65
  -4   4  -4   30.74    0.68
  -4   4  -4   31.08    0.56
  -4   4  -4   31.48    0.50
  -4   4  -4   31.91    0.63
   4  -4   4   32.66    0.66
   4  -4   4   30.97    0.61
   4  -4   4   31.61    0.65
   4  -4   4   31.13    0.47
   4  -4   4   31.55    0.58
  -5   4  -4   13.81    0.45
  -5   4  -4   13.68    0.46
   5  -4   4   13.76    0.46
   5  -4   4   13.48    0.39
   5  -4   4   12.22    0.40
   5  -4   4   13.25    0.44
   5  -4   4   14.02    0.37
  -6   4  -4    0.74    0.19
  -6   4  -4    0.64    0.17
   6  -4   4    0.69    0.15
   6  -4   4    0.40    0.15
   6  -4   4    0.65    0.17
   6  -4   4    0.78    0.19
  -7   4  -4   29.22    0.75
  -7   4  -4   28.27    0.78
   7  -4   4   28.83    0.70
   7  -4   4   28.65    0.77
   7  -4   4   28.22    0.76
   7  -4   4   28.20    0.72
  -8   4  -4    3.71    0.38
   8  -4   4    3.65    0.33
   8  -4   4    3.42    0.37
   8  -4   4    3.61    0.33
  -9   4  -4    0.40    0.25
   9  -4   4    0.35    0.24
   9  -4   4    0.51    0.22
   9  -4   4    0.25    0.21
   7   3  -4    1.34    0.28
   7   3  -4    2.18    0.31
   7   3  -4    1.60    0.32
  -7  -3   4    1.77    0.31
   6   3  -4    1.65    0.25
   6   3  -4    1.69    0.29
  -6  -3   4    1.80    0.27
   5   3  -4   54.97    1.00
   5   3  -4   54.88    1.09
   5   3  -4   55.24    1.14
  -5  -3   4   54.82    1.09
   4   3  -4   12.15    0.47
   4   3  -4   11.84    0.44
   4   3  -4   12.52    0.41
  -4  -3   4   12.56    0.45
  -4  -3   4   12.01    0.35
   3   3  -4   14.25    0.46
   3   3  -4   14.09    0.43
   3   3  -4   14.23    0.42
   3   3  -4   13.92    0.32
  -3  -3   4   13.55    0.34
  -3  -3   4   13.96    0.44
  -3  -3   4   14.29    0.37
   2   3  -4   20.78    0.36
   2   3  -4   21.31    0.50
   2   3  -4   21.42    0.49
   2   3  -4   21.97    0.41
  -2  -3   4   21.26    0.43
  -2  -3   4   20.98    0.49
  -2  -3   4   21.35    0.33
  -2  -3   4   20.81    0.49
   1   3  -4    0.86    0.13
   1   3  -4    1.11    0.11
   1   3  -4    1.05    0.13
   1   3  -4    1.15    0.12
  -1  -3   4    1.29    0.14
  -1  -3   4    1.04    0.07
  -1  -3   4    1.44    0.12
  -1  -3   4    1.12    0.13
  -1  -3   4    0.94    0.13
   0   3  -4    9.99    0.27
   0   3  -4    9.35    0.22
   0   3  -4    9.88    0.27
   0  -3   4    9.73    0.19
   0  -3   4    9.81    0.30
   0  -3   4    9.50    0.27
   0  -3   4    9.85    0.24
   0  -3   4    9.92    0.27
   0  -3   4    9.56    0.29
  -1   3  -4    2.01    0.16
  -1   3  -4    2.31    0.15
  -1   3  -4    2.23    0.16
  -1   3  -4    2.36    0.13
   1  -3   4    2.23    0.15
   1  -3   4    2.28    0.16
   1  -3   4    2.35    0.18
   1  -3   4    2.20    0.14
   1  -3   4    2.36    0.14
  -2   3  -4   31.60    0.53
  -2   3  -4   32.44    0.56
  -2   3  -4   31.82    0.57
  -2   3  -4   31.54    0.57
  -2   3  -4   30.64    0.42
   2  -3   4   32.02    0.58
   2  -3   4   32.20    0.53
   2  -3   4   31.20    0.47
   2  -3   4   31.27    0.58
   2  -3   4   32.27    0.54
  -3   3  -4    0.09    0.09
  -3   3  -4    0.09    0.09
  -3   3  -4    0.24    0.08
   3  -3   4    0.29    0.10
   3  -3   4    0.29    0.09
   3  -3   4   -0.01    0.09
   3  -3   4    0.14    0.06
   3  -3   4    0.05    0.09
  -4   3  -4    2.79    0.22
  -4   3  -4    3.48    0.23
  -4   3  -4    3.03    0.15
  -4   3  -4    3.50    0.21
   4  -3   4    3.03    0.23
   4  -3   4    3.19    0.17
   4  -3   4    3.10    0.23
   4  -3   4    3.00    0.20
   4  -3   4    2.84    0.20
  -5   3  -4    2.06    0.22
  -5   3  -4    2.14    0.22
   5  -3   4    1.73    0.19
   5  -3   4    1.92    0.21
   5  -3   4    1.90    0.17
   5  -3   4    2.09    0.20
   5  -3   4    1.53    0.19
  -6   3  -4    0.95    0.18
  -6   3  -4    0.83    0.17
   6  -3   4    0.99    0.20
   6  -3   4    0.95    0.18
   6  -3   4    0.95    0.16
   6  -3   4    0.68    0.17
  -7   3  -4    0.25    0.18
  -7   3  -4    0.24    0.16
   7  -3   4    0.33    0.19
   7  -3   4    0.65    0.19
   7  -3   4    0.21    0.16
  -8   3  -4    0.02    0.18
   8  -3   4   -0.29    0.18
   8  -3   4    0.00    0.16
   7   2  -4    0.10    0.20
   7   2  -4   -0.24    0.16
   7   2  -4    0.26    0.19
  -7  -2   4    0.10    0.18
   6   2  -4   11.02    0.47
   6   2  -4   10.42    0.50
   6   2  -4    9.89    0.40
  -6  -2   4   10.01    0.47
   5   2  -4   22.47    0.65
   5   2  -4   23.88    0.63
   5   2  -4   23.27    0.57
  -5  -2   4   23.84    0.54
  -5  -2   4   24.02    0.64
   4   2  -4   15.93    0.35
   4   2  -4   16.98    0.45
   4   2  -4   16.96    0.48
   4   2  -4   15.99    0.50
  -4  -2   4   15.92    0.47
  -4  -2   4   16.48    0.37
   3   2  -4    0.61    0.13
   3   2  -4    0.54    0.09
   3   2  -4    0.91    0.13
  -3  -2   4    0.48    0.08
  -3  -2   4    0.37    0.11
   2   2  -4    4.10    0.12
   2   2  -4    3.73    0.21
   2   2  -4    3.82    0.17
   2   2  -4    4.07    0.21
  -2  -2   4    4.21    0.16
  -2  -2   4    4.26    0.21
  -2  -2   4    4.14    0.21
  -2  -2   4    3.94    0.13
   1   2  -4    0.11    0.08
   1   2  -4    0.14    0.07
   1   2  -4    0.08    0.07
   1   2  -4    0.13    0.08
   1   2  -4    0.23    0.05
  -1  -2   4    0.19    0.08
  -1  -2   4    0.16    0.06
  -1  -2   4    0.05    0.07
  -1  -2   4    0.18    0.08
   0   2  -4   36.82    0.57
   0   2  -4   37.05    0.55
   0   2  -4   37.33    0.59
   0   2  -4   37.11    0.56
   0   2  -4   38.18    0.59
   0  -2   4   36.83    0.51
   0  -2   4   37.64    0.58
   0  -2   4   36.21    0.58
   0  -2   4   37.66    0.58
   0  -2   4   37.50    0.59
  -1   2  -4   79.98    1.06
  -1   2  -4   79.87    1.07
  -1   2  -4   81.79    1.03
  -1   2  -4   80.73    1.05
  -1   2  -4   80.51    1.02
   1  -2   4   79.58    0.99
   1  -2   4   79.62    1.03
   1  -2   4   79.65    1.05
   1  -2   4   79.14    1.07
   1  -2   4   81.72    1.06
  -2   2  -4    3.77    0.18
  -2   2  -4    3.66    0.14
  -2   2  -4    3.49    0.17
  -2   2  -4    3.79    0.20
   2  -2   4    3.93    0.17
   2  -2   4    3.77    0.17
   2  -2   4    3.97    0.19
   2  -2   4    3.67    0.19
   2  -2   4    3.62    0.19
  -3   2  -4    0.18    0.08
  -3   2  -4    0.27    0.05
  -3   2  -4    0.24    0.10
  -3   2  -4    0.24    0.09
   3  -2   4    0.17    0.10
   3  -2   4    0.26    0.10
   3  -2   4    0.26    0.09
   3  -2   4    0.34    0.10
  -4   2  -4   39.26    0.74
  -4   2  -4   37.76    0.64
   4  -2   4   38.70    0.73
   4  -2   4   38.97    0.74
   4  -2   4   38.77    0.68
   4  -2   4   37.88    0.70
  -5   2  -4  146.73    2.03
  -5   2  -4  148.01    1.98
   5  -2   4  146.80    1.97
   5  -2   4  144.12    2.02
   5  -2   4  145.91    1.96
   5  -2   4  145.12    2.02
  -6   2  -4    2.31    0.23
  -6   2  -4    2.39    0.28
   6  -2   4    2.20    0.25
   6  -2   4    2.39    0.25
   6  -2   4    1.87    0.22
   6  -2   4    2.05    0.25
  -7   2  -4    5.56    0.40
   7  -2   4    4.80    0.35
   7  -2   4    5.31    0.42
   7  -2   4    4.94    0.38
  -8   2  -4    4.19    0.41
   8  -2   4    4.17    0.38
   8  -2   4    4.25    0.43
   8   1  -4    7.15    0.49
   8   1  -4    8.06    0.46
   8   1  -4    7.31    0.44
  -8  -1   4    6.86    0.47
   7   1  -4    0.17    0.18
   7   1  -4    0.39    0.17
  -7  -1   4    0.20    0.17
   6   1  -4    6.39    0.31
   6   1  -4    6.12    0.38
   6   1  -4    6.70    0.37
  -6  -1   4    6.27    0.37
   5   1  -4    8.96    0.28
   5   1  -4    9.64    0.41
   5   1  -4    9.10    0.37
   5   1  -4    9.63    0.34
  -5  -1   4    9.66    0.38
  -5  -1   4    9.27    0.29
   4   1  -4   38.96    0.60
   4   1  -4   38.67    0.63
   4   1  -4   39.45    0.73
   4   1  -4   39.09    0.71
  -4  -1   4   38.74    0.74
  -4  -1   4   39.06    0.60
   3   1  -4   51.78    0.84
   3   1  -4   52.59    0.76
   3   1  -4   52.16    0.82
   3   1  -4   51.81    0.71
  -3  -1   4   50.20    0.67
  -3  -1   4   50.73    0.83
   2   1  -4  293.94    3.40
   2   1  -4  302.49    3.42
   2   1  -4  305.37    3.37
   2   1  -4  304.23    3.47
  -2  -1   4  295.41    3.46
  -2  -1   4  293.45    3.46
   1   1  -4   17.82    0.31
   1   1  -4   17.72    0.35
   1   1  -4   18.10    0.33
   1   1  -4   17.67    0.23
   1   1  -4   17.47    0.36
  -1  -1   4   17.60    0.32
  -1  -1   4   17.75    0.35
  -1  -1   4   17.63    0.35
  -1  -1   4   17.87    0.33
  -1  -1   4   17.17    0.24
   0   1  -4   68.26    0.90
   0   1  -4   70.74    0.92
   0   1  -4   68.95    0.86
   0   1  -4   68.75    0.92
   0   1  -4   70.46    0.84
   0   1  -4   69.34    0.84
   0  -1   4   67.95    0.89
   0  -1   4   69.27    0.91
   0  -1   4   69.06    0.89
   0  -1   4   68.19    0.87
   0  -1   4   68.31    0.93
   0  -1   4   68.78    0.80
  -1   1  -4    7.86    0.21
  -1   1  -4    7.41    0.18
  -1   1  -4    7.49    0.22
  -1   1  -4    7.80    0.21
  -1   1  -4    7.64    0.20
   1  -1   4    7.69    0.21
   1  -1   4    7.96    0.22
   1  -1   4    7.34    0.17
   1  -1   4    7.41    0.22
   1  -1   4    7.54    0.23
  -2   1  -4   35.88    0.46
  -2   1  -4   36.50    0.63
  -2   1  -4   35.96    0.55
  -2   1  -4   36.52    0.61
   2  -1   4   36.21    0.60
   2  -1   4   35.64    0.49
   2  -1   4   36.67    0.60
   2  -1   4   34.95    0.59
   2  -1   4   37.06    0.61
  -3   1  -4   -0.01    0.06
  -3   1  -4    0.10    0.09
  -3   1  -4    0.05    0.09
   3  -1   4    0.09    0.09
   3  -1   4    0.08    0.06
   3  -1   4    0.08    0.09
   3  -1   4    0.06    0.09
   3  -1   4    0.05    0.08
  -4   1  -4    2.46    0.21
  -4   1  -4    2.93    0.22
  -4   1  -4    2.63    0.16
   4  -1   4    2.67    0.22
   4  -1   4    3.03    0.23
   4  -1   4    2.71    0.15
   4  -1   4    3.05    0.23
   4  -1   4    2.93    0.23
  -5   1  -4    0.07    0.13
   5  -1   4    0.17    0.14
   5  -1   4    0.33    0.14
   5  -1   4    0.30    0.14
   5  -1   4    0.14    0.13
  -6   1  -4    0.12    0.17
   6  -1   4    0.01    0.15
   6  -1   4    0.10    0.15
   6  -1   4    0.08    0.15
   6  -1   4    0.08    0.16
  -7   1  -4    5.96    0.44
   7  -1   4    6.31    0.41
   7  -1   4    5.58    0.41
   7  -1   4    6.04    0.46
  -8   1  -4    0.67    0.26
   8  -1   4    0.30    0.22
   8  -1   4    0.26    0.22
   8  -1   4    0.57    0.27
   8   0  -4    1.13    0.26
   8   0  -4    1.04    0.23
   8   0  -4    0.98    0.21
  -8   0   4    1.26    0.25
   7   0  -4   16.73    0.55
   7   0  -4   17.08    0.50
   7   0  -4   17.87    0.61
   7   0  -4   17.01    0.55
  -7   0   4   15.43    0.55
   6   0  -4    0.92    0.13
   6   0  -4    0.59    0.13
   6   0  -4    0.76    0.13
   6   0  -4    0.74    0.17
   6   0  -4    0.82    0.17
  -6   0   4    1.03    0.19
  -6   0   4    1.04    0.15
   5   0  -4   15.92    0.43
   5   0  -4   15.62    0.39
   5   0  -4   15.33    0.38
   5   0  -4   16.39    0.45
  -5   0   4   16.36    0.44
  -5   0   4   15.61    0.37
  -5   0   4   15.87    0.45
   4   0  -4    0.26    0.08
   4   0  -4    0.20    0.08
   4   0  -4    0.14    0.09
  -4   0   4   -0.04    0.08
  -4   0   4    0.20    0.07
  -4   0   4    0.05    0.08
   3   0  -4   59.15    0.83
   3   0  -4   57.30    0.87
   3   0  -4   56.99    0.76
   3   0  -4   56.96    0.83
  -3   0   4   55.86    0.72
  -3   0   4   56.63    0.86
  -3   0   4   57.64    0.85
   2   0  -4    2.38    0.16
   2   0  -4    2.29    0.14
   2   0  -4    2.55    0.11
   2   0  -4    2.35    0.11
   2   0  -4    2.58    0.15
  -2   0   4    2.44    0.15
  -2   0   4    2.28    0.15
   1   0  -4    5.92    0.20
   1   0  -4    5.68    0.16
   1   0  -4    5.61    0.12
   1   0  -4    5.49    0.19
  -1   0   4    5.71    0.21
  -1   0   4    5.28    0.14
  -1   0   4    5.41    0.18
  -1   0   4    5.62    0.12
  -1   0   4    5.38    0.19
   0   0  -4    0.46    0.07
   0   0  -4    0.72    0.09
   0   0  -4    0.56    0.09
   0   0  -4    0.58    0.08
   0   0  -4    0.57    0.06
   0   0   4    0.50    0.06
   0   0   4    0.52    0.07
   0   0   4    0.40    0.08
   0   0   4    0.54    0.08
   0   0   4    0.42    0.09
  -1   0  -4    8.88    0.27
  -1   0  -4    9.16    0.22
  -1   0  -4    8.83    0.25
  -1   0  -4    8.62    0.25
   1   0   4    8.73    0.27
   1   0   4    9.00    0.22
   1   0   4    9.03    0.19
   1   0   4    8.98    0.23
   1   0   4    8.95    0.23
   1   0   4    8.66    0.25
  -2   0  -4  362.28    4.02
  -2   0  -4  357.17    4.16
  -2   0  -4  360.93    4.17
  -2   0  -4  358.22    4.15
   2   0   4  360.06    4.13
   2   0   4  362.75    4.06
   2   0   4  355.95    3.95
   2   0   4  356.26    4.19
   2   0   4  358.57    4.12
   2   0   4  364.98    4.12
  -3   0  -4   15.12    0.42
  -3   0  -4   15.00    0.40
  -3   0  -4   14.38    0.41
  -3   0  -4   14.64    0.29
   3   0   4   14.81    0.41
   3   0   4   14.82    0.40
   3   0   4   14.61    0.40
   3   0   4   14.56    0.34
   3   0   4   14.91    0.43
   3   0   4   14.74    0.23
  -4   0  -4   13.81    0.42
  -4   0  -4   13.06    0.44
   4   0   4   13.12    0.35
   4   0   4   13.44    0.42
   4   0   4   13.44    0.44
   4   0   4   13.49    0.44
   4   0   4   13.96    0.46
  -5   0  -4    0.49    0.17
  -5   0  -4    0.40    0.14
   5   0   4    0.37    0.17
   5   0   4    0.43    0.16
   5   0   4    0.50    0.16
   5   0   4    0.34    0.17
   5   0   4    0.35    0.12
  -6   0  -4    0.48    0.20
   6   0   4    0.77    0.20
   6   0   4    0.30    0.20
   6   0   4    0.13    0.18
   6   0   4    0.97    0.22
  -7   0  -4    0.11    0.20
   7   0   4   -0.06    0.19
   7   0   4    0.42    0.23
   7   0   4    0.29    0.20
   9  -1  -4    1.04    0.25
   9  -1  -4    0.40    0.21
   9  -1  -4    0.86    0.23
   8  -1  -4    7.59    0.43
   8  -1  -4    7.35    0.41
   8  -1  -4    7.45    0.39
   8  -1  -4    8.86    0.42
  -8   1   4    8.46    0.44
   7  -1  -4    9.37    0.39
   7  -1  -4    8.80    0.37
   7  -1  -4    9.26    0.42
   7  -1  -4    9.82    0.40
   7  -1  -4    9.39    0.35
   7  -1  -4    9.37    0.37
   7  -1  -4   10.16    0.40
  -7   1   4    9.11    0.41
   6  -1  -4   10.26    0.34
   6  -1  -4   10.00    0.34
   6  -1  -4    9.43    0.35
   6  -1  -4   10.08    0.36
   6  -1  -4    9.71    0.37
   6  -1  -4    9.97    0.35
  -6   1   4   10.33    0.38
  -6   1   4   10.26    0.34
  -6   1   4    9.81    0.37
   5  -1  -4   94.09    1.29
   5  -1  -4   93.81    1.31
   5  -1  -4   93.38    1.32
   5  -1  -4   95.16    1.36
   5  -1  -4   94.96    1.34
  -5   1   4   94.93    1.34
  -5   1   4   94.34    1.36
  -5   1   4   93.83    1.26
   4  -1  -4   44.34    0.69
   4  -1  -4   44.46    0.74
   4  -1  -4   45.47    0.75
   4  -1  -4   44.37    0.65
   4  -1  -4   44.68    0.67
  -4   1   4   43.55    0.75
  -4   1   4   43.68    0.71
  -4   1   4   42.72    0.65
   3  -1  -4  128.70    1.62
   3  -1  -4  128.14    1.49
   3  -1  -4  125.65    1.55
   3  -1  -4  125.12    1.48
   3  -1  -4  126.57    1.63
  -3   1   4  127.22    1.63
  -3   1   4  125.16    1.57
   2  -1  -4   13.68    0.32
   2  -1  -4   13.39    0.22
   2  -1  -4   14.12    0.30
   2  -1  -4   13.40    0.34
  -2   1   4   13.82    0.30
  -2   1   4   13.81    0.27
  -2   1   4   13.91    0.33
   1  -1  -4   10.47    0.26
   1  -1  -4   10.08    0.19
   1  -1  -4    9.53    0.26
   1  -1  -4   10.15    0.28
  -1   1   4   10.05    0.28
  -1   1   4   10.09    0.22
  -1   1   4   10.14    0.26
   0  -1  -4   20.61    0.43
   0  -1  -4   20.49    0.37
   0  -1  -4   20.72    0.34
   0  -1  -4   21.24    0.41
   0   1   4   20.24    0.32
   0   1   4   20.46    0.41
   0   1   4   20.53    0.38
   0   1   4   20.74    0.33
   0   1   4   20.73    0.37
   0   1   4   20.53    0.44
  -1  -1  -4    2.35    0.18
  -1  -1  -4    2.77    0.13
  -1  -1  -4    2.86    0.18
   1   1   4    2.90    0.17
   1   1   4    2.74    0.16
   1   1   4    2.99    0.17
   1   1   4    2.85    0.15
   1   1   4    2.72    0.20
   1   1   4    2.65    0.14
  -2  -1  -4   28.84    0.56
  -2  -1  -4   27.61    0.57
  -2  -1  -4   28.58    0.59
  -2  -1  -4   29.38    0.43
   2   1   4   28.82    0.62
   2   1   4   29.16    0.54
   2   1   4   28.68    0.45
   2   1   4   27.76    0.55
   2   1   4   28.63    0.54
  -3  -1  -4   17.16    0.48
  -3  -1  -4   16.11    0.43
   3   1   4   17.07    0.42
   3   1   4   16.25    0.32
   3   1   4   16.60    0.45
   3   1   4   16.38    0.49
   3   1   4   16.32    0.45
  -4  -1  -4    4.63    0.30
  -4  -1  -4    4.98    0.28
  -4  -1  -4    4.57    0.30
   4   1   4    4.44    0.29
   4   1   4    4.84    0.31
   4   1   4    4.50    0.33
   4   1   4    4.55    0.26
  -5  -1  -4   18.65    0.53
  -5  -1  -4   19.05    0.63
   5   1   4   18.75    0.63
   5   1   4   17.39    0.56
   5   1   4   18.03    0.59
   5   1   4   18.25    0.51
   5   1   4   18.80    0.60
  -6  -1  -4    0.05    0.19
   6   1   4    0.15    0.18
   6   1   4    0.35    0.21
   6   1   4    0.22    0.21
  -7  -1  -4    1.42    0.30
   7   1   4    0.80    0.28
   7   1   4    1.66    0.33
   7   1   4    1.18    0.26
   9  -2  -4    2.97    0.29
   9  -2  -4    2.76    0.28
   9  -2  -4    3.32    0.43
   9  -2  -4    3.15    0.32
   8  -2  -4    1.23    0.21
   8  -2  -4    1.05    0.18
   8  -2  -4    1.24    0.21
   8  -2  -4    0.81    0.19
   8  -2  -4    1.38    0.20
   8  -2  -4    1.22    0.18
   8  -2  -4    0.98    0.18
   8  -2  -4    1.08    0.19
   8  -2  -4    1.26    0.20
   8  -2  -4    1.57    0.23
  -8   2   4    1.00    0.20
  -8   2   4    1.39    0.22
   7  -2  -4    6.95    0.34
   7  -2  -4    6.51    0.32
   7  -2  -4    6.51    0.34
   7  -2  -4    6.01    0.29
   7  -2  -4    6.59    0.29
   7  -2  -4    6.94    0.33
   7  -2  -4    6.83    0.32
   7  -2  -4    5.99    0.33
   7  -2  -4    6.94    0.32
   7  -2  -4    6.54    0.32
  -7   2   4    6.07    0.33
  -7   2   4    6.72    0.32
  -7   2   4    7.08    0.34
   6  -2  -4    1.53    0.20
   6  -2  -4    1.37    0.14
   6  -2  -4    1.49    0.18
   6  -2  -4    1.37    0.17
   6  -2  -4    1.69    0.17
   6  -2  -4    1.72    0.17
  -6   2   4    1.69    0.18
  -6   2   4    1.32    0.19
  -6   2   4    1.45    0.17
  -6   2   4    1.42    0.18
   5  -2  -4    7.84    0.26
   5  -2  -4    7.86    0.26
   5  -2  -4    8.28    0.29
   5  -2  -4    7.91    0.32
   5  -2  -4    7.93    0.25
  -5   2   4    8.07    0.32
  -5   2   4    8.06    0.31
  -5   2   4    8.01    0.28
   4  -2  -4    3.09    0.14
   4  -2  -4    3.30    0.15
   4  -2  -4    3.38    0.22
   4  -2  -4    3.04    0.15
   4  -2  -4    3.36    0.19
  -4   2   4    3.21    0.17
  -4   2   4    2.81    0.21
  -4   2   4    3.42    0.21
   3  -2  -4   28.81    0.45
   3  -2  -4   29.96    0.53
   3  -2  -4   27.74    0.39
   3  -2  -4   29.27    0.41
   3  -2  -4   28.99    0.58
  -3   2   4   29.90    0.58
  -3   2   4   29.20    0.56
  -3   2   4   29.28    0.47
   2  -2  -4   82.41    1.03
   2  -2  -4   82.90    1.13
   2  -2  -4   84.31    1.14
   2  -2  -4   81.91    1.17
  -2   2   4   81.89    1.14
  -2   2   4   83.55    1.01
  -2   2   4   84.29    1.16
   1  -2  -4   43.69    0.73
   1  -2  -4   44.26    0.71
   1  -2  -4   43.63    0.68
   1  -2  -4   43.02    0.62
  -1   2   4   44.78    0.73
  -1   2   4   44.43    0.56
  -1   2   4   44.70    0.61
  -1   2   4   44.56    0.73
  -1   2   4   44.50    0.70
   0  -2  -4    8.50    0.28
   0  -2  -4    8.42    0.24
   0  -2  -4    9.02    0.24
   0  -2  -4    8.53    0.29
   0   2   4    8.38    0.26
   0   2   4    8.69    0.31
   0   2   4    8.62    0.29
   0   2   4    8.90    0.24
  -1  -2  -4   20.92    0.46
  -1  -2  -4   20.87    0.44
  -1  -2  -4   20.73    0.48
  -1  -2  -4   21.25    0.37
   1   2   4   21.13    0.44
   1   2   4   20.83    0.47
   1   2   4   20.82    0.42
  -2  -2  -4   40.74    0.72
  -2  -2  -4   40.28    0.77
  -2  -2  -4   40.18    0.78
   2   2   4   40.53    0.65
   2   2   4   41.80    0.75
   2   2   4   40.71    0.72
   2   2   4   39.53    0.81
  -3  -2  -4    7.29    0.35
  -3  -2  -4    7.66    0.32
  -3  -2  -4    7.24    0.35
   3   2   4    7.84    0.34
   3   2   4    7.82    0.26
   3   2   4    7.78    0.39
   3   2   4    7.32    0.33
  -4  -2  -4    0.10    0.13
  -4  -2  -4    0.07    0.12
  -4  -2  -4   -0.04    0.14
   4   2   4   -0.06    0.13
   4   2   4   -0.07    0.15
   4   2   4    0.06    0.13
   4   2   4    0.06    0.14
  -5  -2  -4    5.32    0.41
   5   2   4    5.68    0.36
   5   2   4    4.78    0.38
   5   2   4    5.03    0.43
  -6  -2  -4   -0.04    0.19
   6   2   4    0.12    0.19
   6   2   4    0.26    0.22
   6   2   4   -0.27    0.19
   9  -3  -4    0.00    0.15
   9  -3  -4   -0.04    0.14
   9  -3  -4    0.07    0.15
   8  -3  -4    2.12    0.25
   8  -3  -4    1.98    0.22
   8  -3  -4    2.03    0.24
   8  -3  -4    2.01    0.26
   8  -3  -4    2.13    0.24
   8  -3  -4    2.04    0.21
   8  -3  -4    2.52    0.27
  -8   3   4    1.79    0.24
   7  -3  -4   18.29    0.48
   7  -3  -4   19.37    0.53
   7  -3  -4   18.20    0.49
   7  -3  -4   18.89    0.58
   7  -3  -4   19.37    0.47
   7  -3  -4   18.28    0.48
  -7   3   4   18.29    0.53
  -7   3   4   19.44    0.55
   6  -3  -4   44.69    0.76
   6  -3  -4   46.69    0.91
   6  -3  -4   45.50    0.73
   6  -3  -4   44.39    0.75
   6  -3  -4   44.14    0.77
   6  -3  -4   45.02    0.84
  -6   3   4   44.95    0.90
  -6   3   4   44.95    0.86
  -6   3   4   45.19    0.86
   5  -3  -4    5.40    0.21
   5  -3  -4    5.58    0.22
   5  -3  -4    5.91    0.27
   5  -3  -4    5.80    0.21
   5  -3  -4    5.87    0.30
  -5   3   4    5.74    0.21
  -5   3   4    5.55    0.29
  -5   3   4    5.69    0.29
   4  -3  -4    0.23    0.08
   4  -3  -4    0.05    0.05
   4  -3  -4    0.13    0.10
   4  -3  -4    0.13    0.09
   4  -3  -4    0.02    0.06
  -4   3   4    0.15    0.11
  -4   3   4    0.04    0.06
  -4   3   4    0.12    0.10
   3  -3  -4   42.48    0.57
   3  -3  -4   42.70    0.78
   3  -3  -4   42.21    0.65
   3  -3  -4   42.37    0.73
  -3   3   4   41.89    0.70
  -3   3   4   40.80    0.56
  -3   3   4   42.18    0.75
  -3   3   4   42.90    0.60
  -3   3   4   42.58    0.79
   2  -3  -4    1.44    0.12
   2  -3  -4    1.55    0.17
   2  -3  -4    1.95    0.17
  -2   3   4    1.44    0.09
  -2   3   4    1.32    0.15
  -2   3   4    1.62    0.16
  -2   3   4    1.40    0.16
  -2   3   4    1.82    0.19
  -2   3   4    1.55    0.09
   1  -3  -4   16.63    0.42
   1  -3  -4   16.33    0.36
   1  -3  -4   16.52    0.42
   1  -3  -4   16.16    0.37
  -1   3   4   15.98    0.30
  -1   3   4   15.83    0.42
  -1   3   4   16.70    0.41
  -1   3   4   16.28    0.43
  -1   3   4   15.71    0.31
   0  -3  -4   18.06    0.46
   0  -3  -4   18.25    0.41
   0  -3  -4   18.46    0.38
   0  -3  -4   18.07    0.45
   0   3   4   19.00    0.38
   0   3   4   18.60    0.49
   0   3   4   17.99    0.47
   0   3   4   18.84    0.44
  -1  -3  -4    4.96    0.25
  -1  -3  -4    4.27    0.27
  -1  -3  -4    5.05    0.25
  -1  -3  -4    4.49    0.17
   1   3   4    4.77    0.27
   1   3   4    5.10    0.23
   1   3   4    4.78    0.29
   1   3   4    5.00    0.24
  -2  -3  -4   16.21    0.50
  -2  -3  -4   15.89    0.44
   2   3   4   16.03    0.45
   2   3   4   17.07    0.50
   2   3   4   16.35    0.42
   2   3   4   15.79    0.54
  -3  -3  -4    0.83    0.18
  -3  -3  -4    0.73    0.16
  -3  -3  -4    0.81    0.19
   3   3   4    0.55    0.16
   3   3   4    0.98    0.22
   3   3   4    0.34    0.16
  -4  -3  -4   16.98    0.59
  -4  -3  -4   17.12    0.63
   4   3   4   16.86    0.64
   4   3   4   16.94    0.56
   4   3   4   16.40    0.56
  -5  -3  -4    2.93    0.37
   5   3   4    2.32    0.29
   5   3   4    2.94    0.37
   5   3   4    2.54    0.31
   9  -4  -4    2.73    0.32
   9  -4  -4    3.32    0.34
   9  -4  -4    2.51    0.29
   9  -4  -4    2.89    0.28
   8  -4  -4    6.42    0.34
   8  -4  -4    7.05    0.43
   8  -4  -4    6.95    0.39
  -8   4   4    6.44    0.38
   7  -4  -4    0.58    0.17
   7  -4  -4    0.49    0.13
   7  -4  -4    0.59    0.18
  -7   4   4    0.30    0.16
  -7   4   4    0.55    0.17
   6  -4  -4   33.25    0.64
   6  -4  -4   31.40    0.62
   6  -4  -4   32.81    0.72
   6  -4  -4   32.16    0.76
  -6   4   4   32.91    0.76
  -6   4   4   31.85    0.72
   5  -4  -4   48.07    0.88
   5  -4  -4   47.51    0.73
   5  -4  -4   48.59    0.94
   5  -4  -4   48.69    0.79
  -5   4   4   47.91    0.94
  -5   4   4   47.32    0.89
   4  -4  -4    0.50    0.08
   4  -4  -4    0.49    0.11
   4  -4  -4    0.41    0.13
   4  -4  -4    0.58    0.15
  -4   4   4    0.37    0.14
  -4   4   4    0.39    0.13
   3  -4  -4   36.20    0.71
   3  -4  -4   35.01    0.53
   3  -4  -4   34.58    0.61
   3  -4  -4   35.56    0.73
  -3   4   4   35.08    0.71
  -3   4   4   34.89    0.75
  -3   4   4   34.63    0.70
  -3   4   4   35.20    0.64
   2  -4  -4    1.81    0.20
   2  -4  -4    1.52    0.15
   2  -4  -4    1.78    0.19
  -2   4   4    1.44    0.12
  -2   4   4    1.39    0.19
  -2   4   4    1.97    0.19
  -2   4   4    1.80    0.19
  -2   4   4    1.45    0.17
   1  -4  -4   25.26    0.57
   1  -4  -4   25.87    0.53
   1  -4  -4   25.71    0.59
  -1   4   4   25.06    0.60
  -1   4   4   25.41    0.57
  -1   4   4   25.11    0.58
  -1   4   4   25.71    0.43
   0  -4  -4    3.76    0.24
   0  -4  -4    3.72    0.23
   0  -4  -4    3.58    0.19
   0  -4  -4    4.03    0.27
   0   4   4    3.42    0.26
   0   4   4    3.76    0.24
   0   4   4    3.70    0.20
   0   4   4    3.52    0.28
  -1  -4  -4    0.02    0.12
  -1  -4  -4    0.07    0.11
  -1  -4  -4    0.17    0.11
   1   4   4    0.16    0.11
   1   4   4    0.07    0.11
   1   4   4    0.16    0.14
   1   4   4    0.31    0.15
  -2  -4  -4    1.64    0.23
   2   4   4    1.86    0.21
   2   4   4    1.92    0.26
   2   4   4    2.37    0.26
   2   4   4    2.09    0.22
  -3  -4  -4    5.19    0.43
  -3  -4  -4    5.07    0.38
   3   4   4    5.32    0.38
   3   4   4    5.04    0.43
   3   4   4    5.72    0.35
  -4  -4  -4    0.45    0.20
  -4  -4  -4    0.57    0.23
   4   4   4    1.02    0.23
   4   4   4    0.30    0.21
   4   4   4    0.69    0.25
   9  -5  -4    1.95    0.30
   9  -5  -4    2.18    0.26
   9  -5  -4    2.31    0.30
   8  -5  -4    7.52    0.37
   8  -5  -4    8.27    0.47
   8  -5  -4    7.58    0.42
  -8   5   4    7.63    0.45
  -8   5   4    7.48    0.42
   7  -5  -4    2.22    0.27
   7  -5  -4    2.39    0.23
   7  -5  -4    2.30    0.29
  -7   5   4    1.82    0.27
  -7   5   4    2.04    0.24
   6  -5  -4    2.40    0.28
   6  -5  -4    2.07    0.21
   6  -5  -4    2.18    0.26
  -6   5   4    2.28    0.27
  -6   5   4    1.97    0.25
   5  -5  -4    2.86    0.28
   5  -5  -4    2.75    0.22
   5  -5  -4    2.78    0.26
  -5   5   4    2.61    0.26
  -5   5   4    2.27    0.27
   4  -5  -4    0.15    0.11
   4  -5  -4    0.18    0.13
   4  -5  -4    0.24    0.13
  -4   5   4    0.02    0.10
  -4   5   4   -0.02    0.12
  -4   5   4    0.33    0.15
   3  -5  -4    6.07    0.33
   3  -5  -4    6.85    0.23
   3  -5  -4    6.30    0.32
   3  -5  -4    6.35    0.28
  -3   5   4    6.42    0.29
  -3   5   4    6.79    0.36
  -3   5   4    6.55    0.34
  -3   5   4    6.50    0.32
   2  -5  -4    0.63    0.16
   2  -5  -4    1.05    0.15
   2  -5  -4    1.03    0.18
  -2   5   4    1.04    0.18
  -2   5   4    0.74    0.15
  -2   5   4    0.70    0.16
  -2   5   4    0.79    0.16
   1  -5  -4    0.30    0.12
   1  -5  -4    0.56    0.14
   1  -5  -4    0.62    0.16
  -1   5   4    0.40    0.15
  -1   5   4    0.75    0.17
  -1   5   4    0.38    0.15
   0  -5  -4    1.75    0.21
   0  -5  -4    2.01    0.25
   0  -5  -4    1.65    0.19
   0   5   4    1.44    0.22
   0   5   4    1.66    0.24
   0   5   4    1.67    0.21
  -1  -5  -4   19.27    0.56
  -1  -5  -4   18.05    0.59
   1   5   4   17.75    0.54
   1   5   4   19.17    0.63
   1   5   4   18.70    0.63
  -2  -5  -4   16.13    0.59
  -2  -5  -4   17.34    0.56
   2   5   4   17.57    0.62
   2   5   4   17.06    0.65
   2   5   4   16.88    0.52
   2   5   4   17.70    0.55
  -3  -5  -4    1.52    0.27
  -3  -5  -4    1.56    0.30
   3   5   4    1.43    0.30
   3   5   4    1.56    0.27
   3   5   4    1.74    0.26
   9  -6  -4    3.08    0.36
   9  -6  -4    2.55    0.35
  -9   6   4    1.69    0.31
  -9   6   4    2.68    0.39
   8  -6  -4    0.22    0.20
   8  -6  -4   -0.08    0.17
   8  -6  -4   -0.04    0.14
  -8   6   4    0.27    0.20
  -8   6   4    0.11    0.19
   7  -6  -4    0.14    0.17
   7  -6  -4    0.08    0.13
   7  -6  -4    0.27    0.18
  -7   6   4    0.17    0.18
  -7   6   4   -0.07    0.16
   6  -6  -4    7.02    0.36
   6  -6  -4    8.36    0.45
   6  -6  -4    7.92    0.42
  -6   6   4    8.39    0.46
  -6   6   4    8.11    0.42
   5  -6  -4   58.49    1.01
   5  -6  -4   57.98    1.16
   5  -6  -4   60.39    1.13
  -5   6   4   58.08    1.19
  -5   6   4   59.07    1.13
   4  -6  -4    5.12    0.34
   4  -6  -4    4.75    0.28
   4  -6  -4    4.63    0.32
  -4   6   4    5.07    0.35
  -4   6   4    4.90    0.34
  -4   6   4    5.81    0.38
   3  -6  -4   22.48    0.57
   3  -6  -4   22.72    0.64
   3  -6  -4   22.47    0.63
  -3   6   4   22.43    0.64
  -3   6   4   22.67    0.58
  -3   6   4   23.92    0.65
  -3   6   4   23.62    0.69
   2  -6  -4    1.54    0.23
   2  -6  -4    1.35    0.19
   2  -6  -4    1.43    0.21
  -2   6   4    1.43    0.22
  -2   6   4    1.18    0.21
  -2   6   4    1.72    0.22
   1  -6  -4    1.87    0.24
   1  -6  -4    1.58    0.21
   1  -6  -4    1.87    0.22
  -1   6   4    1.77    0.24
  -1   6   4    1.65    0.24
  -1   6   4    1.68    0.25
   0  -6  -4    7.81    0.43
   0  -6  -4    7.69    0.38
   0   6   4    8.01    0.41
   0   6   4    8.08    0.45
   0   6   4    8.27    0.46
  -1  -6  -4    0.06    0.16
  -1  -6  -4    0.01    0.15
   1   6   4   -0.21    0.17
   1   6   4    0.01    0.15
   1   6   4   -0.26    0.16
  -2  -6  -4    0.16    0.18
   2   6   4   -0.11    0.18
   2   6   4   -0.04    0.22
   8  -7  -4    1.06    0.25
   8  -7  -4    0.87    0.26
   8  -7  -4    1.20    0.24
  -8   7   4    0.84    0.26
  -8   7   4    0.62    0.24
   7  -7  -4    0.63    0.22
   7  -7  -4    0.23    0.21
   7  -7  -4    0.40    0.18
  -7   7   4    0.19    0.20
  -7   7   4    0.46    0.22
   6  -7  -4    8.76    0.41
   6  -7  -4    8.90    0.48
   6  -7  -4    8.91    0.49
  -6   7   4    7.89    0.49
  -6   7   4    8.19    0.47
   5  -7  -4    2.32    0.26
   5  -7  -4    2.23    0.29
   5  -7  -4    2.04    0.30
  -5   7   4    2.59    0.31
  -5   7   4    2.35    0.31
   4  -7  -4   -0.08    0.14
   4  -7  -4    0.15    0.16
   4  -7  -4    0.14    0.14
  -4   7   4   -0.03    0.16
  -4   7   4    0.13    0.15
  -4   7   4   -0.02    0.17
   3  -7  -4   -0.06    0.15
   3  -7  -4    0.20    0.18
   3  -7  -4    0.27    0.15
  -3   7   4    0.07    0.16
  -3   7   4   -0.09    0.16
  -3   7   4    0.27    0.18
   2  -7  -4   -0.09    0.16
   2  -7  -4   -0.03    0.14
   2  -7  -4    0.00    0.13
  -2   7   4    0.16    0.18
  -2   7   4    0.14    0.18
   1  -7  -4    7.99    0.42
   1  -7  -4    8.84    0.47
  -1   7   4    8.92    0.50
  -1   7   4    8.41    0.46
  -1   7   4    9.06    0.47
   0  -7  -4    0.23    0.19
   0  -7  -4   -0.03    0.15
   0   7   4   -0.06    0.18
   0   7   4   -0.25    0.17
   0   7   4    0.03    0.21
  -1  -7  -4    5.69    0.46
  -1  -7  -4    5.01    0.43
   1   7   4    4.86    0.45
   1   7   4    5.05    0.42
   1   7   4    4.27    0.45
   7  -8  -4    0.00    0.20
   7  -8  -4    0.06    0.18
   7  -8  -4   -0.06    0.18
  -7   8   4    0.12    0.23
  -7   8   4    0.21    0.23
   6  -8  -4    6.66    0.48
   6  -8  -4    7.00    0.42
   6  -8  -4    6.11    0.46
  -6   8   4    6.76    0.49
  -6   8   4    7.45    0.49
   5  -8  -4    0.27    0.20
   5  -8  -4    0.34    0.19
   5  -8  -4   -0.05    0.16
  -5   8   4    0.04    0.17
  -5   8   4    0.16    0.20
  -5   8   4    0.01    0.17
   4  -8  -4    9.20    0.48
   4  -8  -4    9.61    0.45
   4  -8  -4    9.04    0.50
  -4   8   4    8.54    0.52
  -4   8   4    9.01    0.52
  -4   8   4    9.55    0.51
   3  -8  -4    1.03    0.24
   3  -8  -4    0.78    0.24
   3  -8  -4    1.15    0.22
  -3   8   4    1.06    0.24
  -3   8   4    1.73    0.30
   2  -8  -4    0.15    0.20
   2  -8  -4    0.15    0.16
  -2   8   4    0.09    0.19
  -2   8   4   -0.19    0.18
   1  -8  -4    0.01    0.17
   1  -8  -4    0.10    0.20
  -1   8   4    0.00    0.22
  -1   8   4   -0.09    0.19
  -2  10  -5    0.89    0.28
   2 -10   5    0.71    0.25
   2 -10   5    0.46    0.23
  -3  10  -5    1.37    0.28
  -3  10  -5    1.01    0.30
   3 -10   5    0.76    0.24
   3 -10   5    1.91    0.29
  -4  10  -5    0.72    0.27
  -4  10  -5    1.10    0.27
   4 -10   5    1.70    0.29
   4 -10   5    0.73    0.25
  -5  10  -5   14.69    0.62
  -5  10  -5   15.01    0.67
  -5  10  -5   15.16    0.69
   5 -10   5   14.62    0.60
   5 -10   5   14.56    0.63
   5 -10   5   15.35    0.65
   0   9  -5    4.52    0.42
   0   9  -5    5.09    0.44
   0  -9   5    5.11    0.44
   0  -9   5    4.97    0.41
  -1   9  -5   -0.07    0.19
  -1   9  -5    0.00    0.17
   1  -9   5    0.03    0.19
   1  -9   5    0.06    0.16
  -2   9  -5    0.66    0.22
  -2   9  -5    0.12    0.18
  -2   9  -5    0.30    0.18
   2  -9   5    0.43    0.19
   2  -9   5    0.23    0.18
  -3   9  -5    0.80    0.22
  -3   9  -5    0.57    0.22
   3  -9   5    0.83    0.22
   3  -9   5    1.02    0.22
  -4   9  -5    0.06    0.20
  -4   9  -5    0.34    0.20
   4  -9   5    0.36    0.21
   4  -9   5    0.41    0.18
   4  -9   5    0.16    0.19
  -5   9  -5    2.67    0.34
  -5   9  -5    3.44    0.39
  -5   9  -5    3.17    0.33
   5  -9   5    3.42    0.34
   5  -9   5    2.78    0.33
   5  -9   5    3.32    0.35
  -6   9  -5    1.90    0.30
  -6   9  -5    1.93    0.33
   6  -9   5    1.81    0.29
   6  -9   5    1.90    0.28
   6  -9   5    1.66    0.30
  -7   9  -5   -0.25    0.22
   7  -9   5   -0.08    0.21
   7  -9   5   -0.07    0.21
   7  -9   5    0.36    0.24
   2   8  -5    3.73    0.39
   2   8  -5    3.60    0.38
   2   8  -5    4.24    0.40
  -2  -8   5    4.29    0.38
  -2  -8   5    3.49    0.35
   1   8  -5    4.84    0.42
   1   8  -5    2.73    0.33
  -1  -8   5    3.89    0.33
  -1  -8   5    3.86    0.34
   0   8  -5    0.54    0.20
   0   8  -5    0.43    0.20
   0  -8   5    0.64    0.19
   0  -8   5    0.55    0.20
  -1   8  -5   12.73    0.49
  -1   8  -5   13.15    0.51
  -1   8  -5   13.20    0.46
  -1   8  -5   13.33    0.56
   1  -8   5   13.08    0.49
   1  -8   5   12.87    0.53
  -2   8  -5    5.04    0.33
  -2   8  -5    6.07    0.36
  -2   8  -5    5.64    0.37
  -2   8  -5    5.43    0.39
   2  -8   5    6.31    0.39
   2  -8   5    5.96    0.38
   2  -8   5    5.76    0.36
  -3   8  -5    0.14    0.17
  -3   8  -5    0.20    0.15
   3  -8   5    0.22    0.15
   3  -8   5    0.10    0.14
   3  -8   5   -0.21    0.11
   3  -8   5    0.06    0.15
  -4   8  -5    3.20    0.34
  -4   8  -5    2.33    0.29
   4  -8   5    3.55    0.34
   4  -8   5    2.71    0.27
   4  -8   5    2.33    0.28
   4  -8   5    2.99    0.31
  -5   8  -5    1.06    0.22
  -5   8  -5    1.06    0.24
   5  -8   5    1.08    0.22
   5  -8   5    1.34    0.24
   5  -8   5    0.80    0.21
  -6   8  -5    2.79    0.30
  -6   8  -5    2.58    0.34
   6  -8   5    2.60    0.31
   6  -8   5    2.46    0.30
   6  -8   5    2.80    0.34
  -7   8  -5    3.65    0.41
   7  -8   5    3.31    0.35
   7  -8   5    3.66    0.36
   7  -8   5    2.93    0.36
  -8   8  -5   14.84    0.70
   8  -8   5   14.67    0.66
   8  -8   5   14.45    0.62
   8  -8   5   15.00    0.65
   3   7  -5    8.31    0.52
   3   7  -5    8.11    0.51
   3   7  -5    8.77    0.49
  -3  -7   5    8.55    0.46
  -3  -7   5    8.94    0.48
   2   7  -5    4.65    0.39
   2   7  -5    4.19    0.36
   2   7  -5    4.41    0.39
  -2  -7   5    4.89    0.35
  -2  -7   5    4.34    0.34
   1   7  -5    1.05    0.21
   1   7  -5    1.03    0.21
   1   7  -5    1.25    0.23
  -1  -7   5    1.49    0.21
  -1  -7   5    1.11    0.20
  -1  -7   5    1.48    0.25
   0   7  -5    0.05    0.13
   0   7  -5    0.30    0.13
   0   7  -5    0.17    0.12
   0   7  -5    0.31    0.16
   0   7  -5    0.24    0.17
   0  -7   5    0.33    0.17
   0  -7   5    0.12    0.15
   0  -7   5    0.05    0.13
   0  -7   5    0.23    0.13
  -1   7  -5    1.74    0.23
  -1   7  -5    2.42    0.25
  -1   7  -5    2.11    0.22
  -1   7  -5    1.80    0.22
   1  -7   5    2.29    0.25
   1  -7   5    2.26    0.26
   1  -7   5    1.96    0.20
   1  -7   5    2.08    0.23
  -2   7  -5    3.23    0.29
  -2   7  -5    3.25    0.27
  -2   7  -5    2.96    0.27
  -2   7  -5    3.05    0.24
   2  -7   5    3.01    0.22
   2  -7   5    3.07    0.26
   2  -7   5    3.81    0.32
   2  -7   5    3.53    0.30
   2  -7   5    3.10    0.21
  -3   7  -5    8.26    0.40
  -3   7  -5    8.23    0.38
  -3   7  -5    7.33    0.38
   3  -7   5    7.32    0.39
   3  -7   5    6.79    0.34
   3  -7   5    7.34    0.33
   3  -7   5    7.39    0.28
   3  -7   5    8.08    0.40
  -4   7  -5    9.61    0.43
  -4   7  -5    9.76    0.43
  -4   7  -5    9.90    0.46
   4  -7   5   10.33    0.44
   4  -7   5   10.16    0.42
   4  -7   5   10.74    0.40
   4  -7   5   10.54    0.33
   4  -7   5    9.82    0.44
  -5   7  -5   14.99    0.57
  -5   7  -5   13.54    0.44
  -5   7  -5   14.37    0.49
   5  -7   5   14.53    0.54
   5  -7   5   14.21    0.49
   5  -7   5   12.90    0.51
   5  -7   5   14.22    0.50
  -6   7  -5    0.59    0.17
  -6   7  -5    0.60    0.21
   6  -7   5    0.45    0.19
   6  -7   5    0.39    0.17
   6  -7   5    0.38    0.18
  -7   7  -5   14.59    0.63
  -7   7  -5   13.94    0.59
   7  -7   5   13.91    0.56
   7  -7   5   14.05    0.57
   7  -7   5   12.43    0.57
  -8   7  -5    0.42    0.24
  -8   7  -5    0.20    0.21
   8  -7   5    0.62    0.22
   8  -7   5    0.23    0.22
   8  -7   5    0.53    0.23
   4   6  -5    2.67    0.35
   4   6  -5    3.07    0.38
   4   6  -5    2.97    0.32
  -4  -6   5    2.52    0.31
   3   6  -5   10.09    0.51
   3   6  -5   10.77    0.52
   3   6  -5   10.68    0.48
  -3  -6   5   10.92    0.46
  -3  -6   5   10.79    0.49
   2   6  -5    8.35    0.43
   2   6  -5    8.75    0.43
   2   6  -5    8.69    0.44
  -2  -6   5    8.15    0.37
  -2  -6   5    8.57    0.40
   1   6  -5    3.30    0.28
   1   6  -5    2.76    0.27
   1   6  -5    3.08    0.28
   1   6  -5    3.21    0.22
  -1  -6   5    2.77    0.28
  -1  -6   5    3.37    0.26
  -1  -6   5    3.04    0.25
   0   6  -5   30.56    0.68
   0   6  -5   31.26    0.65
   0   6  -5   30.71    0.72
   0   6  -5   29.85    0.64
   0   6  -5   29.79    0.62
   0  -6   5   30.79    0.72
   0  -6   5   31.07    0.65
   0  -6   5   29.82    0.72
   0  -6   5   29.30    0.64
  -1   6  -5    6.55    0.30
  -1   6  -5    6.47    0.27
  -1   6  -5    7.38    0.32
  -1   6  -5    6.78    0.30
  -1   6  -5    6.51    0.33
   1  -6   5    6.86    0.34
   1  -6   5    6.66    0.25
   1  -6   5    6.66    0.30
   1  -6   5    6.31    0.33
   1  -6   5    6.59    0.27
  -2   6  -5   11.72    0.42
  -2   6  -5   11.82    0.43
  -2   6  -5   11.53    0.39
  -2   6  -5   12.20    0.36
   2  -6   5   12.69    0.44
   2  -6   5   12.43    0.34
   2  -6   5   11.86    0.35
   2  -6   5   12.13    0.35
   2  -6   5   12.73    0.44
   2  -6   5   11.83    0.38
  -3   6  -5   31.64    0.69
  -3   6  -5   30.73    0.73
  -3   6  -5   32.04    0.70
  -3   6  -5   31.64    0.65
   3  -6   5   30.81    0.63
   3  -6   5   30.57    0.71
   3  -6   5   31.35    0.71
   3  -6   5   31.02    0.65
   3  -6   5   30.95    0.59
   3  -6   5   30.55    0.56
  -4   6  -5    8.87    0.37
  -4   6  -5    9.49    0.37
  -4   6  -5    9.11    0.42
   4  -6   5    9.14    0.40
   4  -6   5    9.22    0.40
   4  -6   5    9.58    0.29
   4  -6   5    9.36    0.36
   4  -6   5    9.44    0.32
   4  -6   5    9.73    0.38
  -5   6  -5   27.16    0.69
  -5   6  -5   27.34    0.62
  -5   6  -5   27.25    0.68
  -5   6  -5   27.00    0.74
   5  -6   5   26.04    0.69
   5  -6   5   26.04    0.57
   5  -6   5   27.32    0.65
   5  -6   5   26.96    0.69
  -6   6  -5    5.44    0.39
  -6   6  -5    6.19    0.39
   6  -6   5    6.28    0.36
   6  -6   5    5.44    0.30
   6  -6   5    5.95    0.39
   6  -6   5    5.55    0.38
  -7   6  -5    3.47    0.35
  -7   6  -5    3.80    0.37
   7  -6   5    4.14    0.37
   7  -6   5    3.85    0.31
   7  -6   5    3.89    0.34
  -8   6  -5    0.28    0.21
  -8   6  -5    0.49    0.22
   8  -6   5    0.20    0.21
   8  -6   5    0.27    0.20
   5   5  -5    3.73    0.39
   5   5  -5    3.42    0.40
   5   5  -5    3.26    0.33
  -5  -5   5    3.11    0.35
   4   5  -5    0.19    0.18
   4   5  -5    0.78    0.21
   4   5  -5    0.72    0.19
  -4  -5   5    0.58    0.19
   3   5  -5    1.75    0.23
   3   5  -5    1.41    0.23
   3   5  -5    1.15    0.21
  -3  -5   5    1.48    0.21
  -3  -5   5    1.91    0.21
   2   5  -5   30.25    0.59
   2   5  -5   30.33    0.73
   2   5  -5   31.20    0.72
   2   5  -5   31.44    0.74
  -2  -5   5   31.20    0.65
  -2  -5   5   31.68    0.71
   1   5  -5   18.86    0.44
   1   5  -5   19.46    0.45
   1   5  -5   18.29    0.52
   1   5  -5   19.21    0.53
   1   5  -5   18.85    0.51
  -1  -5   5   18.20    0.46
  -1  -5   5   19.10    0.54
  -1  -5   5   19.82    0.54
  -1  -5   5   19.60    0.50
   0   5  -5    5.30    0.25
   0   5  -5    5.48    0.25
   0   5  -5    5.38    0.29
   0   5  -5    5.67    0.25
   0   5  -5    4.95    0.26
   0  -5   5    4.74    0.24
   0  -5   5    5.36    0.28
   0  -5   5    5.11    0.18
   0  -5   5    5.78    0.26
  -1   5  -5   21.89    0.52
  -1   5  -5   22.52    0.51
  -1   5  -5   21.15    0.53
  -1   5  -5   22.13    0.48
   1  -5   5   21.62    0.53
   1  -5   5   22.12    0.48
   1  -5   5   22.39    0.47
   1  -5   5   22.16    0.42
   1  -5   5   22.31    0.54
   1  -5   5   21.10    0.47
  -2   5  -5    0.73    0.13
  -2   5  -5    0.76    0.11
  -2   5  -5    0.50    0.13
  -2   5  -5    0.65    0.14
   2  -5   5    0.56    0.12
   2  -5   5    0.60    0.11
   2  -5   5    0.71    0.11
   2  -5   5    0.67    0.15
   2  -5   5    0.49    0.10
   2  -5   5    0.60    0.14
  -3   5  -5   12.49    0.27
  -3   5  -5   12.53    0.38
  -3   5  -5   12.32    0.43
   3  -5   5   13.31    0.42
   3  -5   5   12.33    0.36
   3  -5   5   12.34    0.35
   3  -5   5   12.82    0.37
   3  -5   5   13.05    0.43
  -4   5  -5    8.42    0.36
  -4   5  -5    8.26    0.34
  -4   5  -5    9.32    0.39
  -4   5  -5    8.92    0.32
   4  -5   5    8.28    0.36
   4  -5   5    8.49    0.36
   4  -5   5    8.85    0.33
   4  -5   5    8.12    0.30
  -5   5  -5   13.73    0.47
  -5   5  -5   12.76    0.37
  -5   5  -5   12.72    0.44
  -5   5  -5   12.15    0.48
   5  -5   5   12.81    0.47
   5  -5   5   12.99    0.43
   5  -5   5   12.55    0.40
   5  -5   5   12.51    0.47
  -6   5  -5    0.01    0.14
  -6   5  -5   -0.12    0.14
   6  -5   5    0.19    0.15
   6  -5   5   -0.04    0.13
   6  -5   5   -0.16    0.13
   6  -5   5   -0.01    0.12
  -7   5  -5    0.92    0.22
  -7   5  -5    0.77    0.22
   7  -5   5    0.66    0.18
   7  -5   5    0.30    0.20
   7  -5   5    1.01    0.22
  -8   5  -5    8.57    0.52
  -8   5  -5    9.22    0.51
   8  -5   5    8.94    0.45
   8  -5   5    9.81    0.54
   8  -5   5    9.48    0.48
   6   4  -5   10.67    0.56
   6   4  -5   11.21    0.60
  -6  -4   5   12.39    0.58
   5   4  -5    0.03    0.17
   5   4  -5   -0.15    0.13
   5   4  -5    0.01    0.17
  -5  -4   5   -0.04    0.15
   4   4  -5   12.56    0.50
   4   4  -5   12.90    0.46
   4   4  -5   12.73    0.52
  -4  -4   5   12.71    0.49
   3   4  -5   24.62    0.61
   3   4  -5   24.52    0.49
   3   4  -5   24.38    0.66
   3   4  -5   24.39    0.64
  -3  -4   5   26.06    0.65
  -3  -4   5   24.16    0.55
   2   4  -5   46.92    0.88
   2   4  -5   47.69    0.71
   2   4  -5   46.94    0.76
   2   4  -5   46.95    0.87
   2   4  -5   47.25    0.89
  -2  -4   5   48.42    0.89
  -2  -4   5   47.83    0.79
  -2  -4   5   47.93    0.87
   1   4  -5    0.61    0.13
   1   4  -5    0.50    0.12
   1   4  -5    0.34    0.09
   1   4  -5    0.41    0.10
  -1  -4   5    0.45    0.10
  -1  -4   5    0.43    0.12
  -1  -4   5    0.27    0.11
  -1  -4   5    0.52    0.12
  -1  -4   5    0.44    0.06
   0   4  -5    1.47    0.15
   0   4  -5    1.31    0.14
   0   4  -5    1.25    0.14
   0   4  -5    1.56    0.18
   0  -4   5    1.28    0.09
   0  -4   5    1.35    0.14
   0  -4   5    1.32    0.15
   0  -4   5    1.25    0.13
   0  -4   5    1.67    0.19
   0  -4   5    1.40    0.16
  -1   4  -5    0.94    0.11
  -1   4  -5    0.91    0.14
  -1   4  -5    1.01    0.14
  -1   4  -5    0.92    0.14
   1  -4   5    0.85    0.14
   1  -4   5    0.92    0.12
   1  -4   5    0.99    0.12
   1  -4   5    0.92    0.10
   1  -4   5    0.96    0.15
   1  -4   5    0.78    0.12
  -2   4  -5    3.58    0.21
  -2   4  -5    3.24    0.23
  -2   4  -5    3.36    0.15
  -2   4  -5    3.74    0.20
  -2   4  -5    3.57    0.21
   2  -4   5    3.12    0.21
   2  -4   5    3.70    0.19
   2  -4   5    3.40    0.19
   2  -4   5    3.61    0.23
  -3   4  -5   40.77    0.69
  -3   4  -5   41.62    0.74
  -3   4  -5   41.68    0.75
  -3   4  -5   40.65    0.79
   3  -4   5   42.11    0.77
   3  -4   5   41.30    0.77
   3  -4   5   40.46    0.70
   3  -4   5   41.27    0.60
   3  -4   5   41.28    0.70
  -4   4  -5   10.92    0.30
  -4   4  -5   10.22    0.35
  -4   4  -5   10.09    0.37
  -4   4  -5   10.62    0.40
   4  -4   5   11.19    0.35
   4  -4   5   10.94    0.35
   4  -4   5   10.65    0.39
   4  -4   5   10.55    0.27
   4  -4   5   10.09    0.38
  -5   4  -5    5.78    0.29
  -5   4  -5    5.82    0.34
  -5   4  -5    5.92    0.33
   5  -4   5    5.71    0.29
   5  -4   5    5.22    0.32
   5  -4   5    5.49    0.35
   5  -4   5    5.50    0.32
   5  -4   5    5.51    0.29
  -6   4  -5    0.10    0.14
  -6   4  -5    0.13    0.14
   6  -4   5    0.08    0.15
   6  -4   5    0.47    0.16
   6  -4   5    0.07    0.14
   6  -4   5   -0.09    0.13
  -7   4  -5    4.66    0.37
  -7   4  -5    4.49    0.37
   7  -4   5    4.57    0.35
   7  -4   5    4.05    0.36
   7  -4   5    3.99    0.33
  -8   4  -5    2.04    0.32
   8  -4   5    1.56    0.30
   8  -4   5    1.54    0.25
   8  -4   5    0.96    0.23
   7   3  -5    0.36    0.23
   7   3  -5    0.22    0.20
  -7  -3   5    0.02    0.21
   6   3  -5    0.40    0.20
   6   3  -5    0.48    0.20
   6   3  -5    0.42    0.18
  -6  -3   5    0.92    0.22
   5   3  -5    8.67    0.43
   5   3  -5    8.24    0.44
   5   3  -5    8.73    0.39
  -5  -3   5    8.16    0.43
   4   3  -5    0.43    0.14
   4   3  -5   -0.01    0.12
   4   3  -5    0.14    0.14
   4   3  -5    0.17    0.09
  -4  -3   5    0.10    0.12
   3   3  -5    5.53    0.22
   3   3  -5    5.28    0.29
   3   3  -5    5.49    0.28
  -3  -3   5    5.27    0.29
  -3  -3   5    5.13    0.19
  -3  -3   5    5.32    0.23
   2   3  -5   66.72    1.05
   2   3  -5   66.83    0.96
   2   3  -5   67.32    1.05
  -2  -3   5   66.46    1.05
  -2  -3   5   66.29    1.06
  -2  -3   5   66.06    0.93
   1   3  -5   10.11    0.32
   1   3  -5    9.34    0.22
   1   3  -5    9.54    0.29
   1   3  -5    9.27    0.30
  -1  -3   5    8.95    0.30
  -1  -3   5    9.31    0.30
  -1  -3   5    9.50    0.25
  -1  -3   5    9.47    0.31
   0   3  -5   64.64    0.92
   0   3  -5   65.39    0.94
   0   3  -5   65.23    0.88
   0   3  -5   64.65    0.96
   0  -3   5   64.44    0.95
   0  -3   5   65.36    0.97
   0  -3   5   64.23    0.95
   0  -3   5   64.28    0.86
   0  -3   5   65.84    0.94
   0  -3   5   63.45    0.78
  -1   3  -5    8.92    0.27
  -1   3  -5    9.08    0.28
  -1   3  -5    9.23    0.25
  -1   3  -5    8.80    0.23
  -1   3  -5    9.24    0.28
   1  -3   5    9.03    0.24
   1  -3   5    9.08    0.29
   1  -3   5    9.01    0.29
   1  -3   5    9.40    0.28
  -2   3  -5   19.31    0.39
  -2   3  -5   19.49    0.43
  -2   3  -5   18.70    0.30
  -2   3  -5   19.16    0.44
  -2   3  -5   19.61    0.41
   2  -3   5   19.08    0.43
   2  -3   5   19.37    0.37
   2  -3   5   19.50    0.45
   2  -3   5   19.30    0.42
   2  -3   5   19.59    0.39
  -3   3  -5    0.26    0.08
  -3   3  -5    0.28    0.10
  -3   3  -5    0.35    0.11
  -3   3  -5    0.33    0.10
   3  -3   5    0.19    0.08
   3  -3   5    0.37    0.10
   3  -3   5    0.07    0.10
   3  -3   5    0.18    0.10
   3  -3   5    0.30    0.11
  -4   3  -5   28.99    0.47
  -4   3  -5   31.74    0.66
  -4   3  -5   30.35    0.60
   4  -3   5   30.80    0.56
   4  -3   5   30.56    0.65
   4  -3   5   30.43    0.62
   4  -3   5   30.38    0.65
   4  -3   5   30.38    0.60
  -5   3  -5   23.46    0.60
  -5   3  -5   24.29    0.61
  -5   3  -5   23.41    0.53
   5  -3   5   22.65    0.60
   5  -3   5   23.00    0.56
   5  -3   5   22.61    0.56
   5  -3   5   22.74    0.60
   5  -3   5   22.50    0.52
  -6   3  -5    4.11    0.32
  -6   3  -5    4.53    0.33
   6  -3   5    5.44    0.31
   6  -3   5    4.90    0.33
   6  -3   5    5.76    0.36
   6  -3   5    5.22    0.35
  -7   3  -5   19.19    0.76
  -7   3  -5   20.81    0.67
   7  -3   5   22.35    0.71
   7  -3   5   19.74    0.62
  -8   3  -5    1.05    0.28
   8  -3   5    1.33    0.30
   8  -3   5    1.74    0.29
   8  -3   5    1.36    0.25
   7   2  -5    7.54    0.49
   7   2  -5    8.22    0.47
  -7  -2   5    7.06    0.47
   6   2  -5    1.79    0.22
   6   2  -5    2.11    0.26
   6   2  -5    1.77    0.27
  -6  -2   5    1.99    0.28
   5   2  -5   45.86    0.93
   5   2  -5   46.15    0.88
   5   2  -5   44.88    0.97
   5   2  -5   44.39    0.81
  -5  -2   5   46.10    0.93
   4   2  -5    1.45    0.14
   4   2  -5    1.86    0.20
   4   2  -5    1.36    0.18
  -4  -2   5    1.61    0.20
   3   2  -5   42.24    0.59
   3   2  -5   42.55    0.69
   3   2  -5   44.26    0.80
   3   2  -5   43.63    0.78
  -3  -2   5   42.34    0.59
  -3  -2   5   44.25    0.79
   2   2  -5    9.78    0.28
   2   2  -5    9.56    0.22
   2   2  -5   10.10    0.32
   2   2  -5    9.26    0.31
  -2  -2   5    9.46    0.22
  -2  -2   5    9.56    0.31
  -2  -2   5    9.51    0.30
   1   2  -5   60.75    0.88
   1   2  -5   60.91    0.82
   1   2  -5   60.62    0.91
   1   2  -5   61.38    0.89
  -1  -2   5   60.50    0.90
  -1  -2   5   61.41    0.87
  -1  -2   5   59.72    0.88
  -1  -2   5   59.47    0.88
  -1  -2   5   61.38    0.77
   0   2  -5  160.07    1.95
   0   2  -5  157.80    1.91
   0   2  -5  160.48    1.95
   0   2  -5  157.72    1.83
   0   2  -5  162.33    1.93
   0  -2   5  158.12    1.94
   0  -2   5  158.38    1.83
   0  -2   5  160.43    1.92
   0  -2   5  160.55    1.95
   0  -2   5  160.09    1.96
  -1   2  -5    0.67    0.11
  -1   2  -5    0.89    0.10
  -1   2  -5    0.76    0.11
  -1   2  -5    0.79    0.11
  -1   2  -5    0.87    0.10
   1  -2   5    0.76    0.09
   1  -2   5    0.74    0.11
   1  -2   5    0.70    0.11
   1  -2   5    0.61    0.10
   1  -2   5    0.90    0.12
  -2   2  -5    4.24    0.22
  -2   2  -5    3.80    0.19
  -2   2  -5    4.02    0.19
  -2   2  -5    3.75    0.15
   2  -2   5    3.66    0.20
   2  -2   5    3.71    0.17
   2  -2   5    4.08    0.19
   2  -2   5    4.11    0.21
   2  -2   5    4.09    0.20
  -3   2  -5    4.14    0.20
  -3   2  -5    4.05    0.24
  -3   2  -5    3.97    0.22
  -3   2  -5    3.86    0.13
   3  -2   5    3.86    0.23
   3  -2   5    3.70    0.21
   3  -2   5    3.80    0.22
   3  -2   5    3.82    0.21
  -4   2  -5   12.16    0.41
  -4   2  -5   12.24    0.41
  -4   2  -5   11.99    0.34
   4  -2   5   12.57    0.40
   4  -2   5   12.95    0.39
   4  -2   5   11.80    0.38
   4  -2   5   11.85    0.40
  -5   2  -5    3.15    0.27
  -5   2  -5    3.37    0.21
   5  -2   5    2.69    0.24
   5  -2   5    3.30    0.28
   5  -2   5    3.21    0.26
   5  -2   5    3.13    0.26
  -6   2  -5    0.64    0.18
  -6   2  -5    0.46    0.17
   6  -2   5    0.38    0.18
   6  -2   5    0.49    0.17
   6  -2   5    0.33    0.16
   6  -2   5    0.60    0.18
  -7   2  -5    1.97    0.29
   7  -2   5    1.62    0.25
   7  -2   5    2.13    0.31
   7  -2   5    1.47    0.25
  -8   2  -5   -0.23    0.20
   8  -2   5    0.14    0.23
   8  -2   5    0.01    0.18
   8   1  -5    2.27    0.30
   8   1  -5    2.20    0.34
   8   1  -5    2.93    0.35
  -8  -1   5    1.96    0.30
   7   1  -5    1.21    0.20
   7   1  -5    1.09    0.24
   7   1  -5    1.16    0.23
  -7  -1   5    1.05    0.24
   6   1  -5    4.71    0.33
   6   1  -5    4.44    0.34
   6   1  -5    4.50    0.29
  -6  -1   5    4.06    0.33
   5   1  -5   41.79    0.81
   5   1  -5   41.49    0.72
   5   1  -5   42.31    0.84
  -5  -1   5   41.59    0.84
   4   1  -5    0.17    0.10
   4   1  -5    0.01    0.10
   4   1  -5    0.18    0.08
   4   1  -5    0.06    0.06
   4   1  -5    0.19    0.08
  -4  -1   5    0.28    0.11
  -4  -1   5    0.23    0.07
   3   1  -5    1.00    0.10
   3   1  -5    0.94    0.14
   3   1  -5    1.13    0.08
   3   1  -5    0.68    0.12
   3   1  -5    1.06    0.12
  -3  -1   5    0.87    0.13
  -3  -1   5    0.90    0.07
   2   1  -5   73.34    1.06
   2   1  -5   74.93    0.99
   2   1  -5   71.53    0.97
   2   1  -5   74.53    1.03
  -2  -1   5   75.01    1.05
  -2  -1   5   72.70    1.05
  -2  -1   5   73.73    1.00
   1   1  -5    8.73    0.26
   1   1  -5    8.73    0.25
   1   1  -5    8.84    0.26
   1   1  -5    9.08    0.17
   1   1  -5    8.94    0.21
  -1  -1   5    8.71    0.23
  -1  -1   5    8.83    0.22
  -1  -1   5    8.90    0.26
  -1  -1   5    8.81    0.27
  -1  -1   5    9.15    0.26
   0   1  -5   43.82    0.60
   0   1  -5   43.25    0.60
   0   1  -5   42.92    0.66
   0   1  -5   42.68    0.67
   0   1  -5   43.05    0.64
   0   1  -5   42.95    0.58
   0  -1   5   42.37    0.66
   0  -1   5   42.67    0.53
   0  -1   5   42.95    0.60
   0  -1   5   43.07    0.69
   0  -1   5   43.48    0.63
   0  -1   5   43.28    0.63
  -1   1  -5   33.21    0.54
  -1   1  -5   32.11    0.54
  -1   1  -5   32.60    0.59
  -1   1  -5   32.57    0.54
  -1   1  -5   32.37    0.49
  -1   1  -5   31.86    0.51
   1  -1   5   33.44    0.54
   1  -1   5   33.39    0.58
   1  -1   5   32.32    0.47
   1  -1   5   32.86    0.53
   1  -1   5   33.23    0.56
  -2   1  -5    0.16    0.05
  -2   1  -5    0.16    0.09
  -2   1  -5    0.10    0.08
  -2   1  -5    0.27    0.08
   2  -1   5    0.12    0.05
   2  -1   5    0.00    0.09
   2  -1   5    0.01    0.09
   2  -1   5   -0.01    0.09
   2  -1   5    0.16    0.08
  -3   1  -5    1.62    0.18
  -3   1  -5    1.55    0.17
  -3   1  -5    1.67    0.14
   3  -1   5    1.73    0.18
   3  -1   5    1.62    0.17
   3  -1   5    1.81    0.12
   3  -1   5    1.81    0.17
   3  -1   5    1.69    0.18
  -4   1  -5   25.06    0.59
  -4   1  -5   23.80    0.46
  -4   1  -5   24.18    0.60
   4  -1   5   23.89    0.43
   4  -1   5   25.25    0.59
   4  -1   5   24.54    0.59
   4  -1   5   24.73    0.59
  -5   1  -5   39.05    0.83
  -5   1  -5   40.03    0.87
   5  -1   5   39.02    0.84
   5  -1   5   39.56    0.84
   5  -1   5   38.33    0.81
   5  -1   5   38.51    0.83
  -6   1  -5    0.16    0.16
   6  -1   5    0.07    0.15
   6  -1   5   -0.06    0.15
   6  -1   5   -0.14    0.16
   6  -1   5    0.00    0.15
  -7   1  -5    4.63    0.43
   7  -1   5    4.77    0.40
   7  -1   5    4.27    0.39
   7  -1   5    4.14    0.39
  -8   1  -5    0.41    0.26
   8  -1   5   -0.03    0.26
   8  -1   5    0.41    0.24
   8  -1   5    0.45    0.23
   8   0  -5    2.43    0.29
   8   0  -5    2.11    0.27
   8   0  -5    2.87    0.34
  -8   0   5    2.29    0.30
   7   0  -5    2.15    0.23
   7   0  -5    2.19    0.25
   7   0  -5    2.49    0.29
   7   0  -5    2.21    0.26
  -7   0   5    2.15    0.26
   6   0  -5    4.25    0.24
   6   0  -5    4.22    0.24
   6   0  -5    4.29    0.28
   6   0  -5    4.92    0.26
   6   0  -5    4.75    0.31
  -6   0   5    4.85    0.31
   5   0  -5    9.04    0.31
   5   0  -5    9.06    0.36
   5   0  -5    9.11    0.35
   5   0  -5    9.36    0.27
   5   0  -5    9.13    0.30
  -5   0   5    8.94    0.35
  -5   0   5    9.39    0.36
  -5   0   5    8.95    0.26
   4   0  -5   18.48    0.43
   4   0  -5   18.77    0.42
   4   0  -5   18.67    0.46
   4   0  -5   18.48    0.36
  -4   0   5   17.46    0.32
  -4   0   5   18.13    0.46
  -4   0   5   17.48    0.44
   3   0  -5   58.45    0.86
   3   0  -5   58.15    0.77
   3   0  -5   57.39    0.88
   3   0  -5   58.20    0.91
   3   0  -5   56.40    0.79
  -3   0   5   57.93    0.90
  -3   0   5   57.62    0.88
   2   0  -5  203.71    2.41
   2   0  -5  197.37    2.27
   2   0  -5  198.31    2.43
   2   0  -5  203.11    2.41
   2   0  -5  199.79    2.29
  -2   0   5  200.02    2.40
  -2   0   5  201.62    2.37
  -2   0   5  203.02    2.42
   1   0  -5   19.45    0.40
   1   0  -5   19.65    0.41
   1   0  -5   19.22    0.34
   1   0  -5   18.53    0.27
  -1   0   5   19.52    0.39
  -1   0   5   19.26    0.28
  -1   0   5   19.49    0.38
  -1   0   5   18.65    0.31
  -1   0   5   19.16    0.42
   0   0  -5   21.26    0.33
   0   0  -5   21.47    0.40
   0   0  -5   22.34    0.46
   0   0  -5   21.33    0.41
   0   0  -5   21.80    0.39
   0   0   5   22.00    0.34
   0   0   5   21.74    0.39
   0   0   5   21.58    0.36
   0   0   5   22.41    0.46
   0   0   5   21.61    0.41
  -1   0  -5    0.28    0.06
  -1   0  -5    0.26    0.09
  -1   0  -5    0.29    0.08
  -1   0  -5    0.29    0.09
  -1   0  -5    0.24    0.08
   1   0   5    0.19    0.09
   1   0   5    0.14    0.07
   1   0   5    0.31    0.06
   1   0   5    0.36    0.09
   1   0   5    0.26    0.08
   1   0   5    0.38    0.11
  -2   0  -5   14.13    0.23
  -2   0  -5   13.58    0.30
  -2   0  -5   13.66    0.38
  -2   0  -5   13.80    0.39
  -2   0  -5   14.80    0.38
   2   0   5   14.18    0.25
   2   0   5   14.51    0.35
   2   0   5   14.39    0.33
   2   0   5   14.13    0.38
   2   0   5   14.45    0.36
   2   0   5   14.53    0.41
  -3   0  -5    4.36    0.18
  -3   0  -5    4.39    0.25
  -3   0  -5    4.11    0.25
  -3   0  -5    4.27    0.26
   3   0   5    4.27    0.20
   3   0   5    4.65    0.27
   3   0   5    3.94    0.24
   3   0   5    3.96    0.24
   3   0   5    3.46    0.24
  -4   0  -5   47.52    0.89
  -4   0  -5   47.72    0.94
   4   0   5   47.31    0.90
   4   0   5   47.18    0.94
   4   0   5   47.71    0.90
   4   0   5   48.42    0.90
   4   0   5   48.04    0.78
  -5   0  -5    1.18    0.21
  -5   0  -5    1.35    0.21
   5   0   5    0.94    0.19
   5   0   5    0.96    0.21
   5   0   5    0.92    0.19
   5   0   5    0.90    0.20
  -6   0  -5    0.15    0.18
   6   0   5    0.29    0.20
   6   0   5    0.24    0.19
   6   0   5    0.11    0.17
  -7   0  -5    2.86    0.36
   7   0   5    2.24    0.35
   7   0   5    2.61    0.33
   7   0   5    2.63    0.36
   9  -1  -5    1.82    0.30
   9  -1  -5    1.97    0.28
   9  -1  -5    2.16    0.31
  -9   1   5    1.81    0.29
   8  -1  -5    0.48    0.16
   8  -1  -5    0.30    0.18
   8  -1  -5    0.45    0.17
   8  -1  -5    0.44    0.17
   8  -1  -5    0.98    0.20
  -8   1   5    1.06    0.22
   7  -1  -5    1.25    0.18
   7  -1  -5    1.27    0.17
   7  -1  -5    1.22    0.19
   7  -1  -5    1.23    0.18
   7  -1  -5    1.20    0.20
   7  -1  -5    1.23    0.18
   7  -1  -5    1.20    0.22
  -7   1   5    0.92    0.18
  -7   1   5    1.17    0.20
   6  -1  -5   14.71    0.43
   6  -1  -5   14.53    0.42
   6  -1  -5   14.12    0.41
   6  -1  -5   14.46    0.40
   6  -1  -5   14.47    0.46
  -6   1   5   14.43    0.45
  -6   1   5   14.92    0.47
   5  -1  -5   36.58    0.69
   5  -1  -5   37.53    0.60
   5  -1  -5   36.52    0.73
   5  -1  -5   35.80    0.63
   5  -1  -5   35.61    0.69
   5  -1  -5   35.82    0.63
  -5   1   5   36.95    0.70
  -5   1   5   36.24    0.73
   4  -1  -5    6.81    0.28
   4  -1  -5    7.07    0.20
   4  -1  -5    6.93    0.28
   4  -1  -5    6.89    0.21
   4  -1  -5    7.04    0.23
  -4   1   5    6.94    0.26
  -4   1   5    6.77    0.28
   3  -1  -5   50.12    0.63
   3  -1  -5   48.74    0.79
   3  -1  -5   48.05    0.63
   3  -1  -5   49.67    0.73
   3  -1  -5   49.58    0.80
  -3   1   5   48.24    0.75
  -3   1   5   48.20    0.80
   2  -1  -5   30.71    0.41
   2  -1  -5   31.03    0.57
   2  -1  -5   31.75    0.59
   2  -1  -5   31.37    0.52
  -2   1   5   31.38    0.50
  -2   1   5   32.20    0.58
  -2   1   5   31.24    0.59
  -2   1   5   31.28    0.53
   1  -1  -5   86.36    1.03
   1  -1  -5   87.09    1.16
   1  -1  -5   85.83    1.14
   1  -1  -5   85.73    1.21
  -1   1   5   87.05    1.11
  -1   1   5   85.77    1.21
  -1   1   5   86.27    1.16
   0  -1  -5    2.01    0.15
   0  -1  -5    2.20    0.18
   0  -1  -5    1.99    0.16
   0   1   5    2.01    0.14
   0   1   5    2.04    0.12
   0   1   5    1.99    0.17
   0   1   5    2.13    0.11
   0   1   5    2.17    0.16
   0   1   5    1.90    0.15
  -1  -1  -5    1.54    0.16
  -1  -1  -5    1.93    0.18
  -1  -1  -5    1.77    0.13
  -1  -1  -5    1.71    0.17
   1   1   5    1.84    0.15
   1   1   5    1.95    0.16
   1   1   5    1.97    0.13
   1   1   5    1.81    0.14
   1   1   5    2.07    0.20
   1   1   5    2.05    0.15
  -2  -1  -5   82.03    1.22
  -2  -1  -5   82.81    1.05
  -2  -1  -5   79.52    1.23
  -2  -1  -5   79.67    1.22
   2   1   5   80.60    1.16
   2   1   5   81.04    1.17
   2   1   5   81.91    1.05
   2   1   5   82.28    1.17
   2   1   5   79.46    1.27
   2   1   5   81.47    1.18
  -3  -1  -5    0.02    0.11
  -3  -1  -5    0.14    0.12
  -3  -1  -5    0.15    0.11
   3   1   5    0.12    0.11
   3   1   5    0.22    0.12
   3   1   5   -0.09    0.11
   3   1   5   -0.11    0.11
   3   1   5   -0.07    0.10
  -4  -1  -5    9.10    0.42
  -4  -1  -5    9.53    0.42
  -4  -1  -5    9.36    0.38
   4   1   5    8.99    0.39
   4   1   5    9.21    0.40
   4   1   5    9.03    0.40
   4   1   5    9.53    0.35
   4   1   5    9.10    0.44
  -5  -1  -5    0.18    0.18
  -5  -1  -5   -0.02    0.14
   5   1   5    0.00    0.17
   5   1   5   -0.02    0.17
   5   1   5   -0.01    0.15
   5   1   5    0.30    0.19
  -6  -1  -5    4.27    0.42
   6   1   5    3.57    0.37
   6   1   5    3.34    0.38
   6   1   5    4.35    0.43
   9  -2  -5    2.14    0.28
   9  -2  -5    1.32    0.27
   8  -2  -5   18.84    0.58
   8  -2  -5   17.85    0.57
   8  -2  -5   19.50    0.60
   8  -2  -5   19.15    0.57
   8  -2  -5   18.59    0.54
   8  -2  -5   18.14    0.61
   8  -2  -5   20.27    0.70
   8  -2  -5   18.59    0.55
  -8   2   5   19.20    0.61
   7  -2  -5    0.10    0.11
   7  -2  -5    0.02    0.09
   7  -2  -5    0.21    0.11
   7  -2  -5    0.16    0.13
   7  -2  -5    0.14    0.12
   7  -2  -5    0.05    0.12
   7  -2  -5   -0.14    0.09
  -7   2   5    0.11    0.12
  -7   2   5    0.20    0.15
   6  -2  -5    7.32    0.28
   6  -2  -5    7.55    0.28
   6  -2  -5    7.65    0.31
   6  -2  -5    7.37    0.27
   6  -2  -5    7.69    0.35
   6  -2  -5    7.01    0.33
  -6   2   5    7.88    0.36
  -6   2   5    7.93    0.32
   5  -2  -5  115.79    1.66
   5  -2  -5  116.07    1.57
   5  -2  -5  119.09    1.64
   5  -2  -5  116.54    1.48
   5  -2  -5  118.31    1.48
   5  -2  -5  113.58    1.48
  -5   2   5  115.74    1.65
  -5   2   5  114.39    1.54
   4  -2  -5   35.18    0.54
   4  -2  -5   35.17    0.63
   4  -2  -5   34.56    0.51
   4  -2  -5   34.45    0.51
   4  -2  -5   35.81    0.68
   4  -2  -5   35.05    0.70
  -4   2   5   35.95    0.69
  -4   2   5   35.21    0.60
   3  -2  -5   32.47    0.62
   3  -2  -5   32.75    0.49
   3  -2  -5   33.41    0.65
   3  -2  -5   32.23    0.59
  -3   2   5   32.92    0.63
  -3   2   5   31.98    0.54
   2  -2  -5    0.02    0.09
   2  -2  -5    0.02    0.08
   2  -2  -5    0.02    0.08
   2  -2  -5    0.12    0.06
  -2   2   5   -0.06    0.08
  -2   2   5   -0.04    0.08
  -2   2   5    0.05    0.06
   1  -2  -5    6.44    0.27
   1  -2  -5    6.45    0.26
   1  -2  -5    6.23    0.24
   1  -2  -5    6.53    0.19
  -1   2   5    6.64    0.27
  -1   2   5    6.69    0.28
  -1   2   5    6.44    0.20
  -1   2   5    6.09    0.24
  -1   2   5    6.40    0.14
   0  -2  -5    7.88    0.24
   0  -2  -5    7.54    0.30
   0  -2  -5    7.98    0.25
   0  -2  -5    8.66    0.30
   0   2   5    7.33    0.31
   0   2   5    7.78    0.26
   0   2   5    8.08    0.25
   0   2   5    7.69    0.29
   0   2   5    7.62    0.21
  -1  -2  -5   34.15    0.68
  -1  -2  -5   33.78    0.66
  -1  -2  -5   33.60    0.54
   1   2   5   34.00    0.59
   1   2   5   32.41    0.70
   1   2   5   33.90    0.61
   1   2   5   33.02    0.66
  -2  -2  -5    1.24    0.18
  -2  -2  -5    1.74    0.21
  -2  -2  -5    2.17    0.21
   2   2   5    1.44    0.14
   2   2   5    1.23    0.17
   2   2   5    1.22    0.20
   2   2   5    1.52    0.18
  -3  -2  -5    1.39    0.19
  -3  -2  -5    1.03    0.19
  -3  -2  -5    1.18    0.21
   3   2   5    1.16    0.22
   3   2   5    0.88    0.17
   3   2   5    1.02    0.18
   3   2   5    1.10    0.19
  -4  -2  -5    0.26    0.15
  -4  -2  -5    0.45    0.20
  -4  -2  -5    0.29    0.16
   4   2   5    0.03    0.15
   4   2   5    0.32    0.16
   4   2   5    0.32    0.19
   4   2   5    0.05    0.13
  -5  -2  -5   23.56    0.77
   5   2   5   23.09    0.79
   5   2   5   23.05    0.70
   5   2   5   23.09    0.72
  -6  -2  -5    3.60    0.43
   6   2   5    2.67    0.39
   6   2   5    3.24    0.38
   6   2   5    3.27    0.40
   9  -3  -5    3.76    0.35
   9  -3  -5    3.50    0.33
   9  -3  -5    3.10    0.34
   8  -3  -5    3.01    0.31
   8  -3  -5    3.13    0.43
   8  -3  -5    2.97    0.30
   8  -3  -5    3.11    0.28
   8  -3  -5    3.15    0.32
  -8   3   5    2.55    0.28
   7  -3  -5   10.50    0.35
   7  -3  -5   11.08    0.45
   7  -3  -5   10.82    0.40
   7  -3  -5   10.70    0.44
  -7   3   5   10.02    0.41
  -7   3   5   10.93    0.44
   6  -3  -5    1.72    0.22
   6  -3  -5    1.62    0.16
   6  -3  -5    1.40    0.21
   6  -3  -5    1.87    0.20
  -6   3   5    1.77    0.22
  -6   3   5    1.62    0.22
   5  -3  -5   45.73    0.70
   5  -3  -5   48.62    0.75
   5  -3  -5   50.22    0.94
   5  -3  -5   48.76    0.86
  -5   3   5   47.87    0.74
  -5   3   5   47.41    0.89
  -5   3   5   48.48    0.92
   4  -3  -5   27.18    0.49
   4  -3  -5   28.08    0.59
   4  -3  -5   27.75    0.64
   4  -3  -5   27.51    0.42
  -4   3   5   27.30    0.64
  -4   3   5   27.37    0.61
  -4   3   5   27.98    0.48
   3  -3  -5    1.84    0.18
   3  -3  -5    1.51    0.12
   3  -3  -5    1.46    0.17
   3  -3  -5    1.67    0.17
  -3   3   5    1.46    0.17
  -3   3   5    1.73    0.18
  -3   3   5    1.63    0.13
   2  -3  -5   17.12    0.44
   2  -3  -5   17.61    0.36
   2  -3  -5   16.52    0.42
   2  -3  -5   17.29    0.46
  -2   3   5   15.83    0.25
  -2   3   5   16.33    0.43
  -2   3   5   16.14    0.44
  -2   3   5   16.08    0.45
  -2   3   5   17.41    0.31
   1  -3  -5    6.68    0.26
   1  -3  -5    6.85    0.24
   1  -3  -5    7.25    0.30
   1  -3  -5    6.85    0.30
  -1   3   5    7.16    0.22
  -1   3   5    6.86    0.20
  -1   3   5    7.06    0.28
  -1   3   5    7.04    0.31
  -1   3   5    7.62    0.31
   0  -3  -5    3.27    0.19
   0  -3  -5    3.16    0.23
   0  -3  -5    3.67    0.20
   0  -3  -5    3.31    0.24
   0   3   5    3.38    0.19
   0   3   5    2.45    0.23
   0   3   5    3.13    0.24
   0   3   5    3.26    0.22
  -1  -3  -5    0.28    0.12
  -1  -3  -5    0.33    0.12
  -1  -3  -5    0.36    0.11
   1   3   5    0.24    0.13
   1   3   5    0.31    0.11
   1   3   5    0.28    0.12
   1   3   5    0.22    0.14
  -2  -3  -5   24.00    0.65
  -2  -3  -5   22.73    0.56
  -2  -3  -5   23.18    0.62
   2   3   5   22.69    0.66
   2   3   5   24.01    0.62
   2   3   5   22.92    0.52
   2   3   5   21.81    0.55
  -3  -3  -5    4.99    0.31
  -3  -3  -5    5.68    0.40
  -3  -3  -5    5.74    0.36
   3   3   5    5.90    0.34
   3   3   5    4.92    0.39
   3   3   5    5.46    0.35
  -4  -3  -5    0.16    0.17
  -4  -3  -5    0.18    0.20
   4   3   5    0.20    0.21
   4   3   5    0.14    0.16
   4   3   5    0.40    0.18
   4   3   5    0.37    0.22
  -5  -3  -5    1.21    0.30
   5   3   5    1.68    0.33
   5   3   5    1.41    0.32
   5   3   5    1.00    0.25
   5   3   5    1.46    0.29
   9  -4  -5    0.13    0.17
   9  -4  -5    0.36    0.17
   9  -4  -5    0.00    0.16
  -9   4   5    0.36    0.23
   8  -4  -5    6.56    0.41
   8  -4  -5    6.36    0.40
   8  -4  -5    6.18    0.37
  -8   4   5    6.59    0.40
   7  -4  -5    7.21    0.36
   7  -4  -5    7.54    0.31
   7  -4  -5    7.39    0.41
  -7   4   5    6.68    0.38
  -7   4   5    6.78    0.39
   6  -4  -5    2.79    0.26
   6  -4  -5    2.06    0.25
   6  -4  -5    2.14    0.19
  -6   4   5    2.56    0.26
  -6   4   5    2.47    0.26
   5  -4  -5    1.39    0.15
   5  -4  -5    0.87    0.18
   5  -4  -5    0.87    0.17
  -5   4   5    0.82    0.19
  -5   4   5    1.31    0.20
   4  -4  -5    2.69    0.26
   4  -4  -5    2.72    0.20
   4  -4  -5    2.86    0.24
  -4   4   5    2.43    0.25
  -4   4   5    2.73    0.25
   3  -4  -5   25.32    0.62
   3  -4  -5   24.82    0.50
   3  -4  -5   25.19    0.59
  -3   4   5   24.28    0.63
  -3   4   5   26.25    0.61
  -3   4   5   24.07    0.56
  -3   4   5   25.45    0.61
   2  -4  -5    3.26    0.25
   2  -4  -5    3.83    0.25
   2  -4  -5    2.99    0.22
   2  -4  -5    3.66    0.21
  -2   4   5    2.61    0.23
  -2   4   5    3.70    0.25
  -2   4   5    3.51    0.26
   1  -4  -5   13.84    0.44
   1  -4  -5   14.41    0.39
   1  -4  -5   13.96    0.45
   1  -4  -5   14.28    0.39
  -1   4   5   13.56    0.45
  -1   4   5   12.99    0.45
  -1   4   5   13.62    0.43
   0  -4  -5    2.74    0.22
   0  -4  -5    2.58    0.19
   0  -4  -5    2.63    0.25
   0  -4  -5    2.18    0.23
   0   4   5    2.72    0.23
   0   4   5    2.67    0.27
   0   4   5    2.84    0.20
   0   4   5    2.00    0.24
  -1  -4  -5    0.11    0.12
  -1  -4  -5   -0.06    0.11
  -1  -4  -5    0.00    0.12
   1   4   5    0.12    0.12
   1   4   5   -0.12    0.10
   1   4   5    0.12    0.16
   1   4   5    0.15    0.14
  -2  -4  -5   22.38    0.66
   2   4   5   22.55    0.66
   2   4   5   21.94    0.58
   2   4   5   22.15    0.71
   2   4   5   22.33    0.57
  -3  -4  -5    7.21    0.47
  -3  -4  -5    4.44    0.37
   3   4   5    5.70    0.46
   3   4   5    5.47    0.40
   3   4   5    5.81    0.38
  -4  -4  -5    7.62    0.53
  -4  -4  -5    7.20    0.48
   4   4   5    7.07    0.46
   4   4   5    6.32    0.51
   4   4   5    6.50    0.43
   9  -5  -5    3.97    0.40
   9  -5  -5    4.46    0.39
   9  -5  -5    3.97    0.38
  -9   5   5    4.18    0.39
   8  -5  -5   16.93    0.65
   8  -5  -5   17.00    0.60
  -8   5   5   16.23    0.60
  -8   5   5   16.75    0.63
   7  -5  -5   -0.15    0.15
   7  -5  -5   -0.07    0.14
   7  -5  -5    0.17    0.13
  -7   5   5   -0.08    0.16
  -7   5   5    0.12    0.17
   6  -5  -5    1.11    0.17
   6  -5  -5    1.33    0.22
   6  -5  -5    1.00    0.22
  -6   5   5    0.98    0.22
  -6   5   5    0.84    0.20
   5  -5  -5   13.23    0.40
   5  -5  -5   12.50    0.50
   5  -5  -5   12.99    0.47
  -5   5   5   13.23    0.52
  -5   5   5   13.76    0.49
   4  -5  -5   54.14    0.90
   4  -5  -5   54.45    1.07
   4  -5  -5   54.87    1.03
  -4   5   5   55.80    0.95
  -4   5   5   55.00    1.04
  -4   5   5   54.67    1.10
   3  -5  -5   18.72    0.47
   3  -5  -5   18.55    0.55
   3  -5  -5   18.11    0.55
  -3   5   5   18.84    0.55
  -3   5   5   19.18    0.60
  -3   5   5   18.29    0.51
  -3   5   5   18.42    0.56
   2  -5  -5    1.79    0.23
   2  -5  -5    1.71    0.22
   2  -5  -5    1.94    0.20
   2  -5  -5    2.06    0.21
  -2   5   5    1.82    0.23
  -2   5   5    1.89    0.23
  -2   5   5    1.51    0.21
   1  -5  -5   25.08    0.58
   1  -5  -5   23.92    0.62
   1  -5  -5   23.78    0.54
   1  -5  -5   23.76    0.64
  -1   5   5   23.18    0.64
  -1   5   5   23.39    0.62
  -1   5   5   23.80    0.66
   0  -5  -5    0.42    0.15
   0  -5  -5    0.16    0.13
   0  -5  -5   -0.03    0.14
   0   5   5    0.12    0.16
   0   5   5    0.51    0.15
   0   5   5    0.31    0.18
  -1  -5  -5    0.27    0.15
  -1  -5  -5    0.28    0.16
   1   5   5    0.29    0.17
   1   5   5    0.29    0.15
   1   5   5    0.06    0.19
  -2  -5  -5    0.44    0.20
   2   5   5    0.65    0.23
   2   5   5    0.28    0.24
  -3  -5  -5    1.50    0.29
  -3  -5  -5    2.10    0.35
   3   5   5    1.53    0.28
   3   5   5    1.46    0.32
  -9   6   5    2.47    0.34
   8  -6  -5    4.83    0.40
   8  -6  -5    5.63    0.48
  -8   6   5    4.69    0.40
  -8   6   5    4.83    0.43
   7  -6  -5    7.71    0.38
   7  -6  -5    7.52    0.44
   7  -6  -5    7.24    0.46
  -7   6   5    7.92    0.46
  -7   6   5    7.41    0.48
   6  -6  -5    3.85    0.36
   6  -6  -5    4.25    0.30
   6  -6  -5    4.30    0.36
  -6   6   5    4.38    0.40
  -6   6   5    4.13    0.36
   5  -6  -5    4.92    0.38
   5  -6  -5    5.08    0.37
   5  -6  -5    5.20    0.30
  -5   6   5    4.90    0.39
  -5   6   5    5.32    0.39
   4  -6  -5    0.71    0.20
   4  -6  -5    0.75    0.16
   4  -6  -5    0.41    0.18
  -4   6   5    0.71    0.19
  -4   6   5    0.62    0.19
  -4   6   5    0.12    0.16
   3  -6  -5   10.58    0.46
   3  -6  -5   10.58    0.40
   3  -6  -5   10.00    0.45
  -3   6   5    9.48    0.44
  -3   6   5   10.16    0.41
  -3   6   5    9.78    0.46
   2  -6  -5   -0.05    0.13
   2  -6  -5    0.04    0.14
   2  -6  -5    0.15    0.13
   2  -6  -5   -0.14    0.13
  -2   6   5    0.35    0.17
  -2   6   5    0.02    0.14
  -2   6   5    0.14    0.16
   1  -6  -5    0.28    0.19
   1  -6  -5    0.68    0.19
   1  -6  -5    0.49    0.17
  -1   6   5    0.78    0.20
  -1   6   5    0.42    0.20
  -1   6   5    0.23    0.17
   0  -6  -5    1.51    0.25
   0  -6  -5    2.36    0.25
   0   6   5    1.92    0.26
   0   6   5    1.58    0.27
   0   6   5    1.67    0.27
  -1  -6  -5    2.69    0.29
  -1  -6  -5    2.15    0.30
   1   6   5    2.46    0.29
   1   6   5    1.74    0.31
   1   6   5    1.72    0.29
  -2  -6  -5    7.84    0.50
  -2  -6  -5    6.82    0.52
   2   6   5    6.84    0.54
   2   6   5    8.28    0.53
   8  -7  -5    0.66    0.24
   8  -7  -5    0.56    0.24
  -8   7   5    0.28    0.23
  -8   7   5    0.77    0.26
   7  -7  -5    7.86    0.50
   7  -7  -5    7.02    0.47
  -7   7   5    7.23    0.48
  -7   7   5    7.08    0.50
   6  -7  -5    1.54    0.23
   6  -7  -5    1.67    0.28
   6  -7  -5    0.97    0.25
  -6   7   5    1.37    0.28
  -6   7   5    1.52    0.29
   5  -7  -5   10.96    0.44
   5  -7  -5    9.47    0.51
   5  -7  -5   11.04    0.51
  -5   7   5   10.87    0.52
  -5   7   5   10.82    0.55
   4  -7  -5    0.34    0.16
   4  -7  -5    0.14    0.18
   4  -7  -5    0.11    0.16
  -4   7   5    0.29    0.19
  -4   7   5    0.17    0.19
  -4   7   5    0.58    0.20
   3  -7  -5   12.39    0.54
   3  -7  -5   11.43    0.52
   3  -7  -5   12.49    0.47
  -3   7   5   12.77    0.56
  -3   7   5   13.09    0.56
   2  -7  -5    1.29    0.24
   2  -7  -5    0.76    0.22
   2  -7  -5    0.88    0.19
  -2   7   5    1.15    0.26
  -2   7   5    0.85    0.23
   1  -7  -5    0.74    0.20
   1  -7  -5    0.60    0.22
  -1   7   5    0.66    0.23
  -1   7   5    0.91    0.24
  -1   7   5    0.75    0.24
   0  -7  -5    0.61    0.20
   0  -7  -5    0.51    0.21
   0   7   5    0.43    0.25
   0   7   5    1.04    0.24
   0   7   5    0.36    0.22
   7  -8  -5   -0.14    0.20
   6  -8  -5   12.08    0.51
   6  -8  -5   12.49    0.60
   6  -8  -5   12.56    0.63
  -6   8   5   11.77    0.62
  -6   8   5   12.19    0.64
   5  -8  -5    0.21    0.22
   5  -8  -5   -0.09    0.18
   5  -8  -5    0.13    0.16
  -5   8   5    0.19    0.22
  -5   8   5    0.19    0.21
   4  -8  -5    5.55    0.38
   4  -8  -5    4.68    0.41
   4  -8  -5    4.57    0.42
  -4   8   5    4.97    0.44
  -4   8   5    5.04    0.44
   3  -8  -5    0.02    0.19
   3  -8  -5    0.01    0.18
   3  -8  -5   -0.03    0.14
  -3   8   5    0.06    0.20
  -3   8   5    0.07    0.19
   2  -8  -5    1.38    0.29
   2  -8  -5    1.53    0.27
  -2   8   5    1.15    0.29
  -2   8   5    1.28    0.29
  -3  10  -6    0.19    0.21
  -3  10  -6    0.51    0.26
   3 -10   6    0.44    0.22
   3 -10   6    0.62    0.23
  -4  10  -6    0.98    0.28
  -4  10  -6    1.16    0.28
   4 -10   6    1.18    0.27
   4 -10   6    1.54    0.29
  -5  10  -6    2.28    0.34
  -5  10  -6    2.96    0.40
   5 -10   6    2.97    0.37
   5 -10   6    2.19    0.33
   0   9  -6   -0.02    0.21
   0   9  -6    0.09    0.20
   0  -9   6    0.43    0.19
   0  -9   6    0.36    0.21
  -1   9  -6    0.98    0.26
  -1   9  -6    1.48    0.26
   1  -9   6    1.73    0.26
   1  -9   6    0.84    0.24
  -2   9  -6    8.77    0.51
  -2   9  -6    8.37    0.46
   2  -9   6    8.12    0.45
   2  -9   6    8.18    0.47
  -3   9  -6    5.94    0.42
  -3   9  -6    6.60    0.45
   3  -9   6    6.64    0.42
   3  -9   6    6.48    0.44
  -4   9  -6    3.05    0.36
  -4   9  -6    3.27    0.38
   4  -9   6    3.96    0.39
   4  -9   6    4.06    0.36
  -5   9  -6    8.87    0.54
  -5   9  -6    9.31    0.51
   5  -9   6    9.51    0.53
   5  -9   6    8.72    0.50
   5  -9   6    7.95    0.44
  -6   9  -6   -0.06    0.22
  -6   9  -6   -0.14    0.19
   6  -9   6    0.27    0.22
   6  -9   6   -0.13    0.20
   6  -9   6    0.28    0.19
  -7   9  -6    4.36    0.48
   7  -9   6    3.72    0.37
   7  -9   6    3.61    0.39
   7  -9   6    4.28    0.44
   2   8  -6   26.17    0.83
   2   8  -6   24.67    0.88
   2   8  -6   25.74    0.83
  -2  -8   6   24.83    0.74
  -2  -8   6   26.20    0.77
   1   8  -6   16.94    0.64
   1   8  -6   15.99    0.64
  -1  -8   6   16.47    0.57
  -1  -8   6   16.69    0.64
  -1  -8   6   16.22    0.58
   0   8  -6    3.09    0.33
   0   8  -6    2.07    0.29
   0  -8   6    2.12    0.25
   0  -8   6    2.27    0.31
   0  -8   6    3.12    0.31
  -1   8  -6    0.47    0.16
  -1   8  -6    0.59    0.21
  -1   8  -6    0.36    0.17
  -1   8  -6    0.40    0.19
   1  -8   6    0.47    0.20
   1  -8   6    0.81    0.19
  -2   8  -6    0.03    0.17
  -2   8  -6    0.18    0.15
  -2   8  -6   -0.18    0.13
  -2   8  -6   -0.07    0.14
   2  -8   6    0.13    0.17
   2  -8   6    0.12    0.14
  -3   8  -6    1.86    0.27
  -3   8  -6    2.01    0.27
  -3   8  -6    2.44    0.28
   3  -8   6    2.13    0.26
   3  -8   6    1.74    0.26
  -4   8  -6   13.31    0.51
  -4   8  -6   11.66    0.53
  -4   8  -6   11.56    0.50
   4  -8   6   11.95    0.49
   4  -8   6   11.64    0.51
   4  -8   6   11.46    0.44
  -5   8  -6    0.76    0.22
  -5   8  -6    0.89    0.22
   5  -8   6    0.93    0.20
   5  -8   6    0.73    0.21
   5  -8   6    0.76    0.23
  -6   8  -6    0.26    0.20
  -6   8  -6    0.77    0.21
   6  -8   6    0.25    0.22
   6  -8   6    0.42    0.21
   6  -8   6    0.35    0.20
  -7   8  -6    3.91    0.43
   7  -8   6    3.72    0.40
   7  -8   6    2.91    0.32
   7  -8   6    3.21    0.34
   8  -8   6    6.68    0.52
   3   7  -6    0.22    0.20
   3   7  -6    0.19    0.20
   3   7  -6    0.20    0.19
  -3  -7   6    0.09    0.16
  -3  -7   6    0.03    0.16
   2   7  -6    0.11    0.18
   2   7  -6    0.32    0.20
   2   7  -6    0.01    0.18
  -2  -7   6    0.20    0.16
  -2  -7   6    0.33    0.16
   1   7  -6   17.20    0.60
   1   7  -6   17.27    0.60
   1   7  -6   16.74    0.56
  -1  -7   6   17.26    0.55
  -1  -7   6   17.81    0.55
  -1  -7   6   17.84    0.62
   0   7  -6    1.74    0.26
   0   7  -6    1.50    0.21
   0   7  -6    1.76    0.21
   0   7  -6    1.94    0.22
   0   7  -6    2.05    0.25
   0  -7   6    1.85    0.21
   0  -7   6    1.57    0.21
   0  -7   6    2.47    0.28
   0  -7   6    2.10    0.27
  -1   7  -6   38.77    0.83
  -1   7  -6   39.89    0.89
  -1   7  -6   38.82    0.81
  -1   7  -6   38.53    0.80
   1  -7   6   38.94    0.87
   1  -7   6   40.13    0.77
   1  -7   6   38.41    0.80
   1  -7   6   39.54    0.89
  -2   7  -6   -0.09    0.13
  -2   7  -6    0.06    0.13
  -2   7  -6    0.12    0.13
  -2   7  -6    0.10    0.11
   2  -7   6    0.27    0.16
   2  -7   6   -0.01    0.12
   2  -7   6    0.17    0.10
   2  -7   6   -0.01    0.13
  -3   7  -6    0.48    0.17
  -3   7  -6    0.29    0.15
  -3   7  -6    0.36    0.16
   3  -7   6    0.58    0.14
   3  -7   6    0.32    0.16
   3  -7   6    0.27    0.12
   3  -7   6    0.38    0.17
   3  -7   6    0.10    0.14
  -4   7  -6    5.01    0.34
  -4   7  -6    5.15    0.37
  -4   7  -6    5.38    0.35
   4  -7   6    4.99    0.31
   4  -7   6    5.21    0.36
   4  -7   6    5.11    0.34
   4  -7   6    4.59    0.26
   4  -7   6    5.02    0.36
  -5   7  -6   -0.04    0.13
  -5   7  -6    0.20    0.16
  -5   7  -6    0.08    0.15
   5  -7   6    0.19    0.15
   5  -7   6    0.17    0.16
   5  -7   6    0.15    0.14
   5  -7   6    0.17    0.17
   5  -7   6    0.20    0.12
  -6   7  -6    0.73    0.22
   6  -7   6    0.74    0.20
   6  -7   6    0.54    0.19
   6  -7   6    0.62    0.23
  -7   7  -6    1.37    0.30
  -7   7  -6    1.56    0.28
   7  -7   6    1.06    0.24
   7  -7   6    1.29    0.25
   7  -7   6    1.36    0.29
  -8   7  -6    5.72    0.49
  -8   7  -6    6.64    0.47
   8  -7   6    5.67    0.43
   8  -7   6    6.27    0.51
   4   6  -6    5.29    0.47
   4   6  -6    5.97    0.48
   4   6  -6    5.49    0.41
  -4  -6   6    6.51    0.44
   3   6  -6    2.42    0.29
   3   6  -6    3.06    0.34
   3   6  -6    3.21    0.34
  -3  -6   6    3.23    0.29
  -3  -6   6    2.71    0.29
   2   6  -6    0.78    0.20
   2   6  -6    0.74    0.19
   2   6  -6    0.90    0.21
  -2  -6   6    0.83    0.19
  -2  -6   6    0.95    0.18
   1   6  -6   -0.04    0.10
   1   6  -6    0.09    0.13
   1   6  -6    0.30    0.15
   1   6  -6    0.25    0.15
  -1  -6   6    0.16    0.12
  -1  -6   6    0.09    0.13
  -1  -6   6   -0.03    0.11
   0   6  -6    0.78    0.15
   0   6  -6    0.17    0.14
   0   6  -6    0.40    0.14
   0   6  -6    0.53    0.13
   0   6  -6    0.44    0.13
   0  -6   6    0.49    0.15
   0  -6   6    0.43    0.13
   0  -6   6    0.76    0.17
   0  -6   6    0.31    0.12
  -1   6  -6   18.63    0.51
  -1   6  -6   19.50    0.49
  -1   6  -6   18.44    0.45
  -1   6  -6   19.49    0.53
  -1   6  -6   17.99    0.54
   1  -6   6   18.10    0.48
   1  -6   6   18.85    0.48
   1  -6   6   18.91    0.55
   1  -6   6   18.90    0.55
  -2   6  -6    4.57    0.30
  -2   6  -6    4.43    0.30
  -2   6  -6    5.40    0.30
  -2   6  -6    4.69    0.24
   2  -6   6    5.36    0.32
   2  -6   6    5.46    0.32
   2  -6   6    4.60    0.24
   2  -6   6    5.07    0.24
   2  -6   6    4.66    0.25
   2  -6   6    5.06    0.28
  -3   6  -6    0.75    0.16
  -3   6  -6    1.17    0.18
  -3   6  -6    0.90    0.18
   3  -6   6    1.13    0.20
   3  -6   6    1.12    0.18
   3  -6   6    1.09    0.16
   3  -6   6    1.09    0.14
   3  -6   6    1.07    0.15
   3  -6   6    0.81    0.18
  -4   6  -6    9.82    0.41
  -4   6  -6    9.56    0.37
  -4   6  -6   10.01    0.45
   4  -6   6    9.62    0.42
   4  -6   6    9.52    0.34
   4  -6   6   10.15    0.39
   4  -6   6    9.58    0.42
   4  -6   6    8.77    0.36
  -5   6  -6   26.61    0.68
  -5   6  -6   24.56    0.58
  -5   6  -6   25.01    0.72
  -5   6  -6   24.00    0.64
   5  -6   6   25.52    0.70
   5  -6   6   23.99    0.62
   5  -6   6   23.95    0.68
   5  -6   6   24.00    0.57
  -6   6  -6    6.53    0.43
  -6   6  -6    6.14    0.41
   6  -6   6    6.36    0.38
   6  -6   6    6.22    0.41
   6  -6   6    5.87    0.39
   6  -6   6    6.32    0.33
  -7   6  -6   11.87    0.56
  -7   6  -6   10.96    0.53
   7  -6   6   10.01    0.52
   7  -6   6    9.72    0.43
   7  -6   6   10.41    0.49
  -8   6  -6    2.70    0.35
  -8   6  -6    3.00    0.37
   8  -6   6    2.72    0.36
   8  -6   6    2.97    0.34
   8  -6   6    2.40    0.30
   5   5  -6    7.74    0.52
   5   5  -6    9.05    0.53
   5   5  -6    8.19    0.46
  -5  -5   6    9.36    0.51
   4   5  -6    4.79    0.36
   4   5  -6    4.65    0.41
   4   5  -6    5.23    0.40
  -4  -5   6    5.09    0.38
   3   5  -6    2.72    0.28
   3   5  -6    2.92    0.30
   3   5  -6    3.00    0.30
  -3  -5   6    2.43    0.23
  -3  -5   6    2.48    0.27
   2   5  -6   19.79    0.47
   2   5  -6   19.11    0.57
   2   5  -6   19.62    0.58
   2   5  -6   19.65    0.58
  -2  -5   6   19.57    0.56
  -2  -5   6   19.52    0.49
  -2  -5   6   19.21    0.58
   1   5  -6   52.90    0.88
   1   5  -6   52.79    0.86
   1   5  -6   52.21    0.95
   1   5  -6   52.10    0.97
  -1  -5   6   52.36    0.94
  -1  -5   6   52.81    0.97
  -1  -5   6   52.24    0.87
  -1  -5   6   51.89    0.98
   0   5  -6    6.34    0.30
   0   5  -6    6.23    0.28
   0   5  -6    5.95    0.27
   0   5  -6    5.63    0.31
   0  -5   6    6.04    0.28
   0  -5   6    6.39    0.26
   0  -5   6    6.39    0.31
   0  -5   6    5.81    0.30
  -1   5  -6   17.22    0.46
  -1   5  -6   17.07    0.48
  -1   5  -6   17.53    0.48
  -1   5  -6   17.71    0.42
   1  -5   6   17.03    0.48
   1  -5   6   17.13    0.35
   1  -5   6   17.68    0.42
   1  -5   6   17.08    0.43
   1  -5   6   17.75    0.49
   1  -5   6   16.76    0.43
  -2   5  -6   19.86    0.51
  -2   5  -6   19.60    0.40
  -2   5  -6   19.49    0.50
  -2   5  -6   20.39    0.54
   2  -5   6   19.37    0.42
   2  -5   6   19.59    0.46
   2  -5   6   19.88    0.46
   2  -5   6   20.31    0.46
   2  -5   6   19.98    0.53
   2  -5   6   20.18    0.52
  -3   5  -6    0.06    0.10
  -3   5  -6    0.33    0.13
  -3   5  -6    0.24    0.13
  -3   5  -6    0.09    0.11
   3  -5   6    0.20    0.12
   3  -5   6    0.08    0.11
   3  -5   6    0.20    0.13
   3  -5   6    0.28    0.11
  -4   5  -6    0.52    0.14
  -4   5  -6    0.44    0.14
  -4   5  -6    0.26    0.12
  -4   5  -6    0.53    0.16
   4  -5   6    0.36    0.13
   4  -5   6    0.45    0.15
   4  -5   6    0.35    0.14
   4  -5   6    0.55    0.14
  -5   5  -6   21.16    0.64
  -5   5  -6   22.46    0.59
  -5   5  -6   23.28    0.63
   5  -5   6   22.40    0.56
   5  -5   6   21.69    0.62
   5  -5   6   21.61    0.57
   5  -5   6   21.76    0.62
  -6   5  -6    3.64    0.34
  -6   5  -6    3.29    0.32
   6  -5   6    3.58    0.29
   6  -5   6    3.50    0.33
   6  -5   6    4.09    0.30
   6  -5   6    3.22    0.32
  -7   5  -6    3.86    0.37
  -7   5  -6    4.80    0.41
   7  -5   6    3.65    0.38
   7  -5   6    3.38    0.32
   7  -5   6    3.97    0.34
  -8   5  -6    0.04    0.20
  -8   5  -6    0.32    0.22
   8  -5   6    0.22    0.20
   8  -5   6    0.14    0.23
   8  -5   6    0.52    0.21
   6   4  -6    0.74    0.21
   6   4  -6    0.22    0.21
   6   4  -6    0.28    0.22
  -6  -4   6    0.35    0.23
   5   4  -6    1.19    0.22
   5   4  -6    1.13    0.24
   5   4  -6    1.29    0.25
  -5  -4   6    1.01    0.23
   4   4  -6    5.79    0.39
   4   4  -6    6.54    0.38
   4   4  -6    5.59    0.35
  -4  -4   6    6.67    0.38
   3   4  -6    0.47    0.16
   3   4  -6    0.38    0.12
   3   4  -6    0.14    0.14
   3   4  -6    0.17    0.14
  -3  -4   6    0.24    0.14
  -3  -4   6    0.23    0.11
   2   4  -6   43.08    0.83
   2   4  -6   42.03    0.74
   2   4  -6   41.98    0.68
   2   4  -6   41.31    0.83
  -2  -4   6   43.55    0.85
  -2  -4   6   42.08    0.82
  -2  -4   6   42.60    0.72
   1   4  -6   67.46    1.08
   1   4  -6   68.67    1.12
   1   4  -6   69.06    1.02
   1   4  -6   68.58    0.90
   1   4  -6   68.77    1.04
  -1  -4   6   68.55    1.12
  -1  -4   6   69.64    0.98
  -1  -4   6   68.96    1.09
  -1  -4   6   68.37    1.09
   0   4  -6    1.29    0.14
   0   4  -6    1.48    0.16
   0   4  -6    1.43    0.13
   0   4  -6    1.32    0.17
   0  -4   6    1.47    0.18
   0  -4   6    1.28    0.09
   0  -4   6    1.63    0.17
   0  -4   6    1.44    0.16
   0  -4   6    1.29    0.15
   0  -4   6    1.57    0.14
  -1   4  -6   22.20    0.50
  -1   4  -6   21.66    0.43
  -1   4  -6   21.85    0.50
  -1   4  -6   22.12    0.47
   1  -4   6   22.40    0.51
   1  -4   6   22.14    0.44
   1  -4   6   22.69    0.49
   1  -4   6   21.82    0.52
   1  -4   6   21.58    0.39
   1  -4   6   21.71    0.48
  -2   4  -6   13.93    0.40
  -2   4  -6   13.56    0.29
  -2   4  -6   14.49    0.37
  -2   4  -6   13.31    0.37
  -2   4  -6   14.70    0.40
   2  -4   6   13.60    0.41
   2  -4   6   13.39    0.39
   2  -4   6   13.50    0.37
   2  -4   6   13.61    0.35
  -3   4  -6    2.43    0.21
  -3   4  -6    2.39    0.19
  -3   4  -6    2.48    0.20
   3  -4   6    2.18    0.21
   3  -4   6    2.28    0.22
   3  -4   6    2.43    0.16
   3  -4   6    2.30    0.18
   3  -4   6    2.64    0.21
  -4   4  -6    1.53    0.15
  -4   4  -6    1.52    0.19
  -4   4  -6    1.50    0.18
  -4   4  -6    1.27    0.19
   4  -4   6    1.47    0.20
   4  -4   6    1.43    0.17
   4  -4   6    1.35    0.20
   4  -4   6    1.53    0.15
   4  -4   6    1.92    0.21
  -5   4  -6   40.08    0.80
  -5   4  -6   42.28    0.90
  -5   4  -6   41.12    0.86
   5  -4   6   40.87    0.80
   5  -4   6   40.12    0.80
   5  -4   6   40.44    0.86
   5  -4   6   40.88    0.86
  -6   4  -6    2.03    0.26
  -6   4  -6    1.83    0.26
   6  -4   6    1.87    0.24
   6  -4   6    1.75    0.25
   6  -4   6    2.07    0.24
   6  -4   6    1.60    0.25
  -7   4  -6    0.42    0.19
  -7   4  -6    0.19    0.19
   7  -4   6    0.40    0.18
   7  -4   6    0.38    0.20
   7  -4   6   -0.11    0.16
  -8   4  -6   12.95    0.61
   8  -4   6   14.10    0.58
   8  -4   6   12.68    0.60
   8  -4   6   13.40    0.56
   7   3  -6    0.79    0.26
   7   3  -6    0.85    0.24
  -7  -3   6    0.71    0.26
   6   3  -6    7.93    0.42
   6   3  -6    7.89    0.46
   6   3  -6    8.01    0.48
  -6  -3   6    7.19    0.45
   5   3  -6    0.05    0.14
   5   3  -6    0.22    0.17
   5   3  -6    0.18    0.14
  -5  -3   6    0.30    0.16
   4   3  -6   59.60    0.94
   4   3  -6   61.94    1.09
   4   3  -6   60.80    1.13
  -4  -3   6   61.97    1.12
   3   3  -6   14.14    0.37
   3   3  -6   14.82    0.46
   3   3  -6   13.21    0.44
  -3  -3   6   14.76    0.46
   2   3  -6   57.12    0.96
   2   3  -6   58.11    0.96
   2   3  -6   56.10    0.76
   2   3  -6   56.66    0.88
  -2  -3   6   56.21    0.95
  -2  -3   6   57.31    0.96
  -2  -3   6   56.13    0.81
   1   3  -6    0.82    0.14
   1   3  -6    0.73    0.13
   1   3  -6    1.03    0.11
   1   3  -6    0.90    0.13
  -1  -3   6    0.71    0.13
  -1  -3   6    0.87    0.14
  -1  -3   6    0.87    0.13
  -1  -3   6    0.82    0.10
  -1  -3   6    0.84    0.14
   0   3  -6    5.72    0.24
   0   3  -6    5.76    0.25
   0   3  -6    5.99    0.22
   0   3  -6    5.84    0.23
   0  -3   6    5.97    0.25
   0  -3   6    6.18    0.25
   0  -3   6    5.76    0.19
   0  -3   6    5.73    0.26
   0  -3   6    6.05    0.25
  -1   3  -6    9.35    0.30
  -1   3  -6    9.12    0.30
  -1   3  -6    9.52    0.25
  -1   3  -6    9.20    0.25
  -1   3  -6    9.56    0.29
   1  -3   6    9.30    0.30
   1  -3   6    9.17    0.30
   1  -3   6    8.86    0.30
   1  -3   6    9.04    0.24
  -2   3  -6    3.09    0.21
  -2   3  -6    3.00    0.18
  -2   3  -6    3.20    0.13
  -2   3  -6    3.22    0.22
  -2   3  -6    3.16    0.18
   2  -3   6    2.88    0.17
   2  -3   6    3.13    0.21
   2  -3   6    3.06    0.21
   2  -3   6    3.16    0.18
   2  -3   6    2.97    0.21
  -3   3  -6    1.63    0.17
  -3   3  -6    1.23    0.17
  -3   3  -6    1.35    0.16
  -3   3  -6    1.51    0.13
   3  -3   6    1.71    0.19
   3  -3   6    1.28    0.14
   3  -3   6    1.17    0.16
   3  -3   6    1.55    0.15
   3  -3   6    1.64    0.18
  -4   3  -6    3.97    0.27
  -4   3  -6    3.74    0.23
  -4   3  -6    3.88    0.28
   4  -3   6    3.28    0.22
   4  -3   6    3.64    0.27
   4  -3   6    3.30    0.22
   4  -3   6    3.28    0.24
   4  -3   6    3.40    0.26
  -5   3  -6    1.35    0.20
  -5   3  -6    1.16    0.17
   5  -3   6    1.52    0.19
   5  -3   6    1.14    0.20
   5  -3   6    1.16    0.18
   5  -3   6    1.47    0.21
   5  -3   6    0.91    0.19
  -6   3  -6    2.89    0.30
  -6   3  -6    3.95    0.34
   6  -3   6    3.58    0.34
   6  -3   6    2.86    0.26
   6  -3   6    2.48    0.28
   6  -3   6    3.01    0.29
  -7   3  -6    3.74    0.37
   7  -3   6    3.41    0.33
   7  -3   6    4.08    0.39
  -8   3  -6    0.47    0.24
   8  -3   6    0.59    0.27
   8  -3   6    0.66    0.24
   8  -3   6    0.25    0.22
   7   2  -6    6.55    0.40
   7   2  -6    6.34    0.47
   7   2  -6    7.38    0.46
  -7  -2   6    6.83    0.47
   6   2  -6    2.46    0.27
   6   2  -6    1.79    0.27
   6   2  -6    1.92    0.27
  -6  -2   6    1.71    0.26
   5   2  -6    9.62    0.43
   5   2  -6    9.52    0.40
   5   2  -6    9.86    0.33
  -5  -2   6    8.88    0.42
   4   2  -6    9.26    0.39
   4   2  -6    9.84    0.32
   4   2  -6    9.58    0.38
  -4  -2   6    8.65    0.37
   3   2  -6    2.67    0.22
   3   2  -6    2.66    0.22
   3   2  -6    2.62    0.14
   3   2  -6    2.51    0.19
  -3  -2   6    2.69    0.23
   2   2  -6    1.22    0.15
   2   2  -6    0.97    0.14
   2   2  -6    1.27    0.11
   2   2  -6    1.17    0.13
  -2  -2   6    1.37    0.16
  -2  -2   6    1.15    0.14
  -2  -2   6    0.97    0.08
   1   2  -6   13.04    0.31
   1   2  -6   13.10    0.35
   1   2  -6   13.10    0.36
  -1  -2   6   13.22    0.35
  -1  -2   6   12.69    0.23
  -1  -2   6   13.30    0.34
  -1  -2   6   13.19    0.36
  -1  -2   6   13.07    0.32
   0   2  -6    9.76    0.30
   0   2  -6    9.43    0.21
   0   2  -6    8.90    0.28
   0   2  -6    9.64    0.29
   0   2  -6    9.46    0.34
   0  -2   6    9.05    0.28
   0  -2   6    9.08    0.29
   0  -2   6    9.66    0.27
   0  -2   6    9.22    0.19
  -1   2  -6   67.19    0.94
  -1   2  -6   68.05    0.93
  -1   2  -6   68.24    1.00
  -1   2  -6   68.94    1.02
   1  -2   6   68.22    1.00
   1  -2   6   67.86    0.88
   1  -2   6   69.59    0.97
   1  -2   6   67.87    0.98
   1  -2   6   67.86    1.00
  -2   2  -6   93.99    1.19
  -2   2  -6   93.87    1.35
  -2   2  -6   92.58    1.28
  -2   2  -6   94.45    1.29
   2  -2   6   93.78    1.31
   2  -2   6   94.42    1.22
   2  -2   6   93.56    1.29
   2  -2   6   95.04    1.31
   2  -2   6   95.34    1.31
  -3   2  -6   -0.03    0.09
  -3   2  -6    0.02    0.09
  -3   2  -6   -0.01    0.05
  -3   2  -6    0.08    0.10
   3  -2   6    0.08    0.11
   3  -2   6   -0.05    0.09
   3  -2   6    0.12    0.10
   3  -2   6    0.29    0.12
  -4   2  -6    1.18    0.15
  -4   2  -6    1.35    0.18
  -4   2  -6    1.55    0.20
   4  -2   6    1.05    0.17
   4  -2   6    1.40    0.18
   4  -2   6    1.36    0.19
   4  -2   6    0.90    0.17
  -5   2  -6   16.25    0.42
  -5   2  -6   16.36    0.54
  -5   2  -6   16.48    0.55
   5  -2   6   17.44    0.56
   5  -2   6   16.17    0.50
   5  -2   6   16.03    0.50
   5  -2   6   15.85    0.52
  -6   2  -6   28.69    0.77
   6  -2   6   27.21    0.75
   6  -2   6   27.60    0.77
   6  -2   6   28.53    0.73
   6  -2   6   27.79    0.73
  -7   2  -6    0.85    0.24
   7  -2   6    1.07    0.27
   7  -2   6    1.03    0.25
   7  -2   6    0.72    0.23
  -8   2  -6    1.89    0.35
   8  -2   6    2.31    0.38
   8  -2   6    2.58    0.35
   8   1  -6    1.75    0.29
   8   1  -6    1.63    0.30
  -8  -1   6    1.50    0.29
   7   1  -6    8.03    0.47
   7   1  -6    7.28    0.40
   7   1  -6    7.30    0.44
  -7  -1   6    8.36    0.45
   6   1  -6    5.63    0.28
   6   1  -6    6.18    0.35
   6   1  -6    6.08    0.37
  -6  -1   6    6.48    0.38
   5   1  -6   15.58    0.42
   5   1  -6   16.19    0.49
   5   1  -6   15.83    0.51
  -5  -1   6   16.31    0.50
   4   1  -6   58.96    1.03
   4   1  -6   61.41    0.95
   4   1  -6   59.21    1.01
   4   1  -6   60.21    0.83
   4   1  -6   60.08    0.89
  -4  -1   6   61.01    1.02
   3   1  -6   65.07    0.93
   3   1  -6   64.66    1.03
   3   1  -6   65.14    0.98
   3   1  -6   65.21    0.79
  -3  -1   6   64.70    1.02
  -3  -1   6   64.35    1.02
   2   1  -6   87.93    1.18
   2   1  -6   87.15    1.24
   2   1  -6   87.60    1.02
   2   1  -6   85.67    1.12
   2   1  -6   87.06    1.21
  -2  -1   6   88.14    1.21
  -2  -1   6   87.25    1.23
  -2  -1   6   85.85    1.23
  -2  -1   6   86.38    1.16
   1   1  -6  131.00    1.67
   1   1  -6  133.96    1.53
   1   1  -6  129.73    1.67
   1   1  -6  131.09    1.68
   1   1  -6  130.68    1.48
   1   1  -6  130.21    1.56
  -1  -1   6  130.93    1.66
  -1  -1   6  131.38    1.57
  -1  -1   6  129.95    1.69
  -1  -1   6  128.50    1.66
  -1  -1   6  132.66    1.61
   0   1  -6    0.03    0.07
   0   1  -6    0.00    0.05
   0   1  -6   -0.02    0.07
   0   1  -6    0.01    0.06
   0   1  -6    0.04    0.05
   0   1  -6    0.07    0.08
   0  -1   6    0.06    0.08
   0  -1   6   -0.02    0.08
   0  -1   6   -0.03    0.06
   0  -1   6   -0.02    0.04
   0  -1   6   -0.02    0.08
   0  -1   6    0.06    0.07
  -1   1  -6    0.53    0.10
  -1   1  -6    0.61    0.09
  -1   1  -6    0.65    0.09
  -1   1  -6    0.55    0.11
  -1   1  -6    0.57    0.11
  -1   1  -6    0.61    0.10
   1  -1   6    0.63    0.11
   1  -1   6    0.54    0.12
   1  -1   6    0.65    0.09
   1  -1   6    0.48    0.08
   1  -1   6    0.31    0.11
  -2   1  -6    0.53    0.11
  -2   1  -6    0.53    0.12
  -2   1  -6    0.56    0.13
  -2   1  -6    0.56    0.07
  -2   1  -6    0.53    0.10
   2  -1   6    0.50    0.12
   2  -1   6    0.46    0.11
   2  -1   6    0.49    0.10
   2  -1   6    0.47    0.06
   2  -1   6    0.39    0.12
  -3   1  -6   19.35    0.42
  -3   1  -6   19.77    0.50
  -3   1  -6   19.71    0.52
   3  -1   6   19.33    0.49
   3  -1   6   18.91    0.49
   3  -1   6   19.76    0.48
   3  -1   6   19.09    0.37
   3  -1   6   20.22    0.52
  -4   1  -6   12.07    0.45
  -4   1  -6   12.25    0.33
  -4   1  -6   12.32    0.44
   4  -1   6   12.36    0.44
   4  -1   6   12.18    0.44
   4  -1   6   11.66    0.42
   4  -1   6   12.32    0.42
  -5   1  -6    4.04    0.31
  -5   1  -6    4.19    0.33
   5  -1   6    4.13    0.33
   5  -1   6    3.92    0.33
   5  -1   6    3.87    0.32
   5  -1   6    3.87    0.32
  -6   1  -6    1.24    0.25
   6  -1   6    1.67    0.27
   6  -1   6    1.83    0.28
   6  -1   6    1.85    0.28
  -7   1  -6    0.21    0.20
   7  -1   6   -0.09    0.19
   7  -1   6    0.24    0.24
   7  -1   6    0.45    0.23
   8   0  -6    4.42    0.38
   8   0  -6    3.72    0.38
   8   0  -6    4.35    0.36
  -8   0   6    3.76    0.36
   7   0  -6    0.91    0.16
   7   0  -6    0.77    0.20
   7   0  -6    0.98    0.22
   7   0  -6    1.10    0.19
   7   0  -6    0.68    0.18
  -7   0   6    1.07    0.22
   6   0  -6    6.02    0.29
   6   0  -6    5.35    0.28
   6   0  -6    5.36    0.34
   6   0  -6    5.66    0.33
  -6   0   6    6.87    0.36
   5   0  -6    1.37    0.17
   5   0  -6    1.50    0.16
   5   0  -6    1.36    0.18
   5   0  -6    1.43    0.14
  -5   0   6    1.26    0.18
  -5   0   6    1.38    0.19
   4   0  -6    8.83    0.31
   4   0  -6    9.02    0.30
   4   0  -6    9.04    0.34
   4   0  -6    8.87    0.24
  -4   0   6    8.59    0.34
  -4   0   6    8.51    0.32
   3   0  -6    1.15    0.14
   3   0  -6    1.39    0.08
   3   0  -6    0.76    0.13
   3   0  -6    1.27    0.10
   3   0  -6    1.48    0.15
   3   0  -6    1.39    0.11
  -3   0   6    1.36    0.15
  -3   0   6    1.48    0.17
   2   0  -6  118.69    1.57
   2   0  -6  113.18    1.36
   2   0  -6  119.14    1.56
   2   0  -6  119.97    1.44
  -2   0   6  119.34    1.55
  -2   0   6  115.92    1.42
  -2   0   6  118.48    1.51
  -2   0   6  119.48    1.56
   1   0  -6   11.01    0.26
   1   0  -6   11.09    0.31
   1   0  -6   10.66    0.33
   1   0  -6   10.76    0.19
   1   0  -6   10.81    0.30
  -1   0   6   10.89    0.20
  -1   0   6   10.75    0.23
  -1   0   6   11.27    0.30
  -1   0   6   10.88    0.34
  -1   0   6   10.42    0.29
   0   0  -6   23.57    0.43
   0   0  -6   23.73    0.44
   0   0  -6   23.38    0.37
   0   0  -6   23.92    0.45
   0   0  -6   23.38    0.47
   0   0  -6   23.85    0.51
   0   0   6   24.39    0.38
   0   0   6   24.07    0.41
   0   0   6   23.88    0.44
   0   0   6   24.55    0.47
   0   0   6   23.81    0.52
  -1   0  -6    0.10    0.08
  -1   0  -6    0.29    0.09
  -1   0  -6    0.11    0.09
  -1   0  -6    0.26    0.07
  -1   0  -6    0.27    0.09
   1   0   6    0.15    0.06
   1   0   6    0.21    0.11
   1   0   6    0.20    0.09
   1   0   6    0.20    0.07
   1   0   6    0.25    0.08
   1   0   6    0.17    0.10
  -2   0  -6    0.28    0.06
  -2   0  -6    0.37    0.11
  -2   0  -6    0.27    0.09
  -2   0  -6    0.39    0.11
  -2   0  -6    0.19    0.11
   2   0   6    0.18    0.06
   2   0   6    0.41    0.12
   2   0   6    0.17    0.10
   2   0   6    0.31    0.10
   2   0   6    0.46    0.14
   2   0   6    0.28    0.09
  -3   0  -6   19.51    0.41
  -3   0  -6   21.57    0.56
  -3   0  -6   20.25    0.54
  -3   0  -6   19.30    0.52
   3   0   6   21.27    0.57
   3   0   6   20.13    0.44
   3   0   6   20.58    0.51
   3   0   6   20.97    0.53
   3   0   6   20.32    0.50
  -4   0  -6    1.02    0.21
  -4   0  -6    1.10    0.19
   4   0   6    0.99    0.15
   4   0   6    1.22    0.21
   4   0   6    1.02    0.20
   4   0   6    1.19    0.20
   4   0   6    0.71    0.16
  -5   0  -6    5.74    0.39
  -5   0  -6    5.64    0.36
   5   0   6    5.59    0.37
   5   0   6    5.57    0.37
   5   0   6    5.58    0.37
   5   0   6    6.15    0.41
  -6   0  -6    0.70    0.24
   6   0   6    0.59    0.24
   6   0   6    0.65    0.23
   6   0   6    1.00    0.24
  -7   0  -6    1.33    0.31
   7   0   6    0.53    0.26
   7   0   6    0.97    0.28
   7   0   6    1.50    0.32
   9  -1  -6   14.77    0.63
   9  -1  -6   12.83    0.54
   9  -1  -6   14.74    0.60
   8  -1  -6    0.32    0.18
   8  -1  -6    0.24    0.15
   8  -1  -6   -0.02    0.14
  -8   1   6    0.12    0.17
   7  -1  -6   26.14    0.68
   7  -1  -6   25.77    0.63
   7  -1  -6   25.86    0.70
   7  -1  -6   26.24    0.64
  -7   1   6   25.44    0.67
  -7   1   6   25.07    0.68
   6  -1  -6   10.89    0.39
   6  -1  -6   11.14    0.34
   6  -1  -6   11.07    0.44
   6  -1  -6   11.30    0.35
   6  -1  -6   10.79    0.35
   6  -1  -6   11.12    0.40
  -6   1   6   11.24    0.41
  -6   1   6   12.13    0.44
   5  -1  -6   11.25    0.38
   5  -1  -6   10.64    0.30
   5  -1  -6   11.62    0.33
   5  -1  -6   11.51    0.28
   5  -1  -6   11.13    0.39
   5  -1  -6   11.15    0.40
  -5   1   6   11.14    0.40
  -5   1   6   11.22    0.37
   4  -1  -6   29.74    0.62
   4  -1  -6   29.19    0.45
   4  -1  -6   29.08    0.53
   4  -1  -6   29.26    0.47
   4  -1  -6   29.08    0.62
  -4   1   6   31.13    0.59
   3  -1  -6    3.26    0.11
   3  -1  -6    3.78    0.18
   3  -1  -6    3.14    0.10
   3  -1  -6    3.83    0.23
   3  -1  -6    3.71    0.22
  -3   1   6    3.61    0.22
  -3   1   6    3.56    0.20
   2  -1  -6   28.83    0.38
   2  -1  -6   29.12    0.52
   2  -1  -6   29.47    0.57
   2  -1  -6   28.82    0.59
  -2   1   6   29.44    0.50
  -2   1   6   29.06    0.60
  -2   1   6   28.15    0.56
   1  -1  -6    0.59    0.12
   1  -1  -6    0.49    0.06
   1  -1  -6    0.65    0.11
   1  -1  -6    0.50    0.11
  -1   1   6    0.62    0.13
  -1   1   6    0.64    0.11
  -1   1   6    0.49    0.06
  -1   1   6    0.77    0.12
   0  -1  -6   14.69    0.41
   0  -1  -6   13.95    0.35
   0  -1  -6   14.24    0.38
   0   1   6   13.82    0.27
   0   1   6   13.75    0.34
   0   1   6   13.99    0.35
   0   1   6   13.89    0.37
   0   1   6   14.13    0.29
   0   1   6   14.08    0.41
  -1  -1  -6   -0.01    0.08
  -1  -1  -6   -0.10    0.09
  -1  -1  -6    0.14    0.10
  -1  -1  -6    0.08    0.08
   1   1   6    0.11    0.07
   1   1   6    0.03    0.08
   1   1   6    0.16    0.12
   1   1   6    0.11    0.09
   1   1   6    0.01    0.09
   1   1   6    0.10    0.07
  -2  -1  -6    1.06    0.16
  -2  -1  -6    1.23    0.18
  -2  -1  -6    1.01    0.16
  -2  -1  -6    1.13    0.12
   2   1   6    1.01    0.18
   2   1   6    0.98    0.11
   2   1   6    1.01    0.15
   2   1   6    1.28    0.15
   2   1   6    0.71    0.14
   2   1   6    1.07    0.15
  -3  -1  -6    0.81    0.17
  -3  -1  -6    0.92    0.18
  -3  -1  -6    0.87    0.17
   3   1   6    0.82    0.16
   3   1   6    0.73    0.17
   3   1   6    0.77    0.18
   3   1   6    0.97    0.17
   3   1   6    0.73    0.14
  -4  -1  -6   12.81    0.52
  -4  -1  -6   11.99    0.46
  -4  -1  -6   12.01    0.49
   4   1   6   12.58    0.42
   4   1   6   11.80    0.52
   4   1   6   12.66    0.47
   4   1   6   11.44    0.46
   4   1   6   12.44    0.48
  -5  -1  -6    0.52    0.21
  -5  -1  -6    0.30    0.18
   5   1   6   -0.03    0.17
   5   1   6    0.50    0.21
   5   1   6    0.25    0.22
   5   1   6    0.37    0.20
  -6  -1  -6   12.83    0.62
   6   1   6   14.74    0.61
   6   1   6   14.38    0.62
   6   1   6   13.46    0.65
   9  -2  -6    0.31    0.18
   9  -2  -6   -0.04    0.16
   8  -2  -6    1.97    0.25
   8  -2  -6    2.35    0.25
   8  -2  -6    1.94    0.25
   8  -2  -6    2.33    0.27
   8  -2  -6    2.06    0.26
  -8   2   6    2.31    0.29
   7  -2  -6    0.37    0.13
   7  -2  -6    0.46    0.15
   7  -2  -6    0.45    0.17
   7  -2  -6    0.27    0.15
  -7   2   6    0.12    0.13
  -7   2   6    0.15    0.16
   6  -2  -6   25.12    0.57
   6  -2  -6   25.82    0.72
   6  -2  -6   26.93    0.66
   6  -2  -6   27.45    0.65
  -6   2   6   25.34    0.65
  -6   2   6   26.01    0.59
   5  -2  -6   15.33    0.41
   5  -2  -6   14.68    0.46
   5  -2  -6   15.35    0.34
   5  -2  -6   15.72    0.48
   5  -2  -6   15.80    0.46
  -5   2   6   15.49    0.41
  -5   2   6   15.01    0.47
   4  -2  -6    6.58    0.16
   4  -2  -6    6.99    0.30
   4  -2  -6    6.51    0.19
   4  -2  -6    6.83    0.27
   4  -2  -6    7.36    0.32
  -4   2   6    6.71    0.26
  -4   2   6    6.46    0.30
   3  -2  -6   27.19    0.42
   3  -2  -6   26.72    0.54
   3  -2  -6   27.13    0.58
   3  -2  -6   26.49    0.60
  -3   2   6   26.38    0.58
  -3   2   6   27.14    0.51
   2  -2  -6   21.65    0.49
   2  -2  -6   21.04    0.47
   2  -2  -6   20.87    0.52
   2  -2  -6   20.92    0.36
  -2   2   6   21.61    0.50
  -2   2   6   21.06    0.40
  -2   2   6   22.15    0.52
   1  -2  -6   44.67    0.75
   1  -2  -6   44.81    0.66
   1  -2  -6   43.24    0.82
   1  -2  -6   44.84    0.78
  -1   2   6   44.42    0.76
  -1   2   6   46.87    0.70
  -1   2   6   45.79    0.83
  -1   2   6   44.41    0.80
   0  -2  -6    2.58    0.18
   0  -2  -6    2.71    0.17
   0  -2  -6    2.91    0.23
   0  -2  -6    2.88    0.22
   0   2   6    2.93    0.22
   0   2   6    2.74    0.24
   0   2   6    2.63    0.15
   0   2   6    2.65    0.19
   0   2   6    2.53    0.19
   0   2   6    2.58    0.14
  -1  -2  -6    9.81    0.37
  -1  -2  -6   10.72    0.37
  -1  -2  -6    9.97    0.28
   1   2   6   10.43    0.37
   1   2   6   10.07    0.31
   1   2   6   10.18    0.31
   1   2   6    9.39    0.40
   1   2   6   10.82    0.35
   1   2   6    9.99    0.30
  -2  -2  -6    6.98    0.34
  -2  -2  -6    6.70    0.33
  -2  -2  -6    6.17    0.34
   2   2   6    6.64    0.30
   2   2   6    5.88    0.36
   2   2   6    6.39    0.32
   2   2   6    6.96    0.31
   2   2   6    6.12    0.31
   2   2   6    6.83    0.26
  -3  -2  -6   12.19    0.45
  -3  -2  -6   11.66    0.47
  -3  -2  -6   12.12    0.49
   3   2   6   12.55    0.52
   3   2   6   12.88    0.44
   3   2   6   12.63    0.45
   3   2   6   11.58    0.44
   3   2   6   11.45    0.44
  -4  -2  -6    5.12    0.35
  -4  -2  -6    6.01    0.42
  -4  -2  -6    5.97    0.40
   4   2   6    5.90    0.44
   4   2   6    5.03    0.34
   4   2   6    5.14    0.38
   4   2   6    5.60    0.37
   4   2   6    5.50    0.38
  -5  -2  -6    3.30    0.38
   5   2   6    2.90    0.35
   5   2   6    2.76    0.37
   5   2   6    2.35    0.31
   9  -3  -6    5.17    0.38
   9  -3  -6    4.78    0.38
   9  -3  -6    4.23    0.39
   9  -3  -6    4.61    0.40
  -9   3   6    4.87    0.41
   8  -3  -6    1.96    0.28
   8  -3  -6    2.56    0.27
   8  -3  -6    2.46    0.28
   8  -3  -6    2.25    0.28
  -8   3   6    2.03    0.28
   7  -3  -6    1.93    0.22
   7  -3  -6    2.38    0.28
   7  -3  -6    2.19    0.26
  -7   3   6    1.66    0.24
   6  -3  -6    2.70    0.27
   6  -3  -6    2.51    0.27
   6  -3  -6    3.19    0.24
  -6   3   6    3.00    0.29
   5  -3  -6   20.46    0.42
   5  -3  -6   20.28    0.56
   5  -3  -6   20.49    0.58
   5  -3  -6   20.11    0.51
  -5   3   6   20.29    0.57
   4  -3  -6    9.29    0.26
   4  -3  -6    9.17    0.38
   4  -3  -6    8.93    0.36
   4  -3  -6    9.55    0.34
  -4   3   6    9.34    0.37
  -4   3   6    9.60    0.29
   3  -3  -6    0.40    0.12
   3  -3  -6    0.22    0.08
   3  -3  -6    0.34    0.13
   3  -3  -6    0.30    0.12
  -3   3   6    0.43    0.13
  -3   3   6    0.57    0.11
  -3   3   6    0.40    0.13
   2  -3  -6   11.37    0.41
   2  -3  -6   11.65    0.37
   2  -3  -6   11.40    0.38
   2  -3  -6   11.44    0.30
  -2   3   6   11.22    0.27
  -2   3   6   12.04    0.40
  -2   3   6   11.63    0.40
  -2   3   6   11.40    0.40
   1  -3  -6   13.04    0.34
   1  -3  -6   13.20    0.38
   1  -3  -6   13.61    0.43
   1  -3  -6   12.83    0.43
  -1   3   6   13.75    0.45
  -1   3   6   13.21    0.43
  -1   3   6   13.87    0.41
  -1   3   6   13.13    0.32
   0  -3  -6    0.43    0.14
   0  -3  -6    0.32    0.14
   0  -3  -6    0.41    0.11
   0  -3  -6    0.39    0.11
   0   3   6    0.43    0.15
   0   3   6    0.38    0.12
   0   3   6    0.35    0.12
   0   3   6    0.55    0.15
  -1  -3  -6    5.16    0.30
  -1  -3  -6    5.25    0.32
   1   3   6    5.52    0.28
   1   3   6    5.43    0.35
   1   3   6    5.72    0.33
   1   3   6    5.34    0.27
  -2  -3  -6    0.28    0.14
  -2  -3  -6   -0.18    0.13
  -2  -3  -6   -0.08    0.13
   2   3   6    0.02    0.13
   2   3   6    0.15    0.18
   2   3   6    0.06    0.14
  -3  -3  -6    3.21    0.33
  -3  -3  -6    3.07    0.29
  -3  -3  -6    4.01    0.39
   3   3   6    3.52    0.32
   3   3   6    3.26    0.30
   3   3   6    3.22    0.29
   3   3   6    3.87    0.31
   3   3   6    3.56    0.36
  -4  -3  -6    1.60    0.29
  -4  -3  -6    1.28    0.27
   4   3   6    1.21    0.25
   4   3   6    1.12    0.29
   4   3   6    1.13    0.23
   4   3   6    1.32    0.25
  -5  -3  -6   14.99    0.72
   5   3   6   14.77    0.73
   5   3   6   14.80    0.65
   5   3   6   15.52    0.63
   9  -4  -6    8.22    0.71
   9  -4  -6    8.05    0.49
   9  -4  -6    7.25    0.46
  -9   4   6    8.26    0.50
   8  -4  -6    0.34    0.19
   8  -4  -6    0.39    0.17
   8  -4  -6    0.40    0.20
  -8   4   6    0.13    0.19
   7  -4  -6    6.40    0.40
   7  -4  -6    6.87    0.36
   7  -4  -6    7.04    0.42
  -7   4   6    6.39    0.40
   6  -4  -6    4.27    0.35
   6  -4  -6    4.18    0.33
   6  -4  -6    3.94    0.30
  -6   4   6    4.45    0.33
  -6   4   6    4.60    0.34
   5  -4  -6   27.49    0.73
   5  -4  -6   28.20    0.55
   5  -4  -6   29.44    0.68
   5  -4  -6   29.51    0.71
  -5   4   6   28.07    0.71
   4  -4  -6   16.91    0.54
   4  -4  -6   16.94    0.51
   4  -4  -6   17.16    0.40
   4  -4  -6   17.37    0.51
  -4   4   6   16.90    0.53
   3  -4  -6    3.11    0.26
   3  -4  -6    2.53    0.26
   3  -4  -6    2.88    0.25
   3  -4  -6    2.42    0.18
  -3   4   6    3.27    0.26
  -3   4   6    2.79    0.26
   2  -4  -6   19.26    0.54
   2  -4  -6   18.80    0.44
   2  -4  -6   18.55    0.49
   2  -4  -6   19.00    0.56
  -2   4   6   20.24    0.57
  -2   4   6   18.58    0.53
  -2   4   6   18.60    0.54
   1  -4  -6   13.35    0.47
   1  -4  -6   13.51    0.39
   1  -4  -6   13.81    0.40
   1  -4  -6   13.34    0.47
  -1   4   6   12.99    0.44
  -1   4   6   13.13    0.47
  -1   4   6   13.33    0.48
   0  -4  -6    6.98    0.37
   0  -4  -6    6.98    0.36
   0  -4  -6    7.65    0.32
   0   4   6    8.16    0.35
   0   4   6    7.01    0.38
   0   4   6    7.66    0.41
  -1  -4  -6    0.39    0.14
  -1  -4  -6    0.57    0.18
  -1  -4  -6    0.27    0.15
   1   4   6    0.34    0.15
   1   4   6    0.19    0.13
   1   4   6    0.13    0.15
   1   4   6    0.33    0.18
  -2  -4  -6    0.68    0.21
  -2  -4  -6    0.26    0.19
   2   4   6    0.28    0.19
   2   4   6    0.75    0.20
   2   4   6    0.72    0.23
  -3  -4  -6    0.77    0.22
  -3  -4  -6    0.87    0.26
   3   4   6    0.49    0.24
   3   4   6    0.62    0.21
   3   4   6    0.88    0.22
  -4  -4  -6    2.59    0.36
  -4  -4  -6    2.35    0.38
   4   4   6    2.52    0.33
   4   4   6    2.50    0.39
   4   4   6    2.26    0.31
   9  -5  -6    0.71    0.22
   9  -5  -6    0.47    0.23
   9  -5  -6    0.76    0.24
  -9   5   6    0.56    0.24
   8  -5  -6    0.03    0.16
   8  -5  -6    0.04    0.19
   8  -5  -6    0.00    0.18
  -8   5   6    0.00    0.18
  -8   5   6    0.02    0.18
   7  -5  -6    3.10    0.31
   7  -5  -6    3.12    0.32
   7  -5  -6    3.39    0.37
  -7   5   6    2.72    0.32
  -7   5   6    2.67    0.30
   6  -5  -6    2.34    0.26
   6  -5  -6    1.64    0.27
  -6   5   6    2.48    0.30
  -6   5   6    1.91    0.27
   5  -5  -6    0.78    0.20
   5  -5  -6    0.67    0.18
   5  -5  -6    0.63    0.13
  -5   5   6    0.67    0.20
  -5   5   6    0.31    0.18
   4  -5  -6    2.67    0.30
   4  -5  -6    3.11    0.23
   4  -5  -6    3.21    0.29
   4  -5  -6    3.08    0.28
  -4   5   6    2.37    0.24
  -4   5   6    2.89    0.29
   3  -5  -6    0.10    0.11
   3  -5  -6    0.14    0.15
   3  -5  -6    0.16    0.14
   3  -5  -6   -0.01    0.14
  -3   5   6    0.18    0.15
  -3   5   6    0.06    0.14
  -3   5   6    0.01    0.13
   2  -5  -6    9.37    0.35
   2  -5  -6    8.91    0.42
   2  -5  -6    9.60    0.43
   2  -5  -6   10.08    0.39
  -2   5   6    9.70    0.44
  -2   5   6    9.63    0.43
  -2   5   6    9.42    0.42
   1  -5  -6    5.69    0.36
   1  -5  -6    5.36    0.35
   1  -5  -6    5.08    0.30
  -1   5   6    6.01    0.39
  -1   5   6    5.66    0.39
  -1   5   6    5.03    0.33
   0  -5  -6    1.54    0.21
   0  -5  -6    1.21    0.21
   0  -5  -6    1.13    0.22
   0   5   6    1.33    0.25
   0   5   6    1.00    0.19
   0   5   6    1.08    0.21
  -1  -5  -6    5.70    0.36
  -1  -5  -6    5.59    0.40
   1   5   6    5.55    0.46
   1   5   6    6.08    0.43
   1   5   6    5.66    0.36
  -2  -5  -6    9.46    0.52
  -2  -5  -6    9.04    0.54
   2   5   6    8.34    0.56
   2   5   6   10.37    0.54
   8  -6  -6    3.10    0.35
   8  -6  -6    3.49    0.39
   8  -6  -6    3.43    0.35
  -8   6   6    4.08    0.41
  -8   6   6    3.64    0.38
   7  -6  -6    3.44    0.34
   7  -6  -6    3.41    0.37
  -7   6   6    3.77    0.37
  -7   6   6    4.72    0.43
   6  -6  -6    1.53    0.26
   6  -6  -6    1.49    0.27
  -6   6   6    0.75    0.23
  -6   6   6    0.99    0.24
   5  -6  -6    3.02    0.26
   5  -6  -6    3.12    0.34
   5  -6  -6    2.83    0.31
  -5   6   6    3.16    0.34
   4  -6  -6   60.44    1.04
   4  -6  -6   62.14    1.15
   4  -6  -6   61.80    1.23
   4  -6  -6   60.28    1.20
  -4   6   6   62.79    1.23
   3  -6  -6    5.78    0.36
   3  -6  -6    6.04    0.40
   3  -6  -6    6.86    0.34
   3  -6  -6    6.41    0.40
  -3   6   6    5.96    0.37
  -3   6   6    6.13    0.41
  -3   6   6    6.15    0.40
   2  -6  -6    5.07    0.37
   2  -6  -6    4.39    0.29
   2  -6  -6    4.28    0.33
   2  -6  -6    3.93    0.34
  -2   6   6    4.01    0.36
  -2   6   6    4.41    0.37
  -2   6   6    3.73    0.35
   1  -6  -6    0.74    0.18
   1  -6  -6    0.47    0.20
   1  -6  -6    0.32    0.19
  -1   6   6    0.91    0.21
  -1   6   6    1.01    0.24
  -1   6   6    0.77    0.23
   0  -6  -6    0.08    0.15
   0  -6  -6   -0.08    0.17
   0   6   6    0.23    0.17
   0   6   6   -0.03    0.18
   0   6   6    0.02    0.19
  -1  -6  -6    1.65    0.29
   1   6   6    2.45    0.34
   1   6   6    1.51    0.32
   7  -7  -6    0.49    0.25
   7  -7  -6    0.85    0.25
  -7   7   6    0.81    0.27
  -7   7   6    0.93    0.27
   6  -7  -6   -0.19    0.17
   6  -7  -6    0.05    0.19
  -6   7   6    0.03    0.20
  -6   7   6    0.18    0.21
   5  -7  -6    5.51    0.45
   5  -7  -6    3.77    0.37
  -5   7   6    4.19    0.39
   4  -7  -6    1.68    0.29
   4  -7  -6    1.92    0.28
   4  -7  -6    1.87    0.29
   4  -7  -6    1.68    0.22
  -4   7   6    1.27    0.26
  -4   7   6    1.57    0.28
   3  -7  -6    1.32    0.26
   3  -7  -6    1.69    0.25
   3  -7  -6    1.56    0.22
   3  -7  -6    1.26    0.26
  -3   7   6    1.17    0.27
  -3   7   6    1.41    0.27
   2  -7  -6    2.22    0.26
   2  -7  -6    2.43    0.34
   2  -7  -6    2.17    0.30
  -2   7   6    2.24    0.32
  -2   7   6    2.52    0.32
   1  -7  -6    1.10    0.22
   1  -7  -6    1.56    0.29
  -1   7   6    1.80    0.31
  -1   7   6    1.61    0.27
  -1   7   6    1.55    0.30
   5  -8  -6    0.37    0.23
   5  -8  -6    0.35    0.24
   5  -8  -6    0.62    0.24
  -5   8   6    0.58    0.26
   4  -8  -6    0.33    0.22
   4  -8  -6    0.06    0.20
   4  -8  -6   -0.17    0.19
  -4   8   6    0.04    0.22
  -4   8   6    0.50    0.25
  -3  10  -7    0.34    0.21
  -3  10  -7    0.12    0.25
   3 -10   7   -0.04    0.19
   3 -10   7    0.30    0.22
  -4  10  -7    2.42    0.38
  -4  10  -7    3.05    0.37
   4 -10   7    2.56    0.34
   4 -10   7    2.62    0.35
   0   9  -7    0.22    0.21
   0   9  -7    0.29    0.21
   0  -9   7    0.51    0.20
   0  -9   7    0.26    0.21
  -1   9  -7   12.21    0.55
  -1   9  -7   12.15    0.61
  -1   9  -7   12.69    0.51
   1  -9   7   12.11    0.59
   1  -9   7   13.38    0.54
  -2   9  -7    1.94    0.31
  -2   9  -7    2.06    0.28
  -2   9  -7    2.59    0.32
   2  -9   7    2.18    0.28
   2  -9   7    2.59    0.34
  -3   9  -7    0.14    0.18
  -3   9  -7    0.01    0.16
  -3   9  -7   -0.03    0.19
   3  -9   7   -0.21    0.16
   3  -9   7   -0.13    0.17
  -4   9  -7    0.47    0.22
  -4   9  -7    0.53    0.22
   4  -9   7    0.55    0.20
   4  -9   7    0.13    0.20
  -5   9  -7   -0.13    0.18
  -5   9  -7    0.00    0.19
   5  -9   7    0.27    0.30
   5  -9   7    0.09    0.21
   5  -9   7   -0.03    0.19
  -6   9  -7    0.16    0.25
  -6   9  -7    0.31    0.22
   6  -9   7    0.33    0.22
   6  -9   7    0.29    0.21
   6  -9   7   -0.07    0.22
   2   8  -7    1.00    0.26
   2   8  -7    1.35    0.28
  -2  -8   7    1.28    0.25
  -2  -8   7    0.99    0.23
   1   8  -7    0.23    0.20
   1   8  -7    0.13    0.18
  -1  -8   7   -0.13    0.14
  -1  -8   7    0.06    0.17
  -1  -8   7   -0.08    0.15
   0   8  -7    4.33    0.36
   0   8  -7    4.88    0.33
   0   8  -7    4.57    0.40
   0  -8   7    4.41    0.33
   0  -8   7    4.95    0.43
   0  -8   7    4.81    0.35
  -1   8  -7    0.83    0.20
  -1   8  -7    0.59    0.21
  -1   8  -7    0.72    0.19
  -1   8  -7    0.48    0.17
   1  -8   7    0.63    0.21
   1  -8   7    0.65    0.19
  -2   8  -7    8.45    0.42
  -2   8  -7    7.50    0.42
  -2   8  -7    7.81    0.45
   2  -8   7    7.71    0.39
   2  -8   7    7.21    0.43
  -3   8  -7    8.04    0.43
  -3   8  -7    7.44    0.43
  -3   8  -7    7.74    0.45
   3  -8   7    7.63    0.40
   3  -8   7    7.98    0.44
   3  -8   7    7.71    0.41
  -4   8  -7    0.37    0.18
  -4   8  -7    0.32    0.19
  -4   8  -7    0.67    0.21
   4  -8   7    0.10    0.16
   4  -8   7    0.28    0.19
   4  -8   7    0.54    0.17
  -5   8  -7   -0.03    0.16
  -5   8  -7    0.08    0.18
  -5   8  -7    0.47    0.20
   5  -8   7    0.19    0.16
   5  -8   7    0.29    0.19
   5  -8   7   -0.01    0.19
  -6   8  -7    3.33    0.39
   6  -8   7    3.76    0.36
   6  -8   7    3.85    0.39
   6  -8   7    3.06    0.33
  -7   8  -7    3.40    0.41
   7  -8   7    3.51    0.37
   7  -8   7    2.79    0.39
   7  -8   7    3.78    0.38
   3   7  -7    3.26    0.37
   3   7  -7    2.55    0.35
   3   7  -7    2.94    0.36
  -3  -7   7    2.63    0.32
  -3  -7   7    2.44    0.29
   2   7  -7   14.47    0.60
   2   7  -7   14.90    0.61
   2   7  -7   14.24    0.58
  -2  -7   7   14.38    0.52
  -2  -7   7   15.60    0.57
   1   7  -7    9.51    0.47
   1   7  -7   10.02    0.46
   1   7  -7   10.67    0.40
   1   7  -7   10.51    0.51
  -1  -7   7   11.50    0.47
  -1  -7   7   10.23    0.42
  -1  -7   7   11.14    0.50
   0   7  -7    0.00    0.14
   0   7  -7   -0.01    0.15
   0   7  -7   -0.13    0.11
   0   7  -7   -0.10    0.11
   0  -7   7   -0.02    0.12
   0  -7   7    0.09    0.13
   0  -7   7   -0.09    0.14
   0  -7   7    0.15    0.16
  -1   7  -7    3.23    0.30
  -1   7  -7    2.90    0.25
  -1   7  -7    3.22    0.28
  -1   7  -7    2.61    0.28
   1  -7   7    2.79    0.29
   1  -7   7    2.90    0.25
   1  -7   7    2.94    0.30
   1  -7   7    3.04    0.26
  -2   7  -7    4.78    0.34
  -2   7  -7    4.57    0.34
  -2   7  -7    4.95    0.33
   2  -7   7    4.35    0.27
   2  -7   7    4.23    0.27
   2  -7   7    4.70    0.35
   2  -7   7    4.26    0.34
   2  -7   7    4.54    0.30
  -3   7  -7    8.01    0.40
  -3   7  -7    6.38    0.38
  -3   7  -7    8.36    0.43
   3  -7   7    7.46    0.32
   3  -7   7    7.03    0.32
   3  -7   7    8.03    0.41
   3  -7   7    7.42    0.42
   3  -7   7    7.24    0.32
   3  -7   7    7.32    0.37
  -4   7  -7    6.04    0.38
  -4   7  -7    6.78    0.42
  -4   7  -7    6.56    0.37
   4  -7   7    5.53    0.35
   4  -7   7    6.05    0.33
   4  -7   7    5.74    0.30
   4  -7   7    5.36    0.38
   4  -7   7    5.85    0.39
  -5   7  -7    0.54    0.19
  -5   7  -7    0.16    0.15
  -5   7  -7    0.39    0.18
   5  -7   7    0.27    0.17
   5  -7   7    1.18    0.25
   5  -7   7    0.43    0.18
   5  -7   7    0.39    0.14
  -6   7  -7    2.65    0.35
  -6   7  -7    2.55    0.31
   6  -7   7    2.59    0.26
   6  -7   7    2.28    0.28
   6  -7   7    3.34    0.36
  -7   7  -7    0.59    0.25
  -7   7  -7    0.59    0.22
   7  -7   7    0.76    0.26
   7  -7   7    0.97    0.24
  -8   7  -7   10.83    0.60
  -8   7  -7   11.61    0.65
   8  -7   7   10.54    0.57
   8  -7   7   10.87    0.62
   4   6  -7    7.77    0.48
   4   6  -7    8.11    0.51
   4   6  -7    7.97    0.51
  -4  -6   7    7.03    0.46
   3   6  -7    4.39    0.41
   3   6  -7    3.61    0.35
   3   6  -7    4.44    0.38
  -3  -6   7    4.50    0.38
  -3  -6   7    3.98    0.30
   2   6  -7    7.90    0.43
   2   6  -7    8.58    0.35
   2   6  -7    8.65    0.44
   2   6  -7    8.71    0.45
  -2  -6   7    8.55    0.44
  -2  -6   7    9.12    0.43
  -2  -6   7    8.52    0.37
   1   6  -7    7.22    0.33
   1   6  -7    7.17    0.40
   1   6  -7    7.82    0.38
   1   6  -7    7.28    0.39
  -1  -6   7    7.31    0.40
  -1  -6   7    7.85    0.38
  -1  -6   7    7.45    0.32
  -1  -6   7    6.69    0.38
   0   6  -7    1.08    0.18
   0   6  -7    0.85    0.19
   0   6  -7    1.00    0.17
   0   6  -7    1.16    0.18
   0  -6   7    1.11    0.20
   0  -6   7    1.58    0.23
   0  -6   7    1.04    0.17
   0  -6   7    0.72    0.15
  -1   6  -7   36.32    0.78
  -1   6  -7   36.25    0.71
  -1   6  -7   35.53    0.79
  -1   6  -7   36.44    0.76
   1  -6   7   35.65    0.81
   1  -6   7   36.57    0.80
   1  -6   7   37.16    0.73
   1  -6   7   36.06    0.73
   1  -6   7   36.00    0.70
  -2   6  -7   18.91    0.54
  -2   6  -7   19.02    0.54
  -2   6  -7   19.38    0.57
  -2   6  -7   18.47    0.44
   2  -6   7   18.12    0.43
   2  -6   7   18.81    0.49
   2  -6   7   18.10    0.48
   2  -6   7   17.62    0.55
   2  -6   7   18.98    0.56
   2  -6   7   18.26    0.48
  -3   6  -7   12.36    0.43
  -3   6  -7   12.15    0.48
  -3   6  -7   12.88    0.45
   3  -6   7   11.61    0.39
   3  -6   7   11.97    0.38
   3  -6   7   12.45    0.39
   3  -6   7   12.35    0.47
   3  -6   7   12.43    0.41
   3  -6   7   11.50    0.45
  -4   6  -7   11.98    0.44
  -4   6  -7   11.11    0.48
  -4   6  -7   11.52    0.41
  -4   6  -7   11.66    0.45
   4  -6   7   10.98    0.41
   4  -6   7   10.15    0.45
   4  -6   7   10.95    0.47
   4  -6   7   11.98    0.40
  -5   6  -7    0.83    0.19
  -5   6  -7    0.98    0.21
  -5   6  -7    0.87    0.19
   5  -6   7    0.85    0.22
   5  -6   7    1.24    0.24
   5  -6   7    0.88    0.17
   5  -6   7    0.88    0.19
  -6   6  -7    4.58    0.36
  -6   6  -7    5.20    0.39
  -6   6  -7    4.39    0.39
   6  -6   7    4.71    0.40
   6  -6   7    4.75    0.33
   6  -6   7    5.29    0.37
  -7   6  -7    0.26    0.21
  -7   6  -7    0.26    0.21
   7  -6   7    0.63    0.21
   7  -6   7    0.37    0.19
   7  -6   7    0.30    0.22
  -8   6  -7    0.27    0.21
  -8   6  -7    0.14    0.23
   8  -6   7    0.02    0.20
   8  -6   7   -0.10    0.18
   8  -6   7    0.15    0.23
   5   5  -7    0.04    0.20
   5   5  -7    0.19    0.17
   5   5  -7    0.23    0.21
  -5  -5   7    0.26    0.20
   4   5  -7    0.83    0.23
   4   5  -7    0.61    0.23
   4   5  -7    0.78    0.21
  -4  -5   7    1.26    0.24
   3   5  -7    1.37    0.22
   3   5  -7    1.13    0.22
   3   5  -7    1.11    0.22
  -3  -5   7    1.17    0.20
  -3  -5   7    1.33    0.19
   2   5  -7    7.92    0.38
   2   5  -7    8.11    0.32
   2   5  -7    8.01    0.40
  -2  -5   7    8.08    0.40
  -2  -5   7    8.46    0.32
  -2  -5   7    7.74    0.38
   1   5  -7   17.79    0.51
   1   5  -7   18.24    0.46
   1   5  -7   19.54    0.56
   1   5  -7   18.75    0.49
  -1  -5   7   18.82    0.45
  -1  -5   7   18.60    0.53
  -1  -5   7   18.30    0.56
  -1  -5   7   18.05    0.53
   0   5  -7    3.78    0.29
   0   5  -7    3.60    0.24
   0   5  -7    4.24    0.26
   0   5  -7    4.05    0.26
   0  -5   7    3.69    0.29
   0  -5   7    3.65    0.25
   0  -5   7    3.71    0.22
   0  -5   7    3.81    0.27
  -1   5  -7    2.51    0.19
  -1   5  -7    2.38    0.23
  -1   5  -7    2.63    0.23
  -1   5  -7    2.47    0.24
   1  -5   7    2.38    0.15
   1  -5   7    2.48    0.19
   1  -5   7    2.43    0.22
   1  -5   7    1.96    0.20
   1  -5   7    2.15    0.23
   1  -5   7    2.43    0.21
  -2   5  -7    0.73    0.17
  -2   5  -7    1.06    0.13
  -2   5  -7    0.87    0.16
  -2   5  -7    1.11    0.18
   2  -5   7    0.76    0.14
   2  -5   7    1.14    0.19
   2  -5   7    0.84    0.17
   2  -5   7    0.99    0.16
   2  -5   7    0.94    0.15
  -3   5  -7    2.14    0.22
  -3   5  -7    1.97    0.22
  -3   5  -7    2.05    0.21
  -3   5  -7    1.87    0.19
   3  -5   7    1.94    0.22
   3  -5   7    1.59    0.19
   3  -5   7    2.09    0.19
   3  -5   7    1.89    0.23
  -4   5  -7    9.59    0.39
  -4   5  -7    8.88    0.42
  -4   5  -7    8.79    0.33
  -4   5  -7    9.26    0.39
   4  -5   7    9.31    0.43
   4  -5   7    9.35    0.41
   4  -5   7    8.88    0.35
   4  -5   7    9.31    0.37
  -5   5  -7    4.87    0.37
  -5   5  -7    5.77    0.34
  -5   5  -7    5.35    0.35
   5  -5   7    5.07    0.35
   5  -5   7    5.49    0.33
   5  -5   7    5.41    0.33
   5  -5   7    5.18    0.36
  -6   5  -7    7.01    0.42
  -6   5  -7    7.87    0.45
  -6   5  -7    8.32    0.41
   6  -5   7    6.91    0.38
   6  -5   7    8.06    0.45
   6  -5   7    7.92    0.40
  -7   5  -7    8.43    0.50
  -7   5  -7    8.58    0.50
   7  -5   7    7.89    0.48
   7  -5   7    8.14    0.46
   7  -5   7    7.93    0.43
  -8   5  -7    0.91    0.27
  -8   5  -7    1.19    0.28
   8  -5   7    1.17    0.27
   8  -5   7    1.15    0.27
   8  -5   7    0.66    0.26
   6   4  -7    0.36    0.22
   6   4  -7    0.15    0.18
   6   4  -7    0.14    0.21
  -6  -4   7    0.40    0.21
   5   4  -7    9.57    0.52
   5   4  -7   10.05    0.47
   5   4  -7   10.08    0.51
  -5  -4   7   10.59    0.51
   4   4  -7   -0.03    0.14
   4   4  -7    0.16    0.15
   4   4  -7   -0.17    0.13
  -4  -4   7    0.04    0.14
   3   4  -7    1.66    0.18
   3   4  -7    1.83    0.23
   3   4  -7    2.21    0.25
  -3  -4   7    1.91    0.24
  -3  -4   7    1.59    0.17
   2   4  -7   15.43    0.49
   2   4  -7   15.97    0.43
   2   4  -7   16.00    0.49
  -2  -4   7   15.37    0.38
  -2  -4   7   15.71    0.50
  -2  -4   7   15.49    0.48
   1   4  -7  108.19    1.60
   1   4  -7  107.94    1.39
   1   4  -7  108.41    1.53
   1   4  -7  109.14    1.56
  -1  -4   7  111.66    1.42
  -1  -4   7  109.71    1.58
  -1  -4   7  109.88    1.57
  -1  -4   7  111.09    1.60
   0   4  -7   10.53    0.31
   0   4  -7   10.55    0.33
   0   4  -7   10.50    0.38
   0   4  -7   10.67    0.36
   0  -4   7   10.33    0.29
   0  -4   7   10.98    0.35
   0  -4   7   10.64    0.36
   0  -4   7   10.81    0.36
   0  -4   7    9.98    0.37
  -1   4  -7    9.54    0.34
  -1   4  -7    9.41    0.28
  -1   4  -7    9.32    0.31
  -1   4  -7    9.25    0.34
   1  -4   7    9.29    0.33
   1  -4   7    9.41    0.34
   1  -4   7    9.33    0.33
   1  -4   7    9.06    0.36
   1  -4   7    9.04    0.28
  -2   4  -7    5.90    0.27
  -2   4  -7    6.12    0.29
  -2   4  -7    6.37    0.26
  -2   4  -7    6.92    0.29
  -2   4  -7    5.91    0.20
   2  -4   7    6.46    0.28
   2  -4   7    6.35    0.29
   2  -4   7    6.48    0.25
   2  -4   7    5.60    0.29
  -3   4  -7    8.91    0.34
  -3   4  -7    9.37    0.37
  -3   4  -7    9.63    0.36
  -3   4  -7    8.86    0.30
   3  -4   7    8.82    0.34
   3  -4   7    9.22    0.32
   3  -4   7    9.30    0.30
   3  -4   7    9.20    0.37
   3  -4   7    9.77    0.37
  -4   4  -7   11.87    0.43
  -4   4  -7   11.92    0.41
   4  -4   7   12.29    0.39
   4  -4   7   10.90    0.41
   4  -4   7   11.90    0.44
   4  -4   7   11.51    0.44
   4  -4   7   12.38    0.36
  -5   4  -7    0.57    0.18
  -5   4  -7    0.43    0.18
  -5   4  -7    0.56    0.16
   5  -4   7    0.53    0.17
   5  -4   7    0.70    0.17
   5  -4   7    0.52    0.16
   5  -4   7    0.66    0.18
  -6   4  -7    0.64    0.21
  -6   4  -7    0.83    0.18
  -6   4  -7    0.67    0.21
   6  -4   7    0.57    0.18
   6  -4   7    0.50    0.19
   6  -4   7    0.63    0.21
   6  -4   7    0.60    0.20
  -7   4  -7    0.09    0.19
  -7   4  -7    0.13    0.19
   7  -4   7    0.11    0.17
   7  -4   7    0.07    0.20
   7  -4   7   -0.08    0.18
  -8   4  -7    2.15    0.35
   8  -4   7    1.37    0.28
   8  -4   7    1.48    0.27
   8  -4   7    1.24    0.29
   7   3  -7    0.92    0.28
   7   3  -7    1.34    0.27
   7   3  -7    1.27    0.27
  -7  -3   7    1.18    0.31
   6   3  -7    8.73    0.51
   6   3  -7    8.12    0.45
   6   3  -7    8.61    0.48
  -6  -3   7    9.10    0.49
   5   3  -7    4.77    0.38
   5   3  -7    4.84    0.35
   5   3  -7    4.88    0.37
  -5  -3   7    4.96    0.38
   4   3  -7   -0.13    0.09
   4   3  -7    0.19    0.15
   4   3  -7    0.04    0.13
  -4  -3   7   -0.05    0.13
   3   3  -7    2.84    0.22
   3   3  -7    3.02    0.26
   3   3  -7    2.44    0.24
  -3  -3   7    2.69    0.26
   2   3  -7    1.20    0.17
   2   3  -7    1.08    0.17
   2   3  -7    1.44    0.17
   2   3  -7    1.28    0.12
  -2  -3   7    1.33    0.17
  -2  -3   7    1.42    0.18
  -2  -3   7    1.16    0.11
   1   3  -7   16.67    0.46
   1   3  -7   16.80    0.38
   1   3  -7   17.63    0.45
   1   3  -7   17.41    0.44
  -1  -3   7   17.25    0.33
  -1  -3   7   17.44    0.46
  -1  -3   7   17.72    0.45
  -1  -3   7   17.22    0.45
  -1  -3   7   17.31    0.42
   0   3  -7   10.99    0.35
   0   3  -7   10.78    0.32
   0   3  -7   10.56    0.32
   0   3  -7   10.87    0.34
   0  -3   7   11.02    0.33
   0  -3   7   11.16    0.25
   0  -3   7   11.03    0.35
   0  -3   7   11.04    0.35
   0  -3   7   10.44    0.34
  -1   3  -7   27.38    0.49
  -1   3  -7   29.06    0.59
  -1   3  -7   27.84    0.57
  -1   3  -7   26.67    0.54
  -1   3  -7   27.23    0.49
   1  -3   7   27.34    0.57
   1  -3   7   27.07    0.46
   1  -3   7   27.05    0.57
   1  -3   7   27.50    0.55
  -2   3  -7    0.57    0.13
  -2   3  -7    0.71    0.14
  -2   3  -7    0.47    0.11
  -2   3  -7    0.83    0.12
   2  -3   7    0.69    0.13
   2  -3   7    0.57    0.13
   2  -3   7    0.77    0.11
   2  -3   7    0.58    0.13
   2  -3   7    0.65    0.15
  -3   3  -7    4.69    0.26
  -3   3  -7    4.20    0.27
  -3   3  -7    4.84    0.26
  -3   3  -7    4.30    0.20
   3  -3   7    4.64    0.27
   3  -3   7    4.63    0.23
   3  -3   7    4.80    0.28
   3  -3   7    4.51    0.24
   3  -3   7    4.64    0.27
  -4   3  -7   11.22    0.38
  -4   3  -7   12.04    0.44
  -4   3  -7   11.96    0.43
   4  -3   7   11.49    0.39
   4  -3   7   11.47    0.43
   4  -3   7   10.86    0.42
   4  -3   7   10.52    0.41
   4  -3   7   11.36    0.38
  -5   3  -7   14.54    0.45
  -5   3  -7   14.56    0.51
  -5   3  -7   16.02    0.55
   5  -3   7   13.94    0.50
   5  -3   7   14.59    0.52
   5  -3   7   14.18    0.50
   5  -3   7   14.58    0.47
   5  -3   7   14.46    0.47
  -6   3  -7    7.67    0.43
  -6   3  -7    7.81    0.43
   6  -3   7    8.63    0.41
   6  -3   7    6.90    0.43
   6  -3   7    7.91    0.41
   6  -3   7    7.85    0.43
   6  -3   7    6.77    0.48
  -7   3  -7    0.90    0.25
   7  -3   7    1.53    0.26
   7  -3   7    1.35    0.25
   7  -3   7    1.53    0.29
   8  -3   7    6.79    0.56
   8  -3   7    6.72    0.49
   7   2  -7    7.08    0.44
   7   2  -7    7.30    0.48
   7   2  -7    7.22    0.49
  -7  -2   7    7.25    0.48
   6   2  -7    2.46    0.30
   6   2  -7    2.48    0.28
   6   2  -7    2.28    0.30
  -6  -2   7    2.25    0.29
   5   2  -7    5.98    0.28
   5   2  -7    5.88    0.37
   5   2  -7    5.57    0.35
  -5  -2   7    5.52    0.35
   4   2  -7   67.54    1.19
   4   2  -7   70.86    1.18
   4   2  -7   68.56    1.08
  -4  -2   7   68.21    1.18
   3   2  -7    8.35    0.35
   3   2  -7    8.28    0.31
   3   2  -7    7.94    0.25
   3   2  -7    8.53    0.35
  -3  -2   7    8.07    0.34
   2   2  -7   89.59    1.28
   2   2  -7   89.77    1.32
   2   2  -7   89.23    1.21
  -2  -2   7   89.63    1.32
  -2  -2   7   89.32    1.27
   1   2  -7    9.77    0.32
   1   2  -7    9.89    0.30
   1   2  -7   10.41    0.33
  -1  -2   7   10.54    0.33
  -1  -2   7    9.83    0.28
  -1  -2   7   10.10    0.33
  -1  -2   7    9.89    0.31
  -1  -2   7    9.84    0.18
   0   2  -7   21.92    0.47
   0   2  -7   22.35    0.49
   0   2  -7   21.46    0.48
   0   2  -7   21.84    0.37
   0  -2   7   22.51    0.47
   0  -2   7   21.99    0.44
   0  -2   7   21.78    0.34
   0  -2   7   22.14    0.48
  -1   2  -7   31.18    0.54
  -1   2  -7   31.37    0.61
  -1   2  -7   32.02    0.56
  -1   2  -7   32.48    0.64
   1  -2   7   31.47    0.61
   1  -2   7   31.36    0.57
   1  -2   7   31.13    0.49
   1  -2   7   31.63    0.59
   1  -2   7   31.87    0.62
  -2   2  -7    8.44    0.31
  -2   2  -7    8.43    0.34
  -2   2  -7    8.64    0.24
  -2   2  -7    8.25    0.29
   2  -2   7    8.44    0.30
   2  -2   7    8.15    0.32
   2  -2   7    8.19    0.31
   2  -2   7    8.89    0.32
   2  -2   7    8.03    0.25
  -3   2  -7    4.98    0.26
  -3   2  -7    4.58    0.26
  -3   2  -7    4.37    0.29
   3  -2   7    4.50    0.28
   3  -2   7    4.07    0.26
   3  -2   7    4.36    0.27
   3  -2   7    5.09    0.28
  -4   2  -7    4.87    0.32
  -4   2  -7    4.36    0.25
  -4   2  -7    4.95    0.30
   4  -2   7    4.87    0.31
   4  -2   7    4.67    0.30
   4  -2   7    4.87    0.30
   4  -2   7    4.81    0.31
  -5   2  -7    3.77    0.32
  -5   2  -7    3.66    0.33
   5  -2   7    3.55    0.31
   5  -2   7    3.38    0.31
   5  -2   7    3.51    0.32
   5  -2   7    3.72    0.32
  -6   2  -7   -0.24    0.16
   6  -2   7   -0.02    0.15
   6  -2   7    0.21    0.20
   6  -2   7    0.10    0.16
  -7   2  -7    0.54    0.23
   7  -2   7    0.38    0.21
   7  -2   7    0.16    0.21
   7  -2   7    0.08    0.24
   8   1  -7   -0.16    0.18
   8   1  -7   -0.25    0.17
   8   1  -7    0.15    0.19
  -8  -1   7   -0.18    0.18
   7   1  -7   10.76    0.49
   7   1  -7    9.51    0.50
   7   1  -7    9.72    0.52
  -7  -1   7   10.45    0.51
   6   1  -7    2.48    0.29
   6   1  -7    1.82    0.21
   6   1  -7    1.49    0.22
  -6  -1   7    1.52    0.23
   5   1  -7    2.61    0.23
   5   1  -7    2.48    0.26
   5   1  -7    2.16    0.24
  -5  -1   7    2.53    0.26
   4   1  -7    1.04    0.16
   4   1  -7    1.60    0.15
   4   1  -7    1.63    0.18
  -4  -1   7    1.54    0.19
   3   1  -7    0.88    0.07
   3   1  -7    0.83    0.15
   3   1  -7    0.80    0.12
   3   1  -7    0.81    0.14
  -3  -1   7    0.91    0.15
  -3  -1   7    1.04    0.16
   2   1  -7    8.72    0.29
   2   1  -7    9.03    0.32
   2   1  -7    8.21    0.19
   2   1  -7    8.64    0.30
   2   1  -7    8.46    0.23
  -2  -1   7    8.14    0.31
  -2  -1   7    8.56    0.30
  -2  -1   7    7.97    0.26
  -2  -1   7    8.32    0.31
   1   1  -7   52.39    0.71
   1   1  -7   51.24    0.84
   1   1  -7   52.79    0.85
   1   1  -7   51.50    0.84
   1   1  -7   52.46    0.66
   1   1  -7   51.47    0.71
  -1  -1   7   52.71    0.73
  -1  -1   7   53.00    0.83
  -1  -1   7   52.85    0.77
  -1  -1   7   51.90    0.82
   0   1  -7    0.35    0.10
   0   1  -7    0.22    0.10
   0   1  -7    0.37    0.07
   0   1  -7    0.42    0.08
   0   1  -7    0.28    0.08
   0   1  -7    0.46    0.11
   0  -1   7    0.13    0.10
   0  -1   7    0.37    0.08
   0  -1   7    0.28    0.11
   0  -1   7    0.39    0.06
   0  -1   7    0.51    0.10
   0  -1   7    0.31    0.09
  -1   1  -7    3.66    0.24
  -1   1  -7    4.11    0.21
  -1   1  -7    4.39    0.21
  -1   1  -7    3.97    0.22
  -1   1  -7    4.21    0.19
   1  -1   7    4.07    0.22
   1  -1   7    3.68    0.19
   1  -1   7    4.19    0.18
   1  -1   7    3.88    0.23
   1  -1   7    4.36    0.25
  -2   1  -7   17.94    0.46
  -2   1  -7   17.69    0.42
  -2   1  -7   17.94    0.49
  -2   1  -7   17.07    0.33
  -2   1  -7   18.25    0.46
   2  -1   7   17.52    0.48
   2  -1   7   17.24    0.42
   2  -1   7   18.13    0.46
   2  -1   7   17.53    0.32
   2  -1   7   17.91    0.44
  -3   1  -7    0.68    0.15
  -3   1  -7    0.56    0.12
  -3   1  -7    0.78    0.17
   3  -1   7    0.49    0.15
   3  -1   7    0.90    0.15
   3  -1   7    0.86    0.17
   3  -1   7    1.16    0.19
  -4   1  -7    0.57    0.18
  -4   1  -7    1.06    0.20
   4  -1   7    0.92    0.19
   4  -1   7    0.82    0.19
   4  -1   7    0.70    0.18
   4  -1   7    0.89    0.18
  -5   1  -7    1.12    0.22
  -5   1  -7    0.92    0.22
   5  -1   7    0.92    0.20
   5  -1   7    0.72    0.21
   5  -1   7    1.11    0.22
   5  -1   7    0.89    0.21
  -6   1  -7   28.52    0.84
   6  -1   7   27.01    0.77
   6  -1   7   27.75    0.80
   6  -1   7   29.73    0.84
  -7   1  -7    0.16    0.23
   7  -1   7    0.01    0.21
   7  -1   7   -0.10    0.22
   7  -1   7   -0.19    0.18
   8   0  -7    4.76    0.40
   8   0  -7    4.33    0.38
   8   0  -7    3.88    0.40
  -8   0   7    4.54    0.39
   7   0  -7    2.45    0.24
   7   0  -7    1.67    0.25
   7   0  -7    2.57    0.29
  -7   0   7    2.24    0.28
   6   0  -7    2.79    0.29
   6   0  -7    1.80    0.23
   6   0  -7    2.82    0.24
   6   0  -7    2.93    0.26
  -6   0   7    2.54    0.27
  -6   0   7    2.84    0.28
   5   0  -7   15.20    0.45
   5   0  -7   16.18    0.51
   5   0  -7   15.61    0.44
  -5   0   7   16.05    0.50
  -5   0   7   15.20    0.47
   4   0  -7   20.89    0.40
   4   0  -7   21.38    0.55
   4   0  -7   21.18    0.50
   4   0  -7   21.59    0.53
  -4   0   7   21.06    0.55
  -4   0   7   20.98    0.52
   3   0  -7    9.93    0.25
   3   0  -7    9.64    0.23
   3   0  -7    9.95    0.34
   3   0  -7    9.29    0.33
   3   0  -7    9.56    0.35
  -3   0   7    9.62    0.34
  -3   0   7   10.26    0.35
   2   0  -7   28.82    0.41
   2   0  -7   29.21    0.60
   2   0  -7   29.55    0.60
   2   0  -7   29.84    0.61
   2   0  -7   30.08    0.50
  -2   0   7   29.54    0.59
  -2   0   7   30.92    0.60
  -2   0   7   31.06    0.57
  -2   0   7   30.07    0.47
   1   0  -7   96.26    1.15
   1   0  -7   98.94    1.24
   1   0  -7   98.05    1.35
   1   0  -7   96.29    1.36
   1   0  -7   99.53    1.29
   1   0  -7   99.20    1.41
  -1   0   7   97.09    1.42
  -1   0   7   98.12    1.34
  -1   0   7   99.16    1.16
  -1   0   7  100.08    1.33
  -1   0   7   99.29    1.21
   0   0  -7   44.67    0.72
   0   0  -7   44.39    0.75
   0   0  -7   44.47    0.71
   0   0  -7   44.68    0.81
   0   0  -7   45.26    0.74
   0   0   7   44.81    0.72
   0   0   7   45.30    0.63
   0   0   7   44.67    0.75
   0   0   7   46.75    0.67
   0   0   7   45.75    0.83
  -1   0  -7   18.80    0.50
  -1   0  -7   19.58    0.46
  -1   0  -7   18.61    0.43
  -1   0  -7   19.34    0.38
  -1   0  -7   19.06    0.45
   1   0   7   17.99    0.50
   1   0   7   18.82    0.39
   1   0   7   18.89    0.38
   1   0   7   18.94    0.41
   1   0   7   18.97    0.46
  -2   0  -7    0.12    0.11
  -2   0  -7    0.14    0.11
  -2   0  -7   -0.04    0.09
  -2   0  -7    0.18    0.10
   2   0   7    0.23    0.13
   2   0   7    0.02    0.11
   2   0   7    0.20    0.13
   2   0   7    0.20    0.10
   2   0   7    0.32    0.08
   2   0   7    0.23    0.10
  -3   0  -7    0.37    0.15
  -3   0  -7    0.33    0.17
  -3   0  -7    0.12    0.13
  -3   0  -7    0.33    0.14
   3   0   7    0.30    0.13
   3   0   7    0.07    0.14
   3   0   7    0.45    0.14
   3   0   7    0.31    0.11
   3   0   7    0.44    0.16
  -4   0  -7    1.17    0.21
  -4   0  -7    1.28    0.23
   4   0   7    0.87    0.21
   4   0   7    0.99    0.21
   4   0   7    1.32    0.21
   4   0   7    1.18    0.21
  -5   0  -7    9.13    0.45
  -5   0  -7    9.46    0.50
   5   0   7    9.21    0.46
   5   0   7    9.27    0.47
   5   0   7    9.35    0.46
   5   0   7    8.01    0.48
  -6   0  -7    0.55    0.23
  -6   0  -7    0.81    0.23
   6   0   7    0.32    0.23
   6   0   7    0.36    0.24
   6   0   7    0.64    0.24
   8  -1  -7    4.96    0.33
   8  -1  -7    4.23    0.37
   8  -1  -7    4.83    0.39
  -8   1   7    4.59    0.38
   7  -1  -7   18.03    0.60
   7  -1  -7   17.61    0.54
   7  -1  -7   18.41    0.61
   7  -1  -7   18.37    0.55
  -7   1   7   17.24    0.56
  -7   1   7   17.72    0.60
   6  -1  -7    0.00    0.13
   6  -1  -7    0.10    0.11
   6  -1  -7    0.07    0.14
  -6   1   7    0.26    0.15
  -6   1   7    0.26    0.16
   5  -1  -7   28.41    0.55
   5  -1  -7   26.58    0.66
   5  -1  -7   27.03    0.63
   5  -1  -7   27.94    0.64
  -5   1   7   27.56    0.62
  -5   1   7   28.17    0.67
   4  -1  -7   50.44    0.90
   4  -1  -7   50.49    0.90
   4  -1  -7   50.39    0.79
   4  -1  -7   49.19    0.71
  -4   1   7   50.03    0.85
   3  -1  -7    0.13    0.08
   3  -1  -7    0.12    0.11
   3  -1  -7    0.24    0.11
  -3   1   7    0.03    0.10
  -3   1   7    0.14    0.10
   2  -1  -7   23.32    0.53
   2  -1  -7   23.82    0.48
   2  -1  -7   23.84    0.56
  -2   1   7   23.90    0.53
  -2   1   7   22.97    0.47
  -2   1   7   24.07    0.57
   1  -1  -7    4.62    0.24
   1  -1  -7    4.78    0.27
   1  -1  -7    4.44    0.22
  -1   1   7    4.26    0.23
  -1   1   7    4.23    0.13
  -1   1   7    4.16    0.22
  -1   1   7    3.68    0.26
   0  -1  -7   28.80    0.59
   0  -1  -7   29.09    0.57
   0  -1  -7   28.95    0.64
   0  -1  -7   28.47    0.57
   0   1   7   28.40    0.65
   0   1   7   28.89    0.45
   0   1   7   29.22    0.56
   0   1   7   28.42    0.47
   0   1   7   29.20    0.55
  -1  -1  -7    0.16    0.11
  -1  -1  -7    0.23    0.10
  -1  -1  -7    0.19    0.12
  -1  -1  -7    0.23    0.11
   1   1   7    0.21    0.11
   1   1   7    0.19    0.09
   1   1   7    0.25    0.09
   1   1   7    0.20    0.13
   1   1   7    0.20    0.10
   1   1   7    0.12    0.10
  -2  -1  -7   12.70    0.45
  -2  -1  -7   11.73    0.33
  -2  -1  -7   12.51    0.43
  -2  -1  -7   12.68    0.43
   2   1   7   12.25    0.39
   2   1   7   12.54    0.42
   2   1   7   12.86    0.39
   2   1   7   11.96    0.37
   2   1   7   12.62    0.47
  -3  -1  -7   21.58    0.62
  -3  -1  -7   20.59    0.60
  -3  -1  -7   20.96    0.61
   3   1   7   20.53    0.54
   3   1   7   20.44    0.52
   3   1   7   19.82    0.63
   3   1   7   20.65    0.57
   3   1   7   20.30    0.55
  -4  -1  -7    0.03    0.15
  -4  -1  -7   -0.08    0.15
  -4  -1  -7   -0.13    0.15
   4   1   7    0.02    0.15
   4   1   7    0.08    0.18
   4   1   7    0.25    0.17
   4   1   7    0.00    0.14
  -5  -1  -7    1.87    0.27
  -5  -1  -7    2.35    0.34
   5   1   7    1.67    0.29
   5   1   7    1.57    0.29
   5   1   7    1.99    0.29
  -6  -1  -7    0.02    0.25
   6   1   7    0.06    0.25
   6   1   7    0.29    0.24
   6   1   7    0.20    0.24
   9  -2  -7   16.64    0.63
   9  -2  -7   15.28    0.61
   9  -2  -7   16.64    0.65
  -9   2   7   16.50    0.65
   8  -2  -7    0.45    0.17
   8  -2  -7   -0.07    0.16
   8  -2  -7    0.28    0.16
   8  -2  -7    0.08    0.18
  -8   2   7   -0.03    0.18
   7  -2  -7   22.63    0.68
   7  -2  -7   21.87    0.64
   7  -2  -7   21.31    0.63
  -7   2   7   22.30    0.66
   6  -2  -7   -0.02    0.12
   6  -2  -7   -0.07    0.12
   6  -2  -7    0.16    0.11
  -6   2   7    0.10    0.15
  -6   2   7    0.02    0.12
   5  -2  -7    4.04    0.29
   5  -2  -7    4.37    0.25
   5  -2  -7    4.81    0.30
  -5   2   7    4.60    0.30
  -5   2   7    4.44    0.26
   4  -2  -7   26.28    0.64
   4  -2  -7   26.10    0.55
   4  -2  -7   26.25    0.61
  -4   2   7   26.45    0.55
  -4   2   7   24.72    0.61
   3  -2  -7   39.25    0.77
   3  -2  -7   40.28    0.72
   3  -2  -7   38.94    0.59
   3  -2  -7   40.23    0.81
  -3   2   7   39.66    0.64
  -3   2   7   39.99    0.78
  -3   2   7   40.18    0.70
   2  -2  -7   16.15    0.48
   2  -2  -7   16.51    0.44
   2  -2  -7   17.20    0.44
   2  -2  -7   16.43    0.31
  -2   2   7   16.95    0.46
  -2   2   7   17.05    0.38
  -2   2   7   16.80    0.49
   1  -2  -7    0.03    0.11
   1  -2  -7    0.07    0.07
   1  -2  -7    0.02    0.10
   1  -2  -7    0.09    0.10
  -1   2   7   -0.02    0.09
  -1   2   7   -0.02    0.09
  -1   2   7    0.18    0.13
   0  -2  -7    0.17    0.11
   0  -2  -7    0.22    0.13
   0  -2  -7    0.35    0.14
   0   2   7    0.17    0.14
   0   2   7    0.15    0.08
   0   2   7    0.20    0.12
   0   2   7    0.38    0.12
   0   2   7    0.17    0.11
  -1  -2  -7    0.17    0.11
  -1  -2  -7    0.12    0.10
  -1  -2  -7    0.17    0.12
  -1  -2  -7    0.20    0.13
   1   2   7   -0.01    0.09
   1   2   7    0.14    0.12
   1   2   7    0.17    0.13
   1   2   7    0.15    0.11
   1   2   7    0.17    0.10
   1   2   7    0.02    0.13
  -2  -2  -7    1.22    0.21
  -2  -2  -7    1.23    0.21
  -2  -2  -7    1.16    0.21
   2   2   7    0.95    0.21
   2   2   7    1.05    0.17
   2   2   7    0.89    0.16
   2   2   7    1.32    0.19
   2   2   7    1.01    0.19
  -3  -2  -7    1.63    0.26
  -3  -2  -7    1.53    0.23
  -3  -2  -7    1.68    0.25
   3   2   7    1.45    0.21
   3   2   7    1.76    0.22
   3   2   7    1.52    0.21
   3   2   7    1.52    0.27
   3   2   7    1.87    0.26
  -4  -2  -7    0.91    0.25
  -4  -2  -7    0.50    0.20
  -4  -2  -7    0.48    0.21
   4   2   7    0.38    0.19
   4   2   7    0.63    0.25
   4   2   7    0.69    0.21
   4   2   7    0.48    0.21
   4   2   7    0.67    0.24
  -5  -2  -7    0.56    0.26
   5   2   7    0.86    0.26
   5   2   7    0.59    0.24
   5   2   7    0.77    0.29
   9  -3  -7    0.45    0.20
   9  -3  -7    0.26    0.21
   9  -3  -7    0.05    0.19
   9  -3  -7    0.31    0.23
  -9   3   7    0.31    0.24
   8  -3  -7    4.90    0.40
   8  -3  -7    4.51    0.39
   8  -3  -7    4.12    0.36
  -8   3   7    4.53    0.39
   7  -3  -7    4.15    0.36
   7  -3  -7    4.00    0.35
   7  -3  -7    3.87    0.28
  -7   3   7    3.82    0.34
   6  -3  -7    3.74    0.33
   6  -3  -7    3.48    0.31
   6  -3  -7    3.15    0.26
  -6   3   7    3.31    0.31
   5  -3  -7    0.17    0.12
   5  -3  -7   -0.08    0.12
   5  -3  -7    0.22    0.14
  -5   3   7    0.15    0.14
   4  -3  -7   27.07    0.65
   4  -3  -7   26.50    0.68
   4  -3  -7   26.70    0.61
  -4   3   7   27.69    0.55
  -4   3   7   27.10    0.66
   3  -3  -7    9.15    0.36
   3  -3  -7    9.81    0.37
   3  -3  -7    9.22    0.26
   3  -3  -7    8.59    0.39
  -3   3   7    9.30    0.38
  -3   3   7    9.75    0.39
   2  -3  -7    1.19    0.17
   2  -3  -7    1.38    0.20
   2  -3  -7    1.00    0.17
   2  -3  -7    1.08    0.12
  -2   3   7    1.08    0.16
  -2   3   7    1.15    0.18
  -2   3   7    1.06    0.19
   1  -3  -7   51.72    0.81
   1  -3  -7   52.07    0.89
   1  -3  -7   50.61    0.98
   1  -3  -7   53.35    0.97
  -1   3   7   52.56    1.01
  -1   3   7   53.64    0.94
  -1   3   7   51.65    0.81
  -1   3   7   51.37    0.97
   0  -3  -7   14.73    0.41
   0  -3  -7   13.97    0.39
   0  -3  -7   14.42    0.49
   0  -3  -7   14.16    0.48
   0   3   7   14.64    0.49
   0   3   7   13.89    0.43
   0   3   7   13.91    0.40
   0   3   7   14.37    0.52
  -1  -3  -7    6.03    0.35
  -1  -3  -7    6.64    0.36
   1   3   7    7.14    0.41
   1   3   7    6.72    0.33
   1   3   7    6.65    0.31
   1   3   7    6.94    0.37
  -2  -3  -7   -0.02    0.15
  -2  -3  -7    0.12    0.14
  -2  -3  -7    0.03    0.16
   2   3   7    0.13    0.15
   2   3   7    0.57    0.21
   2   3   7    0.09    0.15
  -3  -3  -7    7.43    0.47
  -3  -3  -7    6.52    0.40
  -3  -3  -7    6.76    0.44
   3   3   7    6.73    0.41
   3   3   7    5.96    0.47
   3   3   7    6.77    0.41
  -4  -3  -7    0.01    0.20
  -4  -3  -7   -0.21    0.19
   4   3   7    0.33    0.21
   4   3   7   -0.03    0.19
   4   3   7   -0.28    0.20
   9  -4  -7    9.87    0.53
   9  -4  -7   10.79    0.56
   9  -4  -7    8.84    0.54
  -9   4   7    8.84    0.53
   8  -4  -7    1.60    0.28
   8  -4  -7    1.50    0.24
   8  -4  -7    1.83    0.28
  -8   4   7    1.55    0.28
   7  -4  -7    3.70    0.35
   7  -4  -7    3.36    0.35
   7  -4  -7    3.85    0.32
  -7   4   7    3.24    0.33
   6  -4  -7   11.63    0.52
   6  -4  -7   12.49    0.46
   6  -4  -7   11.84    0.49
  -6   4   7   12.73    0.51
   5  -4  -7    0.73    0.18
   5  -4  -7    0.93    0.20
   5  -4  -7    0.69    0.20
  -5   4   7    0.87    0.20
   4  -4  -7    1.30    0.21
   4  -4  -7    1.42    0.22
   4  -4  -7    1.78    0.22
  -4   4   7    1.43    0.22
   3  -4  -7    8.39    0.41
   3  -4  -7    8.06    0.37
   3  -4  -7    7.77    0.36
   3  -4  -7    7.94    0.28
  -3   4   7    7.65    0.38
  -3   4   7    8.12    0.39
   2  -4  -7    1.86    0.17
   2  -4  -7    1.84    0.21
   2  -4  -7    2.09    0.24
   2  -4  -7    1.12    0.20
  -2   4   7    1.52    0.23
  -2   4   7    2.05    0.24
  -2   4   7    1.73    0.23
   1  -4  -7    0.40    0.14
   1  -4  -7    0.10    0.13
   1  -4  -7    0.29    0.11
   1  -4  -7    0.22    0.15
  -1   4   7    0.36    0.14
  -1   4   7    0.32    0.16
  -1   4   7    0.08    0.15
   0  -4  -7    6.11    0.38
   0  -4  -7    6.74    0.32
   0  -4  -7    6.41    0.37
   0   4   7    6.68    0.34
   0   4   7    6.72    0.40
   0   4   7    6.53    0.42
  -1  -4  -7   -0.03    0.13
  -1  -4  -7    0.20    0.16
   1   4   7    0.28    0.19
   1   4   7    0.30    0.17
   1   4   7    0.53    0.17
  -2  -4  -7    0.08    0.20
  -2  -4  -7    0.03    0.16
   2   4   7    0.09    0.21
   2   4   7    0.10    0.18
  -3  -4  -7   13.04    0.64
  -3  -4  -7   11.61    0.60
   3   4   7   13.12    0.66
   3   4   7   12.26    0.57
   3   4   7   12.44    0.55
   8  -5  -7    2.59    0.31
   8  -5  -7    2.26    0.34
   8  -5  -7    3.18    0.37
  -8   5   7    3.24    0.37
   7  -5  -7   11.28    0.49
   7  -5  -7   11.92    0.58
   7  -5  -7   10.37    0.52
  -7   5   7    9.30    0.50
   6  -5  -7    0.53    0.20
   6  -5  -7    0.06    0.16
   6  -5  -7    0.29    0.18
  -6   5   7    0.16    0.20
   5  -5  -7    5.45    0.35
   5  -5  -7    4.19    0.36
   5  -5  -7    4.19    0.34
  -5   5   7    5.11    0.37
   4  -5  -7   20.51    0.67
   4  -5  -7   21.64    0.64
   4  -5  -7   22.18    0.64
  -4   5   7   21.34    0.65
  -4   5   7   22.51    0.63
   3  -5  -7   29.58    0.65
   3  -5  -7   28.94    0.79
   3  -5  -7   29.79    0.72
   3  -5  -7   29.95    0.76
  -3   5   7   30.48    0.75
  -3   5   7   30.41    0.77
  -3   5   7   29.45    0.77
   2  -5  -7   19.71    0.62
   2  -5  -7   19.80    0.55
   2  -5  -7   18.37    0.50
   2  -5  -7   19.70    0.64
  -2   5   7   20.78    0.62
  -2   5   7   18.82    0.63
  -2   5   7   19.08    0.62
   1  -5  -7    2.34    0.29
   1  -5  -7    1.93    0.26
   1  -5  -7    2.26    0.23
  -1   5   7    1.70    0.27
  -1   5   7    2.51    0.30
  -1   5   7    2.16    0.26
   0  -5  -7    1.49    0.22
   0  -5  -7    1.77    0.27
   0  -5  -7    1.70    0.25
   0   5   7    1.36    0.22
   0   5   7    1.83    0.28
   0   5   7    1.75    0.29
  -1  -5  -7    3.15    0.35
   1   5   7    2.47    0.34
   1   5   7    3.07    0.35
  -2  -5  -7   -0.10    0.21
  -2  -5  -7    0.38    0.21
   2   5   7   -0.02    0.19
   2   5   7    0.14    0.25
   8  -6  -7    3.20    0.38
   8  -6  -7    3.03    0.39
   8  -6  -7    3.06    0.35
  -8   6   7    2.85    0.37
   7  -6  -7    3.07    0.36
   7  -6  -7    2.56    0.35
   7  -6  -7    3.97    0.38
  -7   6   7    2.37    0.33
   6  -6  -7    8.33    0.48
   6  -6  -7    7.96    0.45
   6  -6  -7    8.20    0.51
  -6   6   7    8.09    0.49
   5  -6  -7    0.85    0.23
   5  -6  -7    1.48    0.29
   5  -6  -7    1.30    0.24
  -5   6   7    1.05    0.25
   4  -6  -7    0.54    0.20
   4  -6  -7    0.87    0.24
   4  -6  -7    0.78    0.21
  -4   6   7    1.10    0.25
   3  -6  -7    0.41    0.19
   3  -6  -7   -0.17    0.15
   3  -6  -7   -0.12    0.16
  -3   6   7    0.07    0.18
  -3   6   7    0.20    0.18
  -3   6   7   -0.03    0.17
   2  -6  -7    7.02    0.45
   2  -6  -7    6.98    0.45
   2  -6  -7    6.73    0.36
  -2   6   7    7.35    0.47
  -2   6   7    6.78    0.43
  -2   6   7    6.28    0.45
   1  -6  -7    1.44    0.27
   1  -6  -7    1.28    0.21
   1  -6  -7    1.35    0.26
  -1   6   7    1.22    0.26
  -1   6   7    1.41    0.28
  -1   6   7    1.59    0.26
   0  -6  -7   -0.19    0.16
   0  -6  -7    0.33    0.17
   0   6   7    0.10    0.19
   0   6   7    0.19    0.23
   0   6   7    0.13    0.20
   6  -7  -7    3.34    0.38
   6  -7  -7    3.99    0.39
   6  -7  -7    3.45    0.38
  -6   7   7    3.13    0.38
   5  -7  -7    2.69    0.34
   5  -7  -7    1.75    0.31
   5  -7  -7    2.02    0.31
  -5   7   7    2.46    0.34
   4  -7  -7   10.08    0.55
   4  -7  -7    9.90    0.53
   4  -7  -7   10.53    0.51
  -4   7   7   10.31    0.55
   3  -7  -7    2.19    0.31
   3  -7  -7    1.01    0.25
  -3   7   7    1.87    0.31
  -3   7   7    1.74    0.29
   2  -7  -7    6.96    0.49
   2  -7  -7    6.30    0.45
  -2   7   7    6.30    0.46
  -2   7   7    6.56    0.51
   0   9  -8    0.62    0.24
   0   9  -8    1.01    0.28
   0  -9   8    0.80    0.26
   0  -9   8    1.42    0.26
  -1   9  -8    4.45    0.43
  -1   9  -8    4.21    0.36
   1  -9   8    3.97    0.36
   1  -9   8    3.70    0.40
  -2   9  -8    0.82    0.24
  -2   9  -8    0.95    0.27
  -2   9  -8    0.86    0.23
   2  -9   8    0.65    0.21
   2  -9   8    0.71    0.23
  -3   9  -8    2.19    0.32
  -3   9  -8    2.70    0.32
  -3   9  -8    2.49    0.34
   3  -9   8    2.47    0.35
   3  -9   8    2.24    0.29
  -4   9  -8    3.36    0.36
  -4   9  -8    3.16    0.36
  -4   9  -8    2.78    0.36
   4  -9   8    2.54    0.35
   4  -9   8    2.50    0.31
  -5   9  -8    3.10    0.36
  -5   9  -8    3.04    0.39
  -5   9  -8    3.22    0.35
   5  -9   8    2.57    0.32
   5  -9   8    3.10    0.38
  -6   9  -8    1.71    0.33
   6  -9   8    1.53    0.29
   6  -9   8    1.66    0.29
   6  -9   8    1.42    0.33
   2   8  -8    0.00    0.20
   2   8  -8   -0.18    0.19
  -2  -8   8    0.33    0.20
   1   8  -8   17.67    0.68
   1   8  -8   17.17    0.65
  -1  -8   8   17.41    0.58
  -1  -8   8   17.60    0.69
  -1  -8   8   16.25    0.60
   0   8  -8    4.96    0.42
   0   8  -8    5.31    0.35
   0   8  -8    4.92    0.38
   0  -8   8    4.60    0.35
   0  -8   8    5.36    0.36
   0  -8   8    5.34    0.41
  -1   8  -8   11.41    0.49
  -1   8  -8   11.46    0.48
  -1   8  -8   10.13    0.46
  -1   8  -8   10.57    0.53
   1  -8   8   11.01    0.46
   1  -8   8   11.16    0.54
   1  -8   8   11.36    0.47
  -2   8  -8    0.24    0.17
  -2   8  -8   -0.23    0.15
  -2   8  -8    0.24    0.17
   2  -8   8    0.06    0.15
   2  -8   8   -0.07    0.16
  -3   8  -8    1.47    0.27
  -3   8  -8    1.89    0.27
  -3   8  -8    1.67    0.28
   3  -8   8    1.04    0.25
   3  -8   8    1.48    0.23
   3  -8   8    1.51    0.21
  -4   8  -8    0.74    0.22
  -4   8  -8    0.37    0.20
  -4   8  -8    0.22    0.19
   4  -8   8    0.53    0.16
   4  -8   8    0.33    0.19
   4  -8   8    0.54    0.24
  -5   8  -8    9.78    0.55
  -5   8  -8    8.78    0.49
  -5   8  -8    8.43    0.45
   5  -8   8    8.10    0.45
   5  -8   8    8.96    0.53
   5  -8   8    8.67    0.43
  -6   8  -8   -0.27    0.17
   6  -8   8    0.24    0.18
   6  -8   8    0.03    0.19
   6  -8   8   -0.05    0.22
  -7   8  -8    0.10    0.24
   7  -8   8   -0.25    0.21
   7  -8   8   -0.34    0.18
   7  -8   8   -0.06    0.20
   3   7  -8    2.32    0.33
   3   7  -8    3.69    0.40
   3   7  -8    2.88    0.36
  -3  -7   8    2.73    0.34
   2   7  -8    0.07    0.19
   2   7  -8    0.16    0.20
   2   7  -8    0.08    0.18
  -2  -7   8    0.02    0.17
  -2  -7   8    0.03    0.15
   1   7  -8    1.52    0.25
   1   7  -8    1.62    0.21
   1   7  -8    1.25    0.26
   1   7  -8    1.66    0.25
  -1  -7   8    1.45    0.24
  -1  -7   8    1.48    0.21
  -1  -7   8    1.56    0.28
   0   7  -8    3.92    0.30
   0   7  -8    4.10    0.33
   0   7  -8    4.58    0.31
   0   7  -8    3.78    0.34
   0  -7   8    4.35    0.32
   0  -7   8    4.62    0.39
   0  -7   8    4.41    0.30
   0  -7   8    3.85    0.44
  -1   7  -8    0.18    0.14
  -1   7  -8   -0.09    0.15
  -1   7  -8   -0.09    0.12
  -1   7  -8   -0.05    0.12
   1  -7   8    0.14    0.13
   1  -7   8    0.02    0.16
   1  -7   8    0.05    0.13
   1  -7   8    0.17    0.17
  -2   7  -8   20.08    0.60
  -2   7  -8   20.24    0.63
  -2   7  -8   18.92    0.62
   2  -7   8   19.17    0.53
   2  -7   8   19.72    0.63
   2  -7   8   19.12    0.62
   2  -7   8   19.38    0.54
   2  -7   8   18.91    0.54
  -3   7  -8    2.53    0.29
  -3   7  -8    3.05    0.30
  -3   7  -8    2.23    0.26
   3  -7   8    2.26    0.28
   3  -7   8    2.11    0.28
   3  -7   8    2.31    0.23
   3  -7   8    2.37    0.24
   3  -7   8    2.76    0.26
  -4   7  -8    0.30    0.17
  -4   7  -8    0.08    0.16
  -4   7  -8   -0.17    0.14
   4  -7   8    0.06    0.15
   4  -7   8    0.07    0.25
   4  -7   8    0.06    0.13
   4  -7   8   -0.07    0.17
   4  -7   8    0.09    0.13
  -5   7  -8    2.37    0.30
  -5   7  -8    2.55    0.34
   5  -7   8    2.92    0.35
   5  -7   8    2.26    0.27
   5  -7   8    2.66    0.27
   5  -7   8    1.67    0.24
  -6   7  -8    0.74    0.23
  -6   7  -8    0.86    0.27
  -6   7  -8    1.02    0.24
   6  -7   8    0.97    0.22
   6  -7   8    0.87    0.19
   6  -7   8    0.83    0.26
  -7   7  -8    1.21    0.28
  -7   7  -8    0.41    0.24
   7  -7   8    1.32    0.24
   7  -7   8    1.21    0.30
   7  -7   8    0.99    0.25
   4   6  -8    0.10    0.21
   4   6  -8   -0.13    0.18
   4   6  -8    0.20    0.22
  -4  -6   8   -0.01    0.18
   3   6  -8    1.46    0.27
   3   6  -8    1.12    0.25
   3   6  -8    1.01    0.24
  -3  -6   8    1.25    0.25
   2   6  -8    4.38    0.37
   2   6  -8    4.51    0.38
   2   6  -8    4.62    0.29
   2   6  -8    3.93    0.35
  -2  -6   8    4.37    0.38
  -2  -6   8    4.87    0.38
  -2  -6   8    4.74    0.29
   1   6  -8    8.02    0.36
   1   6  -8    7.74    0.42
   1   6  -8    7.56    0.40
  -1  -6   8    7.99    0.43
  -1  -6   8    7.82    0.41
  -1  -6   8    8.15    0.40
  -1  -6   8    7.50    0.32
   0   6  -8    0.20    0.13
   0   6  -8    0.05    0.14
   0   6  -8    0.25    0.14
   0   6  -8   -0.02    0.11
   0  -6   8   -0.03    0.12
   0  -6   8    0.00    0.11
   0  -6   8    0.06    0.13
   0  -6   8    0.20    0.14
  -1   6  -8    0.26    0.16
  -1   6  -8    0.05    0.11
  -1   6  -8    0.23    0.14
  -1   6  -8    0.35    0.14
   1  -6   8    0.16    0.12
   1  -6   8    0.14    0.13
   1  -6   8    0.14    0.16
   1  -6   8   -0.10    0.11
   1  -6   8    0.28    0.13
  -2   6  -8   16.77    0.55
  -2   6  -8   16.84    0.52
  -2   6  -8   16.65    0.53
   2  -6   8   16.11    0.46
   2  -6   8   16.01    0.48
   2  -6   8   16.23    0.55
   2  -6   8   16.56    0.48
   2  -6   8   16.10    0.54
  -3   6  -8   10.31    0.47
  -3   6  -8   10.02    0.41
  -3   6  -8   11.03    0.45
   3  -6   8    9.90    0.39
   3  -6   8   11.23    0.40
   3  -6   8   10.05    0.44
   3  -6   8   10.54    0.36
   3  -6   8   10.52    0.45
   3  -6   8    9.94    0.38
  -4   6  -8    2.41    0.24
  -4   6  -8    2.65    0.30
  -4   6  -8    2.37    0.27
  -4   6  -8    2.92    0.27
   4  -6   8    2.71    0.25
   4  -6   8    2.24    0.24
   4  -6   8    3.31    0.32
   4  -6   8    3.58    0.34
  -5   6  -8   14.11    0.59
  -5   6  -8   14.22    0.53
  -5   6  -8   12.91    0.51
   5  -6   8   14.60    0.49
   5  -6   8   13.48    0.49
   5  -6   8   13.62    0.61
   5  -6   8   14.47    0.58
  -6   6  -8    8.87    0.50
  -6   6  -8    8.41    0.45
  -6   6  -8    7.78    0.46
   6  -6   8    8.60    0.50
   6  -6   8    8.18    0.43
   6  -6   8    8.27    0.43
  -7   6  -8   -0.09    0.19
  -7   6  -8   -0.01    0.20
   7  -6   8   -0.03    0.17
   7  -6   8    0.27    0.22
   7  -6   8    0.22    0.20
   5   5  -8    0.71    0.25
   5   5  -8    0.89    0.26
   5   5  -8    0.04    0.19
  -5  -5   8    0.52    0.23
   4   5  -8   21.68    0.69
   4   5  -8   20.98    0.72
   4   5  -8   21.00    0.71
  -4  -5   8   19.77    0.69
   3   5  -8    0.22    0.13
   3   5  -8    0.15    0.16
   3   5  -8    0.32    0.17
  -3  -5   8    0.31    0.16
   2   5  -8    7.67    0.34
   2   5  -8    7.95    0.39
   2   5  -8    8.05    0.42
  -2  -5   8    7.75    0.32
  -2  -5   8    6.91    0.40
  -2  -5   8    7.82    0.39
   1   5  -8    4.25    0.31
   1   5  -8    4.58    0.28
   1   5  -8    4.45    0.30
   1   5  -8    4.45    0.26
  -1  -5   8    4.20    0.23
  -1  -5   8    4.65    0.33
  -1  -5   8    4.93    0.30
  -1  -5   8    4.59    0.31
   0   5  -8   37.28    0.73
   0   5  -8   37.17    0.80
   0   5  -8   36.26    0.66
   0   5  -8   36.36    0.75
   0  -5   8   38.09    0.66
   0  -5   8   36.35    0.75
   0  -5   8   37.20    0.78
   0  -5   8   37.77    0.81
   0  -5   8   38.39    0.78
  -1   5  -8   26.62    0.64
  -1   5  -8   26.65    0.58
  -1   5  -8   26.40    0.55
  -1   5  -8   26.56    0.63
   1  -5   8   26.42    0.53
   1  -5   8   26.43    0.64
   1  -5   8   26.97    0.62
   1  -5   8   26.67    0.61
   1  -5   8   26.23    0.65
  -2   5  -8   10.00    0.38
  -2   5  -8   10.48    0.41
  -2   5  -8   10.48    0.38
   2  -5   8   10.34    0.42
   2  -5   8   10.84    0.35
   2  -5   8   10.89    0.39
   2  -5   8   10.04    0.41
   2  -5   8   10.36    0.37
  -3   5  -8   17.09    0.51
  -3   5  -8   16.40    0.47
  -3   5  -8   16.72    0.48
   3  -5   8   16.64    0.52
   3  -5   8   16.21    0.48
   3  -5   8   16.09    0.44
   3  -5   8   16.99    0.54
  -4   5  -8    4.95    0.32
  -4   5  -8    4.72    0.31
  -4   5  -8    5.09    0.36
   4  -5   8    4.57    0.33
   4  -5   8    5.39    0.30
   4  -5   8    4.05    0.30
   4  -5   8    4.25    0.35
  -5   5  -8    0.56    0.18
  -5   5  -8    0.31    0.18
  -5   5  -8    0.21    0.18
   5  -5   8    0.12    0.18
   5  -5   8    0.42    0.18
   5  -5   8    0.37    0.16
   5  -5   8    0.32    0.16
  -6   5  -8    3.04    0.30
  -6   5  -8    3.23    0.35
  -6   5  -8    2.87    0.33
   6  -5   8    3.20    0.32
   6  -5   8    3.43    0.36
   6  -5   8    2.94    0.29
  -7   5  -8    3.22    0.36
  -7   5  -8    3.23    0.37
   7  -5   8    2.56    0.31
   7  -5   8    2.80    0.32
   7  -5   8    3.27    0.38
   6   4  -8    1.78    0.29
   6   4  -8    2.20    0.33
   6   4  -8    2.08    0.35
  -6  -4   8    3.41    0.39
   5   4  -8    3.76    0.38
   5   4  -8    3.10    0.32
   5   4  -8    3.07    0.34
  -5  -4   8    3.63    0.36
   4   4  -8    7.68    0.34
   4   4  -8    8.96    0.47
   4   4  -8    7.19    0.42
  -4  -4   8    7.96    0.44
   3   4  -8    2.35    0.23
   3   4  -8    2.77    0.29
   3   4  -8    1.95    0.24
  -3  -4   8    2.83    0.28
   2   4  -8   -0.03    0.12
   2   4  -8    0.08    0.13
   2   4  -8    0.06    0.12
  -2  -4   8    0.33    0.14
  -2  -4   8    0.08    0.13
   1   4  -8   27.50    0.61
   1   4  -8   27.56    0.65
   1   4  -8   27.02    0.52
   1   4  -8   27.44    0.62
  -1  -4   8   26.93    0.49
  -1  -4   8   26.75    0.61
  -1  -4   8   27.65    0.64
  -1  -4   8   27.73    0.64
   0   4  -8   20.33    0.53
   0   4  -8   19.86    0.47
   0   4  -8   20.42    0.48
   0   4  -8   20.32    0.54
   0  -4   8   21.82    0.54
   0  -4   8   20.94    0.52
   0  -4   8   21.55    0.55
   0  -4   8   20.81    0.41
   0  -4   8   20.50    0.52
  -1   4  -8    9.76    0.35
  -1   4  -8    9.65    0.30
  -1   4  -8    9.90    0.29
  -1   4  -8    9.89    0.34
  -1   4  -8    8.90    0.35
   1  -4   8    9.85    0.36
   1  -4   8   10.03    0.29
   1  -4   8    9.88    0.36
   1  -4   8    9.59    0.36
   1  -4   8    8.92    0.36
  -2   4  -8   15.53    0.46
  -2   4  -8   14.24    0.41
  -2   4  -8   15.19    0.40
  -2   4  -8   14.87    0.45
   2  -4   8   14.23    0.44
   2  -4   8   14.81    0.44
   2  -4   8   14.06    0.36
   2  -4   8   14.47    0.47
  -3   4  -8    0.22    0.12
  -3   4  -8    0.04    0.10
  -3   4  -8    0.05    0.12
  -3   4  -8    0.15    0.13
   3  -4   8    0.20    0.11
   3  -4   8    0.07    0.11
   3  -4   8    0.26    0.14
   3  -4   8    0.05    0.14
   3  -4   8    0.27    0.14
  -4   4  -8   -0.12    0.12
  -4   4  -8    0.13    0.15
  -4   4  -8    0.05    0.13
   4  -4   8    0.01    0.14
   4  -4   8    0.11    0.12
   4  -4   8   -0.13    0.14
   4  -4   8    0.11    0.11
   4  -4   8    0.04    0.14
  -5   4  -8    0.90    0.20
  -5   4  -8    0.83    0.19
   5  -4   8    0.56    0.17
   5  -4   8    0.49    0.19
   5  -4   8    0.80    0.20
   5  -4   8    0.38    0.18
  -6   4  -8    5.98    0.43
  -6   4  -8    5.33    0.39
  -6   4  -8    4.89    0.34
   6  -4   8    4.51    0.40
   6  -4   8    5.66    0.39
   6  -4   8    4.96    0.36
  -7   4  -8    0.96    0.27
  -7   4  -8    0.61    0.24
   7  -4   8    0.66    0.21
   7  -4   8    0.50    0.23
   7  -4   8    1.10    0.28
   7   3  -8   11.99    0.56
   7   3  -8   12.06    0.66
   7   3  -8   12.78    0.62
  -7  -3   8   11.60    0.62
   6   3  -8    3.51    0.40
   6   3  -8    3.58    0.38
   6   3  -8    2.98    0.33
  -6  -3   8    3.81    0.38
   5   3  -8    3.59    0.29
   5   3  -8    2.80    0.32
   5   3  -8    3.30    0.32
  -5  -3   8    3.50    0.35
   4   3  -8    6.63    0.39
   4   3  -8    6.68    0.32
   4   3  -8    7.08    0.39
  -4  -3   8    6.55    0.38
   3   3  -8   45.84    0.92
   3   3  -8   46.55    0.85
   3   3  -8   46.22    0.92
  -3  -3   8   46.85    0.93
   2   3  -8   23.03    0.47
   2   3  -8   23.44    0.59
   2   3  -8   23.88    0.56
   2   3  -8   23.35    0.59
  -2  -3   8   22.67    0.58
  -2  -3   8   24.97    0.58
   1   3  -8   22.82    0.56
   1   3  -8   24.59    0.56
   1   3  -8   24.07    0.50
   1   3  -8   22.91    0.54
  -1  -3   8   23.27    0.55
  -1  -3   8   22.97    0.57
  -1  -3   8   24.30    0.55
  -1  -3   8   24.21    0.52
  -1  -3   8   23.84    0.46
   0   3  -8    1.28    0.16
   0   3  -8    1.44    0.17
   0   3  -8    1.10    0.16
   0   3  -8    1.18    0.10
   0   3  -8    1.34    0.16
   0  -3   8    1.37    0.16
   0  -3   8    1.61    0.18
   0  -3   8    1.11    0.16
   0  -3   8    1.39    0.17
   0  -3   8    1.30    0.11
  -1   3  -8    0.64    0.13
  -1   3  -8    0.68    0.13
  -1   3  -8    0.62    0.11
  -1   3  -8    0.56    0.14
   1  -3   8    0.53    0.09
   1  -3   8    0.64    0.14
   1  -3   8    0.84    0.14
   1  -3   8    0.50    0.13
  -2   3  -8    6.98    0.26
  -2   3  -8    7.20    0.28
  -2   3  -8    6.56    0.32
  -2   3  -8    7.59    0.32
   2  -3   8    7.07    0.31
   2  -3   8    7.04    0.33
   2  -3   8    7.66    0.31
   2  -3   8    6.92    0.30
   2  -3   8    7.23    0.26
  -3   3  -8   21.46    0.59
  -3   3  -8   21.45    0.54
  -3   3  -8   22.81    0.55
   3  -3   8   20.70    0.53
   3  -3   8   22.58    0.57
   3  -3   8   21.86    0.58
   3  -3   8   21.70    0.49
   3  -3   8   22.31    0.55
  -4   3  -8    5.15    0.34
  -4   3  -8    5.38    0.32
  -4   3  -8    5.46    0.30
   4  -3   8    4.63    0.30
   4  -3   8    5.30    0.33
   4  -3   8    4.74    0.32
   4  -3   8    5.27    0.30
   4  -3   8    5.18    0.33
  -5   3  -8    1.66    0.26
  -5   3  -8    1.59    0.21
  -5   3  -8    1.84    0.25
   5  -3   8    1.52    0.23
   5  -3   8    1.82    0.24
   5  -3   8    1.62    0.25
   5  -3   8    2.01    0.23
   5  -3   8    1.80    0.25
  -6   3  -8    2.54    0.32
   6  -3   8    3.13    0.35
   6  -3   8    3.41    0.34
   6  -3   8    3.16    0.33
   6  -3   8    2.61    0.28
  -7   3  -8    1.98    0.32
   7  -3   8    1.82    0.30
   7  -3   8    1.54    0.28
   7  -3   8    1.68    0.31
   7   2  -8    0.12    0.19
   7   2  -8    0.34    0.22
   7   2  -8    0.09    0.19
  -7  -2   8    0.05    0.20
   6   2  -8    5.29    0.42
   6   2  -8    5.19    0.39
  -6  -2   8    5.09    0.42
   5   2  -8    0.17    0.15
   5   2  -8    0.01    0.14
   5   2  -8    0.09    0.12
  -5  -2   8    0.04    0.14
   4   2  -8    0.68    0.17
   4   2  -8    0.90    0.16
   4   2  -8    0.43    0.16
  -4  -2   8    0.93    0.19
   3   2  -8    2.15    0.22
   3   2  -8    2.45    0.18
   3   2  -8    2.19    0.21
   3   2  -8    2.11    0.22
  -3  -2   8    2.04    0.22
   2   2  -8   42.52    0.73
   2   2  -8   42.57    0.81
   2   2  -8   42.56    0.78
  -2  -2   8   41.23    0.80
  -2  -2   8   42.48    0.75
  -2  -2   8   42.88    0.79
   1   2  -8    1.40    0.17
   1   2  -8    1.27    0.15
   1   2  -8    1.46    0.17
  -1  -2   8    1.33    0.18
  -1  -2   8    1.52    0.16
  -1  -2   8    1.32    0.14
  -1  -2   8    1.02    0.16
   0   2  -8   28.64    0.59
   0   2  -8   28.04    0.60
   0   2  -8   27.04    0.56
   0   2  -8   28.17    0.46
   0  -2   8   27.11    0.40
   0  -2   8   27.96    0.52
   0  -2   8   28.26    0.59
   0  -2   8   28.37    0.56
   0  -2   8   27.60    0.61
  -1   2  -8    2.54    0.22
  -1   2  -8    3.06    0.23
  -1   2  -8    2.63    0.19
  -1   2  -8    2.77    0.17
   1  -2   8    2.63    0.19
   1  -2   8    2.80    0.15
   1  -2   8    2.78    0.21
   1  -2   8    2.61    0.22
   1  -2   8    2.73    0.22
  -2   2  -8   21.71    0.57
  -2   2  -8   21.01    0.52
  -2   2  -8   21.90    0.43
  -2   2  -8   22.30    0.51
   2  -2   8   21.52    0.44
   2  -2   8   22.06    0.50
   2  -2   8   21.20    0.54
   2  -2   8   22.02    0.55
   2  -2   8   22.01    0.53
  -3   2  -8    5.46    0.30
  -3   2  -8    5.31    0.32
  -3   2  -8    4.97    0.28
   3  -2   8    4.79    0.30
   3  -2   8    4.83    0.31
   3  -2   8    4.78    0.29
   3  -2   8    5.00    0.30
  -4   2  -8    0.08    0.15
  -4   2  -8    0.51    0.14
  -4   2  -8    0.30    0.15
   4  -2   8    0.29    0.15
   4  -2   8    0.23    0.16
   4  -2   8    0.48    0.16
   4  -2   8    0.35    0.16
  -5   2  -8    0.21    0.17
  -5   2  -8   -0.01    0.16
   5  -2   8   -0.07    0.16
   5  -2   8    0.09    0.16
   5  -2   8    0.44    0.20
   5  -2   8    0.07    0.16
  -6   2  -8    8.42    0.50
   6  -2   8    7.83    0.47
   6  -2   8    8.13    0.50
   6  -2   8    8.71    0.49
  -7   2  -8   12.57    0.63
   7  -2   8   11.22    0.58
   7  -2   8   12.01    0.60
   7  -2   8   11.32    0.62
   8   1  -8    0.35    0.22
   8   1  -8    0.15    0.20
   8   1  -8    0.37    0.23
  -8  -1   8    0.11    0.22
   7   1  -8   14.44    0.58
   7   1  -8   14.53    0.60
  -7  -1   8   15.22    0.60
   6   1  -8    7.49    0.44
   6   1  -8    8.56    0.37
   6   1  -8    7.79    0.42
  -6  -1   8    8.20    0.43
   5   1  -8   10.25    0.45
   5   1  -8   10.78    0.40
   5   1  -8   11.04    0.46
  -5  -1   8   10.86    0.45
   4   1  -8    9.09    0.36
   4   1  -8    9.30    0.39
   4   1  -8    9.46    0.33
  -4  -1   8    8.99    0.39
  -4  -1   8    9.18    0.38
   3   1  -8    9.86    0.38
   3   1  -8   10.22    0.37
   3   1  -8   10.01    0.33
  -3  -1   8   10.14    0.38
  -3  -1   8    9.56    0.37
   2   1  -8   32.13    0.66
   2   1  -8   31.51    0.63
   2   1  -8   30.82    0.64
   2   1  -8   30.82    0.47
   2   1  -8   30.18    0.50
  -2  -1   8   31.22    0.65
  -2  -1   8   31.70    0.63
  -2  -1   8   32.01    0.56
  -2  -1   8   31.86    0.65
   1   1  -8   41.05    0.76
   1   1  -8   39.56    0.74
   1   1  -8   39.12    0.59
   1   1  -8   40.30    0.74
   1   1  -8   41.14    0.57
   1   1  -8   41.43    0.62
  -1  -1   8   42.50    0.66
  -1  -1   8   41.82    0.73
  -1  -1   8   41.39    0.74
  -1  -1   8   41.19    0.61
   0   1  -8   65.34    1.03
   0   1  -8   65.99    0.92
   0   1  -8   65.97    1.06
   0   1  -8   64.40    0.94
   0   1  -8   64.89    0.89
   0   1  -8   64.60    0.98
   0  -1   8   65.30    1.08
   0  -1   8   66.02    0.94
   0  -1   8   64.15    0.89
   0  -1   8   65.84    0.97
   0  -1   8   63.38    0.80
   0  -1   8   66.28    1.02
  -1   1  -8    4.44    0.21
  -1   1  -8    4.78    0.24
  -1   1  -8    5.02    0.26
  -1   1  -8    4.94    0.23
  -1   1  -8    4.84    0.28
   1  -1   8    4.80    0.27
   1  -1   8    5.35    0.21
   1  -1   8    4.99    0.29
   1  -1   8    4.73    0.22
   1  -1   8    4.90    0.24
  -2   1  -8   14.00    0.41
  -2   1  -8   13.99    0.43
  -2   1  -8   14.73    0.43
   2  -1   8   14.92    0.42
   2  -1   8   14.21    0.40
   2  -1   8   14.47    0.47
   2  -1   8   14.56    0.44
  -3   1  -8    0.67    0.14
  -3   1  -8    0.81    0.17
  -3   1  -8    0.39    0.15
   3  -1   8    0.86    0.18
   3  -1   8    0.36    0.16
   3  -1   8    0.63    0.17
   3  -1   8    0.97    0.16
  -4   1  -8    6.45    0.39
  -4   1  -8    6.68    0.39
   4  -1   8    6.67    0.39
   4  -1   8    6.33    0.35
   4  -1   8    6.78    0.40
   4  -1   8    5.95    0.35
  -5   1  -8    0.01    0.17
  -5   1  -8    0.11    0.17
   5  -1   8   -0.03    0.18
   5  -1   8    0.46    0.20
   5  -1   8    0.31    0.21
   5  -1   8    0.16    0.18
  -6   1  -8    0.99    0.26
  -6   1  -8    1.02    0.25
   6  -1   8    0.83    0.25
   6  -1   8    0.72    0.24
   6  -1   8    0.48    0.24
   8   0  -8    1.34    0.28
   8   0  -8    1.54    0.28
   8   0  -8    1.15    0.26
  -8   0   8    1.13    0.26
   7   0  -8   13.06    0.49
   7   0  -8   13.62    0.56
   7   0  -8   13.17    0.56
  -7   0   8   12.43    0.53
   6   0  -8    5.98    0.34
   6   0  -8    6.68    0.50
   6   0  -8    6.50    0.40
   6   0  -8    6.87    0.39
  -6   0   8    7.13    0.41
  -6   0   8    6.58    0.38
   5   0  -8   26.64    0.68
   5   0  -8   27.61    0.66
   5   0  -8   26.40    0.61
  -5   0   8   26.23    0.68
  -5   0   8   26.75    0.66
   4   0  -8    0.19    0.13
   4   0  -8   -0.03    0.11
   4   0  -8   -0.01    0.09
  -4   0   8   -0.10    0.12
  -4   0   8   -0.09    0.11
   3   0  -8   12.25    0.41
   3   0  -8   12.47    0.43
   3   0  -8   13.04    0.41
   3   0  -8   12.48    0.30
  -3   0   8   12.60    0.42
  -3   0   8   12.61    0.40
   2   0  -8    5.65    0.21
   2   0  -8    5.62    0.28
   2   0  -8    5.37    0.28
   2   0  -8    6.33    0.30
   2   0  -8    6.07    0.17
  -2   0   8    5.99    0.27
  -2   0   8    6.64    0.29
  -2   0   8    5.88    0.29
  -2   0   8    5.69    0.19
   1   0  -8   29.11    0.50
   1   0  -8   28.06    0.41
   1   0  -8   28.89    0.64
   1   0  -8   29.59    0.54
   1   0  -8   29.08    0.61
   1   0  -8   28.54    0.60
  -1   0   8   29.01    0.47
  -1   0   8   29.60    0.58
  -1   0   8   29.28    0.66
  -1   0   8   29.27    0.42
  -1   0   8   29.41    0.58
   0   0  -8    3.19    0.26
   0   0  -8    3.34    0.21
   0   0  -8    3.34    0.20
   0   0  -8    3.92    0.23
   0   0  -8    3.40    0.21
   0   0   8    3.43    0.19
   0   0   8    3.71    0.26
   0   0   8    3.34    0.16
   0   0   8    3.92    0.21
   0   0   8    3.57    0.23
  -1   0  -8    7.90    0.30
  -1   0  -8    8.43    0.37
  -1   0  -8    8.28    0.26
  -1   0  -8    8.56    0.33
  -1   0  -8    8.27    0.32
   1   0   8    8.14    0.29
   1   0   8    8.05    0.37
   1   0   8    8.33    0.34
   1   0   8    8.02    0.27
   1   0   8    7.36    0.25
  -2   0  -8    0.50    0.14
  -2   0  -8    0.44    0.13
  -2   0  -8    0.58    0.15
  -2   0  -8    0.54    0.17
   2   0   8    0.41    0.13
   2   0   8    0.67    0.13
   2   0   8    0.34    0.15
   2   0   8    0.41    0.16
  -3   0  -8    1.84    0.24
  -3   0  -8    1.47    0.23
  -3   0  -8    1.71    0.24
   3   0   8    1.53    0.20
   3   0   8    1.41    0.22
   3   0   8    1.94    0.23
   3   0   8    1.75    0.18
   3   0   8    1.75    0.25
  -4   0  -8    9.10    0.46
  -4   0  -8    8.72    0.47
   4   0   8    8.90    0.42
   4   0   8    8.91    0.49
   4   0   8    8.91    0.42
   4   0   8    8.62    0.45
  -5   0  -8    1.36    0.26
  -5   0  -8    1.34    0.27
   5   0   8    1.50    0.26
   5   0   8    1.50    0.28
   5   0   8    1.42    0.28
  -6   0  -8    6.92    0.52
  -6   0  -8    6.45    0.49
   6   0   8    6.61    0.50
   6   0   8    6.53    0.49
   6   0   8    6.93    0.51
   8  -1  -8    9.86    0.45
   8  -1  -8   10.43    0.53
   8  -1  -8    9.06    0.50
  -8   1   8    9.88    0.70
   7  -1  -8    0.47    0.17
   7  -1  -8    0.53    0.17
   7  -1  -8    0.43    0.19
  -7   1   8    0.41    0.20
  -7   1   8    0.41    0.18
   6  -1  -8    5.52    0.32
   6  -1  -8    5.74    0.34
   6  -1  -8    6.04    0.38
  -6   1   8    5.32    0.37
  -6   1   8    5.54    0.34
   5  -1  -8    0.84    0.19
   5  -1  -8    0.76    0.17
   5  -1  -8    0.91    0.17
  -5   1   8    0.76    0.18
  -5   1   8    0.99    0.17
   4  -1  -8    1.22    0.18
   4  -1  -8    1.37    0.19
   4  -1  -8    1.59    0.15
   4  -1  -8    1.64    0.22
  -4   1   8    1.42    0.20
  -4   1   8    1.18    0.17
   3  -1  -8    3.64    0.21
   3  -1  -8    3.69    0.26
   3  -1  -8    3.51    0.26
  -3   1   8    3.62    0.23
  -3   1   8    3.70    0.26
  -3   1   8    3.49    0.24
   2  -1  -8    3.47    0.25
   2  -1  -8    3.47    0.25
   2  -1  -8    2.66    0.20
  -2   1   8    3.02    0.21
  -2   1   8    2.85    0.25
  -2   1   8    3.30    0.24
   1  -1  -8   61.22    1.07
   1  -1  -8   60.26    1.00
   1  -1  -8   60.98    0.98
  -1   1   8   62.75    0.96
  -1   1   8   61.86    1.08
  -1   1   8   61.48    0.98
   0  -1  -8    2.72    0.25
   0  -1  -8    2.42    0.21
   0  -1  -8    2.25    0.20
   0  -1  -8    2.87    0.22
   0   1   8    2.01    0.20
   0   1   8    2.14    0.23
   0   1   8    2.42    0.20
  -1  -1  -8    3.57    0.24
  -1  -1  -8    4.48    0.30
  -1  -1  -8    3.34    0.25
  -1  -1  -8    3.53    0.26
   1   1   8    3.92    0.27
   1   1   8    3.52    0.21
   1   1   8    3.37    0.31
   1   1   8    3.68    0.21
   1   1   8    4.01    0.26
   1   1   8    4.14    0.23
  -2  -1  -8    5.55    0.35
  -2  -1  -8    6.03    0.34
  -2  -1  -8    5.86    0.34
   2   1   8    5.77    0.30
   2   1   8    6.50    0.40
   2   1   8    5.30    0.27
   2   1   8    5.58    0.33
   2   1   8    5.83    0.31
  -3  -1  -8    0.10    0.15
  -3  -1  -8   -0.18    0.14
  -3  -1  -8    0.05    0.14
   3   1   8    0.15    0.13
   3   1   8    0.18    0.13
   3   1   8    0.01    0.17
   3   1   8   -0.11    0.16
   3   1   8   -0.02    0.14
  -4  -1  -8    2.74    0.32
  -4  -1  -8    2.71    0.32
  -4  -1  -8    2.94    0.33
   4   1   8    2.20    0.27
   4   1   8    2.17    0.27
   4   1   8    2.77    0.31
   4   1   8    1.81    0.30
  -5  -1  -8    5.76    0.48
  -5  -1  -8    5.64    0.44
   5   1   8    4.45    0.44
   5   1   8    4.57    0.41
   5   1   8    5.18    0.43
   8  -2  -8    3.99    0.46
   8  -2  -8    3.91    0.38
   8  -2  -8    3.64    0.35
  -8   2   8    3.24    0.36
   7  -2  -8   12.92    0.52
   7  -2  -8   14.07    0.58
   7  -2  -8   13.63    0.53
  -7   2   8   14.55    0.57
   6  -2  -8    1.80    0.24
   6  -2  -8    1.70    0.24
   6  -2  -8    1.54    0.24
  -6   2   8    1.40    0.20
  -6   2   8    1.24    0.23
   5  -2  -8   37.15    0.81
   5  -2  -8   34.50    0.80
   5  -2  -8   35.01    0.69
  -5   2   8   34.38    0.80
  -5   2   8   34.35    0.70
   4  -2  -8    5.99    0.34
   4  -2  -8    6.60    0.29
   4  -2  -8    5.91    0.34
  -4   2   8    5.99    0.29
  -4   2   8    5.91    0.33
   3  -2  -8    9.18    0.39
   3  -2  -8    8.64    0.33
   3  -2  -8    7.82    0.35
  -3   2   8    8.53    0.29
  -3   2   8    8.38    0.36
  -3   2   8    8.55    0.33
  -3   2   8    8.62    0.39
   2  -2  -8   11.24    0.39
   2  -2  -8   10.98    0.38
   2  -2  -8   11.33    0.44
  -2   2   8   11.21    0.33
  -2   2   8   11.98    0.40
  -2   2   8   10.99    0.44
   1  -2  -8   20.94    0.53
   1  -2  -8   20.36    0.58
   1  -2  -8   20.96    0.54
  -1   2   8   21.05    0.53
  -1   2   8   20.21    0.59
  -1   2   8   20.28    0.48
   0  -2  -8   28.27    0.61
   0  -2  -8   28.85    0.71
   0  -2  -8   29.98    0.68
   0   2   8   28.95    0.74
   0   2   8   30.29    0.62
   0   2   8   29.18    0.62
   0   2   8   29.34    0.68
  -1  -2  -8    2.56    0.26
  -1  -2  -8    2.40    0.25
  -1  -2  -8    2.42    0.27
   1   2   8    2.63    0.30
   1   2   8    2.58    0.24
   1   2   8    2.60    0.21
   1   2   8    3.03    0.26
  -2  -2  -8    8.80    0.43
  -2  -2  -8    8.78    0.43
  -2  -2  -8    8.06    0.42
   2   2   8    7.63    0.38
   2   2   8    8.45    0.39
   2   2   8    7.54    0.45
  -3  -2  -8    2.89    0.31
  -3  -2  -8    2.28    0.29
  -3  -2  -8    3.10    0.34
   3   2   8    3.20    0.29
   3   2   8    2.65    0.34
   3   2   8    2.77    0.31
  -4  -2  -8    5.47    0.46
  -4  -2  -8    4.24    0.40
  -4  -2  -8    5.22    0.41
   4   2   8    4.50    0.44
   4   2   8    4.61    0.39
   8  -3  -8    8.48    0.51
   8  -3  -8    8.00    0.48
   8  -3  -8    9.51    0.49
  -8   3   8    8.54    0.50
   7  -3  -8    7.88    0.44
   7  -3  -8    7.86    0.44
  -7   3   8    6.44    0.43
   6  -3  -8    2.57    0.24
   6  -3  -8    2.98    0.31
   6  -3  -8    2.47    0.27
  -6   3   8    2.30    0.28
   5  -3  -8    8.58    0.41
   5  -3  -8    9.42    0.44
   5  -3  -8    8.76    0.37
  -5   3   8    8.59    0.43
   4  -3  -8   24.23    0.60
   4  -3  -8   23.83    0.64
   4  -3  -8   23.70    0.67
  -4   3   8   23.71    0.65
  -4   3   8   24.43    0.65
   3  -3  -8    5.38    0.31
   3  -3  -8    5.63    0.33
   3  -3  -8    5.44    0.34
  -3   3   8    5.33    0.34
  -3   3   8    5.20    0.33
   2  -3  -8    0.46    0.15
   2  -3  -8    0.43    0.15
   2  -3  -8    0.83    0.19
  -2   3   8    0.48    0.16
  -2   3   8    0.39    0.16
   1  -3  -8    6.64    0.26
   1  -3  -8    6.35    0.37
   1  -3  -8    6.81    0.35
   1  -3  -8    6.57    0.32
  -1   3   8    5.74    0.38
  -1   3   8    6.66    0.37
  -1   3   8    6.79    0.34
   0  -3  -8    0.12    0.14
   0  -3  -8    0.01    0.12
   0  -3  -8    0.00    0.15
   0   3   8   -0.07    0.14
   0   3   8   -0.16    0.12
   0   3   8   -0.18    0.15
   0   3   8    0.30    0.14
  -1  -3  -8    2.60    0.29
  -1  -3  -8    2.22    0.27
  -1  -3  -8    1.88    0.25
   1   3   8    2.15    0.26
   1   3   8    2.36    0.30
   1   3   8    2.07    0.23
  -2  -3  -8    0.36    0.19
  -2  -3  -8    0.33    0.18
  -2  -3  -8    1.04    0.24
   2   3   8    0.05    0.18
   2   3   8    0.28    0.17
   2   3   8    0.51    0.22
  -3  -3  -8    0.14    0.20
  -3  -3  -8    0.47    0.21
  -3  -3  -8    0.47    0.24
   3   3   8    0.51    0.25
   3   3   8    0.56    0.23
   3   3   8    0.02    0.17
   8  -4  -8    4.31    0.40
   8  -4  -8    3.28    0.35
  -8   4   8    3.60    0.39
   7  -4  -8    1.79    0.28
   7  -4  -8    1.38    0.23
   7  -4  -8    1.47    0.26
  -7   4   8    1.11    0.26
   6  -4  -8    4.83    0.39
   6  -4  -8    4.57    0.33
   6  -4  -8    4.22    0.35
  -6   4   8    4.51    0.37
   5  -4  -8    0.45    0.19
   5  -4  -8    0.14    0.15
   5  -4  -8    0.22    0.18
  -5   4   8   -0.06    0.15
   4  -4  -8   26.64    0.68
   4  -4  -8   25.75    0.73
   4  -4  -8   25.15    0.68
  -4   4   8   24.72    0.70
   3  -4  -8    7.82    0.43
   3  -4  -8    8.88    0.41
   3  -4  -8    8.79    0.41
  -3   4   8    8.94    0.44
  -3   4   8    9.07    0.43
   2  -4  -8    3.11    0.28
   2  -4  -8    2.60    0.30
   2  -4  -8    2.40    0.27
  -2   4   8    3.13    0.31
  -2   4   8    2.84    0.28
   1  -4  -8   20.86    0.55
   1  -4  -8   20.41    0.65
   1  -4  -8   20.06    0.62
   1  -4  -8   20.28    0.60
  -1   4   8   19.95    0.59
  -1   4   8   20.88    0.65
  -1   4   8   19.72    0.67
   0  -4  -8    7.58    0.42
   0  -4  -8    7.79    0.43
   0   4   8    8.26    0.45
   0   4   8    8.23    0.39
   0   4   8    8.46    0.49
  -1  -4  -8    3.04    0.33
  -1  -4  -8    3.52    0.34
  -1  -4  -8    3.92    0.38
   1   4   8    3.02    0.36
   1   4   8    4.06    0.38
  -2  -4  -8    4.20    0.40
  -2  -4  -8    5.04    0.45
   2   4   8    4.53    0.40
   2   4   8    4.56    0.45
   8  -5  -8    5.21    0.45
   8  -5  -8    7.52    0.45
   8  -5  -8    6.92    0.49
  -8   5   8    6.86    0.53
   7  -5  -8    0.74    0.21
   7  -5  -8    0.48    0.22
   7  -5  -8    0.46    0.21
  -7   5   8    0.05    0.19
   6  -5  -8    1.00    0.24
   6  -5  -8    1.69    0.28
   6  -5  -8    1.22    0.23
  -6   5   8    1.21    0.26
   5  -5  -8    7.16    0.44
   5  -5  -8    6.16    0.43
   5  -5  -8    6.70    0.40
  -5   5   8    6.44    0.44
   4  -5  -8    0.25    0.18
   4  -5  -8    0.22    0.18
   4  -5  -8    0.37    0.19
  -4   5   8    0.68    0.21
  -4   5   8    0.44    0.18
   3  -5  -8    4.77    0.36
   3  -5  -8    4.83    0.41
   3  -5  -8    4.94    0.35
  -3   5   8    4.93    0.39
  -3   5   8    5.16    0.37
   2  -5  -8    1.47    0.24
   2  -5  -8    1.62    0.27
   2  -5  -8    1.81    0.24
  -2   5   8    1.65    0.26
  -2   5   8    1.72    0.27
  -2   5   8    2.01    0.27
   1  -5  -8    6.41    0.44
   1  -5  -8    6.27    0.42
  -1   5   8    5.88    0.39
  -1   5   8    6.78    0.46
  -1   5   8    6.99    0.48
   0  -5  -8    1.43    0.27
   0  -5  -8    1.14    0.25
   0   5   8    1.03    0.22
   0   5   8    1.16    0.29
   0   5   8    1.60    0.28
  -1  -5  -8   -0.01    0.19
  -1  -5  -8    0.08    0.22
   1   5   8    0.12    0.25
   1   5   8    0.02    0.20
   7  -6  -8    4.29    0.40
   7  -6  -8    4.37    0.44
   7  -6  -8    4.03    0.42
  -7   6   8    3.73    0.41
   6  -6  -8    2.60    0.33
   6  -6  -8    2.64    0.35
   6  -6  -8    2.76    0.34
  -6   6   8    2.46    0.34
   5  -6  -8    0.41    0.22
   5  -6  -8    0.20    0.20
   5  -6  -8    0.31    0.20
  -5   6   8    0.42    0.22
   4  -6  -8    5.91    0.42
   4  -6  -8    5.77    0.41
   4  -6  -8    5.99    0.45
  -4   6   8    6.10    0.44
   3  -6  -8   23.17    0.68
   3  -6  -8   22.90    0.76
   3  -6  -8   22.20    0.73
  -3   6   8   24.07    0.74
  -3   6   8   22.83    0.74
   2  -6  -8    4.31    0.40
   2  -6  -8    4.49    0.42
  -2   6   8    3.94    0.37
  -2   6   8    4.22    0.40
  -2   6   8    4.24    0.40
   1  -6  -8    6.10    0.46
   1  -6  -8    6.98    0.48
  -1   6   8    7.88    0.53
  -1   6   8    6.53    0.51
  -1   6   8    6.68    0.43
   5  -7  -8    0.14    0.24
   5  -7  -8   -0.03    0.19
   5  -7  -8   -0.05    0.21
  -5   7   8    0.20    0.23
   4  -7  -8    1.66    0.31
   4  -7  -8    1.19    0.28
   4  -7  -8    1.77    0.29
  -4   7   8    1.27    0.31
  -1   9  -9    0.66    0.21
  -1   9  -9    0.50    0.24
   1  -9   9    0.71    0.21
   1  -9   9    0.43    0.23
  -2   9  -9    9.49    0.49
  -2   9  -9    9.32    0.56
  -2   9  -9    8.44    0.50
   2  -9   9    8.84    0.47
   2  -9   9    8.62    0.53
  -3   9  -9    3.25    0.38
  -3   9  -9    3.44    0.40
  -3   9  -9    3.21    0.37
   3  -9   9    3.28    0.38
   3  -9   9    3.56    0.34
  -4   9  -9    0.05    0.20
  -4   9  -9    0.50    0.22
  -4   9  -9    0.41    0.23
   4  -9   9   -0.01    0.22
   4  -9   9    0.00    0.19
  -5   9  -9    0.18    0.26
  -5   9  -9    0.42    0.24
  -5   9  -9    0.28    0.23
   5  -9   9    0.39    0.24
   5  -9   9   -0.10    0.21
   1   8  -9    0.05    0.22
   1   8  -9    0.08    0.19
  -1  -8   9    0.18    0.17
  -1  -8   9    0.21    0.20
   0   8  -9    0.02    0.17
   0   8  -9    0.07    0.17
   0   8  -9   -0.04    0.20
   0  -8   9    0.15    0.20
   0  -8   9    0.04    0.16
  -1   8  -9    7.49    0.47
  -1   8  -9    7.09    0.42
  -1   8  -9    6.80    0.42
   1  -8   9    6.43    0.46
   1  -8   9    7.28    0.40
   1  -8   9    6.49    0.38
  -2   8  -9    6.51    0.42
  -2   8  -9    6.42    0.44
  -2   8  -9    6.56    0.46
   2  -8   9    6.52    0.38
   2  -8   9    6.91    0.45
  -3   8  -9   12.47    0.58
  -3   8  -9   11.68    0.53
  -3   8  -9   12.82    0.55
   3  -8   9   11.73    0.47
   3  -8   9   11.92    0.48
   3  -8   9   11.87    0.56
  -4   8  -9    2.06    0.32
  -4   8  -9    2.37    0.31
  -4   8  -9    1.99    0.29
   4  -8   9    1.87    0.24
   4  -8   9    2.07    0.32
   4  -8   9    2.46    0.29
  -5   8  -9    5.80    0.48
  -5   8  -9    5.96    0.46
   5  -8   9    5.43    0.40
   5  -8   9    5.38    0.45
   5  -8   9    6.31    0.38
  -6   8  -9    0.79    0.27
  -6   8  -9    0.36    0.22
   6  -8   9    0.37    0.22
   6  -8   9    0.31    0.19
   6  -8   9    0.26    0.25
   3   7  -9    2.60    0.35
   3   7  -9    2.45    0.35
   3   7  -9    2.22    0.32
  -3  -7   9    2.21    0.31
   2   7  -9   10.21    0.52
   2   7  -9   10.43    0.54
   2   7  -9   10.22    0.55
  -2  -7   9    9.88    0.54
  -2  -7   9   10.01    0.50
   1   7  -9    7.03    0.45
   1   7  -9    7.06    0.43
   1   7  -9    6.26    0.40
   1   7  -9    5.94    0.37
  -1  -7   9    6.45    0.41
  -1  -7   9    6.87    0.45
   0   7  -9    3.54    0.31
   0   7  -9    3.54    0.31
   0   7  -9    3.55    0.36
   0   7  -9    2.99    0.29
   0  -7   9    3.80    0.36
   0  -7   9    3.78    0.33
   0  -7   9    3.34    0.36
  -1   7  -9    2.75    0.32
  -1   7  -9    2.25    0.27
  -1   7  -9    2.01    0.26
   1  -7   9    2.92    0.27
   1  -7   9    1.82    0.21
   1  -7   9    1.98    0.30
   1  -7   9    2.51    0.31
  -2   7  -9    0.64    0.19
  -2   7  -9    0.78    0.21
  -2   7  -9    0.74    0.19
   2  -7   9    0.88    0.23
   2  -7   9    0.66    0.17
   2  -7   9    0.26    0.15
   2  -7   9    0.60    0.20
   2  -7   9    0.70    0.18
  -3   7  -9    3.81    0.33
  -3   7  -9    4.63    0.38
  -3   7  -9    3.83    0.34
   3  -7   9    4.45    0.32
   3  -7   9    4.11    0.31
   3  -7   9    4.84    0.40
   3  -7   9    3.65    0.29
  -4   7  -9    2.34    0.28
  -4   7  -9    2.75    0.31
  -4   7  -9    2.37    0.31
   4  -7   9    2.00    0.25
   4  -7   9    2.91    0.29
   4  -7   9    2.43    0.32
   4  -7   9    2.88    0.34
  -5   7  -9    8.92    0.47
  -5   7  -9    8.81    0.51
   5  -7   9    8.66    0.43
   5  -7   9    8.01    0.50
   5  -7   9    9.17    0.43
  -6   7  -9    1.02    0.27
  -6   7  -9    1.05    0.25
  -6   7  -9    1.09    0.25
   6  -7   9    0.80    0.23
   6  -7   9    0.51    0.20
   6  -7   9    1.43    0.31
  -7   7  -9    2.97    0.37
  -7   7  -9    2.60    0.40
   7  -7   9    2.69    0.33
   7  -7   9    1.97    0.37
   7  -7   9    2.99    0.34
   4   6  -9    1.42    0.29
   4   6  -9    1.50    0.30
   4   6  -9    1.71    0.31
  -4  -6   9    2.15    0.33
   3   6  -9    3.57    0.37
   3   6  -9    3.15    0.34
   3   6  -9    3.85    0.38
  -3  -6   9    3.96    0.38
   2   6  -9    4.21    0.37
   2   6  -9    3.66    0.35
   2   6  -9    3.90    0.31
  -2  -6   9    3.59    0.37
  -2  -6   9    4.30    0.38
   1   6  -9   22.39    0.65
   1   6  -9   22.55    0.61
   1   6  -9   22.07    0.68
  -1  -6   9   22.70    0.68
  -1  -6   9   22.52    0.66
  -1  -6   9   22.38    0.66
   0   6  -9    7.10    0.36
   0   6  -9    8.43    0.39
   0   6  -9    7.82    0.38
   0   6  -9    8.05    0.44
   0  -6   9    7.21    0.40
   0  -6   9    7.90    0.40
   0  -6   9    7.60    0.39
   0  -6   9    8.42    0.50
  -1   6  -9    0.54    0.19
  -1   6  -9    0.50    0.17
  -1   6  -9    0.57    0.16
  -1   6  -9    0.60    0.15
   1  -6   9    0.78    0.18
   1  -6   9    0.53    0.17
   1  -6   9    0.49    0.17
   1  -6   9    0.47    0.13
   1  -6   9    0.40    0.18
  -2   6  -9   33.75    0.79
  -2   6  -9   34.86    0.79
  -2   6  -9   33.75    0.84
   2  -6   9   33.31    0.81
   2  -6   9   33.38    0.74
   2  -6   9   34.25    0.69
   2  -6   9   33.71    0.75
   2  -6   9   33.02    0.79
  -3   6  -9   14.19    0.52
  -3   6  -9   14.00    0.49
  -3   6  -9   14.34    0.56
   3  -6   9   14.60    0.48
   3  -6   9   14.94    0.50
   3  -6   9   14.50    0.53
   3  -6   9   14.38    0.46
   3  -6   9   15.18    0.56
  -4   6  -9    0.40    0.18
  -4   6  -9    0.33    0.17
  -4   6  -9    0.28    0.16
   4  -6   9    0.14    0.18
   4  -6   9    0.40    0.17
   4  -6   9    0.27    0.20
   4  -6   9    0.19    0.15
  -5   6  -9    2.46    0.33
  -5   6  -9    2.50    0.29
  -5   6  -9    2.70    0.31
   5  -6   9    2.74    0.28
   5  -6   9    2.59    0.33
   5  -6   9    2.00    0.26
  -6   6  -9    1.64    0.31
  -6   6  -9    2.05    0.28
  -6   6  -9    1.80    0.28
   6  -6   9    1.45    0.25
   6  -6   9    1.89    0.26
   6  -6   9    2.19    0.33
  -7   6  -9    0.26    0.23
  -7   6  -9    0.73    0.26
   7  -6   9    0.69    0.23
   7  -6   9    0.50    0.27
   7  -6   9    0.46    0.22
   5   5  -9   15.52    0.65
   5   5  -9   15.87    0.68
   5   5  -9   15.51    0.70
  -5  -5   9   16.05    0.67
   4   5  -9    2.45    0.31
   4   5  -9    2.72    0.34
   4   5  -9    2.16    0.31
  -4  -5   9    1.88    0.30
   3   5  -9    0.50    0.21
   3   5  -9    0.89    0.18
   3   5  -9    0.99    0.23
  -3  -5   9    0.39    0.19
   2   5  -9    0.05    0.13
   2   5  -9    0.21    0.16
   2   5  -9    0.28    0.16
  -2  -5   9    0.46    0.18
  -2  -5   9    0.21    0.16
   1   5  -9    0.24    0.16
   1   5  -9    0.09    0.14
   1   5  -9    0.23    0.15
  -1  -5   9   -0.08    0.14
  -1  -5   9    0.12    0.13
  -1  -5   9    0.10    0.14
   0   5  -9    3.49    0.22
   0   5  -9    3.75    0.30
   0   5  -9    3.54    0.27
   0   5  -9    3.79    0.29
   0  -5   9    3.72    0.29
   0  -5   9    4.22    0.30
   0  -5   9    3.58    0.29
   0  -5   9    3.53    0.30
  -1   5  -9    0.08    0.14
  -1   5  -9   -0.03    0.10
  -1   5  -9    0.14    0.14
  -1   5  -9    0.07    0.11
   1  -5   9   -0.14    0.13
   1  -5   9   -0.09    0.12
   1  -5   9    0.08    0.13
   1  -5   9   -0.03    0.11
   1  -5   9   -0.11    0.09
  -2   5  -9    2.46    0.26
  -2   5  -9    2.95    0.26
  -2   5  -9    2.67    0.25
  -2   5  -9    2.27    0.20
   2  -5   9    2.86    0.27
   2  -5   9    2.22    0.23
   2  -5   9    2.62    0.21
   2  -5   9    2.32    0.25
   2  -5   9    2.48    0.26
  -3   5  -9    7.70    0.35
  -3   5  -9    6.89    0.38
  -3   5  -9    6.90    0.38
  -3   5  -9    7.46    0.34
   3  -5   9    7.11    0.38
   3  -5   9    6.93    0.41
   3  -5   9    7.23    0.36
   3  -5   9    6.69    0.31
  -4   5  -9    0.20    0.15
  -4   5  -9    0.38    0.17
   4  -5   9    0.07    0.15
   4  -5   9    0.19    0.17
   4  -5   9    0.17    0.17
   4  -5   9    0.22    0.14
  -5   5  -9   13.59    0.51
  -5   5  -9   13.88    0.60
  -5   5  -9   14.31    0.55
   5  -5   9   13.84    0.52
   5  -5   9   14.29    0.58
   5  -5   9   14.76    0.74
   5  -5   9   14.23    0.50
  -6   5  -9    0.36    0.20
  -6   5  -9    0.62    0.24
  -6   5  -9    0.33    0.20
   6  -5   9    0.53    0.19
   6  -5   9    0.56    0.25
   6  -5   9    0.26    0.20
  -7   5  -9    1.60    0.30
  -7   5  -9    0.93    0.26
   7  -5   9    1.39    0.31
   7  -5   9    1.49    0.28
   7  -5   9    1.19    0.27
   6   4  -9    0.04    0.22
   6   4  -9    0.07    0.20
   6   4  -9    0.04    0.20
  -6  -4   9    0.36    0.25
   5   4  -9    0.34    0.18
   5   4  -9    0.34    0.21
   5   4  -9    0.34    0.21
  -5  -4   9    0.28    0.20
   4   4  -9   29.68    0.82
   4   4  -9   29.52    0.69
   4   4  -9   29.03    0.80
  -4  -4   9   30.03    0.82
   3   4  -9    1.84    0.25
   3   4  -9    2.37    0.28
   3   4  -9    1.53    0.20
  -3  -4   9    1.73    0.25
   2   4  -9   17.14    0.51
   2   4  -9   16.39    0.54
   2   4  -9   17.41    0.54
  -2  -4   9   17.26    0.55
  -2  -4   9   17.62    0.53
   1   4  -9    5.80    0.32
   1   4  -9    5.93    0.27
   1   4  -9    6.11    0.33
   1   4  -9    6.27    0.35
  -1  -4   9    6.21    0.31
  -1  -4   9    5.84    0.33
  -1  -4   9    6.02    0.34
  -1  -4   9    6.43    0.33
   0   4  -9   53.53    0.90
   0   4  -9   53.62    0.91
   0   4  -9   53.67    0.97
   0   4  -9   52.71    0.97
   0  -4   9   52.71    0.96
   0  -4   9   53.94    0.98
   0  -4   9   53.44    0.94
   0  -4   9   52.62    0.97
  -1   4  -9    4.03    0.28
  -1   4  -9    3.90    0.27
  -1   4  -9    3.71    0.21
  -1   4  -9    3.74    0.27
  -1   4  -9    3.93    0.23
   1  -4   9    4.09    0.28
   1  -4   9    3.79    0.20
   1  -4   9    4.52    0.29
   1  -4   9    3.43    0.26
   1  -4   9    4.39    0.30
  -2   4  -9    9.79    0.40
  -2   4  -9   11.02    0.42
  -2   4  -9   10.86    0.36
  -2   4  -9    9.90    0.35
   2  -4   9   11.30    0.41
   2  -4   9    9.97    0.42
   2  -4   9   10.10    0.32
   2  -4   9   10.03    0.40
  -3   4  -9    0.40    0.15
  -3   4  -9    0.86    0.18
  -3   4  -9    0.54    0.15
   3  -4   9    0.44    0.14
   3  -4   9    0.76    0.19
   3  -4   9    0.57    0.14
   3  -4   9    0.54    0.16
   3  -4   9    0.41    0.16
  -4   4  -9    1.90    0.23
  -4   4  -9    1.40    0.22
  -4   4  -9    1.37    0.23
   4  -4   9    1.55    0.20
   4  -4   9    1.74    0.25
   4  -4   9    1.83    0.26
   4  -4   9    1.74    0.20
   4  -4   9    1.88    0.24
  -5   4  -9   14.94    0.51
  -5   4  -9   16.12    0.57
  -5   4  -9   14.26    0.58
   5  -4   9   13.92    0.54
   5  -4   9   14.53    0.55
   5  -4   9   14.91    0.50
   5  -4   9   14.14    0.57
  -6   4  -9    1.29    0.26
  -6   4  -9    1.35    0.28
   6  -4   9    1.30    0.27
   6  -4   9    1.34    0.26
   6  -4   9    1.21    0.24
  -7   4  -9    1.65    0.32
  -7   4  -9    1.65    0.31
   7  -4   9    2.33    0.31
   7  -4   9    2.01    0.35
   7  -4   9    1.87    0.31
   6   3  -9    0.53    0.22
   6   3  -9    0.71    0.23
   6   3  -9    0.97    0.26
  -6  -3   9    1.06    0.26
   5   3  -9    7.10    0.36
   5   3  -9    7.87    0.46
   5   3  -9    7.49    0.44
  -5  -3   9    7.00    0.44
   4   3  -9    0.57    0.16
   4   3  -9    0.56    0.19
   4   3  -9    0.84    0.21
  -4  -3   9    0.57    0.18
   3   3  -9    0.30    0.16
   3   3  -9    0.54    0.17
   3   3  -9    0.48    0.15
  -3  -3   9    0.38    0.16
   2   3  -9    2.89    0.26
   2   3  -9    2.68    0.24
   2   3  -9    3.03    0.21
   2   3  -9    3.41    0.26
  -2  -3   9    3.82    0.27
  -2  -3   9    3.14    0.27
   1   3  -9    3.40    0.25
   1   3  -9    2.79    0.24
   1   3  -9    2.85    0.24
   1   3  -9    2.67    0.21
  -1  -3   9    2.73    0.21
  -1  -3   9    3.01    0.24
  -1  -3   9    2.89    0.24
  -1  -3   9    3.04    0.26
   0   3  -9   35.45    0.71
   0   3  -9   33.06    0.71
   0   3  -9   33.99    0.69
   0  -3   9   32.03    0.64
   0  -3   9   33.33    0.70
   0  -3   9   33.54    0.72
   0  -3   9   33.46    0.68
  -1   3  -9    1.96    0.20
  -1   3  -9    2.32    0.22
  -1   3  -9    2.58    0.24
  -1   3  -9    2.17    0.17
   1  -3   9    2.19    0.22
   1  -3   9    2.10    0.22
   1  -3   9    1.85    0.19
   1  -3   9    2.03    0.16
  -2   3  -9   27.93    0.64
  -2   3  -9   28.13    0.56
  -2   3  -9   27.35    0.58
  -2   3  -9   27.24    0.67
   2  -3   9   27.65    0.64
   2  -3   9   27.08    0.52
   2  -3   9   27.73    0.64
   2  -3   9   27.25    0.64
   2  -3   9   27.46    0.62
  -3   3  -9    3.37    0.27
  -3   3  -9    3.73    0.32
  -3   3  -9    3.65    0.28
   3  -3   9    4.03    0.32
   3  -3   9    3.40    0.23
   3  -3   9    3.87    0.28
   3  -3   9    3.67    0.28
   3  -3   9    3.98    0.32
  -4   3  -9    0.18    0.15
  -4   3  -9    0.26    0.15
  -4   3  -9    0.51    0.17
   4  -3   9    0.26    0.17
   4  -3   9    0.51    0.15
   4  -3   9    0.35    0.18
   4  -3   9    0.34    0.16
   4  -3   9    0.55    0.17
  -5   3  -9   -0.03    0.15
  -5   3  -9    0.22    0.18
  -5   3  -9    0.16    0.18
   5  -3   9    0.20    0.16
   5  -3   9    0.33    0.17
   5  -3   9    0.19    0.18
   5  -3   9    0.22    0.18
   5  -3   9    0.38    0.19
  -6   3  -9    4.12    0.39
   6  -3   9    2.89    0.35
   6  -3   9    3.24    0.31
   6  -3   9    3.12    0.36
  -7   3  -9    0.43    0.25
   7  -3   9    0.25    0.26
   7  -3   9    0.76    0.25
   7  -3   9    0.40    0.25
   7   2  -9   11.15    0.60
   7   2  -9   10.05    0.53
   7   2  -9   12.45    0.61
  -7  -2   9   11.01    0.57
   6   2  -9   14.80    0.59
   6   2  -9   14.58    0.50
   6   2  -9   14.58    0.60
  -6  -2   9   14.79    0.59
   5   2  -9   16.54    0.51
   5   2  -9   16.39    0.59
   5   2  -9   16.06    0.59
  -5  -2   9   16.15    0.58
   4   2  -9   10.17    0.44
   4   2  -9   11.70    0.43
   4   2  -9   10.29    0.46
  -4  -2   9   11.01    0.45
   3   2  -9   29.22    0.60
   3   2  -9   28.49    0.70
   3   2  -9   29.99    0.67
  -3  -2   9   30.90    0.71
   2   2  -9    4.16    0.27
   2   2  -9    4.37    0.29
   2   2  -9    3.56    0.24
  -2  -2   9    3.74    0.28
  -2  -2   9    3.89    0.26
  -2  -2   9    4.44    0.26
   1   2  -9   16.16    0.46
   1   2  -9   15.91    0.47
   1   2  -9   16.00    0.46
  -1  -2   9   15.93    0.38
  -1  -2   9   16.06    0.48
  -1  -2   9   15.91    0.46
  -1  -2   9   16.09    0.42
   0   2  -9    1.16    0.17
   0   2  -9    1.18    0.17
   0   2  -9    1.06    0.11
   0   2  -9    1.02    0.16
   0  -2   9    0.94    0.17
   0  -2   9    1.08    0.16
   0  -2   9    1.19    0.19
   0  -2   9    0.97    0.14
  -1   2  -9    0.47    0.14
  -1   2  -9    0.45    0.14
  -1   2  -9    0.54    0.12
  -1   2  -9    0.62    0.12
   1  -2   9    0.53    0.15
   1  -2   9    0.30    0.14
   1  -2   9    0.34    0.14
   1  -2   9    0.45    0.12
  -2   2  -9   26.42    0.68
  -2   2  -9   26.57    0.62
  -2   2  -9   27.61    0.60
   2  -2   9   26.85    0.62
   2  -2   9   27.69    0.65
   2  -2   9   27.51    0.59
   2  -2   9   27.04    0.65
   2  -2   9   25.86    0.51
  -3   2  -9    7.76    0.37
  -3   2  -9    8.01    0.41
  -3   2  -9    8.11    0.35
   3  -2   9    8.30    0.40
   3  -2   9    7.99    0.40
   3  -2   9    7.47    0.37
   3  -2   9    8.09    0.36
  -4   2  -9    0.03    0.16
  -4   2  -9    0.18    0.13
  -4   2  -9    0.32    0.16
   4  -2   9    0.29    0.15
   4  -2   9    0.25    0.16
   4  -2   9    0.00    0.15
   4  -2   9   -0.14    0.16
  -5   2  -9    1.95    0.29
  -5   2  -9    1.97    0.29
   5  -2   9    1.95    0.29
   5  -2   9    2.08    0.28
   5  -2   9    1.65    0.27
   5  -2   9    1.59    0.25
  -6   2  -9    1.36    0.30
  -6   2  -9    1.45    0.29
   6  -2   9    1.41    0.29
   6  -2   9    1.23    0.27
   6  -2   9    1.11    0.27
   7   1  -9    0.34    0.22
   7   1  -9    0.47    0.22
  -7  -1   9    0.83    0.23
   6   1  -9    1.22    0.25
   6   1  -9    1.44    0.22
   6   1  -9    1.39    0.25
  -6  -1   9    1.39    0.25
   5   1  -9    0.97    0.18
   5   1  -9    0.47    0.18
   5   1  -9    0.86    0.21
  -5  -1   9    0.78    0.20
   4   1  -9   14.19    0.50
   4   1  -9   13.91    0.47
   4   1  -9   13.80    0.42
  -4  -1   9   14.43    0.50
  -4  -1   9   14.34    0.49
   3   1  -9    0.88    0.16
   3   1  -9    1.30    0.17
   3   1  -9    0.86    0.18
  -3  -1   9    1.30    0.20
  -3  -1   9    1.33    0.20
   2   1  -9    1.40    0.18
   2   1  -9    1.43    0.16
   2   1  -9    1.22    0.18
   2   1  -9    1.18    0.17
  -2  -1   9    1.18    0.17
  -2  -1   9    1.62    0.19
  -2  -1   9    1.68    0.16
  -2  -1   9    0.96    0.17
   1   1  -9    1.58    0.19
   1   1  -9    1.74    0.20
   1   1  -9    1.42    0.18
   1   1  -9    1.66    0.14
  -1  -1   9    1.60    0.18
  -1  -1   9    1.44    0.15
  -1  -1   9    1.42    0.18
  -1  -1   9    1.48    0.12
   0   1  -9   48.49    0.79
   0   1  -9   47.47    0.90
   0   1  -9   47.78    0.86
   0   1  -9   47.83    0.82
   0   1  -9   47.47    0.75
   0  -1   9   47.23    0.85
   0  -1   9   47.99    0.77
   0  -1   9   47.38    0.79
   0  -1   9   47.38    0.72
   0  -1   9   47.68    0.92
  -1   1  -9    1.21    0.17
  -1   1  -9    1.39    0.17
  -1   1  -9    1.47    0.19
  -1   1  -9    0.89    0.19
  -1   1  -9    1.20    0.15
   1  -1   9    1.15    0.19
   1  -1   9    1.19    0.17
   1  -1   9    1.32    0.15
   1  -1   9    1.18    0.14
   1  -1   9    1.42    0.19
  -2   1  -9   32.42    0.71
  -2   1  -9   33.38    0.70
  -2   1  -9   32.24    0.77
  -2   1  -9   33.64    0.69
   2  -1   9   32.96    0.73
   2  -1   9   33.26    0.66
   2  -1   9   31.62    0.76
   2  -1   9   33.72    0.68
  -3   1  -9    2.07    0.27
  -3   1  -9    2.25    0.22
  -3   1  -9    2.19    0.24
   3  -1   9    2.10    0.24
   3  -1   9    1.93    0.21
   3  -1   9    1.69    0.24
   3  -1   9    1.99    0.26
  -4   1  -9    2.49    0.30
  -4   1  -9    1.97    0.29
   4  -1   9    1.73    0.27
   4  -1   9    1.55    0.24
   4  -1   9    1.77    0.26
   4  -1   9    1.49    0.22
  -5   1  -9    0.24    0.20
  -5   1  -9    0.42    0.22
   5  -1   9    0.04    0.20
   5  -1   9    0.28    0.20
   5  -1   9    0.40    0.21
  -6   1  -9    2.33    0.35
  -6   1  -9    2.33    0.35
   6  -1   9    1.62    0.31
   6  -1   9    2.59    0.36
   6  -1   9    2.61    0.36
   8   0  -9    0.29    0.22
   8   0  -9    0.01    0.19
  -8   0   9    0.20    0.22
   7   0  -9    8.77    0.44
   7   0  -9    9.13    0.50
   7   0  -9    9.05    0.50
  -7   0   9    7.89    0.46
   6   0  -9    0.22    0.19
   6   0  -9    0.27    0.16
  -6   0   9   -0.02    0.18
  -6   0   9    0.01    0.15
   5   0  -9   11.73    0.48
   5   0  -9   11.28    0.45
   5   0  -9   11.01    0.41
  -5   0   9   10.30    0.43
  -5   0   9   11.40    0.47
   4   0  -9    0.15    0.14
   4   0  -9   -0.12    0.12
   4   0  -9    0.18    0.13
  -4   0   9    0.26    0.13
  -4   0   9    0.23    0.16
   3   0  -9   49.08    0.94
   3   0  -9   48.72    0.75
   3   0  -9   49.86    0.93
   3   0  -9   49.82    0.93
  -3   0   9   48.88    0.86
  -3   0   9   48.40    0.91
  -3   0   9   50.45    0.94
   2   0  -9    1.83    0.16
   2   0  -9    2.60    0.24
   2   0  -9    2.34    0.23
   2   0  -9    1.76    0.21
  -2   0   9    2.05    0.20
  -2   0   9    1.95    0.20
  -2   0   9    1.85    0.21
   1   0  -9   32.93    0.73
   1   0  -9   32.84    0.67
   1   0  -9   33.19    0.62
   1   0  -9   33.54    0.70
   1   0  -9   32.16    0.57
  -1   0   9   33.66    0.76
  -1   0   9   33.53    0.67
  -1   0   9   32.98    0.66
   0   0  -9   53.02    0.90
   0   0  -9   52.37    0.87
   0   0  -9   52.78    0.93
   0   0  -9   53.50    0.87
   0   0  -9   54.00    1.00
   0   0   9   53.43    0.87
   0   0   9   53.35    1.02
   0   0   9   54.28    0.93
  -1   0  -9    0.73    0.15
  -1   0  -9    0.79    0.16
  -1   0  -9    0.90    0.16
  -1   0  -9    0.87    0.18
  -1   0  -9    0.62    0.15
   1   0   9    0.87    0.19
   1   0   9    1.04    0.14
   1   0   9    1.05    0.18
   1   0   9    0.84    0.15
  -2   0  -9    6.27    0.35
  -2   0  -9    6.04    0.30
  -2   0  -9    6.18    0.38
  -2   0  -9    6.30    0.34
   2   0   9    6.14    0.35
   2   0   9    6.31    0.31
   2   0   9    6.14    0.39
  -3   0  -9   -0.15    0.14
  -3   0  -9   -0.10    0.14
  -3   0  -9    0.10    0.17
   3   0   9    0.11    0.15
   3   0   9    0.03    0.16
   3   0   9    0.05    0.16
   3   0   9   -0.05    0.16
  -4   0  -9    2.75    0.33
  -4   0  -9    2.38    0.31
   4   0   9    2.10    0.31
   4   0   9    2.70    0.30
   4   0   9    2.59    0.31
  -5   0  -9    0.30    0.20
  -5   0  -9    0.10    0.20
   5   0   9    0.07    0.21
   5   0   9    0.06    0.22
   5   0   9   -0.28    0.19
   8  -1  -9    0.05    0.19
   8  -1  -9    0.08    0.20
   8  -1  -9    0.06    0.17
  -8   1   9    0.08    0.22
   7  -1  -9   26.22    0.77
   7  -1  -9   25.75    0.72
  -7   1   9   24.93    0.77
  -7   1   9   24.58    0.70
   6  -1  -9   10.37    0.46
   6  -1  -9    9.69    0.47
   6  -1  -9   10.06    0.44
  -6   1   9   10.07    0.45
  -6   1   9    9.33    0.47
   5  -1  -9    3.83    0.33
   5  -1  -9    4.34    0.31
   5  -1  -9    3.72    0.30
  -5   1   9    3.41    0.31
  -5   1   9    4.30    0.30
   4  -1  -9    5.82    0.34
   4  -1  -9    6.73    0.36
   4  -1  -9    5.65    0.26
   4  -1  -9    5.53    0.34
  -4   1   9    5.56    0.32
  -4   1   9    5.99    0.35
   3  -1  -9   28.87    0.68
   3  -1  -9   29.02    0.58
   3  -1  -9   29.98    0.72
   3  -1  -9   30.03    0.70
  -3   1   9   29.74    0.61
  -3   1   9   28.70    0.65
  -3   1   9   29.45    0.69
   2  -1  -9    4.06    0.30
   2  -1  -9    4.04    0.27
   2  -1  -9    4.08    0.24
  -2   1   9    3.61    0.27
  -2   1   9    4.26    0.25
  -2   1   9    4.38    0.32
   1  -1  -9   30.65    0.73
   1  -1  -9   31.21    0.65
   1  -1  -9   31.06    0.67
   1  -1  -9   30.33    0.60
  -1   1   9   31.10    0.65
  -1   1   9   30.10    0.74
  -1   1   9   30.01    0.63
   0  -1  -9   10.12    0.37
   0  -1  -9   10.39    0.39
   0  -1  -9   11.12    0.39
   0  -1  -9   10.13    0.44
   0   1   9   10.33    0.45
   0   1   9   10.91    0.36
   0   1   9   10.29    0.38
  -1  -1  -9   11.38    0.43
  -1  -1  -9   10.69    0.37
  -1  -1  -9   11.00    0.42
  -1  -1  -9   10.78    0.46
   1   1   9   11.74    0.39
   1   1   9   10.72    0.49
   1   1   9   10.65    0.43
  -2  -1  -9    0.74    0.20
  -2  -1  -9    0.58    0.18
  -2  -1  -9    0.58    0.18
   2   1   9    0.45    0.18
   2   1   9    0.64    0.21
   2   1   9    0.77    0.17
  -3  -1  -9    3.36    0.35
  -3  -1  -9    3.05    0.33
  -3  -1  -9    3.35    0.34
   3   1   9    3.46    0.37
   3   1   9    3.37    0.34
  -4  -1  -9    0.40    0.21
  -4  -1  -9    0.23    0.21
  -4  -1  -9    0.27    0.21
   4   1   9    0.39    0.23
   4   1   9    0.63    0.23
  -5  -1  -9    0.39    0.25
  -5  -1  -9    0.41    0.26
   5   1   9    0.72    0.29
   5   1   9    0.11    0.25
   8  -2  -9   18.55    0.65
   8  -2  -9   17.52    0.68
  -8   2   9   18.10    0.70
   7  -2  -9    4.01    0.38
   7  -2  -9    4.23    0.36
   7  -2  -9    3.82    0.35
  -7   2   9    4.41    0.40
   6  -2  -9   22.88    0.71
   6  -2  -9   22.04    0.67
   6  -2  -9   22.65    0.67
  -6   2   9   21.20    0.67
   5  -2  -9    0.52    0.17
   5  -2  -9    0.67    0.18
   5  -2  -9    0.69    0.15
  -5   2   9    0.69    0.16
  -5   2   9    0.92    0.21
   4  -2  -9    3.21    0.30
   4  -2  -9    3.45    0.25
   4  -2  -9    3.47    0.29
  -4   2   9    3.25    0.26
  -4   2   9    3.25    0.30
   3  -2  -9    4.67    0.33
   3  -2  -9    4.67    0.28
   3  -2  -9    4.52    0.31
  -3   2   9    4.52    0.34
  -3   2   9    4.95    0.29
  -3   2   9    4.72    0.25
  -3   2   9    4.85    0.32
   2  -2  -9    1.61    0.20
   2  -2  -9    1.37    0.20
   2  -2  -9    1.32    0.21
  -2   2   9    1.93    0.22
  -2   2   9    1.36    0.23
  -2   2   9    1.58    0.18
   1  -2  -9    7.00    0.39
   1  -2  -9    6.58    0.33
   1  -2  -9    6.69    0.34
  -1   2   9    7.31    0.40
  -1   2   9    6.78    0.33
  -1   2   9    6.96    0.32
   0  -2  -9    2.91    0.25
   0  -2  -9    3.10    0.30
   0  -2  -9    3.11    0.27
   0  -2  -9    3.32    0.30
   0   2   9    2.59    0.24
   0   2   9    3.00    0.31
   0   2   9    3.42    0.27
  -1  -2  -9   -0.05    0.14
  -1  -2  -9   -0.12    0.13
  -1  -2  -9    0.04    0.14
   1   2   9    0.31    0.19
   1   2   9    0.11    0.14
   1   2   9    0.07    0.15
  -2  -2  -9    2.32    0.29
  -2  -2  -9    2.32    0.31
  -2  -2  -9    1.88    0.28
   2   2   9    2.24    0.25
   2   2   9    2.15    0.27
   2   2   9    1.83    0.29
  -3  -2  -9    2.14    0.31
  -3  -2  -9    2.11    0.31
  -3  -2  -9    1.96    0.30
   3   2   9    2.26    0.34
   3   2   9    1.81    0.29
  -4  -2  -9    1.17    0.29
  -4  -2  -9    0.84    0.27
  -4  -2  -9    1.46    0.28
   4   2   9    1.64    0.31
   4   2   9    1.41    0.31
   8  -3  -9    0.07    0.18
   8  -3  -9    0.13    0.22
   8  -3  -9    0.42    0.21
  -8   3   9   -0.01    0.23
   7  -3  -9    2.32    0.31
   7  -3  -9    2.56    0.32
  -7   3   9    3.37    0.36
   6  -3  -9    0.44    0.16
   6  -3  -9    0.15    0.17
   6  -3  -9    0.07    0.17
  -6   3   9    0.13    0.18
   5  -3  -9   17.65    0.53
   5  -3  -9   18.14    0.63
   5  -3  -9   17.44    0.59
  -5   3   9   18.40    0.62
   4  -3  -9    0.22    0.17
   4  -3  -9    0.53    0.16
   4  -3  -9    0.52    0.18
  -4   3   9    0.44    0.18
   3  -3  -9   35.51    0.81
   3  -3  -9   34.81    0.86
   3  -3  -9   35.58    0.78
  -3   3   9   36.17    0.86
  -3   3   9   37.05    0.83
   2  -3  -9    5.12    0.37
   2  -3  -9    4.65    0.31
   2  -3  -9    4.39    0.31
  -2   3   9    4.75    0.38
  -2   3   9    5.34    0.34
   1  -3  -9    0.10    0.14
   1  -3  -9    0.15    0.17
   1  -3  -9    0.08    0.14
  -1   3   9   -0.14    0.16
  -1   3   9    0.11    0.14
   0  -3  -9   13.16    0.51
   0  -3  -9   12.20    0.52
   0   3   9   12.53    0.45
   0   3   9   12.61    0.57
   0   3   9   12.74    0.52
  -1  -3  -9    6.95    0.43
  -1  -3  -9    6.49    0.42
  -1  -3  -9    6.42    0.43
   1   3   9    6.88    0.47
   1   3   9    6.83    0.40
   1   3   9    6.42    0.40
  -2  -3  -9    4.14    0.39
  -2  -3  -9    3.10    0.35
  -2  -3  -9    4.73    0.43
   2   3   9    3.22    0.32
   2   3   9    4.25    0.36
   2   3   9    3.61    0.40
  -3  -3  -9   -0.14    0.22
  -3  -3  -9    0.31    0.20
   3   3   9    0.10    0.22
   3   3   9   -0.33    0.20
   8  -4  -9   12.03    0.60
   8  -4  -9   12.93    0.61
  -8   4   9   12.37    0.64
   7  -4  -9    3.87    0.39
   7  -4  -9    3.38    0.36
   7  -4  -9    2.67    0.40
  -7   4   9    3.01    0.36
   6  -4  -9    3.46    0.32
   6  -4  -9    3.27    0.36
   6  -4  -9    3.06    0.34
  -6   4   9    2.94    0.33
   5  -4  -9    1.69    0.24
   5  -4  -9    2.07    0.30
   5  -4  -9    1.63    0.27
  -5   4   9    2.10    0.30
   4  -4  -9    0.57    0.20
   4  -4  -9    0.64    0.19
   4  -4  -9    0.77    0.22
  -4   4   9    0.73    0.21
   3  -4  -9    4.34    0.38
   3  -4  -9    5.74    0.36
   3  -4  -9    4.85    0.35
  -3   4   9    5.18    0.40
  -3   4   9    4.68    0.38
   2  -4  -9    7.78    0.41
   2  -4  -9    7.62    0.40
   2  -4  -9    7.64    0.46
  -2   4   9    7.74    0.47
  -2   4   9    8.76    0.43
   1  -4  -9    7.26    0.45
   1  -4  -9    6.91    0.42
  -1   4   9    7.78    0.49
  -1   4   9    7.30    0.40
  -1   4   9    7.52    0.45
   0  -4  -9    1.08    0.24
   0  -4  -9    1.29    0.26
   0   4   9    1.14    0.24
   0   4   9    1.23    0.25
   0   4   9    0.62    0.24
  -1  -4  -9    3.33    0.37
  -1  -4  -9    3.09    0.36
  -1  -4  -9    2.65    0.34
   1   4   9    2.24    0.36
   1   4   9    2.50    0.32
  -2  -4  -9    0.63    0.25
  -2  -4  -9    0.44    0.25
   2   4   9    0.77    0.24
   2   4   9    0.33    0.28
   7  -5  -9    3.45    0.38
   7  -5  -9    2.76    0.32
   7  -5  -9    2.43    0.35
  -7   5   9    2.22    0.35
   6  -5  -9   15.12    0.62
   6  -5  -9   15.26    0.66
   6  -5  -9   14.97    0.58
  -6   5   9   14.66    0.62
   5  -5  -9    0.35    0.21
   5  -5  -9    0.94    0.23
   5  -5  -9    0.97    0.24
  -5   5   9    0.94    0.25
   4  -5  -9    0.21    0.20
   4  -5  -9    0.50    0.21
   4  -5  -9    0.14    0.17
  -4   5   9    0.29    0.20
  -4   5   9    0.50    0.22
   3  -5  -9    1.95    0.28
   3  -5  -9    2.69    0.30
   3  -5  -9    1.39    0.28
  -3   5   9    1.92    0.30
  -3   5   9    1.85    0.28
   2  -5  -9    2.70    0.33
   2  -5  -9    2.76    0.32
  -2   5   9    3.12    0.36
  -2   5   9    3.47    0.35
   1  -5  -9    7.83    0.49
   1  -5  -9    7.38    0.47
  -1   5   9    8.30    0.51
  -1   5   9    8.65    0.55
  -1   5   9    8.47    0.45
   0  -5  -9    2.40    0.33
   0  -5  -9    3.07    0.38
   0   5   9    2.85    0.38
   0   5   9    2.83    0.36
   6  -6  -9    2.74    0.38
   6  -6  -9    1.52    0.30
   6  -6  -9    1.90    0.32
  -6   6   9    2.04    0.33
   5  -6  -9    8.96    0.52
   5  -6  -9   10.28    0.54
   5  -6  -9    9.23    0.56
  -5   6   9    9.25    0.55
   4  -6  -9   -0.41    0.17
   4  -6  -9    0.06    0.20
   4  -6  -9    0.19    0.21
  -4   6   9   -0.23    0.18
   3  -6  -9    0.29    0.22
   3  -6  -9    0.29    0.20
  -3   6   9    0.10    0.21
  -3   6   9    0.45    0.24
   2  -6  -9    0.03    0.22
   2  -6  -9   -0.04    0.18
  -2   6   9    0.10    0.23
  -2   6   9   -0.26    0.17
  -2   6   9   -0.12    0.19
  -1   9 -10    1.33    0.27
  -1   9 -10    1.08    0.30
   1  -9  10    1.81    0.34
  -2   9 -10    1.81    0.33
  -2   9 -10    1.67    0.29
  -2   9 -10    1.36    0.28
   2  -9  10    1.21    0.28
  -3   9 -10    0.45    0.24
  -3   9 -10    0.88    0.26
  -3   9 -10    0.70    0.27
   3  -9  10    0.93    0.26
   3  -9  10    0.80    0.24
  -4   9 -10    1.55    0.30
  -4   9 -10    1.89    0.32
  -4   9 -10    1.76    0.32
   4  -9  10    1.55    0.28
   4  -9  10    1.61    0.32
   1   8 -10    2.52    0.36
   1   8 -10    2.35    0.32
  -1  -8  10    3.24    0.36
  -1  -8  10    3.39    0.41
   0   8 -10   10.86    0.65
   0   8 -10   10.49    0.51
   0   8 -10   10.84    0.59
   0  -8  10   11.58    0.52
   0  -8  10   10.86    0.59
  -1   8 -10    0.41    0.20
  -1   8 -10    0.98    0.23
  -1   8 -10    1.12    0.27
   1  -8  10    0.91    0.28
   1  -8  10    0.52    0.19
  -2   8 -10    9.26    0.51
  -2   8 -10    9.14    0.49
  -2   8 -10    9.37    0.50
   2  -8  10    8.73    0.57
   2  -8  10    8.70    0.52
   2  -8  10    8.34    0.44
  -3   8 -10    0.11    0.19
  -3   8 -10   -0.51    0.16
  -3   8 -10   -0.13    0.20
   3  -8  10   -0.21    0.15
   3  -8  10   -0.06    0.20
   3  -8  10    0.04    0.16
  -4   8 -10    1.15    0.28
  -4   8 -10    1.25    0.26
  -4   8 -10    1.15    0.25
   4  -8  10    1.36    0.30
   4  -8  10    1.75    0.26
   4  -8  10    1.60    0.26
  -5   8 -10   -0.13    0.20
  -5   8 -10   -0.17    0.18
   5  -8  10    0.12    0.16
   5  -8  10   -0.08    0.19
   5  -8  10    0.20    0.24
   2   7 -10    0.58    0.24
   2   7 -10    0.41    0.24
   2   7 -10    0.45    0.22
  -2  -7  10    0.41    0.22
  -2  -7  10    0.44    0.22
   1   7 -10    1.77    0.30
   1   7 -10    1.69    0.25
   1   7 -10    1.84    0.28
  -1  -7  10    1.51    0.26
  -1  -7  10    2.31    0.34
   0   7 -10    3.65    0.33
   0   7 -10    3.33    0.31
   0   7 -10    3.64    0.32
   0   7 -10    3.60    0.36
   0  -7  10    3.66    0.36
   0  -7  10    4.31    0.36
  -1   7 -10    6.92    0.41
  -1   7 -10    6.38    0.44
  -1   7 -10    6.39    0.41
   1  -7  10    6.59    0.38
   1  -7  10    6.51    0.44
   1  -7  10    6.98    0.40
  -2   7 -10   -0.04    0.16
  -2   7 -10    0.42    0.18
  -2   7 -10    0.17    0.18
   2  -7  10    0.28    0.22
   2  -7  10    0.37    0.17
   2  -7  10    0.20    0.16
  -3   7 -10   25.36    0.75
  -3   7 -10   24.92    0.71
  -3   7 -10   25.96    0.80
   3  -7  10   25.03    0.69
   3  -7  10   26.36    0.68
   3  -7  10   25.10    0.65
   3  -7  10   25.73    0.78
  -4   7 -10    0.60    0.24
  -4   7 -10    0.73    0.23
   4  -7  10    0.29    0.18
   4  -7  10    0.58    0.24
   4  -7  10    0.53    0.19
   4  -7  10    0.51    0.19
  -5   7 -10    1.49    0.26
  -5   7 -10    1.20    0.27
  -5   7 -10    1.35    0.28
   5  -7  10    1.11    0.29
   5  -7  10    1.43    0.24
   5  -7  10    1.66    0.25
  -6   7 -10    1.44    0.31
  -6   7 -10    1.65    0.29
  -6   7 -10    1.68    0.30
   6  -7  10    1.54    0.27
   6  -7  10    1.79    0.36
   6  -7  10    1.99    0.31
   4   6 -10    4.09    0.40
   4   6 -10    4.90    0.48
   4   6 -10    4.34    0.44
  -4  -6  10    5.56    0.48
   3   6 -10    1.67    0.29
   3   6 -10    2.12    0.31
   3   6 -10    1.11    0.25
  -3  -6  10    1.84    0.29
   2   6 -10    4.52    0.38
   2   6 -10    4.43    0.41
   2   6 -10    4.95    0.37
  -2  -6  10    4.31    0.37
  -2  -6  10    4.50    0.41
   1   6 -10    0.35    0.21
   1   6 -10    0.61    0.19
   1   6 -10    0.43    0.18
  -1  -6  10    0.31    0.17
  -1  -6  10    0.38    0.19
  -1  -6  10    0.12    0.16
   0   6 -10    1.80    0.24
   0   6 -10    2.58    0.26
   0   6 -10    2.00    0.28
   0   6 -10    1.97    0.25
   0  -6  10    1.99    0.28
   0  -6  10    2.15    0.27
   0  -6  10    1.78    0.25
  -1   6 -10    7.06    0.39
  -1   6 -10    7.09    0.40
  -1   6 -10    6.69    0.41
   1  -6  10    6.41    0.39
   1  -6  10    7.58    0.40
   1  -6  10    6.05    0.40
   1  -6  10    7.12    0.37
  -2   6 -10    0.24    0.17
  -2   6 -10    0.48    0.18
  -2   6 -10    0.27    0.17
   2  -6  10    0.65    0.17
   2  -6  10    0.09    0.17
   2  -6  10    0.40    0.21
   2  -6  10    0.47    0.17
  -3   6 -10    8.24    0.44
  -3   6 -10    8.59    0.48
  -3   6 -10    8.99    0.41
   3  -6  10    9.62    0.42
   3  -6  10    8.28    0.45
   3  -6  10    9.54    0.48
   3  -6  10    8.03    0.37
   3  -6  10    9.09    0.43
  -4   6 -10    4.89    0.44
  -4   6 -10    4.73    0.35
  -4   6 -10    4.77    0.39
   4  -6  10    4.47    0.33
   4  -6  10    5.17    0.37
   4  -6  10    4.35    0.40
  -5   6 -10    0.37    0.21
  -5   6 -10    0.74    0.23
  -5   6 -10    0.48    0.20
   5  -6  10    0.56    0.21
   5  -6  10    0.60    0.19
   5  -6  10    0.62    0.25
  -6   6 -10    2.44    0.33
  -6   6 -10    2.64    0.33
  -6   6 -10    2.47    0.35
   6  -6  10    2.36    0.29
   6  -6  10    2.32    0.35
   6  -6  10    2.52    0.32
   5   5 -10    0.17    0.24
   5   5 -10   -0.01    0.19
   5   5 -10   -0.07    0.21
  -5  -5  10   -0.13    0.20
   4   5 -10    1.35    0.28
   4   5 -10    1.78    0.30
  -4  -5  10    2.23    0.32
   3   5 -10   31.37    0.86
   3   5 -10   32.91    0.86
   3   5 -10   30.98    0.76
  -3  -5  10   32.09    0.85
   2   5 -10    3.97    0.35
   2   5 -10    4.32    0.33
   2   5 -10    4.83    0.37
  -2  -5  10    4.71    0.38
  -2  -5  10    4.50    0.37
   1   5 -10    7.81    0.39
   1   5 -10    7.54    0.39
   1   5 -10    7.44    0.43
  -1  -5  10    7.51    0.40
  -1  -5  10    6.79    0.36
  -1  -5  10    7.77    0.41
   0   5 -10   12.88    0.47
   0   5 -10   11.72    0.40
   0   5 -10   12.65    0.44
   0   5 -10   12.90    0.50
   0  -5  10   13.26    0.50
   0  -5  10   13.19    0.49
   0  -5  10   13.13    0.48
   0  -5  10   12.31    0.46
  -1   5 -10   14.31    0.49
  -1   5 -10   13.01    0.44
  -1   5 -10   11.99    0.47
   1  -5  10   12.13    0.49
   1  -5  10   13.80    0.48
   1  -5  10   12.59    0.47
   1  -5  10   11.82    0.46
  -2   5 -10   25.03    0.66
  -2   5 -10   24.45    0.67
  -2   5 -10   25.56    0.82
  -2   5 -10   25.49    0.63
   2  -5  10   25.34    0.67
   2  -5  10   24.73    0.68
   2  -5  10   25.67    0.66
   2  -5  10   24.85    0.66
  -3   5 -10   21.34    0.65
  -3   5 -10   21.48    0.64
  -3   5 -10   21.96    0.58
   3  -5  10   21.57    0.53
   3  -5  10   21.43    0.62
   3  -5  10   21.58    0.62
   3  -5  10   20.78    0.66
  -4   5 -10    3.26    0.31
  -4   5 -10    4.04    0.37
  -4   5 -10    4.03    0.35
   4  -5  10    2.78    0.31
   4  -5  10    3.46    0.27
   4  -5  10    3.38    0.32
   4  -5  10    3.66    0.36
  -5   5 -10    0.44    0.20
  -5   5 -10    0.33    0.18
   5  -5  10    0.19    0.18
   5  -5  10    0.37    0.17
   5  -5  10    0.10    0.21
  -6   5 -10    0.12    0.20
  -6   5 -10    0.44    0.20
  -6   5 -10    0.11    0.22
   6  -5  10    0.07    0.18
   6  -5  10    0.15    0.19
   6  -5  10   -0.19    0.23
   5   4 -10   14.94    0.65
   5   4 -10   14.15    0.62
  -5  -4  10   13.87    0.63
   4   4 -10    8.47    0.47
   4   4 -10    7.92    0.48
   4   4 -10    9.30    0.42
  -4  -4  10    9.04    0.48
   3   4 -10    0.07    0.16
   3   4 -10    0.22    0.15
   3   4 -10    0.40    0.19
  -3  -4  10    0.34    0.18
  -3  -4  10    0.31    0.18
   2   4 -10   15.31    0.55
   2   4 -10   14.21    0.50
   2   4 -10   15.19    0.53
  -2  -4  10   15.30    0.52
  -2  -4  10   15.36    0.55
   1   4 -10    1.71    0.19
   1   4 -10    1.94    0.22
   1   4 -10    1.88    0.24
   1   4 -10    1.92    0.24
  -1  -4  10    1.83    0.23
  -1  -4  10    1.48    0.21
  -1  -4  10    1.83    0.24
  -1  -4  10    1.58    0.20
   0   4 -10    6.52    0.36
   0   4 -10    6.33    0.31
   0   4 -10    5.82    0.31
   0   4 -10    6.31    0.34
   0  -4  10    5.95    0.34
   0  -4  10    5.67    0.32
   0  -4  10    6.11    0.35
   0  -4  10    5.86    0.32
  -1   4 -10    1.57    0.21
  -1   4 -10    1.32    0.16
  -1   4 -10    1.45    0.20
  -1   4 -10    1.54    0.21
   1  -4  10    1.52    0.21
   1  -4  10    1.54    0.22
   1  -4  10    1.56    0.22
   1  -4  10    1.49    0.20
  -2   4 -10    0.13    0.12
  -2   4 -10    0.17    0.14
  -2   4 -10    0.10    0.12
  -2   4 -10    0.25    0.15
   2  -4  10    0.09    0.15
   2  -4  10    0.05    0.15
   2  -4  10    0.06    0.13
  -3   4 -10    1.92    0.22
  -3   4 -10    1.61    0.22
  -3   4 -10    2.30    0.28
   3  -4  10    1.75    0.19
   3  -4  10    2.02    0.25
   3  -4  10    2.01    0.27
   3  -4  10    1.97    0.25
   3  -4  10    2.31    0.24
  -4   4 -10    0.01    0.15
  -4   4 -10   -0.14    0.15
  -4   4 -10   -0.04    0.15
   4  -4  10   -0.11    0.16
   4  -4  10    0.11    0.17
   4  -4  10    0.13    0.14
   4  -4  10    0.29    0.21
   4  -4  10   -0.07    0.13
  -5   4 -10    1.02    0.22
  -5   4 -10    0.86    0.22
  -5   4 -10    1.00    0.26
   5  -4  10    1.02    0.26
   5  -4  10    0.66    0.23
   5  -4  10    0.84    0.20
  -6   4 -10    0.27    0.21
   6  -4  10    0.45    0.25
   6  -4  10    0.45    0.20
   6  -4  10   -0.16    0.19
   6   3 -10    8.00    0.51
   6   3 -10    7.30    0.51
  -6  -3  10    8.57    0.54
   5   3 -10    1.01    0.24
   5   3 -10    0.56    0.18
   5   3 -10    0.69    0.22
  -5  -3  10    0.74    0.22
   4   3 -10    4.36    0.37
   4   3 -10    4.15    0.36
   4   3 -10    4.54    0.32
  -4  -3  10    4.45    0.36
   3   3 -10    0.87    0.19
   3   3 -10    1.09    0.21
   3   3 -10    0.84    0.21
  -3  -3  10    0.88    0.19
  -3  -3  10    0.93    0.21
   2   3 -10   27.23    0.60
   2   3 -10   27.18    0.67
   2   3 -10   28.55    0.69
   2   3 -10   27.53    0.70
  -2  -3  10   28.84    0.72
  -2  -3  10   27.79    0.65
   1   3 -10    3.80    0.26
   1   3 -10    3.94    0.28
   1   3 -10    4.56    0.32
  -1  -3  10    4.23    0.25
  -1  -3  10    3.48    0.26
  -1  -3  10    4.33    0.30
  -1  -3  10    3.74    0.30
   0   3 -10   29.26    0.67
   0   3 -10   30.16    0.70
   0   3 -10   29.83    0.69
   0  -3  10   30.62    0.62
   0  -3  10   29.98    0.69
   0  -3  10   29.86    0.66
   0  -3  10   29.74    0.71
  -1   3 -10    1.48    0.16
  -1   3 -10    1.59    0.21
  -1   3 -10    1.50    0.19
  -1   3 -10    1.43    0.21
   1  -3  10    1.29    0.20
   1  -3  10    1.62    0.22
   1  -3  10    1.47    0.20
   1  -3  10    1.33    0.18
  -2   3 -10    7.86    0.33
  -2   3 -10    7.56    0.40
  -2   3 -10    8.18    0.39
   2  -3  10    8.30    0.40
   2  -3  10    7.02    0.38
   2  -3  10    7.55    0.35
   2  -3  10    8.40    0.38
  -3   3 -10    3.32    0.29
  -3   3 -10    3.67    0.29
  -3   3 -10    3.18    0.32
   3  -3  10    2.93    0.29
   3  -3  10    3.41    0.24
   3  -3  10    3.33    0.31
   3  -3  10    3.37    0.30
   3  -3  10    2.97    0.27
  -4   3 -10    9.74    0.42
  -4   3 -10   10.28    0.50
  -4   3 -10    9.87    0.45
   4  -3  10   10.54    0.46
   4  -3  10    9.26    0.46
   4  -3  10    9.93    0.39
   4  -3  10   10.11    0.45
   4  -3  10    9.45    0.46
  -5   3 -10    1.98    0.29
  -5   3 -10    2.12    0.32
   5  -3  10    2.29    0.26
   5  -3  10    1.80    0.29
   5  -3  10    1.98    0.28
   5  -3  10    2.04    0.30
  -6   3 -10    0.01    0.20
   6  -3  10    0.01    0.23
   6  -3  10   -0.46    0.18
   6  -3  10    0.31    0.20
   7   2 -10   19.34    0.76
   7   2 -10   18.55    0.72
  -7  -2  10   19.63    0.77
   6   2 -10    4.80    0.35
   6   2 -10    5.57    0.45
   6   2 -10    4.64    0.42
  -6  -2  10    5.28    0.44
   5   2 -10   14.53    0.51
   5   2 -10   14.08    0.58
   5   2 -10   12.98    0.56
  -5  -2  10   14.23    0.56
   4   2 -10    1.63    0.23
   4   2 -10    1.55    0.25
   4   2 -10    1.36    0.22
  -4  -2  10    1.72    0.24
   3   2 -10    2.15    0.22
   3   2 -10    2.05    0.24
   3   2 -10    1.94    0.25
  -3  -2  10    1.74    0.24
   2   2 -10    3.96    0.30
   2   2 -10    4.11    0.27
   2   2 -10    3.80    0.28
  -2  -2  10    4.02    0.28
  -2  -2  10    3.79    0.30
  -2  -2  10    3.98    0.26
   1   2 -10    8.43    0.36
   1   2 -10    8.95    0.38
   1   2 -10    8.45    0.36
  -1  -2  10    8.35    0.39
  -1  -2  10    8.67    0.33
  -1  -2  10    8.50    0.37
   0   2 -10    1.68    0.20
   0   2 -10    1.98    0.22
   0   2 -10    2.07    0.24
   0  -2  10    1.89    0.20
   0  -2  10    1.81    0.22
   0  -2  10    1.87    0.24
   0  -2  10    1.71    0.17
  -1   2 -10    6.65    0.28
  -1   2 -10    7.06    0.35
  -1   2 -10    7.30    0.31
  -1   2 -10    7.02    0.37
   1  -2  10    6.94    0.33
   1  -2  10    6.33    0.34
   1  -2  10    7.28    0.38
   1  -2  10    6.68    0.29
  -2   2 -10    8.50    0.35
  -2   2 -10    7.94    0.41
  -2   2 -10    8.24    0.37
   2  -2  10    8.59    0.37
   2  -2  10    7.64    0.40
   2  -2  10    7.60    0.33
   2  -2  10    7.73    0.41
  -3   2 -10   15.42    0.51
  -3   2 -10   16.41    0.51
  -3   2 -10   15.72    0.58
   3  -2  10   16.12    0.49
   3  -2  10   15.92    0.51
   3  -2  10   16.12    0.54
   3  -2  10   15.80    0.55
   3  -2  10   17.44    0.58
  -4   2 -10    5.66    0.43
  -4   2 -10    6.59    0.40
   4  -2  10    5.11    0.38
   4  -2  10    6.03    0.41
   4  -2  10    6.06    0.40
   4  -2  10    5.97    0.42
  -5   2 -10    0.20    0.20
  -5   2 -10   -0.22    0.18
   5  -2  10   -0.09    0.20
   5  -2  10   -0.36    0.17
   5  -2  10    0.23    0.19
  -6   2 -10    0.29    0.24
  -6   2 -10    0.29    0.23
   6  -2  10    0.06    0.23
   6  -2  10    0.48    0.23
   6  -2  10    0.59    0.25
   7   1 -10    0.13    0.17
   7   1 -10   -0.08    0.21
   7   1 -10    0.34    0.23
  -7  -1  10    0.24    0.22
   6   1 -10    8.35    0.48
   6   1 -10    7.87    0.42
   6   1 -10    7.53    0.48
  -6  -1  10    7.87    0.46
   5   1 -10   10.04    0.48
   5   1 -10    9.48    0.43
  -5  -1  10   10.19    0.47
   4   1 -10   23.99    0.64
   4   1 -10   22.97    0.60
   4   1 -10   22.60    0.66
  -4  -1  10   23.33    0.65
  -4  -1  10   23.30    0.66
   3   1 -10    7.85    0.37
   3   1 -10    7.36    0.38
   3   1 -10    7.49    0.35
  -3  -1  10    7.14    0.38
  -3  -1  10    7.68    0.38
   2   1 -10   19.34    0.55
   2   1 -10   19.78    0.56
   2   1 -10   20.06    0.56
  -2  -1  10   18.70    0.52
  -2  -1  10   19.42    0.56
  -2  -1  10   19.72    0.54
   1   1 -10   26.88    0.53
   1   1 -10   26.80    0.65
   1   1 -10   28.98    0.68
   1   1 -10   27.40    0.64
  -1  -1  10   28.45    0.63
  -1  -1  10   27.11    0.63
   0   1 -10    7.62    0.36
   0   1 -10    8.20    0.28
   0   1 -10    7.54    0.33
   0   1 -10    7.73    0.30
   0   1 -10    7.99    0.39
   0  -1  10    8.07    0.37
   0  -1  10    8.35    0.40
   0  -1  10    8.04    0.32
   0  -1  10    8.31    0.31
  -1   1 -10    5.53    0.29
  -1   1 -10    5.09    0.28
  -1   1 -10    4.63    0.34
  -1   1 -10    4.94    0.27
  -1   1 -10    5.07    0.31
   1  -1  10    4.48    0.24
   1  -1  10    4.77    0.35
   1  -1  10    5.46    0.29
   1  -1  10    5.84    0.34
  -2   1 -10    3.09    0.26
  -2   1 -10    3.68    0.28
  -2   1 -10    3.48    0.29
  -2   1 -10    2.89    0.29
   2  -1  10    3.27    0.30
   2  -1  10    3.54    0.28
   2  -1  10    3.01    0.31
  -3   1 -10    1.61    0.26
  -3   1 -10    1.54    0.23
  -3   1 -10    1.32    0.27
   3  -1  10    1.00    0.23
   3  -1  10    0.86    0.23
   3  -1  10    1.40    0.22
  -4   1 -10    0.17    0.19
  -4   1 -10    0.35    0.22
   4  -1  10    0.05    0.19
   4  -1  10    0.49    0.22
   4  -1  10    0.67    0.23
  -5   1 -10    2.95    0.38
  -5   1 -10    1.41    0.29
   5  -1  10    3.03    0.36
   5  -1  10    2.44    0.34
   5  -1  10    2.25    0.33
   7   0 -10    2.96    0.35
   7   0 -10    3.30    0.33
   7   0 -10    3.80    0.39
  -7   0  10    3.42    0.34
   6   0 -10   10.68    0.48
   6   0 -10    9.93    0.52
  -6   0  10   10.47    0.49
  -6   0  10    9.90    0.52
   5   0 -10    0.03    0.17
   5   0 -10    0.60    0.19
   5   0 -10    0.46    0.15
  -5   0  10    0.32    0.18
  -5   0  10    0.69    0.21
   4   0 -10    7.42    0.40
   4   0 -10    8.01    0.40
   4   0 -10    8.15    0.38
  -4   0  10    6.77    0.39
  -4   0  10    7.56    0.38
   3   0 -10    0.06    0.14
   3   0 -10    0.12    0.14
   3   0 -10    0.09    0.13
  -3   0  10    0.02    0.14
  -3   0  10    0.21    0.14
  -3   0  10   -0.14    0.12
   2   0 -10    0.51    0.16
   2   0 -10    0.47    0.15
   2   0 -10    0.55    0.17
   2   0 -10    0.47    0.12
  -2   0  10    0.51    0.15
  -2   0  10    0.33    0.15
  -2   0  10    0.42    0.15
   1   0 -10    6.12    0.32
   1   0 -10    6.04    0.28
   1   0 -10    6.02    0.35
   1   0 -10    6.28    0.32
  -1   0  10    5.81    0.32
  -1   0  10    5.36    0.36
  -1   0  10    6.52    0.32
   0   0 -10   31.19    0.65
   0   0 -10   31.24    0.70
   0   0 -10   31.52    0.64
   0   0 -10   30.63    0.66
   0   0 -10   31.02    0.76
   0   0  10   32.07    0.70
   0   0  10   31.29    0.64
   0   0  10   31.15    0.77
  -1   0 -10    0.36    0.14
  -1   0 -10    0.24    0.14
  -1   0 -10    0.06    0.15
  -1   0 -10    0.34    0.14
   1   0  10    0.19    0.16
   1   0  10    0.47    0.19
  -2   0 -10   15.13    0.53
  -2   0 -10   15.49    0.48
  -2   0 -10   16.31    0.54
  -2   0 -10   16.16    0.60
   2   0  10   16.04    0.55
   2   0  10   16.33    0.60
  -3   0 -10    0.00    0.19
  -3   0 -10   -0.04    0.16
  -3   0 -10    0.03    0.16
   3   0  10    0.17    0.19
   3   0  10   -0.07    0.18
  -4   0 -10    3.74    0.39
  -4   0 -10    3.53    0.38
   4   0  10    2.95    0.37
   4   0  10    3.67    0.37
  -5   0 -10   -0.13    0.21
  -5   0 -10   -0.05    0.22
   5   0  10    0.14    0.23
   5   0  10    0.01    0.24
   7  -1 -10   12.64    0.55
   7  -1 -10   11.87    0.57
  -7   1  10   12.23    0.59
  -7   1  10   13.00    0.69
   6  -1 -10    3.04    0.32
   6  -1 -10    3.12    0.30
   6  -1 -10    3.85    0.37
  -6   1  10    3.33    0.31
  -6   1  10    3.29    0.35
   5  -1 -10   25.02    0.69
   5  -1 -10   24.51    0.69
   5  -1 -10   24.67    0.72
  -5   1  10   25.87    0.67
  -5   1  10   24.44    0.71
   4  -1 -10   -0.13    0.14
   4  -1 -10   -0.08    0.14
   4  -1 -10   -0.06    0.14
  -4   1  10    0.14    0.15
  -4   1  10   -0.16    0.14
   3  -1 -10    3.34    0.31
   3  -1 -10    2.75    0.22
   3  -1 -10    3.29    0.31
   3  -1 -10    3.00    0.28
  -3   1  10    2.73    0.27
  -3   1  10    2.86    0.27
  -3   1  10    3.48    0.26
   2  -1 -10    3.13    0.28
   2  -1 -10    3.02    0.27
   2  -1 -10    3.21    0.25
   2  -1 -10    2.72    0.29
  -2   1  10    2.76    0.29
  -2   1  10    3.30    0.26
  -2   1  10    2.33    0.24
   1  -1 -10    0.02    0.11
   1  -1 -10    0.29    0.15
   1  -1 -10    0.18    0.12
   1  -1 -10    0.17    0.14
   1  -1 -10    0.24    0.15
  -1   1  10    0.36    0.18
  -1   1  10    0.46    0.15
  -1   1  10    0.02    0.12
   0  -1 -10    9.72    0.40
   0  -1 -10   10.42    0.39
   0  -1 -10   10.44    0.47
   0  -1 -10   10.32    0.42
   0  -1 -10   10.65    0.38
   0   1  10   10.48    0.38
   0   1  10   10.99    0.41
   0   1  10   10.34    0.49
  -1  -1 -10    4.31    0.32
  -1  -1 -10    4.55    0.30
  -1  -1 -10    4.31    0.32
  -1  -1 -10    4.22    0.36
   1   1  10    4.81    0.34
   1   1  10    5.16    0.41
  -2  -1 -10    1.66    0.26
  -2  -1 -10    2.43    0.29
  -2  -1 -10    2.18    0.30
   2   1  10    2.24    0.27
   2   1  10    1.96    0.31
  -3  -1 -10    0.38    0.20
  -3  -1 -10    0.58    0.22
  -3  -1 -10    0.05    0.20
   3   1  10    0.28    0.21
   3   1  10    0.14    0.21
  -4  -1 -10    0.44    0.25
  -4  -1 -10    0.67    0.27
   4   1  10    0.93    0.28
   4   1  10    0.38    0.24
   8  -2 -10    2.49    0.32
   8  -2 -10    2.47    0.35
   7  -2 -10    1.71    0.31
   7  -2 -10    1.10    0.25
   7  -2 -10    1.12    0.24
  -7   2  10    1.10    0.27
   6  -2 -10   11.84    0.52
   6  -2 -10   11.76    0.54
   6  -2 -10   11.19    0.52
  -6   2  10   11.50    0.53
   5  -2 -10    0.10    0.16
   5  -2 -10    0.08    0.18
   5  -2 -10    0.09    0.16
  -5   2  10    0.00    0.13
  -5   2  10    0.32    0.19
   4  -2 -10   26.86    0.75
   4  -2 -10   26.88    0.72
   4  -2 -10   26.10    0.62
  -4   2  10   26.90    0.66
  -4   2  10   26.57    0.72
   3  -2 -10   17.05    0.59
   3  -2 -10   16.92    0.50
   3  -2 -10   16.48    0.55
  -3   2  10   15.97    0.55
  -3   2  10   16.94    0.52
  -3   2  10   15.93    0.59
   2  -2 -10    0.13    0.14
   2  -2 -10    0.20    0.16
   2  -2 -10    0.56    0.19
  -2   2  10    0.23    0.18
  -2   2  10    0.34    0.16
  -2   2  10    0.12    0.14
   1  -2 -10   16.94    0.53
   1  -2 -10   17.87    0.54
   1  -2 -10   18.29    0.62
   1  -2 -10   17.07    0.50
  -1   2  10   16.97    0.62
  -1   2  10   17.16    0.52
  -1   2  10   17.32    0.49
   0  -2 -10    7.30    0.45
   0  -2 -10    6.65    0.37
   0  -2 -10    7.16    0.39
   0  -2 -10    6.62    0.35
   0   2  10    6.45    0.34
   0   2  10    7.01    0.37
   0   2  10    6.34    0.44
  -1  -2 -10    7.77    0.47
  -1  -2 -10    7.66    0.42
  -1  -2 -10    8.46    0.44
   1   2  10    7.99    0.42
   1   2  10    7.57    0.49
  -2  -2 -10   -0.15    0.17
  -2  -2 -10   -0.19    0.18
  -2  -2 -10    0.14    0.18
   2   2  10    0.04    0.21
   2   2  10    0.11    0.15
   2   2  10    0.07    0.19
  -3  -2 -10   10.32    0.57
  -3  -2 -10    8.82    0.54
  -3  -2 -10    9.17    0.54
   3   2  10   10.68    0.53
   3   2  10   10.43    0.61
   7  -3 -10    7.27    0.48
   7  -3 -10    6.25    0.49
   7  -3 -10    7.52    0.48
  -7   3  10    7.10    0.49
   6  -3 -10    8.52    0.49
   6  -3 -10    8.43    0.48
  -6   3  10    7.94    0.48
   5  -3 -10    4.33    0.33
   5  -3 -10    4.15    0.38
   5  -3 -10    3.89    0.36
  -5   3  10    4.21    0.37
   4  -3 -10    0.74    0.22
   4  -3 -10    1.22    0.23
   4  -3 -10    1.13    0.20
  -4   3  10    1.01    0.22
   3  -3 -10   -0.01    0.14
   3  -3 -10    0.00    0.16
   3  -3 -10    0.32    0.18
  -3   3  10    0.19    0.18
  -3   3  10    0.06    0.16
   2  -3 -10    2.20    0.30
   2  -3 -10    1.71    0.25
   2  -3 -10    1.86    0.25
  -2   3  10    1.83    0.29
  -2   3  10    1.41    0.23
   1  -3 -10   -0.06    0.15
   1  -3 -10    0.01    0.15
   1  -3 -10    0.21    0.19
  -1   3  10    0.44    0.17
  -1   3  10   -0.02    0.19
   0  -3 -10    1.10    0.23
   0  -3 -10    1.39    0.27
   0  -3 -10    2.07    0.28
   0   3  10    1.55    0.28
  -1  -3 -10    0.61    0.21
  -1  -3 -10    0.23    0.20
  -1  -3 -10    0.46    0.23
   1   3  10    0.69    0.22
   1   3  10    0.61    0.25
  -2  -3 -10    0.09    0.21
  -2  -3 -10    0.06    0.22
  -2  -3 -10    0.30    0.25
   2   3  10   -0.20    0.17
   2   3  10    0.57    0.26
   7  -4 -10    1.21    0.28
   7  -4 -10    1.73    0.29
  -7   4  10    1.58    0.32
   6  -4 -10    0.12    0.20
   6  -4 -10    0.07    0.19
   6  -4 -10   -0.02    0.17
  -6   4  10    0.14    0.22
   5  -4 -10    2.30    0.30
   5  -4 -10    2.50    0.28
   5  -4 -10    1.93    0.31
  -5   4  10    2.66    0.33
   4  -4 -10   -0.05    0.17
   4  -4 -10   -0.10    0.15
   4  -4 -10    0.15    0.18
  -4   4  10   -0.15    0.16
   3  -4 -10   13.08    0.53
   3  -4 -10   14.19    0.55
   3  -4 -10   13.08    0.59
  -3   4  10   13.20    0.55
  -3   4  10   13.88    0.59
   2  -4 -10   -0.13    0.15
   2  -4 -10   -0.10    0.18
   2  -4 -10    0.00    0.17
  -2   4  10   -0.10    0.18
  -2   4  10   -0.02    0.18
   1  -4 -10   -0.23    0.17
   1  -4 -10   -0.02    0.17
  -1   4  10    0.15    0.21
  -1   4  10   -0.01    0.17
   0  -4 -10    8.93    0.51
   0  -4 -10    9.78    0.54
   0  -4 -10   10.05    0.52
   0   4  10    9.96    0.54
   0   4  10    9.30    0.58
  -1  -4 -10    9.53    0.55
  -1  -4 -10    9.65    0.56
  -1  -4 -10    8.41    0.52
   1   4  10   10.30    0.64
   1   4  10   10.24    0.57
   6  -5 -10   10.09    0.58
   6  -5 -10    9.13    0.55
   6  -5 -10    9.50    0.50
  -6   5  10    9.55    0.55
   5  -5 -10    0.01    0.20
   5  -5 -10   -0.04    0.19
   5  -5 -10    0.19    0.20
  -5   5  10    0.24    0.22
   4  -5 -10    2.52    0.35
   4  -5 -10    2.85    0.33
   4  -5 -10    2.76    0.32
  -4   5  10    3.08    0.37
  -4   5  10    3.73    0.39
   3  -5 -10    0.90    0.24
   3  -5 -10    0.91    0.25
   3  -5 -10    0.73    0.24
  -3   5  10    1.36    0.28
  -3   5  10    0.92    0.26
   2  -5 -10    0.67    0.25
   2  -5 -10    0.04    0.18
  -2   5  10    0.63    0.23
  -2   5  10    0.36    0.25
   1  -5 -10    0.44    0.22
   1  -5 -10    0.15    0.22
  -1   5  10    0.04    0.20
  -1   5  10    0.10    0.21
  -1   5  10   -0.08    0.23
   0   8 -11   -0.03    0.18
   0   8 -11    0.13    0.24
   0  -8  11    0.14    0.22
   0  -8  11   -0.27    0.17
  -1   8 -11    4.16    0.40
  -1   8 -11    4.15    0.42
  -1   8 -11    4.47    0.41
   1  -8  11    4.10    0.37
   1  -8  11    3.87    0.42
  -2   8 -11    5.66    0.42
  -2   8 -11    5.49    0.45
  -2   8 -11    5.60    0.44
   2  -8  11    6.28    0.41
   2  -8  11    5.56    0.48
   2  -8  11    5.94    0.41
  -3   8 -11    2.68    0.35
  -3   8 -11    2.95    0.34
  -3   8 -11    3.02    0.35
   3  -8  11    2.96    0.39
   3  -8  11    2.91    0.33
  -4   8 -11    3.60    0.42
  -4   8 -11    3.42    0.39
   4  -8  11    2.64    0.32
   4  -8  11    2.74    0.38
  -5   8 -11    6.47    0.52
  -5   8 -11    5.86    0.54
   5  -8  11    5.64    0.42
   5  -8  11    5.09    0.49
   2   7 -11    0.29    0.19
   2   7 -11   -0.02    0.22
   2   7 -11   -0.01    0.20
   2   7 -11   -0.16    0.17
  -2  -7  11    0.07    0.19
  -2  -7  11   -0.20    0.20
   1   7 -11   13.22    0.56
   1   7 -11   13.60    0.61
   1   7 -11   12.94    0.54
  -1  -7  11   13.68    0.59
  -1  -7  11   13.04    0.61
   0   7 -11    3.29    0.37
   0   7 -11    2.90    0.32
   0   7 -11    3.58    0.35
   0  -7  11    4.01    0.38
   0  -7  11    3.66    0.35
  -1   7 -11    0.61    0.21
  -1   7 -11    0.93    0.25
  -1   7 -11    0.67    0.21
   1  -7  11    1.36    0.24
   1  -7  11    0.77    0.24
   1  -7  11    0.74    0.21
  -2   7 -11    1.66    0.27
  -2   7 -11    1.50    0.27
  -2   7 -11    2.07    0.30
   2  -7  11    1.80    0.29
   2  -7  11    1.83    0.26
   2  -7  11    1.85    0.27
  -3   7 -11    0.96    0.25
  -3   7 -11    0.57    0.22
  -3   7 -11    0.67    0.22
   3  -7  11    0.76    0.20
   3  -7  11    0.57    0.20
   3  -7  11    0.61    0.25
  -4   7 -11    0.44    0.22
  -4   7 -11    0.53    0.23
   4  -7  11    0.39    0.25
   4  -7  11    0.35    0.19
   4  -7  11    0.51    0.19
  -5   7 -11    0.67    0.26
  -5   7 -11    0.67    0.25
  -5   7 -11    0.79    0.23
   5  -7  11    0.88    0.23
   5  -7  11    0.81    0.28
   3   6 -11    0.08    0.17
   3   6 -11    0.01    0.20
   3   6 -11   -0.02    0.20
  -3  -6  11    0.00    0.20
   2   6 -11    4.45    0.42
   2   6 -11    4.89    0.40
   2   6 -11    5.04    0.38
  -2  -6  11    4.98    0.42
  -2  -6  11    4.81    0.42
   1   6 -11    1.27    0.26
   1   6 -11    1.37    0.24
   1   6 -11    1.69    0.25
  -1  -6  11    1.91    0.27
  -1  -6  11    1.24    0.27
   0   6 -11    8.71    0.46
   0   6 -11    9.14    0.49
   0   6 -11    8.75    0.41
   0  -6  11    8.51    0.45
   0  -6  11    8.19    0.43
   0  -6  11    9.75    0.49
   0  -6  11    9.26    0.47
  -1   6 -11    1.97    0.27
  -1   6 -11    1.76    0.27
  -1   6 -11    1.53    0.22
   1  -6  11    2.31    0.30
   1  -6  11    1.85    0.26
   1  -6  11    1.70    0.25
   1  -6  11    2.76    0.30
  -2   6 -11    0.91    0.22
  -2   6 -11    0.83    0.21
  -2   6 -11    0.99    0.23
   2  -6  11    1.01    0.21
   2  -6  11    1.30    0.26
   2  -6  11    1.25    0.24
   2  -6  11    1.11    0.22
  -3   6 -11   16.06    0.61
   3  -6  11   17.47    0.65
   3  -6  11   17.72    0.60
   3  -6  11   17.65    0.59
  -4   6 -11    7.90    0.47
  -4   6 -11    8.39    0.52
  -4   6 -11    8.56    0.44
   4  -6  11    7.72    0.51
   4  -6  11    8.25    0.45
  -5   6 -11    3.44    0.37
  -5   6 -11    3.77    0.36
  -5   6 -11    3.45    0.42
   5  -6  11    3.62    0.37
   5  -6  11    3.27    0.40
  -6   6 -11   -0.02    0.21
  -6   6 -11   -0.38    0.19
  -6   6 -11   -0.13    0.24
   6  -6  11   -0.25    0.23
   6  -6  11   -0.03    0.19
   6  -6  11   -0.05    0.20
   4   5 -11   19.44    0.73
   4   5 -11   20.10    0.74
  -4  -5  11   20.95    0.75
   3   5 -11    4.36    0.39
   3   5 -11    5.08    0.42
   3   5 -11    4.92    0.38
  -3  -5  11    5.42    0.43
   2   5 -11    2.26    0.31
   2   5 -11    1.90    0.27
   2   5 -11    1.54    0.26
  -2  -5  11    1.55    0.27
  -2  -5  11    1.74    0.28
   1   5 -11    5.50    0.41
   1   5 -11    5.47    0.37
   1   5 -11    5.35    0.37
  -1  -5  11    5.37    0.38
  -1  -5  11    5.88    0.41
  -1  -5  11    5.29    0.33
   0   5 -11    5.34    0.36
   0   5 -11    4.95    0.31
   0   5 -11    5.03    0.32
   0   5 -11    5.36    0.39
   0  -5  11    5.41    0.38
   0  -5  11    5.44    0.35
   0  -5  11    4.96    0.36
   0  -5  11    5.74    0.38
  -1   5 -11    1.45    0.23
  -1   5 -11    1.52    0.22
  -1   5 -11    1.93    0.26
   1  -5  11    1.89    0.26
   1  -5  11    2.09    0.27
   1  -5  11    1.83    0.24
   1  -5  11    1.82    0.25
  -2   5 -11    0.15    0.15
  -2   5 -11    0.00    0.15
  -2   5 -11    0.14    0.17
   2  -5  11   -0.13    0.15
   2  -5  11    0.07    0.15
   2  -5  11    0.22    0.17
   2  -5  11    0.12    0.18
  -3   5 -11    0.40    0.18
  -3   5 -11    0.18    0.17
   3  -5  11    0.53    0.19
   3  -5  11    0.15    0.19
   3  -5  11    0.25    0.20
  -4   5 -11    0.64    0.21
  -4   5 -11    0.93    0.25
  -4   5 -11    1.16    0.22
   4  -5  11    0.83    0.22
   4  -5  11    1.06    0.26
  -5   5 -11    0.83    0.23
  -5   5 -11    0.71    0.22
   5  -5  11    1.00    0.25
   5  -5  11    1.29    0.29
  -6   5 -11    5.10    0.49
  -6   5 -11    6.39    0.47
  -6   5 -11    5.52    0.66
   6  -5  11    5.33    0.40
   6  -5  11    5.64    0.47
   6  -5  11    4.96    0.48
   5   4 -11   -0.32    0.19
   5   4 -11    0.30    0.23
  -5  -4  11    0.05    0.21
   4   4 -11    0.99    0.25
   4   4 -11    0.71    0.25
   4   4 -11    1.03    0.22
  -4  -4  11    0.81    0.24
   3   4 -11   21.51    0.65
   3   4 -11   22.91    0.72
   3   4 -11   21.96    0.70
  -3  -4  11   21.48    0.65
  -3  -4  11   22.95    0.71
   2   4 -11    0.99    0.23
   2   4 -11    1.08    0.22
   2   4 -11    0.82    0.21
  -2  -4  11    0.96    0.20
  -2  -4  11    1.19    0.23
   1   4 -11    2.35    0.23
   1   4 -11    1.87    0.25
   1   4 -11    2.65    0.26
   1   4 -11    2.57    0.29
  -1  -4  11    2.64    0.29
  -1  -4  11    2.16    0.27
  -1  -4  11    2.54    0.24
  -1  -4  11    2.32    0.27
   0   4 -11    0.93    0.19
   0   4 -11    0.79    0.17
   0   4 -11    0.95    0.19
   0   4 -11    0.56    0.16
   0  -4  11    0.97    0.20
   0  -4  11    0.75    0.16
   0  -4  11    0.83    0.20
   0  -4  11    1.30    0.23
  -1   4 -11   22.91    0.65
  -1   4 -11   22.21    0.63
  -1   4 -11   22.15    0.61
   1  -4  11   21.84    0.61
   1  -4  11   22.30    0.65
   1  -4  11   21.59    0.62
   1  -4  11   21.83    0.59
  -2   4 -11   18.61    0.58
  -2   4 -11   20.08    0.62
   2  -4  11   18.04    0.58
   2  -4  11   18.56    0.59
   2  -4  11   18.07    0.55
  -3   4 -11   15.45    0.54
  -3   4 -11   16.32    0.61
  -3   4 -11   17.43    0.52
   3  -4  11   16.18    0.55
   3  -4  11   16.22    0.55
   3  -4  11   17.40    0.61
   3  -4  11   16.33    0.57
  -4   4 -11    3.84    0.34
  -4   4 -11    4.25    0.40
  -4   4 -11    3.38    0.32
   4  -4  11    3.28    0.34
   4  -4  11    4.71    0.37
   4  -4  11    3.89    0.37
   4  -4  11    3.57    0.37
  -5   4 -11   -0.07    0.19
  -5   4 -11    0.35    0.19
  -5   4 -11   -0.02    0.19
   5  -4  11   -0.04    0.21
   5  -4  11   -0.12    0.19
  -6   4 -11    5.42    0.47
   6  -4  11    5.51    0.43
   6  -4  11    4.98    0.46
   6  -4  11    5.74    0.49
   6   3 -11   15.50    0.70
   6   3 -11   15.90    0.68
  -6  -3  11   17.79    0.73
   5   3 -11    0.22    0.18
   5   3 -11    0.01    0.20
   5   3 -11    0.00    0.20
  -5  -3  11    0.02    0.18
   4   3 -11   30.85    0.84
   4   3 -11   29.19    0.83
   4   3 -11   30.69    0.77
  -4  -3  11   30.20    0.83
   3   3 -11    4.72    0.35
   3   3 -11    5.33    0.40
   3   3 -11    4.78    0.37
  -3  -3  11    4.39    0.32
  -3  -3  11    4.27    0.36
   2   3 -11    7.36    0.38
   2   3 -11    7.15    0.34
   2   3 -11    7.74    0.40
   2   3 -11    6.68    0.39
  -2  -3  11    6.56    0.34
  -2  -3  11    7.81    0.40
  -2  -3  11    7.32    0.41
   1   3 -11    2.31    0.26
   1   3 -11    1.97    0.23
   1   3 -11    2.01    0.25
  -1  -3  11    2.41    0.27
  -1  -3  11    2.35    0.27
  -1  -3  11    2.31    0.24
   0   3 -11    3.29    0.30
   0   3 -11    3.43    0.29
   0   3 -11    3.91    0.33
   0  -3  11    2.96    0.28
   0  -3  11    2.93    0.26
   0  -3  11    2.71    0.28
  -1   3 -11    0.91    0.18
  -1   3 -11    1.30    0.22
  -1   3 -11    1.26    0.22
   1  -3  11    1.00    0.21
   1  -3  11    0.94    0.19
   1  -3  11    1.02    0.20
  -2   3 -11    1.51    0.19
  -2   3 -11    1.33    0.22
  -2   3 -11    1.44    0.24
   2  -3  11    1.42    0.23
   2  -3  11    1.16    0.20
   2  -3  11    1.17    0.22
   2  -3  11    1.48    0.23
  -3   3 -11    4.11    0.31
  -3   3 -11    4.47    0.34
  -3   3 -11    3.43    0.36
   3  -3  11    4.61    0.36
   3  -3  11    3.93    0.34
   3  -3  11    4.31    0.36
   3  -3  11    4.01    0.32
  -4   3 -11    2.23    0.29
  -4   3 -11    2.64    0.34
  -4   3 -11    1.87    0.26
   4  -3  11    2.13    0.28
   4  -3  11    2.41    0.31
   4  -3  11    2.61    0.31
   4  -3  11    2.89    0.33
  -5   3 -11   -0.09    0.19
  -5   3 -11    0.22    0.21
   5  -3  11    0.07    0.18
   5  -3  11   -0.10    0.20
   5  -3  11   -0.16    0.19
   6   2 -11    4.18    0.40
   6   2 -11    4.36    0.36
   6   2 -11    3.79    0.40
  -6  -2  11    4.08    0.41
   5   2 -11    6.30    0.40
   5   2 -11    5.81    0.43
   5   2 -11    5.77    0.42
  -5  -2  11    5.99    0.43
   4   2 -11    0.51    0.19
   4   2 -11    0.50    0.18
   4   2 -11    0.26    0.19
  -4  -2  11    0.31    0.19
   3   2 -11   13.31    0.46
   3   2 -11   13.64    0.50
   3   2 -11   13.73    0.53
  -3  -2  11   13.64    0.53
   2   2 -11   14.77    0.52
   2   2 -11   15.91    0.53
   2   2 -11   15.14    0.49
  -2  -2  11   15.59    0.54
  -2  -2  11   15.60    0.52
   1   2 -11    7.96    0.39
   1   2 -11    8.55    0.41
   1   2 -11    8.63    0.40
  -1  -2  11    9.16    0.41
  -1  -2  11    8.15    0.42
   0   2 -11   18.12    0.56
   0   2 -11   19.07    0.59
   0   2 -11   19.38    0.54
   0  -2  11   18.81    0.50
   0  -2  11   20.07    0.61
   0  -2  11   19.10    0.57
  -1   2 -11    0.68    0.19
  -1   2 -11    0.39    0.18
  -1   2 -11    0.62    0.16
   1  -2  11    0.71    0.19
   1  -2  11    0.66    0.19
   1  -2  11    0.73    0.17
  -2   2 -11    0.03    0.16
  -2   2 -11    0.00    0.13
  -2   2 -11    0.07    0.15
   2  -2  11   -0.02    0.15
   2  -2  11    0.09    0.17
   2  -2  11    0.03    0.15
  -3   2 -11    7.50    0.40
  -3   2 -11    7.93    0.47
  -3   2 -11    7.48    0.38
   3  -2  11    7.57    0.42
   3  -2  11    7.26    0.44
   3  -2  11    7.77    0.45
  -4   2 -11   12.60    0.61
  -4   2 -11   13.14    0.56
   4  -2  11   13.48    0.59
   4  -2  11   13.21    0.58
   4  -2  11   12.44    0.54
  -5   2 -11    1.34    0.28
  -5   2 -11    0.82    0.27
   5  -2  11    0.82    0.26
   5  -2  11    1.06    0.28
   5  -2  11    1.06    0.27
   7   1 -11   22.10    0.70
   7   1 -11   21.08    0.79
   7   1 -11   22.02    0.79
  -7  -1  11   21.62    0.77
   6   1 -11    0.60    0.23
   6   1 -11    0.61    0.23
   6   1 -11    0.70    0.21
  -6  -1  11    0.99    0.25
   5   1 -11    1.78    0.28
   5   1 -11    2.29    0.28
  -5  -1  11    2.58    0.30
   4   1 -11   -0.01    0.17
   4   1 -11   -0.01    0.13
   4   1 -11   -0.05    0.15
  -4  -1  11    0.06    0.17
  -4  -1  11   -0.12    0.15
   3   1 -11   10.84    0.46
   3   1 -11   12.20    0.49
   3   1 -11   11.15    0.44
  -3  -1  11   12.29    0.49
  -3  -1  11   12.77    0.49
   2   1 -11   10.89    0.45
   2   1 -11   11.35    0.46
   2   1 -11   11.25    0.46
  -2  -1  11   10.95    0.46
  -2  -1  11   10.71    0.43
  -2  -1  11   10.13    0.42
   1   1 -11    1.79    0.23
   1   1 -11    1.56    0.23
   1   1 -11    1.19    0.21
  -1  -1  11    1.27    0.20
  -1  -1  11    1.39    0.22
   0   1 -11    3.73    0.31
   0   1 -11    4.18    0.34
   0   1 -11    3.59    0.25
   0   1 -11    3.48    0.27
   0  -1  11    3.80    0.26
   0  -1  11    3.62    0.31
   0  -1  11    3.67    0.33
  -1   1 -11   22.78    0.62
  -1   1 -11   22.48    0.59
  -1   1 -11   23.10    0.69
  -1   1 -11   22.99    0.57
   1  -1  11   23.77    0.65
   1  -1  11   22.56    0.69
  -2   1 -11    1.59    0.22
  -2   1 -11    1.20    0.21
  -2   1 -11    1.18    0.23
   2  -1  11    1.37    0.26
   2  -1  11    1.16    0.24
  -3   1 -11    9.54    0.53
  -3   1 -11   10.41    0.48
   3  -1  11   10.85    0.53
   3  -1  11    9.39    0.50
  -4   1 -11    0.68    0.24
  -4   1 -11    1.14    0.28
   4  -1  11    1.10    0.27
   4  -1  11    0.88    0.26
  -5   1 -11    0.39    0.26
   7   0 -11    2.23    0.31
   7   0 -11    1.77    0.30
   7   0 -11    2.46    0.35
  -7   0  11    2.50    0.32
   6   0 -11   11.91    0.53
   6   0 -11   12.06    0.57
  -6   0  11   12.06    0.54
  -6   0  11   11.85    0.57
   5   0 -11    0.39    0.20
   5   0 -11   -0.12    0.15
   5   0 -11   -0.08    0.14
  -5   0  11    0.05    0.17
  -5   0  11   -0.07    0.17
   4   0 -11   14.97    0.58
   4   0 -11   15.08    0.55
   4   0 -11   15.04    0.54
  -4   0  11   14.87    0.54
  -4   0  11   15.12    0.56
   3   0 -11    1.63    0.25
   3   0 -11    1.49    0.23
   3   0 -11    1.73    0.24
  -3   0  11    1.37    0.21
  -3   0  11    2.00    0.26
  -3   0  11    1.57    0.24
   2   0 -11   24.90    0.66
   2   0 -11   25.35    0.67
   2   0 -11   25.52    0.71
  -2   0  11   25.28    0.63
  -2   0  11   25.92    0.69
  -2   0  11   25.65    0.66
   1   0 -11    0.93    0.19
   1   0 -11    0.39    0.16
   1   0 -11    0.84    0.21
   1   0 -11    0.88    0.16
  -1   0  11    0.76    0.17
  -1   0  11    0.70    0.18
  -1   0  11    0.70    0.21
   0   0 -11    6.65    0.40
   0   0 -11    7.04    0.38
   0   0 -11    6.92    0.34
   0   0 -11    7.20    0.35
   0   0  11    7.02    0.38
   0   0  11    6.26    0.32
   0   0  11    7.50    0.43
  -1   0 -11   15.50    0.51
  -1   0 -11   15.23    0.59
  -1   0 -11   14.99    0.50
  -1   0 -11   14.75    0.49
   1   0  11   16.03    0.55
   1   0  11   15.20    0.60
  -2   0 -11    1.92    0.30
  -2   0 -11    1.38    0.24
  -2   0 -11    1.19    0.23
   2   0  11    1.00    0.25
   2   0  11    1.36    0.24
  -3   0 -11    5.83    0.49
  -3   0 -11    5.92    0.43
  -3   0 -11    4.96    0.41
   3   0  11    5.91    0.48
   3   0  11    5.21    0.42
  -4   0 -11    0.78    0.26
  -4   0 -11    0.56    0.25
   4   0  11    0.14    0.24
   4   0  11    0.56    0.26
   7  -1 -11   -0.30    0.19
   7  -1 -11    0.18    0.21
  -7   1  11    0.26    0.26
   6  -1 -11   15.66    0.61
   6  -1 -11   15.14    0.58
   6  -1 -11   15.41    0.64
  -6   1  11   14.39    0.56
  -6   1  11   15.58    0.63
   5  -1 -11   14.35    0.57
   5  -1 -11   13.38    0.57
   5  -1 -11   14.37    0.56
  -5   1  11   14.45    0.58
  -5   1  11   14.79    0.54
   4  -1 -11    1.09    0.23
   4  -1 -11    0.94    0.23
   4  -1 -11    1.19    0.23
  -4   1  11    1.17    0.22
  -4   1  11    0.92    0.21
   3  -1 -11    6.51    0.40
   3  -1 -11    6.00    0.39
   3  -1 -11    6.96    0.42
  -3   1  11    6.42    0.39
  -3   1  11    6.37    0.34
  -3   1  11    5.32    0.36
   2  -1 -11   10.14    0.44
   2  -1 -11   10.11    0.39
   2  -1 -11    9.59    0.45
   2  -1 -11   10.23    0.49
  -2   1  11   10.20    0.40
  -2   1  11   10.91    0.44
  -2   1  11    9.58    0.49
   1  -1 -11    0.01    0.16
   1  -1 -11    0.19    0.13
   1  -1 -11    0.11    0.15
   1  -1 -11   -0.07    0.15
  -1   1  11    0.10    0.14
  -1   1  11    0.36    0.19
  -1   1  11    0.22    0.16
   0  -1 -11    4.74    0.31
   0  -1 -11    4.17    0.31
   0  -1 -11    3.84    0.31
   0  -1 -11    3.96    0.36
   0   1  11    3.73    0.31
   0   1  11    5.03    0.41
   0   1  11    3.92    0.41
  -1  -1 -11    2.04    0.27
  -1  -1 -11    2.13    0.27
  -1  -1 -11    2.37    0.32
   1   1  11    1.78    0.27
   1   1  11    1.93    0.31
  -2  -1 -11    3.01    0.33
  -2  -1 -11    2.12    0.33
  -2  -1 -11    3.06    0.33
   2   1  11    2.53    0.32
   2   1  11    2.66    0.37
  -3  -1 -11    0.65    0.24
  -3  -1 -11    0.60    0.25
  -3  -1 -11    0.14    0.20
   3   1  11    0.60    0.27
   3   1  11    0.47    0.24
   7  -2 -11   17.14    0.67
   7  -2 -11   17.66    0.67
   7  -2 -11   17.51    0.70
  -7   2  11   17.96    0.74
   6  -2 -11    0.18    0.18
   6  -2 -11   -0.04    0.22
   6  -2 -11    0.02    0.18
  -6   2  11    0.10    0.21
   5  -2 -11    8.91    0.48
   5  -2 -11    9.74    0.50
   5  -2 -11    8.87    0.50
  -5   2  11    8.47    0.49
   4  -2 -11    1.39    0.25
   4  -2 -11    1.44    0.25
   4  -2 -11    0.98    0.24
  -4   2  11    1.05    0.22
  -4   2  11    1.42    0.25
   3  -2 -11    0.22    0.18
   3  -2 -11    0.01    0.16
   3  -2 -11    0.02    0.14
  -3   2  11    0.09    0.17
  -3   2  11    0.00    0.15
   2  -2 -11    3.50    0.32
   2  -2 -11    3.25    0.34
   2  -2 -11    3.19    0.29
  -2   2  11    3.93    0.33
  -2   2  11    3.14    0.35
   1  -2 -11    4.44    0.39
   1  -2 -11    5.89    0.37
   1  -2 -11    5.72    0.35
  -1   2  11    5.60    0.35
  -1   2  11    5.22    0.43
   0  -2 -11    3.88    0.34
   0  -2 -11    4.39    0.40
   0  -2 -11    3.84    0.38
   0  -2 -11    3.72    0.33
   0   2  11    4.31    0.43
   0   2  11    3.60    0.32
  -1  -2 -11    3.53    0.36
  -1  -2 -11    2.76    0.33
  -1  -2 -11    3.47    0.39
   1   2  11    3.40    0.40
   1   2  11    3.05    0.32
  -2  -2 -11    1.15    0.29
  -2  -2 -11    1.04    0.26
  -2  -2 -11    1.24    0.27
   2   2  11    1.02    0.29
   2   2  11    0.82    0.25
   7  -3 -11    1.54    0.31
   7  -3 -11    1.79    0.32
   7  -3 -11    1.34    0.27
  -7   3  11    1.44    0.33
   6  -3 -11    7.43    0.47
   6  -3 -11    7.18    0.49
   6  -3 -11    6.01    0.46
  -6   3  11    7.45    0.48
   5  -3 -11   -0.16    0.17
   5  -3 -11    0.35    0.21
  -5   3  11    0.45    0.22
   4  -3 -11    5.75    0.37
   4  -3 -11    5.08    0.40
   4  -3 -11    5.41    0.43
  -4   3  11    6.17    0.42
   3  -3 -11   -0.04    0.17
   3  -3 -11    0.07    0.15
   3  -3 -11    0.06    0.17
  -3   3  11   -0.06    0.17
  -3   3  11    0.12    0.20
   2  -3 -11    7.66    0.51
   2  -3 -11    7.28    0.41
   2  -3 -11    7.76    0.44
  -2   3  11    7.28    0.50
  -2   3  11    7.93    0.44
   1  -3 -11    0.55    0.20
   1  -3 -11    0.98    0.23
   1  -3 -11    1.37    0.24
   1  -3 -11    1.11    0.27
  -1   3  11    0.64    0.20
  -1   3  11    0.66    0.25
   0  -3 -11    0.29    0.20
   0  -3 -11    0.22    0.20
   0  -3 -11   -0.18    0.17
   0   3  11    0.35    0.23
  -1  -3 -11   14.99    0.63
  -1  -3 -11   14.70    0.63
  -1  -3 -11   14.89    0.66
   1   3  11   14.09    0.71
   6  -4 -11    7.12    0.51
   6  -4 -11    6.58    0.50
  -6   4  11    7.82    0.53
   5  -4 -11    9.37    0.55
   5  -4 -11   10.12    0.48
   5  -4 -11    9.91    0.54
  -5   4  11    9.95    0.55
   4  -4 -11    5.14    0.42
   4  -4 -11    5.46    0.40
   4  -4 -11    6.31    0.47
  -4   4  11    6.22    0.45
   3  -4 -11    0.18    0.18
   3  -4 -11    0.23    0.20
   3  -4 -11    0.31    0.21
  -3   4  11    0.42    0.20
  -3   4  11    0.29    0.23
   2  -4 -11    1.93    0.28
   2  -4 -11    2.53    0.32
   2  -4 -11    2.39    0.35
  -2   4  11    2.21    0.30
  -2   4  11    2.00    0.35
   1  -4 -11    5.99    0.44
   1  -4 -11    5.77    0.49
   1  -4 -11    6.40    0.45
  -1   4  11    4.70    0.46
   4  -5 -11    2.57    0.34
   4  -5 -11    2.34    0.37
   4  -5 -11    2.66    0.35
  -4   5  11    2.57    0.37
  -4   5  11    2.14    0.33
  -1   8 -12    0.57    0.23
  -1   8 -12    0.41    0.26
  -1   8 -12    0.35    0.23
   1  -8  12    0.69    0.27
   1  -8  12    0.52    0.21
  -2   8 -12    1.18    0.28
  -2   8 -12    1.20    0.28
  -2   8 -12    0.97    0.26
   2  -8  12    1.28    0.31
   2  -8  12    0.92    0.23
   2  -8  12    0.97    0.24
  -3   8 -12    4.39    0.40
  -3   8 -12    4.72    0.44
  -3   8 -12    4.59    0.43
   3  -8  12    4.48    0.40
   3  -8  12    4.56    0.45
   1   7 -12    1.61    0.28
   1   7 -12    1.95    0.29
   1   7 -12    1.86    0.32
  -1  -7  12    1.99    0.31
  -1  -7  12    1.95    0.32
   0   7 -12   -0.14    0.18
   0   7 -12   -0.12    0.17
   0   7 -12   -0.20    0.22
   0  -7  12    0.03    0.21
   0  -7  12   -0.17    0.17
  -1   7 -12    8.09    0.50
  -1   7 -12    7.55    0.48
  -1   7 -12    7.62    0.48
   1  -7  12    7.81    0.47
   1  -7  12    8.27    0.47
   1  -7  12    7.41    0.50
  -2   7 -12    2.37    0.31
  -2   7 -12    1.73    0.29
  -2   7 -12    1.93    0.31
   2  -7  12    2.14    0.33
   2  -7  12    2.24    0.31
   2  -7  12    2.42    0.30
  -3   7 -12    2.90    0.38
  -3   7 -12    3.00    0.36
   3  -7  12    3.12    0.34
   3  -7  12    3.31    0.35
   3  -7  12    2.92    0.38
  -4   7 -12    7.16    0.50
  -4   7 -12    7.42    0.53
   4  -7  12    7.45    0.47
   4  -7  12    6.07    0.44
   4  -7  12    7.32    0.55
   3   6 -12    0.07    0.22
   3   6 -12    0.52    0.25
   3   6 -12   -0.03    0.18
  -3  -6  12    0.28    0.23
   2   6 -12    5.35    0.44
   2   6 -12    4.96    0.40
   2   6 -12    5.05    0.44
  -2  -6  12    6.12    0.48
  -2  -6  12    6.29    0.47
   1   6 -12    5.37    0.41
   1   6 -12    5.75    0.41
   1   6 -12    5.93    0.46
  -1  -6  12    6.06    0.44
  -1  -6  12    5.16    0.44
   0   6 -12    0.02    0.18
   0   6 -12    0.14    0.19
   0  -6  12   -0.17    0.16
   0  -6  12    0.21    0.19
   0  -6  12    0.10    0.18
  -1   6 -12    2.95    0.29
  -1   6 -12    2.82    0.33
  -1   6 -12    3.13    0.35
   1  -6  12    2.92    0.33
   1  -6  12    2.64    0.32
   1  -6  12    2.85    0.41
   1  -6  12    2.42    0.31
  -2   6 -12    0.34    0.19
  -2   6 -12    0.24    0.17
  -2   6 -12    0.17    0.19
   2  -6  12    0.13    0.18
   2  -6  12    0.10    0.20
   2  -6  12    0.14    0.19
  -3   6 -12    0.35    0.20
  -3   6 -12   -0.21    0.18
   3  -6  12    0.08    0.18
   3  -6  12   -0.11    0.16
   3  -6  12    0.01    0.21
  -4   6 -12    5.18    0.43
   4  -6  12    5.72    0.42
   4  -6  12    4.91    0.45
  -5   6 -12    2.79    0.35
  -5   6 -12    2.74    0.40
   5  -6  12    2.63    0.35
   5  -6  12    2.54    0.38
   4   5 -12    1.69    0.31
   4   5 -12    1.52    0.27
   4   5 -12    1.75    0.32
  -4  -5  12    1.80    0.32
   3   5 -12   -0.01    0.17
   3   5 -12    0.14    0.21
   3   5 -12   -0.11    0.19
  -3  -5  12    0.11    0.19
   2   5 -12   23.30    0.72
   2   5 -12   23.84    0.76
   2   5 -12   23.89    0.72
  -2  -5  12   24.07    0.73
  -2  -5  12   24.45    0.76
   1   5 -12    0.89    0.23
   1   5 -12    0.52    0.21
   1   5 -12    0.67    0.20
  -1  -5  12    0.42    0.21
  -1  -5  12    0.82    0.23
   0   5 -12    5.09    0.41
   0   5 -12    6.24    0.36
   0   5 -12    5.66    0.40
   0  -5  12    6.27    0.44
   0  -5  12    6.18    0.42
   0  -5  12    5.79    0.40
   0  -5  12    6.28    0.40
  -1   5 -12    0.21    0.17
  -1   5 -12    0.43    0.19
  -1   5 -12    0.07    0.16
   1  -5  12    0.16    0.17
   1  -5  12   -0.01    0.17
   1  -5  12    0.04    0.17
   1  -5  12    0.44    0.20
  -2   5 -12    3.16    0.32
  -2   5 -12    3.35    0.34
   2  -5  12    3.12    0.34
   2  -5  12    3.15    0.33
   2  -5  12    3.06    0.33
   2  -5  12    2.87    0.31
  -3   5 -12   13.85    0.58
  -3   5 -12   13.69    0.57
   3  -5  12   14.65    0.57
   3  -5  12   14.18    0.59
   3  -5  12   13.34    0.56
  -4   5 -12    5.39    0.42
  -4   5 -12    4.69    0.43
   4  -5  12    4.21    0.38
   4  -5  12    4.79    0.44
  -5   5 -12    1.41    0.28
  -5   5 -12    1.19    0.26
   5  -5  12    1.54    0.29
   5  -5  12    1.71    0.33
   5   4 -12    3.67    0.42
   4   4 -12   13.73    0.64
   4   4 -12   14.35    0.63
   4   4 -12   13.30    0.56
  -4  -4  12   14.83    0.65
   3   4 -12    9.76    0.49
   3   4 -12   10.07    0.53
   3   4 -12   10.40    0.52
  -3  -4  12   10.11    0.48
  -3  -4  12    9.32    0.51
   2   4 -12   -0.07    0.16
   2   4 -12    0.14    0.19
   2   4 -12    0.04    0.18
  -2  -4  12    0.05    0.17
  -2  -4  12   -0.11    0.16
   1   4 -12    4.03    0.35
   1   4 -12    4.36    0.36
   1   4 -12    4.14    0.33
   1   4 -12    4.25    0.31
  -1  -4  12    3.84    0.32
  -1  -4  12    4.39    0.36
  -1  -4  12    4.00    0.35
   0   4 -12    0.01    0.14
   0   4 -12    0.03    0.16
   0   4 -12   -0.17    0.13
   0   4 -12   -0.06    0.13
   0  -4  12   -0.11    0.15
   0  -4  12    0.06    0.16
   0  -4  12   -0.04    0.16
  -1   4 -12    0.61    0.18
  -1   4 -12    0.36    0.18
  -1   4 -12    0.73    0.21
   1  -4  12    0.49    0.19
   1  -4  12    0.72    0.21
   1  -4  12    0.54    0.20
  -2   4 -12    0.16    0.19
  -2   4 -12    0.48    0.20
   2  -4  12    0.23    0.19
   2  -4  12    0.31    0.19
  -3   4 -12    3.55    0.37
  -3   4 -12    3.80    0.36
   3  -4  12    4.07    0.37
   3  -4  12    3.74    0.35
   3  -4  12    4.27    0.38
  -4   4 -12    2.66    0.31
  -4   4 -12    2.88    0.35
  -4   4 -12    1.96    0.28
   4  -4  12    2.19    0.32
   4  -4  12    2.58    0.32
  -5   4 -12    2.59    0.37
  -5   4 -12    2.20    0.31
   5  -4  12    2.15    0.34
   5  -4  12    2.29    0.33
   5   3 -12    1.74    0.32
   5   3 -12    1.64    0.31
   5   3 -12    1.95    0.28
  -5  -3  12    1.38    0.29
   4   3 -12    5.88    0.46
   4   3 -12    5.83    0.47
   4   3 -12    5.43    0.41
  -4  -3  12    5.80    0.45
   3   3 -12    1.09    0.23
   3   3 -12    1.39    0.26
   3   3 -12    1.00    0.24
  -3  -3  12    1.20    0.24
   2   3 -12   14.58    0.49
   2   3 -12   14.30    0.57
   2   3 -12   13.88    0.54
   2   3 -12   14.54    0.55
  -2  -3  12   14.70    0.55
  -2  -3  12   14.44    0.57
   1   3 -12   14.27    0.54
   1   3 -12   14.11    0.52
   1   3 -12   13.26    0.50
  -1  -3  12   14.04    0.53
  -1  -3  12   13.74    0.55
  -1  -3  12   15.51    0.68
   0   3 -12    0.31    0.17
   0   3 -12    0.15    0.17
   0   3 -12    0.18    0.16
   0  -3  12    0.22    0.16
   0  -3  12    0.00    0.16
   0  -3  12   -0.27    0.15
  -1   3 -12    4.18    0.34
  -1   3 -12    3.62    0.35
  -1   3 -12    3.29    0.33
   1  -3  12    3.34    0.29
   1  -3  12    3.33    0.33
  -2   3 -12    0.29    0.19
  -2   3 -12    0.49    0.20
   2  -3  12    0.02    0.17
   2  -3  12    0.32    0.20
   2  -3  12   -0.12    0.17
  -3   3 -12    1.08    0.23
  -3   3 -12    1.31    0.27
  -3   3 -12    0.93    0.22
   3  -3  12    0.96    0.23
   3  -3  12    0.82    0.24
   3  -3  12    1.13    0.26
  -4   3 -12    2.49    0.32
  -4   3 -12    2.52    0.35
  -4   3 -12    3.47    0.34
   4  -3  12    3.13    0.36
   4  -3  12    3.57    0.37
   4  -3  12    3.02    0.35
  -5   3 -12    4.54    0.47
  -5   3 -12    3.87    0.40
   5  -3  12    4.18    0.43
   5  -3  12    4.50    0.45
   6   2 -12   19.61    0.77
   6   2 -12   20.17    0.69
   6   2 -12   19.57    0.75
  -6  -2  12   20.20    0.77
   5   2 -12    0.47    0.21
   5   2 -12   -0.02    0.19
   5   2 -12    0.11    0.22
  -5  -2  12    0.21    0.22
   4   2 -12    9.38    0.47
   4   2 -12    8.46    0.50
   4   2 -12    8.38    0.50
  -4  -2  12   10.22    0.52
   3   2 -12    0.39    0.20
   3   2 -12    0.49    0.18
   3   2 -12    0.40    0.19
  -3  -2  12    0.52    0.20
   2   2 -12    2.62    0.29
   2   2 -12    2.22    0.26
   2   2 -12    2.29    0.27
  -2  -2  12    2.87    0.30
  -2  -2  12    1.91    0.27
   1   2 -12    2.58    0.29
   1   2 -12    3.68    0.33
   1   2 -12    3.13    0.30
  -1  -2  12    3.83    0.33
  -1  -2  12    3.71    0.34
   0   2 -12   20.65    0.66
   0   2 -12   21.73    0.64
   0   2 -12   21.38    0.60
   0  -2  12   22.41    0.65
  -1   2 -12    3.20    0.33
  -1   2 -12    2.81    0.30
   1  -2  12    2.68    0.30
   1  -2  12    2.76    0.30
  -2   2 -12    7.95    0.48
  -2   2 -12    6.84    0.41
   2  -2  12    8.38    0.46
   2  -2  12    8.34    0.46
  -3   2 -12    2.83    0.35
  -3   2 -12    3.12    0.32
  -3   2 -12    3.35    0.32
   3  -2  12    2.48    0.32
   3  -2  12    3.21    0.35
  -4   2 -12    5.17    0.48
  -4   2 -12    4.57    0.41
   4  -2  12    5.37    0.46
   4  -2  12    5.11    0.45
   6   1 -12    0.73    0.25
   6   1 -12    1.19    0.27
   6   1 -12    1.03    0.26
  -6  -1  12    0.35    0.22
   5   1 -12   23.37    0.77
   5   1 -12   23.57    0.73
  -5  -1  12   23.79    0.74
   4   1 -12    5.29    0.37
   4   1 -12    5.28    0.40
   4   1 -12    6.18    0.45
  -4  -1  12    5.73    0.41
  -4  -1  12    4.92    0.39
   3   1 -12   16.29    0.60
   3   1 -12   17.31    0.60
   3   1 -12   17.70    0.59
  -3  -1  12   17.58    0.60
  -3  -1  12   17.20    0.61
   2   1 -12    0.04    0.17
   2   1 -12    0.09    0.16
   2   1 -12    0.15    0.16
  -2  -1  12   -0.01    0.16
  -2  -1  12    0.19    0.16
  -2  -1  12    0.41    0.18
   1   1 -12    0.53    0.18
   1   1 -12    0.64    0.20
   1   1 -12    0.31    0.18
  -1  -1  12    0.42    0.19
  -1  -1  12    0.48    0.16
   0   1 -12    2.58    0.30
   0   1 -12    2.55    0.28
   0   1 -12    2.59    0.28
   0   1 -12    1.89    0.23
   0  -1  12    2.09    0.24
   0  -1  12    2.37    0.28
   0  -1  12    2.07    0.29
  -1   1 -12    1.50    0.27
  -1   1 -12    1.42    0.22
  -1   1 -12    1.97    0.26
   1  -1  12    1.54    0.26
   1  -1  12    1.52    0.26
  -2   1 -12    0.14    0.20
  -2   1 -12    0.30    0.17
  -2   1 -12    0.06    0.17
   2  -1  12    0.31    0.21
   2  -1  12    0.24    0.20
  -3   1 -12    4.10    0.37
  -3   1 -12    4.28    0.45
   3  -1  12    3.82    0.39
   3  -1  12    4.02    0.39
  -4   1 -12    6.55    0.55
  -4   1 -12    7.31    0.49
   4  -1  12    6.51    0.51
   4  -1  12    6.46    0.51
   6   0 -12    0.68    0.22
   6   0 -12    0.49    0.25
  -6   0  12    0.68    0.26
  -6   0  12    0.34    0.21
   5   0 -12    1.03    0.26
   5   0 -12    1.05    0.24
   5   0 -12    0.83    0.22
  -5   0  12    0.78    0.22
  -5   0  12    1.25    0.26
   4   0 -12   -0.05    0.18
   4   0 -12    0.20    0.19
   4   0 -12   -0.21    0.15
  -4   0  12    0.19    0.19
  -4   0  12   -0.11    0.18
   3   0 -12   17.82    0.61
   3   0 -12   17.88    0.62
   3   0 -12   17.64    0.63
  -3   0  12   18.43    0.61
  -3   0  12   18.67    0.57
  -3   0  12   17.81    0.60
   2   0 -12    0.82    0.21
   2   0 -12    0.79    0.22
   2   0 -12    1.50    0.24
  -2   0  12    1.39    0.23
  -2   0  12    1.41    0.25
  -2   0  12    0.95    0.21
   1   0 -12    1.50    0.24
   1   0 -12    1.50    0.25
   1   0 -12    1.65    0.26
   1   0 -12    1.65    0.24
  -1   0  12    1.39    0.26
  -1   0  12    1.39    0.22
  -1   0  12    1.63    0.24
   0   0 -12    6.06    0.38
   0   0 -12    5.96    0.43
   0   0 -12    5.28    0.34
   0   0  12    5.83    0.38
   0   0  12    6.06    0.44
  -1   0 -12    6.69    0.40
  -1   0 -12    7.20    0.48
  -1   0 -12    6.13    0.38
   1   0  12    7.50    0.49
   1   0  12    6.25    0.44
  -2   0 -12    0.94    0.22
  -2   0 -12    0.88    0.26
  -2   0 -12    1.38    0.25
   2   0  12    0.99    0.27
   2   0  12    1.15    0.26
  -3   0 -12    8.65    0.56
  -3   0 -12    8.11    0.50
   3   0  12    8.12    0.55
   3   0  12    9.41    0.54
   6  -1 -12    7.90    0.48
   6  -1 -12    7.82    0.50
   6  -1 -12    7.53    0.52
  -6   1  12    8.79    0.53
   5  -1 -12    6.04    0.43
   5  -1 -12    6.02    0.44
   5  -1 -12    5.44    0.43
  -5   1  12    5.80    0.41
  -5   1  12    6.49    0.46
   4  -1 -12    9.56    0.51
   4  -1 -12    9.53    0.48
   4  -1 -12    8.93    0.49
  -4   1  12    9.42    0.48
  -4   1  12    9.01    0.48
   3  -1 -12    3.85    0.35
   3  -1 -12    3.75    0.35
   3  -1 -12    4.14    0.39
  -3   1  12    4.16    0.38
  -3   1  12    3.35    0.31
  -3   1  12    3.27    0.32
   2  -1 -12    5.74    0.51
   2  -1 -12    7.43    0.46
   2  -1 -12    6.45    0.41
   2  -1 -12    5.41    0.39
  -2   1  12    5.59    0.38
  -2   1  12    6.01    0.45
  -2   1  12    5.86    0.36
   1  -1 -12    0.43    0.17
   1  -1 -12    0.91    0.24
   1  -1 -12    0.69    0.19
   1  -1 -12    0.69    0.22
  -1   1  12    0.68    0.20
  -1   1  12    0.84    0.20
  -1   1  12    0.68    0.24
   0  -1 -12    0.21    0.20
   0  -1 -12   -0.05    0.16
   0  -1 -12    0.02    0.18
   0   1  12   -0.02    0.19
   0   1  12    0.26    0.19
  -1  -1 -12   12.60    0.54
  -1  -1 -12   12.73    0.53
  -1  -1 -12   12.68    0.62
   1   1  12   12.90    0.63
   1   1  12   13.28    0.55
  -2  -1 -12    0.60    0.24
  -2  -1 -12    0.64    0.24
  -2  -1 -12    0.90    0.30
   2   1  12    0.63    0.24
   2   1  12    0.89    0.27
   6  -2 -12    3.61    0.38
   6  -2 -12    3.91    0.42
   6  -2 -12    3.56    0.39
  -6   2  12    4.69    0.45
   5  -2 -12   13.58    0.60
   5  -2 -12   13.89    0.61
   5  -2 -12   13.79    0.64
  -5   2  12   13.92    0.60
   4  -2 -12    0.45    0.23
   4  -2 -12    0.90    0.25
   4  -2 -12    0.44    0.22
  -4   2  12    0.71    0.24
   3  -2 -12   13.46    0.56
   3  -2 -12   12.82    0.59
   3  -2 -12   12.86    0.56
  -3   2  12   12.97    0.54
  -3   2  12   12.54    0.53
   2  -2 -12    0.74    0.23
   2  -2 -12    0.77    0.22
   2  -2 -12    0.41    0.18
   2  -2 -12    0.67    0.24
  -2   2  12    1.18    0.24
  -2   2  12    0.86    0.26
   1  -2 -12    0.36    0.18
   1  -2 -12    0.63    0.22
   1  -2 -12    0.37    0.23
  -1   2  12    0.28    0.24
  -1   2  12    0.30    0.19
   0  -2 -12    1.57    0.30
   0  -2 -12    1.96    0.28
   0   2  12    1.55    0.32
  -1  -2 -12    3.75    0.38
  -1  -2 -12    3.71    0.41
  -1  -2 -12    3.64    0.38
   1   2  12    3.56    0.40
   6  -3 -12    6.40    0.50
   6  -3 -12    6.53    0.53
   6  -3 -12    7.10    0.50
  -6   3  12    5.40    0.47
   5  -3 -12    2.38    0.33
   5  -3 -12    2.37    0.34
   5  -3 -12    2.31    0.33
  -5   3  12    2.37    0.33
   4  -3 -12    0.51    0.24
   4  -3 -12    0.31    0.24
  -4   3  12    0.39    0.22
   3  -3 -12    4.56    0.40
   3  -3 -12    4.04    0.42
   3  -3 -12    3.43    0.33
  -3   3  12    3.39    0.36
  -3   3  12    4.01    0.43
   2  -3 -12   -0.12    0.21
   2  -3 -12   -0.12    0.16
   2  -3 -12    0.05    0.20
  -2   3  12    0.57    0.26
  -2   3  12    0.39    0.21
   1  -3 -12    0.40    0.24
   1  -3 -12    0.16    0.19
  -1   3  12    0.03    0.22
   0  -3 -12    0.18    0.22
   0  -3 -12    0.13    0.23
   0  -3 -12    0.08    0.20
   0   3  12   -0.21    0.23
   4  -4 -12    2.08    0.35
   4  -4 -12    2.00    0.32
   4  -4 -12    1.86    0.29
  -4   4  12    2.06    0.33
   3  -4 -12    2.69    0.34
   3  -4 -12    3.16    0.34
   3  -4 -12    2.70    0.40
  -3   4  12    2.73    0.39
  -3   4  12    3.22    0.37
   0   7 -13   16.15    0.73
   0   7 -13   16.49    0.66
   0   7 -13   17.07    0.69
   0  -7  13   16.37    0.69
   0  -7  13   15.78    0.66
  -1   7 -13    0.01    0.20
  -1   7 -13   -0.15    0.20
  -1   7 -13   -0.04    0.20
   1  -7  13   -0.06    0.19
   1  -7  13    0.08    0.20
   1  -7  13    0.11    0.23
  -2   7 -13    0.70    0.26
  -2   7 -13    0.96    0.27
  -2   7 -13    0.59    0.24
   2  -7  13    1.04    0.25
   2  -7  13    0.69    0.25
   2  -7  13    0.29    0.21
  -3   7 -13    1.89    0.35
  -3   7 -13    1.64    0.32
   3  -7  13    1.32    0.28
   3  -7  13    1.05    0.29
   3  -7  13    1.26    0.27
   2   6 -13    0.25    0.21
   2   6 -13    0.34    0.26
   2   6 -13    0.71    0.26
  -2  -6  13    0.76    0.26
  -2  -6  13    0.58    0.26
   1   6 -13   -0.13    0.17
   1   6 -13    0.35    0.23
  -1  -6  13    0.04    0.21
  -1  -6  13    0.09    0.21
   0   6 -13    0.31    0.22
   0   6 -13    0.42    0.24
   0  -6  13    0.56    0.23
   0  -6  13    0.50    0.21
   0  -6  13    0.62    0.22
  -1   6 -13    9.54    0.52
  -1   6 -13    9.77    0.53
   1  -6  13   10.48    0.54
   1  -6  13   10.67    0.53
   1  -6  13    9.84    0.53
  -2   6 -13    1.27    0.27
  -2   6 -13    1.57    0.28
   2  -6  13    1.62    0.28
   2  -6  13    1.14    0.26
   2  -6  13    1.14    0.28
  -3   6 -13    0.82    0.25
  -3   6 -13    1.09    0.27
   3  -6  13    0.71    0.28
   3  -6  13    1.21    0.26
   3  -6  13    0.54    0.23
  -4   6 -13    8.41    0.53
   4  -6  13    7.52    0.50
   4  -6  13    9.09    0.57
   3   5 -13   13.34    0.62
   3   5 -13   12.43    0.64
   3   5 -13   13.35    0.58
  -3  -5  13   13.71    0.65
   2   5 -13   12.20    0.59
   2   5 -13   12.60    0.57
   2   5 -13   12.03    0.56
  -2  -5  13   13.26    0.61
  -2  -5  13   11.25    0.55
   1   5 -13    0.28    0.19
   1   5 -13    0.49    0.23
   1   5 -13    0.63    0.23
  -1  -5  13    0.69    0.24
  -1  -5  13    0.76    0.24
  -1  -5  13    0.22    0.21
   0   5 -13    4.23    0.39
   0   5 -13    3.65    0.35
   0   5 -13    3.90    0.33
   0  -5  13    4.12    0.37
   0  -5  13    5.00    0.42
   0  -5  13    3.80    0.37
  -1   5 -13    0.14    0.19
  -1   5 -13    0.10    0.17
  -1   5 -13   -0.01    0.17
   1  -5  13   -0.44    0.15
   1  -5  13    0.04    0.19
   1  -5  13    0.28    0.21
  -2   5 -13    1.39    0.27
  -2   5 -13    2.09    0.32
   2  -5  13    1.07    0.24
   2  -5  13    1.10    0.26
   2  -5  13    1.39    0.28
  -3   5 -13    0.09    0.21
  -3   5 -13    0.14    0.20
   3  -5  13    0.19    0.21
   3  -5  13    0.74    0.26
  -4   5 -13    0.25    0.23
  -4   5 -13    0.13    0.21
   4  -5  13    0.34    0.22
   4  -5  13    0.30    0.27
   4   4 -13    1.82    0.35
   4   4 -13    2.32    0.34
   4   4 -13    2.09    0.31
  -4  -4  13    2.26    0.36
   3   4 -13    1.30    0.30
   3   4 -13    1.21    0.27
   3   4 -13    0.97    0.25
  -3  -4  13    1.26    0.27
   2   4 -13   26.83    0.78
   2   4 -13   25.69    0.79
   2   4 -13   26.39    0.77
  -2  -4  13   25.64    0.80
   1   4 -13    0.01    0.18
   1   4 -13    0.40    0.17
   1   4 -13    0.31    0.20
   1   4 -13    0.00    0.17
  -1  -4  13    0.19    0.20
  -1  -4  13    0.34    0.20
   0   4 -13   10.97    0.50
   0   4 -13   10.76    0.50
   0   4 -13   10.75    0.51
   0  -4  13   11.88    0.53
   0  -4  13   10.77    0.47
   0  -4  13   10.49    0.53
  -1   4 -13   -0.32    0.16
  -1   4 -13    0.02    0.17
   1  -4  13    0.08    0.18
   1  -4  13    0.11    0.19
   1  -4  13   -0.05    0.18
  -2   4 -13    5.70    0.44
  -2   4 -13    4.67    0.39
   2  -4  13    5.12    0.42
   2  -4  13    4.86    0.40
  -3   4 -13    7.23    0.46
  -3   4 -13    6.28    0.48
   3  -4  13    7.09    0.47
   3  -4  13    6.86    0.50
   3  -4  13    6.28    0.44
  -4   4 -13    6.75    0.45
  -4   4 -13    6.93    0.52
   4  -4  13    5.77    0.48
   4  -4  13    4.98    0.45
   5   3 -13   14.69    0.61
   5   3 -13   14.72    0.68
   5   3 -13   14.99    0.68
  -5  -3  13   14.95    0.69
   4   3 -13    2.03    0.32
   4   3 -13    1.84    0.29
   4   3 -13    1.79    0.31
  -4  -3  13    2.17    0.32
   3   3 -13   13.16    0.56
   3   3 -13   13.14    0.60
   3   3 -13   13.10    0.59
  -3  -3  13   13.36    0.60
   2   3 -13   -0.04    0.19
   2   3 -13   -0.01    0.18
   2   3 -13    0.17    0.19
   2   3 -13   -0.04    0.15
  -2  -3  13    0.13    0.19
  -2  -3  13    0.36    0.20
   1   3 -13    0.76    0.21
   1   3 -13    0.74    0.23
   1   3 -13    0.48    0.20
  -1  -3  13    0.78    0.23
  -1  -3  13    0.63    0.23
   0   3 -13    0.68    0.21
   0   3 -13    0.91    0.23
   0   3 -13    0.31    0.20
   0  -3  13    0.50    0.20
   0  -3  13    0.91    0.24
  -1   3 -13    1.71    0.27
  -1   3 -13    1.26    0.26
   1  -3  13    1.51    0.27
  -2   3 -13    2.42    0.31
  -2   3 -13    3.47    0.40
   2  -3  13    2.36    0.32
   2  -3  13    2.63    0.32
  -3   3 -13    0.24    0.23
  -3   3 -13    0.01    0.20
   3  -3  13   -0.23    0.17
   3  -3  13   -0.16    0.20
  -4   3 -13    4.28    0.46
   4  -3  13    3.78    0.40
   4  -3  13    3.79    0.41
   5   2 -13    1.25    0.28
   5   2 -13    1.11    0.28
   5   2 -13    1.61    0.32
  -5  -2  13    1.35    0.29
   4   2 -13    7.95    0.50
   4   2 -13    8.31    0.51
   4   2 -13    7.55    0.48
  -4  -2  13    8.65    0.52
   3   2 -13    2.70    0.29
   3   2 -13    3.59    0.38
   3   2 -13    2.68    0.33
  -3  -2  13    2.50    0.33
   2   2 -13   14.25    0.55
   2   2 -13   13.23    0.56
   2   2 -13   13.56    0.56
  -2  -2  13   13.19    0.55
  -2  -2  13   13.79    0.58
   1   2 -13    3.97    0.36
   1   2 -13    3.49    0.34
   1   2 -13    3.31    0.33
  -1  -2  13    3.64    0.37
  -1  -2  13    3.61    0.35
   0   2 -13   -0.06    0.17
   0   2 -13    0.04    0.17
   0   2 -13   -0.16    0.16
   0  -2  13   -0.22    0.18
  -1   2 -13    1.28    0.25
  -1   2 -13    0.86    0.24
   1  -2  13    1.13    0.25
   1  -2  13    1.48    0.27
  -2   2 -13    6.53    0.49
  -2   2 -13    5.73    0.41
   2  -2  13    5.07    0.45
   2  -2  13    6.33    0.46
  -3   2 -13    0.45    0.23
   3  -2  13    0.25    0.23
   3  -2  13    0.74    0.25
   5   1 -13    4.85    0.41
   5   1 -13    4.15    0.42
  -5  -1  13    4.53    0.42
   4   1 -13    0.55    0.20
   4   1 -13    0.69    0.25
   4   1 -13    0.24    0.20
  -4  -1  13    0.72    0.24
   3   1 -13   -0.07    0.19
   3   1 -13    0.08    0.17
   3   1 -13    0.04    0.18
  -3  -1  13    0.02    0.19
  -3  -1  13    0.01    0.17
  -3  -1  13    0.19    0.19
   2   1 -13   12.77    0.55
   2   1 -13   12.01    0.54
   2   1 -13   11.16    0.52
  -2  -1  13   12.19    0.57
  -2  -1  13   12.28    0.51
  -2  -1  13   12.21    0.52
   1   1 -13    1.25    0.25
   1   1 -13    1.36    0.24
   1   1 -13    1.32    0.25
  -1  -1  13    1.14    0.22
  -1  -1  13    1.10    0.24
  -1  -1  13    0.81    0.24
   0   1 -13    1.76    0.29
   0   1 -13    1.66    0.27
   0  -1  13    1.51    0.27
   0  -1  13    2.10    0.29
  -1   1 -13   -0.05    0.18
  -1   1 -13   -0.06    0.16
  -1   1 -13    0.11    0.21
   1  -1  13    0.00    0.20
   1  -1  13    0.42    0.22
  -2   1 -13   10.66    0.59
   2  -1  13   11.48    0.56
   2  -1  13   11.22    0.58
  -3   1 -13    0.49    0.29
   3  -1  13    0.27    0.23
   3  -1  13    0.86    0.28
   5   0 -13   15.18    0.62
   5   0 -13   15.23    0.67
   5   0 -13   12.83    0.58
  -5   0  13   14.06    0.61
  -5   0  13   13.50    0.62
   4   0 -13    0.33    0.22
   4   0 -13   -0.11    0.18
   4   0 -13    0.26    0.20
  -4   0  13   -0.20    0.19
  -4   0  13    0.17    0.21
   3   0 -13   18.13    0.66
   3   0 -13   18.54    0.67
   3   0 -13   18.72    0.67
  -3   0  13   19.28    0.61
  -3   0  13   19.34    0.66
  -3   0  13   19.04    0.65
   2   0 -13    1.31    0.26
   2   0 -13    1.63    0.29
   2   0 -13    1.28    0.25
  -2   0  13    1.52    0.26
  -2   0  13    1.64    0.25
  -2   0  13    1.52    0.26
   1   0 -13   20.94    0.65
   1   0 -13   21.12    0.72
   1   0 -13   20.49    0.67
  -1   0  13   21.94    0.66
  -1   0  13   19.99    0.62
  -1   0  13   20.32    0.75
   0   0 -13   -0.15    0.18
   0   0 -13    0.04    0.15
   0   0 -13   -0.07    0.18
   0   0  13    0.11    0.19
   0   0  13    0.04    0.20
  -1   0 -13    3.29    0.39
  -1   0 -13    2.70    0.31
  -1   0 -13    2.56    0.31
   1   0  13    3.25    0.38
   1   0  13    3.37    0.35
  -2   0 -13    0.80    0.25
  -2   0 -13    1.25    0.30
   2   0  13    0.97    0.28
   2   0  13    0.74    0.25
   5  -1 -13    7.62    0.51
   5  -1 -13    7.56    0.48
   5  -1 -13    6.40    0.49
  -5   1  13    6.62    0.51
  -5   1  13    7.49    0.47
   4  -1 -13    0.40    0.22
   4  -1 -13    0.37    0.22
   4  -1 -13    0.28    0.22
  -4   1  13   -0.05    0.22
  -4   1  13    0.19    0.22
   3  -1 -13    1.41    0.28
   3  -1 -13    1.34    0.28
   3  -1 -13    1.97    0.29
  -3   1  13    1.48    0.28
  -3   1  13    1.13    0.25
   2  -1 -13    0.47    0.21
   2  -1 -13    0.71    0.24
   2  -1 -13    0.46    0.22
  -2   1  13    0.95    0.27
  -2   1  13    0.46    0.20
  -2   1  13    0.64    0.23
   1  -1 -13    1.91    0.31
   1  -1 -13    1.55    0.25
   1  -1 -13    1.67    0.28
  -1   1  13    1.32    0.30
  -1   1  13    1.56    0.28
   0  -1 -13    1.65    0.26
   0  -1 -13    1.67    0.27
   0  -1 -13    1.18    0.29
   0   1  13    1.54    0.31
   0   1  13    1.52    0.28
  -1  -1 -13    4.57    0.41
  -1  -1 -13    4.63    0.47
   1   1  13    4.70    0.41
   1   1  13    4.76    0.47
   5  -2 -13    6.82    0.51
   5  -2 -13    5.34    0.47
   5  -2 -13    5.85    0.49
  -5   2  13    6.62    0.50
   4  -2 -13    7.97    0.51
   4  -2 -13    6.61    0.51
   4  -2 -13    6.61    0.50
  -4   2  13    6.93    0.49
   3  -2 -13    2.93    0.37
   3  -2 -13    1.78    0.31
   3  -2 -13    2.69    0.34
  -3   2  13    2.11    0.31
  -3   2  13    2.38    0.32
   2  -2 -13    0.10    0.21
   2  -2 -13    0.18    0.23
   2  -2 -13    0.00    0.23
   2  -2 -13    0.24    0.22
  -2   2  13    0.58    0.21
  -2   2  13    0.19    0.24
   1  -2 -13    2.44    0.35
   1  -2 -13    2.81    0.33
   1  -2 -13    3.06    0.34
  -1   2  13    2.17    0.36
   0  -2 -13   -0.01    0.24
   0  -2 -13    0.25    0.22
   0   2  13   -0.28    0.21
   3  -3 -13    8.98    0.55
   3  -3 -13   10.74    0.62
   3  -3 -13    9.73    0.56
  -3   3  13   10.52    0.63
  -3   3  13   10.79    0.55
   1   6 -14    2.52    0.35
   0   6 -14   16.65    0.67
   0   6 -14   16.85    0.69
   0  -6  14   17.40    0.68
   0  -6  14   18.40    0.71
   0  -6  14   16.97    0.68
  -1   6 -14    1.45    0.29
  -1   6 -14    1.21    0.28
   1  -6  14    1.61    0.30
   1  -6  14    0.82    0.27
   1  -6  14    1.76    0.31
  -2   6 -14    0.08    0.24
  -2   6 -14    0.27    0.22
   2  -6  14    0.28    0.24
   2  -6  14    0.32    0.21
   2  -6  14    0.25    0.23
   2   5 -14    0.80    0.26
   2   5 -14    0.79    0.27
   2   5 -14    0.42    0.25
  -2  -5  14    0.77    0.27
   1   5 -14    6.64    0.48
   1   5 -14    6.77    0.49
  -1  -5  14    6.42    0.47
  -1  -5  14    5.49    0.45
   0   5 -14    0.96    0.28
   0   5 -14    0.91    0.25
   0  -5  14    1.17    0.28
   0  -5  14    1.41    0.30
   0  -5  14    0.93    0.24
  -1   5 -14    0.88    0.24
  -1   5 -14    0.68    0.25
   1  -5  14    1.04    0.26
   1  -5  14    0.59    0.23
   1  -5  14    0.73    0.23
  -2   5 -14    1.47    0.29
  -2   5 -14    1.53    0.29
   2  -5  14    1.28    0.27
   2  -5  14    1.14    0.27
   2  -5  14    1.48    0.30
  -3   5 -14    0.44    0.24
  -3   5 -14    0.63    0.25
   3  -5  14    0.43    0.26
   3  -5  14   -0.28    0.21
   3   4 -14   16.56    0.72
   3   4 -14   17.80    0.69
   3   4 -14   17.99    0.69
  -3  -4  14   17.24    0.72
   2   4 -14    7.31    0.50
   2   4 -14    8.09    0.51
   2   4 -14    7.91    0.52
  -2  -4  14    8.80    0.54
   1   4 -14    2.02    0.31
   1   4 -14    1.28    0.25
   1   4 -14    2.41    0.34
  -1  -4  14    1.58    0.29
  -1  -4  14    2.68    0.34
   0   4 -14   12.28    0.58
   0   4 -14   12.86    0.56
   0   4 -14   12.63    0.55
   0  -4  14   12.26    0.58
   0  -4  14   12.54    0.60
  -1   4 -14    0.06    0.21
  -1   4 -14    0.14    0.20
   1  -4  14    0.13    0.20
   1  -4  14    0.14    0.20
  -2   4 -14    0.61    0.25
  -2   4 -14    0.46    0.22
   2  -4  14    0.73    0.25
  -3   4 -14   -0.16    0.19
  -3   4 -14    0.20    0.21
   3  -4  14    0.19    0.21
   3  -4  14    0.21    0.23
   4   3 -14    0.12    0.26
   4   3 -14    0.47    0.25
   4   3 -14    0.58    0.24
  -4  -3  14    0.47    0.27
   3   3 -14    1.98    0.31
   3   3 -14    2.71    0.37
   3   3 -14    2.78    0.34
  -3  -3  14    2.73    0.35
   2   3 -14    0.94    0.25
   2   3 -14    0.95    0.25
   2   3 -14    1.01    0.24
   2   3 -14    1.09    0.28
  -2  -3  14    1.00    0.26
  -2  -3  14    1.31    0.28
   1   3 -14    1.66    0.29
   1   3 -14    1.59    0.28
   1   3 -14    1.37    0.27
  -1  -3  14    1.45    0.30
  -1  -3  14    1.72    0.31
   0   3 -14    8.36    0.49
   0   3 -14    9.10    0.51
   0  -3  14    8.25    0.51
   0  -3  14    8.77    0.50
  -1   3 -14    0.46    0.23
  -1   3 -14    0.72    0.25
   1  -3  14    0.44    0.23
  -2   3 -14    2.43    0.35
  -2   3 -14    2.63    0.34
   2  -3  14    3.99    0.40
   2  -3  14    2.89    0.36
  -3   3 -14   -0.33    0.21
  -3   3 -14    0.10    0.21
   3  -3  14   -0.10    0.23
   3  -3  14    0.18    0.22
   4   2 -14    0.60    0.28
   4   2 -14    0.60    0.25
   4   2 -14    1.18    0.27
  -4  -2  14    0.91    0.29
   3   2 -14   15.94    0.66
   3   2 -14   14.78    0.60
   3   2 -14   16.36    0.65
  -3  -2  14   16.15    0.67
   2   2 -14    0.55    0.23
   2   2 -14    0.68    0.25
   2   2 -14    0.23    0.20
  -2  -2  14    0.46    0.24
  -2  -2  14    0.19    0.21
   1   2 -14    1.16    0.26
   1   2 -14    1.16    0.26
   1   2 -14    0.85    0.24
  -1  -2  14    1.10    0.27
  -1  -2  14    0.78    0.25
   0   2 -14    0.93    0.26
   0   2 -14    0.69    0.23
   0  -2  14    0.56    0.24
  -1   2 -14    3.12    0.38
  -1   2 -14    2.09    0.31
   1  -2  14    2.94    0.36
   1  -2  14    3.04    0.38
  -2   2 -14    0.60    0.25
  -2   2 -14   -0.02    0.22
   2  -2  14    0.79    0.26
   2  -2  14    1.04    0.27
   4   1 -14    3.46    0.37
   4   1 -14    3.83    0.39
   4   1 -14    3.50    0.40
  -4  -1  14    3.83    0.40
   3   1 -14    2.83    0.36
   3   1 -14    3.21    0.37
   3   1 -14    2.25    0.31
  -3  -1  14    2.30    0.33
  -3  -1  14    2.59    0.33
   2   1 -14   15.50    0.63
   2   1 -14   14.86    0.62
   2   1 -14   14.02    0.60
  -2  -1  14   14.44    0.57
  -2  -1  14   15.10    0.60
  -2  -1  14   15.65    0.64
   1   1 -14    0.18    0.21
   1   1 -14    0.27    0.22
   1   1 -14    0.50    0.27
  -1  -1  14    0.62    0.23
  -1  -1  14    0.11    0.20
   0   1 -14    3.96    0.38
   0   1 -14    3.25    0.38
   0  -1  14    4.51    0.44
   0  -1  14    3.79    0.38
  -1   1 -14    2.21    0.32
  -1   1 -14    1.51    0.32
   1  -1  14    1.69    0.29
   1  -1  14    1.72    0.32
   4   0 -14    0.91    0.26
   4   0 -14    0.62    0.24
   4   0 -14    0.68    0.26
  -4   0  14    0.98    0.27
  -4   0  14    0.49    0.24
   3   0 -14    0.24    0.22
   3   0 -14    0.07    0.20
   3   0 -14    0.22    0.21
  -3   0  14    0.61    0.25
  -3   0  14   -0.11    0.19
  -3   0  14    0.34    0.22
   2   0 -14    2.54    0.33
   2   0 -14    2.60    0.34
   2   0 -14    2.35    0.32
  -2   0  14    2.31    0.31
  -2   0  14    2.39    0.31
  -2   0  14    1.98    0.32
   1   0 -14    1.43    0.29
   1   0 -14    1.49    0.31
  -1   0  14    1.63    0.29
  -1   0  14    1.49    0.31
   0   0 -14   -0.01    0.19
   0   0 -14    0.23    0.24
   0   0  14   -0.13    0.21
   0   0  14   -0.03    0.21
  -1   0 -14    3.14    0.39
  -1   0 -14    2.29    0.37
   1   0  14    2.88    0.35
   1   0  14    2.66    0.39
   4  -1 -14    1.76    0.33
   4  -1 -14    2.09    0.35
   4  -1 -14    2.27    0.36
  -4   1  14    2.59    0.35
  -4   1  14    2.14    0.34
   3  -1 -14   22.04    0.79
   3  -1 -14   20.98    0.75
   3  -1 -14   20.53    0.74
  -3   1  14   21.05    0.72
  -3   1  14   21.62    0.75
   2  -1 -14    1.24    0.28
   2  -1 -14    1.35    0.30
   2  -1 -14    0.99    0.40
  -2   1  14    1.16    0.26
  -2   1  14    1.12    0.27
   1  -1 -14    6.77    0.48
   1  -1 -14    6.65    0.51
  -1   1  14    5.60    0.51
   1   4 -15    7.71    0.53
   1   4 -15    8.04    0.54
  -1  -4  15    9.06    0.55
  -1  -4  15    8.51    0.58
   0   4 -15   -0.23    0.19
   0   4 -15   -0.17    0.23
   0  -4  15    0.31    0.24
   0  -4  15    0.05    0.23
  -1   4 -15    0.51    0.25
  -1   4 -15    0.13    0.25
   1  -4  15    0.81    0.28
   1  -4  15    0.99    0.29
   2   3 -15   14.47    0.66
   2   3 -15   14.24    0.63
   2   3 -15   13.74    0.63
   2   3 -15   15.19    0.66
  -2  -3  15   14.89    0.70
  -2  -3  15   14.24    0.66
   1   3 -15    0.27    0.21
   1   3 -15   -0.12    0.21
   1   3 -15    0.04    0.23
  -1  -3  15    0.37    0.23
  -1  -3  15    0.04    0.24
   0   3 -15    0.93    0.27
   0   3 -15    0.78    0.25
   0  -3  15    0.81    0.27
   0  -3  15    0.79    0.26
  -1   3 -15   -0.05    0.23
  -1   3 -15   -0.09    0.21
   1  -3  15    0.24    0.25
   3   2 -15    2.25    0.36
   3   2 -15    3.07    0.37
   2   2 -15    0.28    0.24
   2   2 -15    0.18    0.21
   2   2 -15    0.57    0.26
  -2  -2  15    1.10    0.28
  -2  -2  15    0.65    0.29
   1   2 -15   11.68    0.59
   1   2 -15   10.06    0.57
  -1  -2  15   10.59    0.56
  -1  -2  15   11.26    0.63
   0   2 -15    1.82    0.32
   0   2 -15    1.15    0.29
   0  -2  15    1.92    0.32
   0  -2  15    1.64    0.34
   2   1 -15    0.01    0.21
   2   1 -15   -0.31    0.23
   2   1 -15    0.47    0.25
  -2  -1  15    0.32    0.26
  -2  -1  15   -0.08    0.21
   1   1 -15    3.91    0.40
   1   1 -15    4.51    0.45
  -1  -1  15    3.69    0.41
  -1  -1  15    4.01    0.40
   0   0   0    0.00    0.00
;
_shelx_hkl_checksum              12280
loop_
_space_group_symop_operation_xyz
'x, y, z'
'-x, -y, -z'
loop_
_atom_site_label
_atom_site_type_symbol
_atom_site_fract_x
_atom_site_fract_y
_atom_site_fract_z
_atom_site_U_iso_or_equiv
_atom_site_adp_type
_atom_site_occupancy
_atom_site_site_symmetry_order
_atom_site_calc_flag
_atom_site_refinement_flags_posn
_atom_site_refinement_flags_adp
Cl1 Cl 0.22922(6) 0.66457(6) 0.89865(4) 0.02504(13) Uani 1 1 d . .
O1 O 0.82955(19) 0.90733(18) 0.58361(11) 0.0219(3) Uani 1 1 d . .
O2 O 1.0366(2) 0.7606(2) 0.49742(13) 0.0280(3) Uani 1 1 d . .
H2O H 1.064(4) 0.834(4) 0.473(2) 0.040(8) Uiso 1 1 d . .
B1 B 0.9086(3) 0.7694(3) 0.57227(17) 0.0208(3) Uani 1 1 d . .
C1 C 0.8239(3) 0.6338(3) 0.65602(16) 0.0216(3) Uani 1 1 d . .
H1A H 0.770955 0.487592 0.610117 0.026 Uiso 1 1 calc R U
H1B H 0.928968 0.673870 0.731152 0.026 Uiso 1 1 calc R U
C2 C 0.6504(2) 0.6873(2) 0.68642(14) 0.0174(3) Uani 1 1 d . .
H2 H 0.538446 0.606968 0.609583 0.021 Uiso 1 1 calc R U
C3 C 0.5427(2) 0.6362(2) 0.79019(14) 0.0167(3) Uani 1 1 d . .
C4 C 0.3659(2) 0.6944(2) 0.77534(14) 0.0189(3) Uani 1 1 d . .
H4 H 0.266283 0.597860 0.695557 0.023 Uiso 1 1 calc R U
C5 C 0.4308(3) 0.9096(3) 0.77163(16) 0.0229(3) Uani 1 1 d . .
H5A H 0.519516 1.008733 0.852633 0.028 Uiso 1 1 calc R U
H5B H 0.306937 0.929612 0.757249 0.028 Uiso 1 1 calc R U
C6 C 0.5483(3) 0.9497(3) 0.66913(16) 0.0235(3) Uani 1 1 d . .
H6A H 0.456509 0.860379 0.586989 0.028 Uiso 1 1 calc R U
H6B H 0.595921 1.092497 0.672511 0.028 Uiso 1 1 calc R U
C7 C 0.7304(2) 0.9080(2) 0.68829(14) 0.0171(3) Uani 1 1 d . .
C8 C 0.6821(3) 0.7422(3) 0.92036(15) 0.0255(3) Uani 1 1 d . .
H8A H 0.813732 0.738792 0.918088 0.038 Uiso 1 1 calc R U
H8B H 0.615414 0.672175 0.976415 0.038 Uiso 1 1 calc R U
H8C H 0.706239 0.883563 0.949865 0.038 Uiso 1 1 calc R U
C9 C 0.4522(3) 0.4073(3) 0.76417(17) 0.0259(4) Uani 1 1 d . .
H9A H 0.563733 0.371474 0.778614 0.039 Uiso 1 1 calc R U
H9B H 0.375339 0.336009 0.677965 0.039 Uiso 1 1 calc R U
H9C H 0.359506 0.367696 0.819242 0.039 Uiso 1 1 calc R U
C10 C 0.9001(3) 1.0736(3) 0.79835(16) 0.0278(4) Uani 1 1 d . .
H10A H 0.965859 1.198271 0.777551 0.042 Uiso 1 1 calc R U
H10B H 1.002956 1.029233 0.818160 0.042 Uiso 1 1 calc R U
H10C H 0.840574 1.099480 0.869999 0.042 Uiso 1 1 calc R U
loop_
_atom_site_aniso_label
_atom_site_aniso_U_11
_atom_site_aniso_U_22
_atom_site_aniso_U_33
_atom_site_aniso_U_23
_atom_site_aniso_U_13
_atom_site_aniso_U_12
Cl1 0.0240(2) 0.0269(2) 0.0267(2) 0.01084(16) 0.01435(16) 0.01111(16)
O1 0.0278(6) 0.0238(6) 0.0252(6) 0.0143(5) 0.0167(5) 0.0162(5)
O2 0.0364(7) 0.0316(7) 0.0350(7) 0.0210(6) 0.0241(6) 0.0239(6)
B1 0.0234(8) 0.0221(8) 0.0219(8) 0.0093(7) 0.0094(7) 0.0129(7)
C1 0.0237(8) 0.0247(8) 0.0275(8) 0.0143(6) 0.0129(6) 0.0165(7)
C2 0.0192(7) 0.0169(7) 0.0194(7) 0.0076(5) 0.0077(6) 0.0097(6)
C3 0.0168(7) 0.0168(7) 0.0175(7) 0.0076(5) 0.0057(5) 0.0072(6)
C4 0.0166(7) 0.0204(7) 0.0187(7) 0.0065(6) 0.0066(5) 0.0071(6)
C5 0.0240(8) 0.0222(8) 0.0297(8) 0.0113(6) 0.0136(7) 0.0140(7)
C6 0.0267(8) 0.0233(8) 0.0305(8) 0.0146(7) 0.0131(7) 0.0159(7)
C7 0.0179(7) 0.0166(7) 0.0193(7) 0.0079(5) 0.0092(6) 0.0081(6)
C8 0.0223(8) 0.0339(9) 0.0199(8) 0.0112(7) 0.0044(6) 0.0112(7)
C9 0.0300(9) 0.0207(8) 0.0319(9) 0.0134(7) 0.0130(7) 0.0120(7)
C10 0.0223(8) 0.0219(8) 0.0281(8) 0.0032(7) 0.0091(7) 0.0020(6)
loop_
_atom_type_symbol
_atom_type_description
_atom_type_scat_dispersion_real
_atom_type_scat_dispersion_imag
_atom_type_scat_source
C C 0.0033 0.0016 'International Tables Vol C Tables 4.2.6.8 and 6.1.1.4'
H H 0.0000 0.0000 'International Tables Vol C Tables 4.2.6.8 and 6.1.1.4'
B B 0.0013 0.0007 'International Tables Vol C Tables 4.2.6.8 and 6.1.1.4'
O O 0.0106 0.0060 'International Tables Vol C Tables 4.2.6.8 and 6.1.1.4'
Cl Cl 0.1484 0.1585 'International Tables Vol C Tables 4.2.6.8 and 6.1.1.4'
loop_
_geom_angle_atom_site_label_1
_geom_angle_atom_site_label_2
_geom_angle_atom_site_label_3
_geom_angle
B1 O1 C7 108.56(12)
B1 O2 H2O 113(2)
O2 B1 O1 121.66(15)
O2 B1 C1 127.84(15)
O1 B1 C1 110.50(14)
C2 C1 B1 98.91(12)
C2 C1 H1A 112.0
B1 C1 H1A 112.0
C2 C1 H1B 112.0
B1 C1 H1B 112.0
H1A C1 H1B 109.7
C1 C2 C3 122.31(12)
C1 C2 C7 104.26(12)
C3 C2 C7 115.95(12)
C1 C2 H2 104.1
C3 C2 H2 104.1
C7 C2 H2 104.1
C9 C3 C8 107.90(13)
C9 C3 C2 108.22(12)
C8 C3 C2 114.89(13)
C9 C3 C4 109.41(13)
C8 C3 C4 112.79(13)
C2 C3 C4 103.45(11)
C5 C4 C3 115.30(13)
C5 C4 Cl1 107.93(11)
C3 C4 Cl1 110.72(10)
C5 C4 H4 107.5
C3 C4 H4 107.5
Cl1 C4 H4 107.5
C4 C5 C6 111.85(13)
C4 C5 H5A 109.2
C6 C5 H5A 109.2
C4 C5 H5B 109.2
C6 C5 H5B 109.2
H5A C5 H5B 107.9
C7 C6 C5 108.69(13)
C7 C6 H6A 110.0
C5 C6 H6A 110.0
C7 C6 H6B 110.0
C5 C6 H6B 110.0
H6A C6 H6B 108.3
O1 C7 C6 112.34(12)
O1 C7 C10 104.40(12)
C6 C7 C10 111.69(14)
O1 C7 C2 102.14(11)
C6 C7 C2 108.26(12)
C10 C7 C2 117.63(13)
C3 C8 H8A 109.5
C3 C8 H8B 109.5
H8A C8 H8B 109.5
C3 C8 H8C 109.5
H8A C8 H8C 109.5
H8B C8 H8C 109.5
C3 C9 H9A 109.5
C3 C9 H9B 109.5
H9A C9 H9B 109.5
C3 C9 H9C 109.5
H9A C9 H9C 109.5
H9B C9 H9C 109.5
C7 C10 H10A 109.5
C7 C10 H10B 109.5
H10A C10 H10B 109.5
C7 C10 H10C 109.5
H10A C10 H10C 109.5
H10B C10 H10C 109.5
loop_
_geom_bond_atom_site_label_1
_geom_bond_atom_site_label_2
_geom_bond_distance
Cl1 C4 1.8161(16)
O1 B1 1.388(2)
O1 C7 1.4605(17)
O2 B1 1.340(2)
O2 H2O 0.66(3)
B1 C1 1.576(2)
C1 C2 1.534(2)
C1 H1A 0.9900
C1 H1B 0.9900
C2 C3 1.534(2)
C2 C7 1.537(2)
C2 H2 1.0000
C3 C9 1.528(2)
C3 C8 1.532(2)
C3 C4 1.548(2)
C4 C5 1.530(2)
C4 H4 1.0000
C5 C6 1.541(2)
C5 H5A 0.9900
C5 H5B 0.9900
C6 C7 1.510(2)
C6 H6A 0.9900
C6 H6B 0.9900
C7 C10 1.526(2)
C8 H8A 0.9800
C8 H8B 0.9800
C8 H8C 0.9800
C9 H9A 0.9800
C9 H9B 0.9800
C9 H9C 0.9800
C10 H10A 0.9800
C10 H10B 0.9800
C10 H10C 0.9800
loop_
_geom_hbond_atom_site_label_D
_geom_hbond_atom_site_label_H
_geom_hbond_atom_site_label_A
_geom_hbond_distance_DH
_geom_hbond_distance_HA
_geom_hbond_distance_DA
_geom_hbond_angle_DHA
_geom_hbond_site_symmetry_A
_geom_hbond_publ_flag
O2 H2O O1 0.66(3) 2.10(3) 2.7631(18) 173(3) 2_776 yes
loop_
_geom_torsion_atom_site_label_1
_geom_torsion_atom_site_label_2
_geom_torsion_atom_site_label_3
_geom_torsion_atom_site_label_4
_geom_torsion
C7 O1 B1 O2 -168.85(16)
C7 O1 B1 C1 11.83(19)
O2 B1 C1 C2 -166.00(18)
O1 B1 C1 C2 13.27(18)
B1 C1 C2 C3 -165.76(14)
B1 C1 C2 C7 -31.73(15)
C1 C2 C3 C9 -57.46(19)
C7 C2 C3 C9 173.33(13)
C1 C2 C3 C8 63.17(19)
C7 C2 C3 C8 -66.04(18)
C1 C2 C3 C4 -173.47(14)
C7 C2 C3 C4 57.33(16)
C9 C3 C4 C5 -167.68(13)
C8 C3 C4 C5 72.22(17)
C2 C3 C4 C5 -52.52(16)
C9 C3 C4 Cl1 69.44(14)
C8 C3 C4 Cl1 -50.66(15)
C2 C3 C4 Cl1 -175.40(10)
C3 C4 C5 C6 55.76(19)
Cl1 C4 C5 C6 -179.89(11)
C4 C5 C6 C7 -55.97(18)
B1 O1 C7 C6 -147.69(14)
B1 O1 C7 C10 91.10(15)
B1 O1 C7 C2 -31.92(16)
C5 C6 C7 O1 169.89(12)
C5 C6 C7 C10 -73.19(17)
C5 C6 C7 C2 57.86(17)
C1 C2 C7 O1 40.15(14)
C3 C2 C7 O1 177.64(12)
C1 C2 C7 C6 158.86(13)
C3 C2 C7 C6 -63.65(17)
C1 C2 C7 C10 -73.41(16)
C3 C2 C7 C10 64.08(18)
