#------------------------------------------------------------------------------
#$Date: 2019-11-03 10:57:30 +0200 (Sun, 03 Nov 2019) $
#$Revision: 221200 $
#$URL: file:///home/coder/svn-repositories/cod/cif/4/12/80/4128069.cif $
#------------------------------------------------------------------------------
#
# This file is available in the Crystallography Open Database (COD),
# http://www.crystallography.net/
#
# All data on this site have been placed in the public domain by the
# contributors.
#
data_4128069
loop_
_publ_author_name
'Yang, Chen-Kai'
'Chen, Wang-Nan'
'Ding, Yan-Ting'
'Wang, Jing'
'Rao, Yin'
'Liao, Wei-Qiang'
'Xie, Yongfa'
'Zou, Wennan'
'Xiong, Ren-Gen'
_publ_section_title
;
 Directional Intermolecular Interactions for Precise Molecular Design of a
 High- T<sub>c</sub> Multiaxial Molecular Ferroelectric.
;
_journal_issue                   4
_journal_name_full               'Journal of the American Chemical Society'
_journal_page_first              1781
_journal_page_last               1787
_journal_paper_doi               10.1021/jacs.8b13223
_journal_volume                  141
_journal_year                    2019
_chemical_formula_moiety         '0.876(C12), Cl O4'
_chemical_formula_sum            'C10.51 Cl O4'
_chemical_formula_weight         225.62
_space_group_crystal_system      cubic
_space_group_IT_number           221
_space_group_name_Hall           '-P 4 2 3'
_space_group_name_H-M_alt        'P m -3 m'
_symmetry_space_group_name_Hall  '-P 4 2 3'
_symmetry_space_group_name_H-M   'P m -3 m'
_audit_creation_method           SHELXL-2014/7
_cell_angle_alpha                90
_cell_angle_beta                 90
_cell_angle_gamma                90
_cell_formula_units_Z            1
_cell_length_a                   5.1525(13)
_cell_length_b                   5.1525(13)
_cell_length_c                   5.1525(13)
_cell_measurement_reflns_used    130
_cell_measurement_temperature    473(2)
_cell_measurement_theta_max      23.5370
_cell_measurement_theta_min      3.3510
_cell_volume                     136.79(6)
_computing_cell_refinement       'CrysAlisPro 1.171.39.46 (Rigaku OD, 2018)'
_computing_data_collection       'CrysAlisPro 1.171.39.46 (Rigaku OD, 2018)'
_computing_data_reduction        'CrysAlisPro 1.171.39.46 (Rigaku OD, 2018)'
_computing_molecular_graphics    'DIAMOND (Brandenburg & Putz, 2005)'
_computing_publication_material  'SHELXL-2014/7 (Sheldrick, 2014)'
_computing_structure_refinement  'SHELXL-2014/7 (Sheldrick, 2014)'
_computing_structure_solution    'SHELXL-2014/7 (Sheldrick, 2014)'
_diffrn_ambient_temperature      473(2)
_diffrn_measured_fraction_theta_full 1.000
_diffrn_measured_fraction_theta_max 1.000
_diffrn_measurement_device_type  'XtaLAB Synergy R, DW system, HyPix'
_diffrn_measurement_method       'four-circle diffractometer'
_diffrn_radiation_type           MoK\a
_diffrn_radiation_wavelength     0.71073
_diffrn_reflns_av_R_equivalents  0.5992
_diffrn_reflns_av_unetI/netI     0.0680
_diffrn_reflns_Laue_measured_fraction_full 1.000
_diffrn_reflns_Laue_measured_fraction_max 1.000
_diffrn_reflns_limit_h_max       7
_diffrn_reflns_limit_h_min       -6
_diffrn_reflns_limit_k_max       6
_diffrn_reflns_limit_k_min       -7
_diffrn_reflns_limit_l_max       6
_diffrn_reflns_limit_l_min       -7
_diffrn_reflns_number            1951
_diffrn_reflns_point_group_measured_fraction_full 1.000
_diffrn_reflns_point_group_measured_fraction_max 1.000
_diffrn_reflns_theta_full        25.242
_diffrn_reflns_theta_max         31.380
_diffrn_reflns_theta_min         3.955
_diffrn_source                   'Rotating-anode X-ray tube'
_exptl_absorpt_coefficient_mu    0.679
_exptl_absorpt_correction_T_max  0.867
_exptl_absorpt_correction_T_min  0.861
_exptl_absorpt_correction_type   multi-scan
_exptl_absorpt_process_details   'CrysAlisPro 1.171.39.46 (Rigaku OD, 2018)'
_exptl_crystal_colour            colourless
_exptl_crystal_density_diffrn    2.739
_exptl_crystal_description       block
_exptl_crystal_F_000             112
_exptl_crystal_size_max          0.220
_exptl_crystal_size_mid          0.210
_exptl_crystal_size_min          0.210
_refine_diff_density_max         1.331
_refine_diff_density_min         -1.089
_refine_diff_density_rms         0.714
_refine_ls_extinction_method     none
_refine_ls_goodness_of_fit_ref   1.017
_refine_ls_hydrogen_treatment    undef
_refine_ls_matrix_type           full
_refine_ls_number_parameters     5
_refine_ls_number_reflns         71
_refine_ls_number_restraints     1
_refine_ls_restrained_S_all      1.009
_refine_ls_R_factor_all          0.5380
_refine_ls_R_factor_gt           0.4611
_refine_ls_shift/su_max          4.848
_refine_ls_shift/su_mean         2.444
_refine_ls_structure_factor_coef Fsqd
_refine_ls_weighting_details
'w=1/[\s^2^(Fo^2^)+(0.2000P)^2^+14.8000P] where P=(Fo^2^+2Fc^2^)/3'
_refine_ls_weighting_scheme      calc
_refine_ls_wR_factor_gt          0.7753
_refine_ls_wR_factor_ref         0.8084
_reflns_Friedel_coverage         0.000
_reflns_number_gt                10
_reflns_number_total             71
_reflns_threshold_expression     'I > 2\s(I)'
_cod_data_source_file            ja8b13223_si_010.cif
_cod_data_source_block           Pm3m
_cod_original_cell_volume        136.79(10)
_cod_database_code               4128069
_shelx_shelxl_version_number     2014/7
_shelx_space_group_comment
;
The symmetry employed for this shelxl refinement is uniquely defined
by the following loop, which should always be used as a source of
symmetry information in preference to the above space-group names.
They are only intended as comments.
;
_shelx_estimated_absorpt_t_min   0.865
_shelx_estimated_absorpt_t_max   0.871
_shelx_res_file
;

    Pm3m.res created by SHELXL-2014/7


TITL Pm3m in Pm-3m
CELL 0.71073   5.1525   5.1525   5.1525  90.000  90.000  90.000
ZERR    1   0.0013   0.0013   0.0013   0.000   0.000   0.000
LATT 1
SYMM -X, -Y, Z
SYMM -X, Y, -Z
SYMM X, -Y, -Z
SYMM Z, X, Y
SYMM Z, -X, -Y
SYMM -Z, -X, Y
SYMM -Z, X, -Y
SYMM Y, Z, X
SYMM -Y, Z, -X
SYMM Y, -Z, -X
SYMM -Y, -Z, X
SYMM Y, X, -Z
SYMM -Y, -X, -Z
SYMM Y, -X, Z
SYMM -Y, X, Z
SYMM X, Z, -Y
SYMM -X, Z, Y
SYMM -X, -Z, -Y
SYMM X, -Z, Y
SYMM Z, Y, -X
SYMM Z, -Y, X
SYMM -Z, Y, X
SYMM -Z, -Y, -X
SFAC C  O  Cl
UNIT 10.51 4 1
L.S. 4
ACTA
BOND
FMAP 2
PLAN 20
DFIX 1.40 0.02 O1 Cl1
TEMP 200
SIZE 0.22 0.21 0.21
WGHT    0.200000   14.800000
FVAR       1.48233
MOLE 1
CL1   3    0.000000    0.000000    0.000000    10.02083    2.00000    2.00000 =
         2.00000    0.00000    0.00000    0.00000
O1    2    0.000000    0.271669    0.000000    10.08333    0.99372    2.00000 =
         0.99372    0.00000    0.00000    0.00000
AFIX   1
C1    1    0.390200    0.500000    0.390200    10.21887    0.26818    0.20508 =
         0.26818    0.00000    0.01347    0.00000
AFIX   0
HKLF 4

REM  Pm3m in Pm-3m
REM R1 =  0.4611 for      10 Fo > 4sig(Fo)  and  0.5380 for all      71 data
REM      5 parameters refined using      1 restraints

END

WGHT      0.2000      0.0000

REM Highest difference peak  1.331,  deepest hole -1.089,  1-sigma level  0.714
Q1    1   0.5000  0.5000  0.2209  10.12500  0.05    1.33
;
_shelx_res_checksum              90528
_shelx_hkl_file
;
   0  -1   0 7494.06   91.10
   0   1   0 6849.75   90.86
  -1  -1  -1  222.55   12.28
   1   1  -1  263.80   11.96
   0  -1  -1 1471.74  151.68
  -1   1   0  870.72  151.73
  -1   0  -1 1056.46  151.74
   1   1   0 3235.73  152.03
   1   1   0 1830.19  151.96
  -1   0  -1  836.72  151.76
  -1   0  -1 1040.44  151.75
   0  -1   1  867.75  151.61
   0   1  -1 1652.65  151.90
  -1   0  -1   14.36  151.48
  -1   0   1  871.85  151.61
  -1   0   1  410.86  151.53
   0  -1   1   26.43  151.48
  -1  -1   0 3201.91  152.02
   0   1   1  792.53  151.58
  -1   1   0 3392.35  152.29
   1  -1   0  490.77  151.62
   0   1  -1 1119.26  151.64
   1  -1   0  867.90  151.74
   1   0   1 1115.12  151.79
   1  -1  -1  189.26    9.00
   1   1   1  227.07    9.36
  -1   1  -1  158.68    8.89
   1   1   1  197.18    9.03
  -1   1  -1  192.17    8.95
   2   0   0   76.84   14.91
   0  -2   0  136.50   15.20
   0   0   2    1.54   14.65
   0   0   2   61.58   14.66
   2   0   0    1.11   14.64
   0   0   2  122.39   14.82
   1  -2   1   -0.41    1.13
   2   1  -1    0.31    0.79
  -1   1   2    0.91    0.87
   1  -1   2    0.35    0.70
  -1  -1  -2   -0.45    0.97
  -1  -1  -2    1.15    1.25
   2  -1   1    0.73    0.66
  -2   1   1    1.19    1.11
   1   2  -1   -1.08    1.03
   2   1  -1   -1.28    0.95
   2   1  -1    1.22    1.19
  -1   2   1    0.70    0.83
  -1  -2  -1   -0.89    0.67
  -2  -1  -1   -0.45    1.13
  -2  -1  -1   -0.36    0.98
  -1   1   2    0.18    0.43
   0   1  -2   -0.22    0.47
   2   0  -1    6.89    1.64
  -1   2   0    0.81    1.17
   0  -2   1    0.31    1.01
  -2  -1   0    0.98    1.12
  -2   1   0    1.18    1.08
   1  -2   0    1.68    0.99
   0  -2  -1    0.43    1.23
  -1   0  -2    1.70    0.67
   0   1  -2   -0.12    0.56
   1   0  -2    0.66    0.57
  -1   0   2    1.04    0.60
  -1   0  -2    1.78    0.97
  -1   2   0    0.74    0.91
   0   2  -1    1.07    1.23
  -2  -1   0   -0.38    0.92
  -2   0  -1   -0.86    1.07
  -2   0  -1    2.03    1.16
   0  -2  -1    1.26    0.82
   0  -1   2    0.87    0.76
   2   0   1    1.07    0.85
   2   1   0    0.38    1.23
   2   1   0    0.40    1.09
   0  -1   2    1.25    1.37
  -2   0   1    0.31    0.79
   0   1  -2    0.11    0.49
   1  -2   0    0.51    0.82
  -2   0  -1   -0.43    1.09
   0   2  -1    0.30    0.92
   2   0   1    1.71    1.01
  -2   1   0   -0.31    0.88
   1   2   0    0.63    0.49
  -2   0   1    0.97    0.90
   0  -1  -2    0.66    0.75
  -2   0   1   -0.31    0.89
   1   0   2   -1.19    0.83
  -1   0  -2    1.54    1.31
   0  -2  -1    0.91    0.81
   2   1   0    1.71    1.02
  -2   0  -1   -0.28    0.99
  -1  -1   2   -0.76    1.29
  -2   1  -1    2.61    1.37
  -2   1  -1    1.77    1.11
  -1   1  -2    0.34    0.80
  -2  -1   1   -0.17    0.65
  -1   1  -2    0.87    0.82
   2   1   1   -0.45    1.28
  -1   1  -2    0.30    0.80
   2  -1  -1    0.42    1.17
   1  -1  -2   -0.28    0.39
   1  -2  -1    0.37    0.79
  -1   2  -1    0.96    0.96
   1  -2  -1    0.46    1.22
   1   1   2    1.10    0.94
  -2  -1   1   -0.61    0.79
  -1   1  -2   -0.45    1.23
  -2   1  -1    0.92    1.12
  -1   2  -1    0.78    1.14
   1   1   2    2.04    1.12
  -2   1  -1    0.87    1.23
   1   1   2   -0.80    1.19
   2  -1  -1    0.19    0.64
   1   2   1   -0.87    1.03
   2   1   1    0.48    1.16
  -2   1  -1   -0.40    1.19
  -2   1  -1   -1.74    1.06
  -1   1  -2   -0.30    0.92
   1  -1  -2    1.26    1.09
  -2   1  -1    0.43    0.97
  -1   2  -1    2.23    1.15
   1  -2  -1    0.60    0.87
   2   1   1   -0.20    0.77
  -2   2   2    1.63    1.45
  -2  -2  -2    0.43    1.22
   2   2  -2    0.88    0.83
  -2   2   2    1.28    1.05
   2   2  -2   -0.30    0.86
   1   2  -2    5.18    1.44
   2  -1   2    1.10    1.79
   2  -1   2    0.49    1.67
  -2  -2  -1    8.91    1.80
  -1   2   2    4.14    1.45
  -2   2   1    0.47    1.55
  -2   2   1    3.44    1.33
   2   1  -2    0.70    1.35
   2   2  -1    4.49    1.73
  -2  -1  -2    5.20    1.98
   1   2  -2   -0.82    1.72
   2   2  -1    5.28    1.74
  -2  -1  -2    3.76    1.72
   1  -2   2    2.10    1.64
   1  -2   2   -0.59    1.87
  -2   1   2    2.36    1.58
  -2   2   1    2.64    1.75
   0   2  -2   -0.47    2.00
   0  -2  -2    9.95    2.38
   2   2   0   14.02    2.10
   2   0   2    0.46    1.84
   2  -2   0   13.04    2.26
   0  -2   2    1.85    1.70
   2   0   2   -1.79    2.01
   0  -2  -2    5.42    1.69
  -2   0   2    0.28    1.74
  -2   2   0    3.12    2.05
   0  -2   2    5.80    1.94
   0   2   2    3.96    1.69
  -2   2   0   14.44    2.35
  -2   0   2    3.23    1.74
   0  -2  -2    3.17    1.83
   2   2   0    6.97    2.22
   0  -2   2    0.50    1.98
   2  -2   0    3.90    2.19
  -2   0  -2    0.85    1.91
   0   2  -2    6.13    1.76
   2   0   2   -0.98    1.89
  -2   0  -2    2.32    1.90
  -2   2   0    4.54    1.88
  -2   0  -2    8.10    2.03
  -2   0   2    0.55    1.65
  -2   2  -1    9.41    1.91
   2   2   1    1.16    1.42
   2   1   2    2.22    1.58
  -2  -1   2    2.27    1.17
   2   1   2   -0.79    1.45
  -2   1  -2    1.40    1.34
  -2   2  -1    0.52    1.38
   1   2   2    2.01    1.30
  -1  -2   2    1.29    1.49
  -2   2  -1    1.09    1.43
  -2   1  -2   -0.46    1.25
   2   2   1    4.09    1.81
   2  -1  -2    2.48    1.38
  -2  -1   2    0.36    1.34
  -2   2  -1    2.61    1.68
  -1   2  -2    4.42    1.52
  -1   2  -2    1.52    1.33
  -1  -2   2    1.09    1.10
  -2   1  -2    4.70    1.72
   2  -2  -1   11.55    2.00
   1  -2  -2    1.52    1.39
  -2   1  -2    3.29    1.22
   2  -2  -1    5.08    1.82
   2   1   2    4.17    1.70
  -2   2  -1   -1.62    1.63
  -2   1  -2    2.97    1.68
  -2   1  -2    2.56    1.54
  -1   2  -2   -0.38    1.26
   2  -2  -2    0.58    1.46
   2   2   2   -1.69    1.42
  -2   2  -2   -0.58    1.02
  -2   2  -2   -1.06    1.22
  -2   2  -2    1.07    1.34
   2   2   2    2.73    1.53
  -2  -2   2   -1.10    1.08
  -2   2  -2    2.29    1.58
  -2   2  -2    0.28    0.66
  -2   2  -2   -0.62    1.69
   2   2   2   -0.41    1.12
   2  -2  -2   -0.58    1.68
   0   3   0    6.50    2.44
   0   0   3   -0.59    2.67
   3   0   0    3.86    2.60
   0  -3   0    7.94    2.79
   0  -3   0    1.68    2.56
   3   0   0    0.56    2.55
   0   0   3    6.86    2.37
   3   1  -1   -0.50    1.23
  -3  -1  -1    0.53    1.36
  -3   1   1   -1.64    1.26
   1  -3   1   -1.15    1.37
   1   3  -1    0.39    1.16
  -1  -3  -1   -0.55    1.14
  -1  -1  -3   -2.00    1.19
   1  -3   1   -0.66    1.32
   1  -1   3   -0.78    0.82
  -1  -1  -3    0.44    0.39
  -1  -3  -1   -0.24    0.39
  -1   1   3    0.11    0.34
   3   1  -1   -0.47    1.12
  -1   3   1   -1.01    1.02
   3   1  -1    1.17    1.69
  -3   1   1   -1.63    1.57
  -1  -1  -3    0.60    1.05
   3  -1   1   -0.76    0.83
  -1   3   0    1.70    1.43
   3   1   0    0.58    1.45
  -1   3   0    1.68    1.40
   0  -3  -1    1.11    0.54
  -1   0  -3   -0.55    1.37
  -3   1   0    1.14    1.64
   1   0  -3    0.13    0.52
  -3  -1   0    0.54    1.21
   0  -3  -1   -1.87    1.57
  -3   0  -1   -0.35    1.04
   0  -1  -3    0.70    1.01
   0   1   3    0.38    1.02
  -1  -3   0   -1.21    1.30
  -3   0   1   -0.48    1.01
   0   1  -3    0.23    0.49
  -3   0   1    2.39    1.23
   3  -1   0   -0.44    1.12
   3   0   1    3.65    1.49
  -1   0   3    2.37    1.60
  -3  -1   0    1.01    1.23
   1   0   3   -0.37    0.94
   3   0  -1    0.62    1.63
   0  -3   1    2.51    1.35
   0  -1   3   -0.61    1.49
  -3   0  -1   -0.58    1.29
   0   3  -1   -0.49    1.30
   1   0   3   -2.86    0.95
   0  -3   1   -2.50    1.32
   1  -3   0    0.60    1.10
  -1   0  -3    0.36    0.90
   0  -1   3    0.66    0.79
  -1   0  -3    0.89    0.61
   3   1   0    2.15    1.39
  -3   0  -1   -0.62    1.30
  -1   3   0    2.64    0.92
   3   0   1   -0.62    1.60
   3   0   1    1.01    1.09
   0  -3  -1   -0.51    0.93
  -3   0   1    4.10    1.48
   3   1   0    0.54    1.24
  -1   3  -1    1.72    1.07
  -1   3  -1    1.07    1.45
   1  -3  -1    0.28    0.66
   1  -1  -3   -2.06    0.82
   3   1   1    0.60    1.30
  -3   1  -1    3.40    1.32
  -1  -1   3    0.58    1.57
   3  -1  -1   -0.35    0.88
  -1   3  -1    1.22    1.27
   1   1   3   -1.80    1.51
  -3   1  -1   -0.60    1.16
   3   1   1    0.65    1.36
  -1   1  -3   -1.63    0.97
  -1  -3   1   -0.66    1.32
   1  -3  -1   -1.53    0.94
   1  -3  -1   -0.54    1.17
  -1  -3   1   -0.49    1.17
  -3   1  -1   -0.60    1.47
  -1   1  -3   -0.32    0.91
   1   1   3   -0.49    1.13
  -1   1  -3    0.37    0.75
  -3  -1   1   -0.47    1.10
   1  -3  -1    0.65    1.51
  -1   1  -3    0.60    1.52
   3   1   1   -0.62    1.30
   1  -1  -3    0.35    1.00
   1   3   1   -0.54    1.09
  -3   1  -1    0.60    1.31
  -1  -1   3    0.38    0.77
  -3   1  -1    1.95    1.55
  -3   1  -1   -1.18    1.32
  -2  -2  -3   -0.75    1.49
  -2   3   2   -0.70    1.76
   3   2  -2   -1.33    1.87
  -2  -3  -2   -0.37    1.02
  -2   3   2   -1.08    1.08
   2  -3   2    1.60    1.39
   2   3  -2   -0.81    1.19
  -3  -2  -2   -0.56    1.40
  -3   2   2    1.17    1.17
   2   3  -2   -1.76    1.22
  -2   2   3    1.68    1.51
   3   2  -2   -0.45    1.20
  -2   2   3    0.37    0.85
   3   2  -2   -0.43    1.08
   2   2  -3   -0.12    0.46
  -3   2   2    1.94    1.71
   2  -3   1   -2.25    1.36
   3  -1   2   -0.69    1.49
  -2  -1  -3   -1.34    1.39
  -3   2   1    1.30    1.54
   2  -1   3   -0.71    1.59
   1   3  -2   -0.50    1.37
  -2   3   1   -1.03    0.81
  -2   1   3   -0.39    1.06
  -1   3   2    1.88    0.58
   3   1  -2   -0.69    1.73
   1  -3   2   -1.09    1.40
  -1   2   3    0.42    0.61
   2   3  -1   -1.10    1.38
  -1   3   2    1.79    1.12
   2   3  -1    0.33    0.98
  -3  -2  -1    2.41    1.39
   3   2  -1    0.52    1.34
   2   3  -1   -0.55    0.94
  -3  -1  -2   -1.21    1.47
  -3  -1  -2   -0.67    1.50
   2  -3   1    2.81    1.85
   1   2  -3   -1.14    1.39
  -2  -1  -3   -2.66    1.76
   1  -2   3    0.74    1.76
  -3   2   1   -0.62    1.33
   1  -2   3   -0.57    1.23
  -2   3   1    0.59    1.19
  -3   1   2    0.53    1.18
   1  -3   2   -0.72    1.30
  -3   1   2   -0.52    1.28
  -2  -3  -1    1.23    0.90
  -1  -3  -2   -0.48    0.96
  -1  -2  -3   -0.24    0.63
   2  -1   3   -0.54    1.15
   3   2  -1   -0.55    1.64
   3   1  -2   -0.84    1.05
  -3   2   0    0.47    1.14
   3   0   2   -0.50    1.45
   3  -2   0    5.22    1.80
  -3   2   0    1.80    1.55
  -3  -2   0    2.40    1.46
   2   3   0    0.68    0.78
   2   0   3   -0.52    1.12
   0  -2   3    1.06    1.06
   3   2   0   -0.60    1.37
   2  -3   0   -0.70    1.20
   3   2   0   -0.49    1.24
   0   2  -3    1.24    1.52
  -2   0   3   -0.24    0.76
  -3   0  -2    0.72    1.70
   0   2  -3   -0.19    0.52
  -2   0  -3    0.52    1.20
  -2   0  -3   -1.76    1.62
   3   0   2   -0.69    1.47
   0  -3   2    0.44    1.13
   3   2   0    1.29    1.49
   0   3  -2    1.74    1.45
   0  -2   3   -1.35    1.73
   2   0   3   -0.56    1.20
   0   2  -3    0.20    0.68
  -2   3   0    4.94    1.46
   0  -3  -2   -0.69    1.54
   3   0   2    3.95    1.89
  -3   0  -2    0.47    1.21
  -2   0  -3    0.39    0.71
  -2   0   3   -0.47    0.67
   2   3   0   -0.23    0.84
  -3   0  -2   -0.63    1.41
   0   2  -3   -0.39    0.60
   0  -3  -2    0.87    0.90
  -2   3   0    3.20    1.38
   0  -3   2   -0.68    1.42
   3   0   2   -0.59    1.23
   2  -3   0   -0.95    1.29
  -2   0   3    0.23    0.76
   2   3   0    1.93    1.43
   0  -2  -3    0.57    1.49
  -2   0  -3    2.37    1.27
  -3   0   2    0.46    1.09
  -3   0   2   -0.43    1.14
   2   0   3   -1.91    1.46
  -3   0   2   -0.44    1.04
   0  -3  -2    1.04    1.03
  -2   3   0    1.97    1.46
   3   0  -2    3.57    1.84
  -2   0  -3   -3.43    1.53
   3   0   2   -0.63    1.31
   2  -1  -3   -0.41    1.24
   1  -3  -2   -1.36    1.05
   2   3   1    0.70    1.14
  -2   1  -3   -1.31    1.51
  -2   3  -1    2.05    1.42
  -3   2  -1   -0.68    1.24
   3   2   1   -0.23    0.57
   3  -2  -1   -0.71    1.53
  -3  -1   2   -0.73    1.15
  -2  -1   3    0.57    1.35
   3   1   2   -1.36    1.70
   3  -1  -2    1.68    0.90
   3  -2  -1    0.68    1.74
  -3   2  -1   -0.63    1.50
  -1  -3   2    0.71    1.36
  -1   3  -2   -1.53    1.41
   2   1   3    1.80    1.58
  -2   1  -3    0.50    1.12
   2   1   3   -1.27    1.42
   1   2   3   -0.64    1.52
  -1  -2   3    0.62    1.37
   2  -3  -1    2.49    1.55
   3   2   1   -0.74    1.42
   2   1   3    1.18    1.31
  -1   2  -3    0.75    1.19
  -3   1  -2   -0.58    1.46
  -3   1  -2   -1.35    1.79
  -1   2  -3   -0.37    0.88
  -3   2  -1   -3.73    1.60
   1  -2  -3    0.55    1.35
   1  -3  -2    1.42    0.99
  -1  -2   3   -0.56    1.30
   3   2   1    0.68    1.66
  -3  -2   1    2.61    1.44
  -2   1  -3   -0.49    0.80
  -3   2  -1   -0.63    1.45
  -3   2  -1   -1.35    1.78
  -3   1  -2   -0.62    1.13
   3   2   1   -0.73    1.52
  -1   3  -2    0.66    1.25
   2  -3  -1    0.74    1.76
   1   2   3    1.87    1.29
   3   1   2   -0.41    1.18
  -2   3  -1    3.48    1.52
  -1   2  -3   -0.53    1.19
   1  -3  -2   -0.70    1.57
  -2   3  -1    2.57    1.66
  -2   3  -1   -0.68    1.71
  -3   1  -2    0.69    1.44
  -1   3  -2   -0.66    1.58
   2   3   1    0.73    1.69
  -2   1  -3   -1.04    1.17
   2  -3  -1    0.46    0.64
  -3   2  -1   -0.67    1.55
  -3   1  -2   -2.19    1.97
   3   1   2   -0.71    1.29
  -1   2  -3    0.77    1.02
  -1  -3   2   -3.21    1.31
  -2  -2   3    0.46    0.54
  -2   3  -2    0.33    0.49
   2  -3  -2    1.18    1.48
  -2   2  -3   -0.74    2.05
  -2  -3   2   -0.89    1.32
   2   2   3    0.60    1.71
  -3   2  -2   -0.78    1.55
  -2   3  -2   -1.79    1.58
  -3  -2   2   -0.30    0.89
   2   3   2   -1.27    1.42
  -2   2  -3   -0.58    1.41
  -3   2  -2   -0.71    1.63
  -2   2  -3   -0.54    1.20
  -3   2  -2   -0.70    1.81
  -2  -2   3   -1.13    1.38
  -2   3  -2    0.73    1.39
  -3   2  -2    0.69    1.64
   2   2   3    0.76    1.57
   2  -3  -2   -0.77    1.71
  -3   2  -2    1.51    1.68
  -3   2  -2   -0.71    1.30
  -2   2  -3   -1.09    1.54
  -2   3  -2    0.75    1.88
   3   2   2    1.08    1.12
   2  -2  -3   -0.60    1.51
   3  -2  -2   -0.70    1.81
  -2   3  -2    3.17    1.59
  -2   3  -2   -0.63    1.31
  -2   2  -3   -0.62    1.43
   2   2   3   -0.63    1.36
  -3   2  -2   -1.38    1.43
   2   3   2    0.79    1.29
  -2   2  -3   -1.36    1.08
   3  -2  -2   -0.76    1.74
   3   2   2    0.72    1.72
   3   3  -3   -1.53    1.04
  -3   3   3    0.61    1.13
  -3   3   3   -2.39    2.06
   3   3  -3   -1.10    1.12
   3   2  -3   -0.31    0.83
  -3  -3  -2    0.50    1.37
  -3   3   2    1.34    1.15
   2   3  -3    0.28    0.91
  -3   2   3   -0.54    1.07
  -3   3   2   -0.79    1.87
   3   3  -2    1.87    1.83
   2  -3   3   -0.85    1.62
  -3   2   3    1.29    1.70
   2   3  -3    0.27    0.79
  -2   3   3    1.41    1.11
   3   3  -2   -1.53    1.31
  -3  -2  -3   -0.67    1.55
  -3   1   3    0.50    1.47
  -1  -3  -3    0.39    0.88
  -1  -3  -3    0.74    1.42
   1   3  -3    2.53    1.75
  -3   3   1    0.32    0.91
  -3  -1  -3    0.74    1.75
   3   3  -1   -1.99    1.57
   3  -1   3   -0.74    1.70
   1  -3   3    2.30    1.53
   3   3  -1   -1.98    1.70
  -3   3   1    2.15    1.43
  -3  -1  -3   -0.72    1.75
   1   3  -3    0.27    0.83
   3  -1   3   -0.78    1.90
  -3  -3  -1    2.51    1.40
  -3   1   3    1.02    1.34
  -3   3   1   -0.78    1.95
   3  -3   0   -0.68    1.92
   0  -3   3    1.10    1.04
  -3   0  -3   -1.51    1.84
   3   3   0    0.43    1.30
  -3   0  -3   -0.69    1.53
   0   3   3    1.56    0.86
   3   0   3    2.71    1.79
  -3   0  -3    1.12    1.16
  -3   3   0   -0.51    1.29
  -3   0  -3    0.62    1.60
   0  -3  -3   -3.80    2.31
   0  -3  -3   -0.34    0.77
   0   3  -3   -0.70    1.72
   0  -3   3    1.54    2.08
  -3   3   0    2.50    1.76
   3   0   3   -0.75    1.61
  -3   0  -3   -0.67    1.21
   0  -3   3   -0.74    1.27
  -3   0   3   -0.37    1.01
   3   0   3   -0.69    1.62
  -3   0   3    2.01    1.27
   3   3   0   -0.76    1.80
  -3   3   0    0.77    1.83
  -3   0   3    1.15    1.08
   3  -3   0   -0.86    1.91
  -3   3   0    0.76    1.44
   0  -3  -3   -1.34    1.54
  -1  -3   3   -0.69    1.68
  -3   1  -3    1.72    1.15
   3  -3  -1   -1.73    2.33
  -3   3  -1   -1.98    1.82
  -1  -3   3    0.83    0.86
  -3   1  -3   -1.42    1.78
  -3  -1   3    0.29    0.86
  -3   1  -3   -0.79    1.97
  -3   3  -1    0.77    1.94
  -3   3  -1    0.77    1.78
   1   3   3    0.81    1.69
  -3   1  -3    0.68    1.51
   3   3   1   -0.86    1.49
  -3   1  -3    0.88    1.96
   3   3   1    0.27    0.66
  -3   3  -1    2.06    1.58
  -3   3  -1    0.77    1.94
  -1  -3   3    1.52    1.45
   3   1   3   -1.47    1.84
  -3   1  -3   -0.63    1.16
   1   3   3    2.01    1.47
  -3  -1   3    0.30    0.95
  -3   3  -1   -0.79    1.37
   3  -3  -1   -0.70    1.80
  -1   3  -3   -0.48    1.29
  -1   3  -3    2.33    1.89
  -3  -1   3   -0.56    1.61
  -1   3  -3    0.70    1.39
   3   3   1   -0.85    1.90
   1  -3  -3    1.89    1.31
   3   1   3   -0.77    1.82
   1  -3  -3   -1.51    1.99
   3   1   3    2.43    1.88
  -1   3  -3    0.47    1.18
   3   3   2    0.95    1.89
  -3   3  -2    2.49    1.59
   3   2   3   -5.52    2.03
   3   2   3    1.15    1.48
  -3   2  -3    0.81    1.87
   3   3   2    0.37    1.20
  -3   3  -2   -0.85    1.84
  -2   3  -3   -3.40    2.02
  -3   3  -2    2.32    1.99
  -3  -2   3   -0.51    1.48
  -2   3  -3    0.73    1.63
  -2   3  -3    0.63    1.49
  -3   2  -3   -0.71    1.89
   3   3   2   -0.79    1.94
   3  -3  -2    3.50    2.20
  -3   2  -3   -1.42    1.23
  -3   3  -2   -1.47    1.95
  -2   3  -3    0.77    1.40
  -3   3  -2    0.84    1.93
   2   3   3   -0.91    1.89
   3  -2  -3   -3.53    2.21
   2  -3  -3    0.73    1.97
   2  -3  -3    0.80    1.79
   3  -3  -2    0.77    2.09
  -3   2  -3    2.84    1.64
  -2   3  -3   -0.75    0.82
   3  -2  -3    0.70    1.62
  -3   2  -3   -1.88    2.17
  -3   2  -3   -0.74    1.35
   2   3   3   -1.34    1.55
   3   2   3    0.91    1.81
  -3   2  -3   -0.82    1.94
  -3   2  -3    0.78    1.55
  -3   3  -2    1.55    1.79
  -2  -3   3    0.84    1.53
  -2   3  -3   -1.86    1.38
  -2  -3   3    0.60    1.56
  -2  -3   3    1.14    0.97
   3   3   2    0.94    1.72
  -3   3  -3   -3.37    2.24
   3  -3  -3    1.77    1.85
   3   3   3   -2.30    1.64
   3   3   3   -0.83    1.81
   3  -3  -3    2.66    2.12
  -3   3  -3   -1.55    1.69
  -3   3  -3    1.56    1.82
   3   3   3    1.04    2.17
  -3  -3   3    1.14    1.21
  -3   3  -3    1.02    2.22
  -3  -3   3    0.50    1.39
  -3   3  -3   -0.85    1.65
   0  -4   0    0.76    1.58
   0   0   4    4.81    2.26
   4   0   0    0.64    1.33
   4   0   0   -0.78    2.02
   4   0   0   -0.76    1.53
   0  -4   0    1.54    1.54
  -4   0   0    0.70    1.51
  -4   0   0   -0.77    1.53
  -4   0   0    1.08    1.10
   0   0   4   -0.49    0.72
   0   4   0    0.40    0.86
  -4   1   1   -0.77    1.54
   4  -1   1   -0.53    1.25
  -4   1   1    0.70    1.94
   1  -4   1    1.52    2.05
  -1  -1  -4    0.63    1.61
  -4  -1  -1   -0.48    0.89
   4   1  -1    0.69    1.49
  -4   1   1    1.41    1.52
   4   1  -1   -2.34    1.85
  -4  -1  -1   -0.69    1.83
   1   4  -1   -0.12    0.58
   1  -4   1   -0.86    1.56
  -1  -4  -1    0.73    1.34
  -1   4   1    0.67    1.59
  -1  -1  -4   -0.77    1.53
   1   4  -1   -0.52    1.38
   4   1   0   -0.70    1.56
  -4  -1   0   -1.36    1.87
   0  -1   4   -0.82    2.10
  -4   0  -1   -0.73    1.88
   1   4   0   -0.58    1.06
   1   0   4    0.43    0.95
  -4   1   0    0.74    1.75
   1   0  -4   -0.32    0.49
  -1   0  -4    0.69    1.54
   0   4  -1    0.63    1.82
   4  -1   0    0.59    1.44
  -4   0   1    2.59    1.75
   4   0   1    0.83    1.50
   4   0   1    1.43    1.48
  -4  -1   0    0.24    0.61
   1  -4   0   -0.81    2.12
   0  -1  -4    3.36    1.46
  -4   1   0   -2.21    1.58
   0   4  -1    0.76    0.71
  -1  -4   0   -0.76    1.64
   4   0  -1    2.45    2.44
  -4   1   0   -0.75    1.92
   0   1   4   -0.44    1.04
  -1   0   4    5.61    2.56
   4   1   0   -0.77    1.53
   0  -1  -4   -0.44    1.18
  -4  -1   0   -1.41    1.57
   4   1   0    2.23    1.86
   4   0   1   -1.61    2.07
   0  -1   4   -0.35    0.70
  -1   0   4    0.83    0.52
   4   0  -1    3.49    1.74
   1  -4   0   -1.59    1.29
  -4   0  -1   -1.64    1.38
  -1   4   0    1.46    1.78
   0  -4  -1    0.70    1.21
   0  -4   1   -1.66    1.43
  -1   0   4    0.17    0.53
   0  -4   1    2.77    1.78
   4   0   1   -0.66    1.26
  -4   0   1   -0.71    1.68
  -1  -4   0   -0.80    1.72
  -1   4   0    2.89    1.56
  -1   0  -4    0.20    0.52
   4   1   0   -1.42    1.78
   1   0   4    0.81    1.14
   4   1   1    1.53    1.71
  -4   1  -1    1.51    1.85
   4   1   1    4.74    1.70
  -4   1  -1    0.57    1.42
  -1   1  -4    0.35    0.97
  -4   1  -1    0.77    1.99
   4  -1  -1   -1.00    1.22
  -1   4  -1   -0.34    1.02
  -1  -1   4   -1.58    1.88
  -1  -4   1    1.36    1.57
  -4   1  -1   -1.53    2.03
   1   1   4   -0.81    1.93
   4   1   1   -0.84    1.61
   1  -4  -1   -0.56    0.90
  -1   4  -1   -0.73    1.93
  -1   4  -1    0.69    1.78
  -4  -1   1    0.64    1.38
  -1   1  -4    0.34    0.93
   1   1   4    0.55    1.24
   1  -4  -1   -1.46    1.27
   1  -1  -4   -1.14    1.14
   1  -4  -1   -0.86    1.71
  -1  -1   4   -1.17    1.04
  -1   1  -4    1.54    2.03
  -1  -4   1    0.86    1.49
  -4   1  -1   -2.32    2.04
  -1   4  -1   -0.77    1.73
  -1   1  -4   -0.39    0.81
  -4   1  -1    0.85    1.91
   1  -1  -4   -0.36    1.01
   1   4   1   -0.64    1.06
  -1   4  -1   -0.28    0.46
   2  -4   2    0.84    1.99
  -4  -2  -2   -0.70    1.62
   4   2  -2    0.83    2.02
   2   4  -2   -0.60    1.54
  -4   2   2    1.49    1.66
   2   4  -2    0.49    1.41
   4   2  -2   -0.62    1.24
  -2   4   2    0.86    1.98
  -2   2   4    0.25    0.72
  -4   2   2   -0.77    1.60
  -2   4   2    1.35    1.55
  -2  -4  -2   -1.23    0.89
  -2  -4  -2    0.75    1.43
  -4   2   2   -0.78    1.42
  -2  -1  -4    1.58    1.76
  -4   1   2    0.74    1.70
  -4  -2  -1   -2.59    2.14
   1  -2   4   -0.93    2.20
   1   4  -2   -0.60    1.67
   4   2  -1   -0.73    1.45
  -4  -1  -2    3.01    1.98
   2  -1   4    0.90    1.87
   1  -4   2    0.71    1.59
   2   4  -1   -0.71    0.85
  -2   1   4   -0.25    0.66
   4   2  -1   -1.47    1.70
  -4  -2  -1   -0.82    1.89
   2   4  -1    2.14    1.79
  -4   2   1   -0.79    1.65
   4   1  -2    3.47    2.39
  -4   1   2    0.67    1.64
  -4   1   2   -0.68    1.51
   2  -4   1   -0.87    1.87
  -4  -1  -2   -1.66    1.79
  -4   2   1   -1.56    1.42
   1  -2   4   -0.61    1.05
   2  -4   1   -0.93    1.61
  -4   2   1    1.58    1.98
  -2  -1  -4    0.89    0.69
  -1  -4  -2   -1.85    2.44
  -1  -4  -2   -0.68    0.71
  -2   4   1   -0.74    1.27
  -1  -4  -2    0.66    1.21
   2   4  -1    3.55    1.39
   4  -2   1   -1.09    0.92
   4   2  -1   -0.67    1.54
  -2  -1  -4    0.81    1.56
   2   0   4    1.71    1.44
   0  -2   4   -0.87    2.06
   2   4   0   -1.10    1.18
  -4  -2   0   -1.49    1.88
   0   4  -2   -2.80    1.76
   2   0   4    0.84    2.05
   4   0  -2    0.90    2.20
   0  -4  -2   -0.90    2.42
   4  -2   0    0.86    1.99
  -4   0  -2   -0.52    1.35
  -2   0  -4   -4.15    1.92
   0   2  -4   -0.78    1.75
  -2   0   4   -0.81    1.93
   2   0   4    0.61    1.38
   4   2   0    0.69    1.70
  -4   0  -2   -1.58    2.04
   0   2   4    1.89    1.70
   0  -2  -4    0.63    1.66
  -2   0  -4   -0.57    1.51
   2   4   0   -0.81    1.93
   0  -4  -2   -0.25    0.92
  -4   2   0    0.78    2.15
   2  -4   0   -0.87    1.52
   0  -4   2    2.50    1.65
  -4   0  -2   -0.80    1.67
  -4   0   2   -2.38    1.72
   0  -2   4    1.13    1.09
  -2   0  -4   -1.13    0.98
   0  -4  -2   -0.63    1.26
  -2   4   0    0.79    1.29
  -4   0   2    0.65    1.59
   4   2   0   -0.82    1.64
   4   2   0    0.74    1.61
  -2   0   4   -0.63    0.59
  -2   4   0   -0.80    1.80
   4   0   2   -1.46    1.52
  -2   0  -4   -0.75    1.44
  -2   0   4    0.31    0.60
   2   4   1    2.43    1.61
  -4   2  -1   -0.92    1.99
  -4   2  -1    0.72    1.75
   2  -1  -4    2.80    1.18
  -1  -2   4    1.63    1.81
  -4   1  -2    0.81    1.75
   2   4   1    0.90    1.87
  -2   1  -4    0.90    1.93
  -2   4  -1    0.78    1.85
   4   1   2    4.17    2.14
   2   1   4   -1.62    1.92
  -2  -1   4   -0.77    2.04
   4  -1  -2    1.68    1.21
  -2   1  -4    0.81    1.80
  -4  -1   2   -0.37    1.12
  -1   4  -2   -1.45    1.39
  -4   1  -2   -0.89    2.11
   4   2   1   -0.83    1.73
   1   2   4   -0.84    1.94
   1  -4  -2   -1.47    1.17
   2  -4  -1   -0.99    1.43
  -4   2  -1    0.83    1.72
  -4   1  -2   -0.83    2.23
   4   2   1   -0.81    1.88
  -4  -2   1    0.67    1.54
  -2   4  -1   -0.51    1.58
  -4   2  -1   -3.20    2.35
  -1   4  -2   -0.65    1.64
   1  -4  -2   -1.20    1.28
  -4   2  -1   -0.83    1.85
   2  -4  -1   -0.93    1.93
  -4   1  -2   -0.78    1.42
   1   2   4   -1.42    1.48
  -2   1  -4   -0.53    1.19
   2  -4  -1    0.81    1.24
  -4  -1   2   -0.57    1.27
  -4   2  -1    0.83    1.51
   1  -4  -2   -0.65    1.31
  -1   2  -4    2.42    1.13
   4  -2  -1    0.88    2.09
  -4   1  -2   -0.65    1.49
  -1   2  -4    0.71    1.01
  -2  -4   1    1.44    1.85
  -2   1  -4   -1.50    1.25
  -1  -2   4    1.19    1.09
  -4   2  -1   -0.76    1.70
  -2   4  -1    0.83    1.66
  -1  -4   2   -0.92    1.75
  -4   1  -2   -0.90    2.01
   2   1   4   -0.65    1.45
   1  -4  -2   -0.91    1.96
  -1   4  -2   -0.79    1.99
   1  -2  -4   -1.18    1.45
  -1   4  -2   -0.82    1.71
  -2  -4   1    1.86    1.93
  -1  -4   2    0.59    1.43
  -2   1  -4   -1.37    1.42
   4   1   2    1.71    1.56
  -4   2  -2    0.85    1.55
  -4   2  -2    1.56    1.96
  -2  -2   4    0.77    1.71
  -2   4  -2    1.52    1.90
   2   2   4    0.81    1.81
  -2  -4   2    2.42    1.63
   4   2   2    1.51    1.14
  -4   2  -2   -2.57    2.25
  -2   4  -2    0.61    1.61
  -4  -2   2    1.74    1.53
  -4   2  -2    3.44    2.21
  -2   2  -4   -1.10    1.38
  -4  -2   2   -0.61    0.77
   2  -4  -2   -1.15    1.66
   4  -2  -2    1.90    2.38
   2  -2  -4    1.23    1.58
   2   4   2   -0.99    2.28
  -4   2  -2    0.91    2.04
   2  -4  -2   -0.97    2.36
  -4   2  -2    5.13    2.03
   2   2   4   -0.83    1.73
  -2   2  -4   -1.63    1.25
  -2   2  -4   -0.64    1.17
  -2  -4   2    1.97    1.70
  -2  -2   4    0.68    1.36
  -2   2  -4   -0.62    1.08
   2   4   2   -0.90    1.46
  -4   2  -2   -0.95    1.90
   4   2   2   -1.96    1.78
   2  -4  -2   -1.26    0.97
   4   3  -3   -0.52    1.12
  -3  -3  -4   -2.24    1.87
  -3  -4  -3    1.02    1.18
  -4  -3  -3    0.73    1.57
   4   3  -3    1.83    1.89
   3   4  -3    2.17    1.77
  -4   3   3   -0.76    1.23
  -3   3   4    0.51    1.01
  -3   4   3    0.70    1.21
   4   3  -2   -0.68    1.52
  -4   2   3    1.51    1.89
   3  -2   4    1.07    2.21
  -4   2   3   -0.76    1.45
  -3  -2  -4   -0.81    1.86
  -2  -4  -3    1.28    1.10
  -4  -2  -3   -0.79    1.88
  -4  -3  -2    1.28    1.64
   4   3  -2   -2.33    1.67
   3   4  -2   -2.21    1.71
  -3  -4  -2   -1.15    1.10
   2   4  -3   -0.62    1.59
   4   2  -3    1.92    2.28
   2   4  -3   -0.90    1.15
   2  -4   3   -1.04    1.89
  -4   2   3    1.41    1.35
   3   4  -2   -0.67    1.59
  -4   3   2    0.81    1.48
  -3   2   4    0.46    0.95
  -3   4   2    0.78    1.27
  -2   4   3    0.59    1.28
  -2  -4  -3    0.66    1.26
  -2   3   4    0.34    0.76
  -2  -3  -4   -0.40    0.92
   4   3  -2    1.26    1.53
  -4   1   3    0.69    1.64
   3  -1   4    3.83    2.52
   1  -3   4    1.02    2.20
   1   4  -3    0.72    1.84
  -3   4   1   -0.36    0.89
   1   3  -4    0.78    1.91
  -4  -1  -3   -0.84    1.88
   3   4  -1   -0.40    1.19
   4   3  -1   -1.35    1.61
   1  -4   3    0.66    1.51
  -4   1   3   -0.64    1.47
   4   1  -3    2.98    2.68
  -3   1   4    0.47    1.02
  -3  -1  -4   -0.50    1.04
   3   4  -1    0.80    1.59
  -1  -4  -3   -4.02    2.52
   1  -3   4    4.04    1.80
   1  -4   3   -0.97    1.48
  -1  -3  -4   -0.44    0.59
  -3   1   4    0.92    1.25
  -3   4   1    1.67    1.66
  -1  -4  -3   -0.56    1.13
  -4   1   3   -0.63    1.58
   4   3  -1   -0.73    1.57
  -4  -3  -1    0.58    1.65
   3  -4   1   -1.01    2.17
  -3   0  -4    1.60    1.59
   0  -4  -3   -1.45    1.32
  -4   0  -3   -1.98    1.82
   3   0   4   -1.74    2.24
  -3   4   0   -0.58    1.34
  -4   3   0   -0.62    1.47
   4   0  -3    1.02    2.34
   3   4   0   -0.10    0.46
   0   4   3    0.36    0.98
   0  -3  -4   -1.65    1.95
   0  -4   3    1.62    1.35
  -3   0  -4    0.98    2.40
   4   3   0   -1.87    1.68
   4  -3   0    3.57    2.24
  -4   0  -3    3.05    2.11
   4   0   3   -0.95    1.73
   0  -4  -3   -1.93    2.14
  -3   0  -4   -2.21    1.84
  -4   3   0   -0.80    2.06
   0   3  -4   -5.07    2.17
  -3   4   0    2.55    1.72
   3   4   0   -0.90    1.87
  -4   0  -3    2.56    1.84
  -4   0   3   -1.06    1.32
  -3   0   4    2.22    1.01
  -3   0   4   -0.83    2.14
  -3   0  -4    1.65    1.22
   0  -4  -3   -0.52    0.95
   0  -3   4    1.55    1.48
   0   4  -3    2.41    1.78
   0  -4   3    1.89    1.54
   4   0   3   -0.72    1.76
   4   3   0    0.91    1.81
   4   3   0   -0.82    1.69
  -3   0   4    0.31    0.86
  -4   0   3    1.73    1.44
   0   3  -4   -0.22    0.76
   0  -3   4   -0.94    2.30
   3   0   4   -0.81    2.02
   4  -3   0    0.13    0.44
   0  -3  -4   -0.83    1.35
   3   4   1    2.94    1.89
  -3   1  -4   -0.72    1.26
   4   3   1    2.08    1.81
   4   1   3   -1.85    1.71
   1   4   3    1.67    1.65
  -1  -3   4    4.34    2.19
   3   1   4   -2.44    1.83
  -1   3  -4   -1.29    1.22
  -4   1  -3    1.53    1.93
   1  -4  -3   -0.55    1.13
  -4   3  -1   -3.17    1.90
  -4  -1   3   -1.10    1.70
   3  -4  -1   -1.04    2.00
  -4   1  -3   -1.03    1.80
   3  -4  -1    0.71    1.74
   4  -3  -1    0.91    2.23
  -4  -1   3   -0.46    1.22
   1  -4  -3   -0.56    1.50
   4  -1  -3   -0.35    0.97
   1   3   4    0.89    1.99
  -4   3  -1    1.65    2.14
  -3   4  -1   -2.03    1.76
  -1  -4   3   -0.47    1.25
  -1   4  -3    0.61    1.46
  -4  -1   3    1.90    1.30
   3   4   1    1.00    2.09
  -3   1  -4    1.42    1.49
  -4   1  -3    0.79    1.53
  -4   1  -3   -1.70    2.03
  -3   1  -4   -1.92    1.25
   4   3   1   -1.00    2.25
  -1  -3   4   -0.80    1.48
  -1  -4   3   -1.94    1.86
   4   1   3    1.99    2.16
   1  -4  -3   -0.96    1.94
  -3  -1   4   -3.05    2.12
   1  -3  -4    1.60    1.91
  -1   3  -4    0.44    1.16
  -1   3  -4    0.42    0.99
   3   1   4   -0.79    1.78
   3   1   4   -1.76    2.04
   1  -4  -3   -1.32    1.34
  -3   2  -4    1.88    1.35
  -4   3  -2   -1.04    2.07
   4   3   2    0.40    0.89
  -2   4  -3   -0.73    1.73
   4   2   3   -0.53    1.50
   2   3   4    0.72    1.49
  -4  -2   3   -0.45    1.28
  -3   2  -4    5.52    2.69
   3  -4  -2    3.18    2.11
  -4   2  -3    2.15    2.04
   2   3   4   -0.84    1.94
   2   4   3   -2.18    1.73
  -2   4  -3   -0.74    1.64
  -3   2  -4    1.46    1.68
   3  -4  -2   -0.77    1.71
  -3   4  -2    2.26    1.67
   4  -3  -2   -0.97    2.29
   4  -2  -3   -1.06    2.27
   2   4   3   -1.08    2.15
   2  -4  -3   -0.70    1.67
  -2  -3   4   -0.79    1.88
   2  -3  -4   -0.82    1.70
   3   4   2   -1.10    2.09
   2   3   4   -1.98    1.97
   2  -4  -3    1.00    2.00
   3   2   4   -0.78    1.86
  -3   2  -4    3.61    1.76
   4   3   2   -1.10    2.27
  -3   2  -4    2.26    1.56
   3   2   4   -0.98    1.70
  -4  -2   3   -0.45    1.15
  -2   3  -4    0.61    1.39
  -2   3  -4    1.19    1.18
   3   4   2   -1.24    1.31
  -2  -4   3   -0.91    1.30
  -4   2  -3    0.98    1.78
  -2  -3   4    0.87    1.58
  -2   3  -4    1.59    1.51
  -2  -4   3    2.06    1.96
  -2   3  -4   -0.64    1.33
  -3  -2   4    0.72    1.71
  -2   4  -3   -0.72    1.38
  -2   3  -4    1.66    1.24
   3  -4  -2   -1.13    0.75
   2  -4  -3    0.61    1.22
   3   4   2    2.11    1.82
  -4   3  -2    1.93    1.92
  -2   4  -3    0.26    0.62
   3  -2  -4    0.68    1.52
   4   3   2    1.10    1.79
  -3  -3   4    2.82    1.94
  -3   3  -4    3.58    2.91
   4   3   3    1.88    1.38
   3  -3  -4   -1.03    2.21
   3  -3  -4    2.64    1.83
  -4   3  -3   -1.13    2.68
  -3  -4   3   -2.00    1.35
   3   4   3    1.80    1.47
   3   3   4    0.78    1.85
   3  -4  -3   -1.07    2.14
   4  -3  -3    4.25    2.44
  -3   3  -4   -1.55    1.67
   3   3   4    1.12    2.03
  -3   3  -4   -0.84    1.53
   3  -4  -3    1.74    1.94
  -3  -4   3   -3.39    2.16
  -4   3  -3   -1.05    1.91
   4   4  -4    0.99    2.33
   4   4  -3    0.84    2.15
   4   3  -4    1.07    2.13
  -3  -4  -4   -0.67    1.28
   4   4  -2   -0.69    1.54
  -4   2   4    0.64    1.10
  -4  -4  -2   -0.53    1.37
   4   2  -4   -3.34    2.31
   2  -4   4    3.23    1.85
  -4   2   4    2.87    1.70
  -4   2   4    0.73    1.39
  -2  -4  -4    0.52    0.95
   4   4  -2   -1.42    1.73
   4   4  -1   -1.16    1.53
   4  -1   4   -1.01    2.01
  -4   1   4    3.99    1.64
  -4   1   4    3.50    1.54
   1   4  -4    0.23    0.76
   4   1  -4   -2.29    2.37
   1  -4   4   -1.01    1.54
  -1  -4  -4   -0.40    0.77
   4   4  -1   -0.91    2.03
  -1  -4  -4   -1.08    2.32
  -4   1   4    0.63    1.30
   4   0   4    2.70    2.14
   0  -4  -4   -1.03    2.13
  -4   4   0   -1.29    1.58
  -4   0   4    0.43    1.10
   4   0   4   -1.01    1.83
   4   0  -4    1.16    2.51
   0  -4  -4   -0.35    0.85
  -4   0  -4    1.44    1.31
   0  -4   4    0.99    1.39
  -4   0   4    0.44    1.08
   4   4   1   -2.32    2.11
   4   1   4    3.25    2.15
   1   4   4   -0.56    1.29
   4  -4  -1   -2.35    2.14
  -4   4  -1    4.22    2.06
  -4  -1   4   -0.63    0.87
  -4  -1   4    2.97    1.72
   4  -4  -1    1.83    2.04
  -4   1  -4    1.18    2.26
   4  -1  -4    1.73    0.88
   4   1   4    1.06    2.13
   1   4   4   -2.15    2.23
  -4   1  -4   -1.58    1.71
   4   4   1   -2.26    2.34
  -1   4  -4   -0.54    1.24
  -1  -4   4   -1.01    1.74
  -1   4  -4   -0.52    1.10
   1  -4  -4   -2.02    2.18
  -4  -1   4    1.17    0.95
  -2   4  -4    0.74    1.49
  -4  -2   4    0.66    1.71
  -4   2  -4    1.23    2.02
   4   2   4   -0.74    1.83
   2   4   4   -1.49    1.78
  -4   4  -2    1.03    1.97
  -2   4  -4   -2.03    1.67
   4  -4  -2    1.93    2.43
   4  -4  -2   -1.18    2.54
   4  -2  -4    2.38    2.66
   2   4   4    2.32    2.12
   2  -4  -4   -4.28    2.10
   2  -4  -4   -3.09    2.15
   4   4   2   -2.45    2.35
  -4  -2   4   -0.18    0.73
   4   4   2   -0.19    0.51
   2   4   4    3.59    2.43
  -2  -4   4    1.06    1.95
   4   2   4   -1.15    1.89
   4   4   2   -1.22    2.12
  -4   4  -3    1.14    2.30
  -3   4  -4   -1.29    2.60
   4  -4  -3   -2.34    2.06
  -4   4  -3    1.20    2.22
  -4   3  -4   -2.59    2.82
   3   4   4    0.79    1.86
   3  -4  -4    1.08    2.10
   4   4   3    0.42    1.26
   4   3   4   -2.07    1.78
   4  -4  -3    2.10    2.21
   4  -3  -4   -2.37    2.91
   3  -4  -4   -1.00    2.19
  -4  -4   3   -3.52    1.77
   3   4   4   -1.27    2.34
  -4   3  -4    1.04    1.84
  -3  -4   4    1.15    2.13
  -3   4  -4   -0.92    1.95
   4  -4  -4   -3.45    2.59
   4  -4  -4   -1.15    2.99
  -4   4  -4   -1.10    2.24
  -4  -4   4   -1.26    2.42
   0   0   5   -0.24    0.70
  -5   0   0    0.82    1.23
   0   0  -5    1.45    1.67
   0   0  -5    0.50    0.82
   0   0   5    1.02    2.42
   5   0   0   -0.79    1.93
   5   0   0   -1.00    2.22
   0   0   5    0.25    0.71
   0  -5   0   -0.98    1.49
   0  -5   0    0.96    2.07
   0   5   0   -0.93    1.01
   5  -1   1    2.02    1.45
   1   5  -1    0.65    1.59
  -1   1   5   -1.06    2.43
  -1  -1  -5   -1.51    1.89
  -1  -5  -1    1.04    2.32
   5   1  -1    0.82    1.83
   5   1  -1   -1.97    2.33
   1  -5   1   -0.95    2.19
  -1   1   5    1.14    1.05
   5   1  -1   -0.88    1.69
   1  -5   1   -1.07    1.94
  -1  -5  -1    2.79    1.85
  -5   1   1    0.97    1.76
   1   5   0    0.67    1.35
   5   0   1   -1.64    1.35
   1   5   0    3.18    1.94
   1   0   5   -0.43    1.06
  -5   1   0   -1.20    1.67
   0   5  -1   -1.54    1.98
   5  -1   0    0.74    1.59
   0  -1   5   -2.06    2.14
  -5   0  -1    0.46    1.31
  -1   0  -5   -2.52    1.88
  -1  -5   0    0.96    2.14
  -5   0   1   -0.81    2.09
  -5  -1   0   -0.51    0.54
   0  -1  -5   -1.82    1.57
  -1   0   5    1.02    2.19
   5   0  -1   -0.73    1.68
   0  -1  -5    0.47    1.32
   5   1   0    0.97    2.23
   5  -1   0   -2.08    2.61
   5   1   0   -1.90    1.98
   5   0  -1   -1.03    2.29
  -5  -1   0    0.85    1.96
   0  -1   5    0.32    0.76
   1   0   5   -0.45    1.18
   1  -5   0   -2.01    2.25
   0   1   5    0.47    1.22
   1  -5   0   -1.00    1.42
   0  -5  -1   -0.90    1.65
  -5   0   1   -1.64    1.83
   0  -5   1   -1.78    1.92
  -5   0   1   -0.91    2.03
  -1  -5   0    1.00    1.83
   0   5  -1    0.89    0.94
   5   0   1    1.03    1.98
  -5   1   0   -1.02    2.11
  -1  -5   1   -0.87    2.01
   5   1   1   -0.96    1.66
  -5  -1   1   -0.34    0.80
  -1   1  -5   -4.72    2.11
  -5   1  -1    1.27    1.47
   5  -1  -1    2.57    1.78
   1  -1  -5   -0.94    1.20
  -1  -1   5   -2.01    2.32
   1   1   5   -1.03    2.22
  -1   1  -5    0.67    1.14
  -1   5  -1   -1.74    0.93
  -5  -1   1    0.80    1.61
   1  -1  -5    1.12    1.19
   1  -5  -1   -0.93    1.61
  -1  -1   5    0.72    0.85
  -1  -5   1    1.06    1.38
   1   1   5   -0.56    1.34
  -5   1  -1   -1.06    2.21
   1   5   1   -0.73    1.35
   5   1   1    3.13    2.09
  -5   2   2   -1.03    1.87
   2   5  -2   -0.58    1.53
   2  -5   2    4.01    2.38
   5   2  -2    1.59    1.52
   5   2  -2    1.01    2.09
   2   5  -2    0.77    1.46
   2   5  -2   -0.30    0.93
  -2  -5  -2   -0.92    1.49
  -5   2   1   -1.06    2.12
   1  -2   5   -1.12    2.24
   2  -1   5    2.21    2.62
   2   5  -1    1.02    1.32
   1   5  -2    2.14    1.74
  -2   1   5   -2.17    2.25
   2  -5   1   -3.14    2.25
  -2  -1  -5    0.91    1.90
  -1  -5  -2    3.38    2.51
   1  -5   2    1.78    1.85
   5   2  -1   -0.93    1.93
  -1   2   5   -0.62    1.33
   2   5  -1   -0.89    1.77
   5   1  -2   -1.06    2.58
  -5  -2  -1   -0.81    2.09
  -5   1   2    0.82    1.70
   2  -5   1   -1.13    1.59
  -2  -5  -1    1.09    2.08
  -1  -5  -2   -2.54    1.69
  -2  -1  -5    0.11    0.36
  -2  -5  -1   -1.00    1.63
   5  -1   2    1.44    1.37
  -5   1   2    0.92    1.83
   5  -2   1   -0.99    0.99
   5   2  -1   -0.91    1.88
   0  -5  -2   -1.10    2.38
   2   5   0   -0.86    1.41
  -5   2   0    0.77    1.71
   2   5   0    1.48    1.27
   5  -2   0    0.52    1.00
   0  -2   5    2.14    2.39
   0   5  -2   -0.82    1.64
   2   0   5    2.10    2.35
  -5   0  -2   -1.67    1.58
  -2   0  -5   -2.92    2.18
  -2   0   5   -2.04    2.20
   0  -2  -5   -0.67    1.50
   0   2   5   -2.17    2.58
   5   0  -2    0.68    1.56
   5  -2   0   -1.08    2.32
   5   2   0   -1.79    2.06
   0   5  -2   -0.33    0.96
  -5   0   2   -1.51    1.68
   2   5   0    0.99    1.89
   5   0  -2    1.09    2.67
   5   2   0   -1.00    1.83
   0   2   5    2.01    1.55
  -2  -5   0   -1.99    2.37
   0  -5   2    1.62    1.98
   2  -5   0    4.25    2.21
   0  -2   5   -0.57    1.00
   0  -5  -2    0.82    1.17
  -5   0   2    3.05    1.76
  -5   0   2   -0.84    1.87
  -2   0   5   -0.26    0.73
  -2   0  -5   -0.93    0.81
  -2  -5   0    1.07    1.94
   2   0   5   -1.30    1.41
   5   0   2   -0.87    1.33
  -1   5  -2   -0.21    0.62
   5   2   1    1.09    1.88
  -5   2  -1   -1.58    2.13
   2  -1  -5   -0.35    1.00
   2  -1  -5   -0.36    0.92
  -1  -2   5   -2.04    2.35
  -2   1  -5    3.17    2.01
  -5  -1   2   -0.72    1.66
  -5   1  -2   -0.71    1.82
  -2   1  -5   -0.55    1.34
   2   1   5   -3.07    2.28
   5  -1  -2   -0.55    1.31
  -2  -1   5    6.90    2.27
   5   2   1    1.09    1.88
   1   2   5   -1.05    2.10
  -5  -1   2    1.70    1.09
  -2  -5   1    0.89    1.99
   1  -5  -2    0.29    0.90
   5  -2  -1   -2.19    2.82
  -1   5  -2    0.90    1.16
  -1   2  -5   -0.83    0.84
  -2   1  -5    0.54    1.32
   2   5   1   -2.17    1.97
  -5  -2   1    0.82    1.89
   2  -5  -1    1.13    2.34
  -2   5  -1   -1.46    1.25
  -5  -1   2    0.73    1.45
   2  -5  -1    0.99    1.61
   1   2   5    2.30    1.76
   1  -5  -2   -0.84    1.37
  -1  -2   5   -0.59    1.03
   1  -2  -5   -0.61    1.31
  -5   1  -2    2.23    2.31
   1  -5  -2   -1.12    2.14
  -1  -5   2   -0.77    1.60
   2   1   5   -0.76    1.38
  -2  -1   5   -0.95    1.06
  -1   2  -5   -0.88    0.96
  -2  -5   1    3.38    2.05
  -2   1  -5    0.48    0.99
   5   1   2    1.12    2.32
   2   1   5    1.39    1.55
  -5   2  -1   -1.13    2.15
   2   5   1    2.73    1.81
   5   1   2   -1.01    1.64
  -2  -5   2    2.32    1.89
  -2   2  -5    3.46    2.57
   5   2   2    1.18    2.14
  -2  -2   5    1.95    2.02
   2   2   5    3.07    2.50
  -5   2  -2   -1.06    2.28
   2  -5  -2   -1.56    1.27
   2  -2  -5    0.60    1.38
   5  -2  -2   -1.15    2.29
  -2   5  -2    2.37    1.53
  -5  -2   2    0.73    1.45
   2   5   2    3.52    2.62
  -2   2  -5   -1.06    1.34
  -2   2  -5   -0.52    1.20
   2  -5  -2    1.17    2.02
   2   2   5   -0.90    1.78
  -2  -2   5   -0.67    1.40
  -5   2  -2   -1.16    2.21
  -2   2  -5    1.28    1.28
  -2   2  -5   -1.58    1.36
   5   2   2    3.42    1.85
   5   3  -3    5.29    2.93
  -3  -5  -3    0.92    1.91
  -5   2   3   -0.98    1.80
   2  -3   5   -2.55    2.85
   3  -2   5    1.24    2.86
   2   5  -3    2.74    1.72
   5   3  -2   -0.94    2.04
   5   2  -3    1.12    2.58
   2   5  -3    0.61    1.32
   2  -5   3    1.24    1.89
   3   5  -2   -3.24    1.93
  -2  -5  -3   -1.26    2.19
  -2  -5  -3    0.81    1.41
   5   3  -2    1.66    1.80
  -3  -5  -2   -1.02    1.57
   1  -3   5    3.61    2.40
   3  -1   5    1.15    2.38
   3  -5   1    1.17    2.43
   1  -5   3    1.63    1.82
  -3   5   1    0.42    1.12
   3   5  -1    1.39    1.14
   5   3  -1    0.96    2.22
  -1  -5  -3    1.20    2.40
  -1  -5  -3    0.39    0.76
   5   3  -1   -0.86    1.99
  -3  -1  -5    2.17    2.17
   5   1  -3   -1.16    2.68
  -1  -5  -3    0.20    0.79
  -5  -3  -1    2.98    1.88
   3   5  -1    1.89    1.82
  -1  -3  -5    0.95    2.18
   1  -3   5   -0.82    1.26
  -3   1   5    1.03    0.95
   1  -5   3    2.36    1.80
  -1  -5  -3    0.74    1.29
  -5   1   3   -0.76    1.77
  -3   1   5   -0.39    0.93
  -5   1   3   -0.86    1.64
  -5   1   3    0.78    1.79
   0  -5  -3   -5.85    2.54
   3   5   0    1.05    1.94
   0  -3   5    1.13    2.46
  -3   5   0   -1.32    1.46
   3   0   5   -4.29    2.91
   3   5   0    0.25    0.95
   0  -3  -5   -0.87    1.76
   5   0   3   -2.32    2.03
  -3   0   5   -1.03    2.46
   3   0   5   -2.54    1.98
  -5   0  -3    0.68    1.79
  -3   0  -5    6.75    2.84
   5   3   0   -1.64    1.91
   5  -3   0   -1.11    2.23
   0  -5   3    1.42    1.67
   5   0  -3    0.64    1.46
   0   3   5    1.74    1.84
   5   0  -3   -3.59    2.94
   0  -5  -3   -0.62    1.06
   3   5   0    1.06    2.14
  -5   0   3   -1.36    1.64
   0  -5  -3    2.83    1.56
   0  -3   5    0.79    1.33
  -5   0   3   -1.38    1.52
   0  -5   3    1.16    1.80
   5  -3   0   -0.78    0.83
   5   3   0    3.21    2.07
  -5   3  -1   -1.22    1.99
   3   5   1    0.32    1.05
  -1  -3   5    1.06    2.29
   3   1   5   -1.02    2.29
  -3   1  -5    0.73    1.60
   3   1   5   -0.93    1.87
   5  -1  -3    0.46    1.18
  -3  -1   5    0.97    2.30
  -3   1  -5   -1.19    2.27
  -5  -1   3    0.52    1.36
   1   3   5   -1.10    2.69
   1   5   3    2.48    1.49
   3  -5  -1   -1.35    1.48
   3  -5  -1   -2.45    2.55
  -5   3  -1    1.82    1.98
   5  -3  -1   -3.35    2.24
  -5   1  -3   -1.19    2.07
  -5  -1   3   -0.62    1.44
   1  -5  -3   -0.46    1.25
  -3   1  -5    0.73    1.52
  -1  -5   3   -0.64    1.67
  -3   5  -1   -1.33    1.55
  -5  -1   3    0.63    1.47
   3   5   1   -1.16    2.23
   1   3   5   -1.89    1.90
   1  -5  -3    0.73    1.21
  -3  -5   1    0.95    2.33
  -1  -3   5   -0.81    1.34
  -1  -5   3    1.18    1.93
   1  -3  -5   -4.13    2.19
   1  -5  -3    3.52    2.44
   5   3   1    1.17    2.34
   5   1   3   -1.19    1.95
  -3  -5   1   -3.67    2.12
   3   5   1    3.26    1.89
   2  -5  -3    1.19    1.25
  -2  -3   5   -0.99    2.28
  -3  -2   5   -3.70    2.13
   3   2   5   -0.99    2.36
  -5  -2   3   -0.59    1.42
   2   3   5   -1.04    2.41
  -5   3  -2   -2.16    2.33
  -5   2  -3   -1.21    2.32
  -3  -5   2    1.63    1.83
   3  -5  -2   -1.25    2.28
   3  -5  -2   -0.73    1.52
   5  -3  -2   -1.17    2.60
   2  -5  -3   -0.64    1.61
   5  -2  -3    1.24    2.37
   2  -3  -5    3.29    1.96
   3   5   2   -1.26    2.18
   2  -5  -3    3.62    2.87
   2   3   5    1.05    2.10
  -2  -5   3   -1.23    1.63
  -5   2  -3    1.19    2.37
  -2  -3   5    1.74    1.60
  -2  -5   3   -2.46    2.13
  -3  -2   5   -0.79    1.31
   5   2   3   -1.22    1.73
   3   5   2    1.16    1.65
  -5   3  -2   -1.23    2.66
  -3  -3   5    0.90    1.95
  -3   3  -5    1.35    2.47
   3   3   5    1.96    2.33
   3  -3  -5   -0.85    1.78
   3   5   3    3.19    1.89
  -5   3  -3    4.99    3.13
   3  -5  -3    1.27    2.43
   3  -5  -3   -1.63    1.95
   5  -3  -3    3.74    2.69
   3  -3  -5   -4.74    3.13
   3   3   5   -3.54    2.55
  -3  -3   5    0.97    1.86
  -3  -5   3    1.31    1.86
  -5   3  -3    7.46    3.04
   5   3   3   -2.69    2.20
  -3  -5   3   -0.63    1.42
   5   3  -4   -2.38    2.99
   4   3  -5    2.46    2.75
  -5   2   4    1.84    1.94
   5   4  -2    0.89    1.82
   5   4  -2   -0.84    1.98
   5   2  -4    5.01    3.16
  -2  -5  -4    8.02    3.46
   2  -5   4   -1.27    1.96
  -2  -4  -5   -1.22    2.46
   4   5  -2    0.88    1.79
   4  -1   5    1.18    2.68
  -1  -5  -4    1.27    2.77
   5   4  -1    1.51    1.85
  -1  -4  -5    1.13    2.57
   5   1  -4    2.59    2.92
   1  -4   5    1.03    1.64
   1  -5   4    1.22    1.92
   4   5  -1    1.03    2.12
  -5   1   4    1.53    1.66
   5   4  -1    2.08    2.13
  -4   1   5    0.51    1.30
   0  -5  -4   -1.23    2.31
   4   0   5   -1.04    1.99
   0  -4  -5   -1.07    2.21
   0  -4   5    1.21    2.58
   4   5   0   -3.71    2.33
   4   0   5    1.09    2.34
  -4   5   0   -3.40    1.68
  -4   0   5    1.03    2.29
  -5   0   4   -1.69    2.04
  -4   0  -5    1.28    2.41
   0   4   5    1.07    2.13
   5   0  -4    2.64    2.70
   5   0   4   -2.42    2.58
   4   5   0   -1.16    2.38
   0  -4   5    1.00    1.93
   0  -5   4   -1.20    1.79
   4   5   1   -1.27    1.83
   5   4   1    1.33    2.07
  -1  -4   5   -2.23    2.26
  -5   4  -1   -1.33    2.33
   4   1   5   -1.01    2.13
   4  -5  -1   -5.37    2.91
  -4   5  -1    2.69    1.91
  -4  -1   5   -0.94    2.05
  -5  -1   4   -1.40    1.94
  -4   1  -5   -2.65    2.67
  -5   4  -1   -0.93    1.97
   5  -4  -1   -3.36    2.53
  -5   1  -4    1.33    2.69
   1   5   4    2.53    2.55
   1   4   5    1.13    1.99
   1  -5  -4   -2.56    1.81
   4  -1  -5    1.34    2.90
   4   1   5   -1.11    2.07
   4   5   1   -1.27    2.34
  -1  -4   5    1.02    1.60
  -1  -5   4   -1.21    2.01
   1  -4  -5   -2.07    2.34
   1  -5  -4    2.43    2.65
   5   1   4   -1.25    2.32
  -5   4  -2   -2.66    2.53
   4   2   5   -1.89    2.03
   4   2   5    1.21    2.20
  -2  -4   5    2.02    2.01
   5   2   4   -0.67    1.54
  -2   5  -4    0.84    1.75
  -4  -2   5   -0.86    2.09
  -4   5  -2    1.09    2.26
   4  -5  -2   -1.35    2.45
  -4   2  -5    1.38    2.39
   2   4   5   -1.08    2.40
  -5   4  -2   -1.11    2.02
   5   2   4   -1.33    2.29
  -5   2  -4   -1.36    2.83
   4  -5  -2   -0.93    2.00
   5  -4  -2   -1.16    2.41
   5  -2  -4    1.35    2.80
   2  -5  -4    0.78    1.95
   2  -4  -5    1.03    2.30
   2   5   4    4.00    2.76
   4  -2  -5   -2.67    2.97
   2  -5  -4   -1.23    2.35
   2   4   5    1.22    2.21
  -4  -5   2    0.88    1.76
   4   5   2    2.73    2.48
  -2  -4   5   -1.07    1.94
  -2  -5   4   -1.26    2.05
   4   5   2    1.33    2.16
   5   4   2   -1.38    2.25
  -3   5  -4   -1.01    1.77
  -4   5  -3   -1.24    2.59
   4   3   5    0.89    2.20
  -4   5  -3   -3.81    2.75
   3   4   5   -0.98    2.59
   3   5   4   -0.81    2.10
   3  -4  -5    1.06    2.13
   4  -5  -3   -2.99    2.52
   5  -4  -3    1.23    2.47
   3  -5  -4   -0.93    2.16
   3  -4  -5    1.14    2.56
  -5   3  -4   -1.24    2.27
  -3  -4   5   -2.29    2.01
  -4  -3   5    5.42    2.36
   4  -5  -4   -1.08    2.61
   5   0   5   -1.24    2.50
  -5   0   5   -2.01    2.62
   0   5   5   -1.26    2.84
   0  -5   5    1.21    1.88
   0  -5  -5   -2.52    2.65
   5   1   5    1.94    2.37
   5  -5  -1    5.45    2.76
  -1  -5   5    1.22    2.09
   1  -5  -5    1.24    2.64
  -5   5  -2    1.14    2.47
   2   5   5    3.33    3.21
   5  -5  -2    1.12    2.67
   0   0  -6   -0.85    1.78
   0   0   6   -1.24    2.68
   6   0   0   -2.42    2.62
   0  -6   0    3.55    2.05
   0  -6   0   -1.16    2.33
   1   6  -1   -0.71    1.23
  -1  -6  -1   -2.48    2.67
  -1   1   6   -1.27    3.10
  -1  -1  -6   -0.87    1.87
   6   1  -1    1.19    2.26
   1  -6   1   -7.98    2.62
   1  -6   1   -1.27    1.79
  -1  -1  -6    1.82    1.67
  -1   1   6    2.37    0.89
  -1  -6  -1    5.61    2.33
  -6   1   1    4.65    2.59
   6  -1   1   -1.62    1.40
   6   0   1   -0.97    1.61
   1   6   0   -3.79    2.29
   1   0  -6   -2.25    1.81
   0  -1   6   -2.49    2.50
  -1   0  -6    1.95    2.12
  -1   0   6   -1.23    2.77
   0  -1  -6   -1.43    1.51
   1   0   6   -1.26    0.99
   6  -1   0    1.26    2.52
   6   1   0   -1.16    2.33
   6   0  -1   -1.23    2.68
   1  -6   0   -1.21    2.32
   1  -6   0    1.20    2.09
   0  -6   1   -2.17    2.43
   0  -6  -1    1.10    1.93
   0  -6   1    1.25    1.93
  -1  -6   0    2.40    2.10
   6   1   0   -1.16    2.24
  -6   1   0   -1.22    2.45
   0   1   6   -0.42    1.10
   0  -6  -1    2.48    2.38
   1   6   0    0.73    1.23
  -1  -6   0    1.16    2.23
   6   1   1    1.12    1.93
  -1   1  -6    1.09    2.17
  -1  -1   6   -1.22    2.53
   1   1   6   -1.24    2.68
   1  -1  -6   -0.56    1.34
   6  -1  -1   -2.55    2.43
   1  -6  -1    1.12    1.71
  -1  -6   1    2.54    2.19
  -1  -6   1    1.06    2.28
   6   1   1   -1.24    2.38
   1   1   6   -0.56    1.30
   1   1   6   -1.21    1.60
   2  -6   2   -1.16    2.13
  -2   2   6    2.72    3.13
   6   2  -2   -1.19    2.57
  -2   2   6    3.80    1.45
   2   6  -2    2.78    2.00
  -2  -6  -2    1.08    1.98
  -6   2   2   -3.58    2.67
   2   6  -1    1.85    1.59
   1  -2   6   -1.32    2.84
   2  -1   6   -1.31    3.01
   6   2  -1   -2.17    2.16
  -2   1   6    1.29    2.77
  -1   2   6    2.65    2.85
   2  -6   1   -4.90    2.82
  -2  -6  -1    1.28    2.84
  -2  -1  -6    2.06    1.87
   1  -6   2   -1.06    2.52
   6   2  -1    1.12    2.24
   6   1  -2   -3.74    2.68
   2   6  -1   -1.06    1.92
  -1  -2  -6    3.15    1.81
  -1   2   6   -0.59    1.26
   2  -6   1    1.32    2.28
  -1  -6  -2    3.08    1.87
  -2  -6  -1    1.18    2.03
  -6   1   2    1.10    2.18
   6  -1   2   -0.83    1.36
  -6   2   1   -1.25    2.26
   6  -2   1    2.41    1.38
   2   6   0   -2.81    1.88
   0  -2  -6   -0.67    1.55
   6  -2   0    0.64    1.17
   2   0   6   -0.64    1.35
   0  -2   6   -1.27    2.65
   2   0   6   -1.26    2.62
   6   2   0    1.19    1.93
  -2   0   6   -1.23    2.65
  -2  -6   0   -2.35    2.63
   0   2   6    6.46    2.98
  -2   0  -6    2.22    2.12
   6   2   0    3.28    2.44
   6  -2   0   -2.58    2.88
   2  -6   0    2.56    2.75
   6   0  -2   -1.29    2.78
   2   6   0    2.34    2.52
   0  -6   2   -1.98    2.14
   0  -2   6    0.51    1.07
   2  -6   0   -1.25    2.16
   0   2   6    0.67    1.40
   0  -6  -2   -1.00    1.54
  -2  -6   0   -1.26    2.05
  -6   2   0   -1.29    2.46
   0  -6  -2    3.93    2.61
   6   0   2    2.01    1.64
   6   0   2   -1.30    2.13
   6   2   1    2.51    2.28
  -2  -6   1   -1.07    2.13
  -1  -2   6    1.23    2.82
   2   1   6    7.42    2.93
  -2  -1   6    1.19    2.28
  -2   1  -6   -1.20    2.07
   2  -1  -6   -0.82    0.98
   1   2   6    5.05    2.51
   2   1   6    1.55    1.78
   6  -2  -1   -6.53    2.49
   6  -1  -2    2.65    2.64
   2   6   1    2.53    2.91
   6   1   2   -1.32    2.28
   2  -6  -1    2.34    2.02
   1  -6  -2   -1.02    1.66
  -1  -2   6    0.53    0.92
  -1  -6   2    0.95    2.18
   1  -6  -2   -1.33    2.64
   1   2   6   -2.36    1.86
  -2  -6   1   -1.32    2.15
  -6   2  -1    1.33    2.41
   6   2   1   -1.28    2.32
   2   6   1    0.99    1.71
   6   1   2   -1.15    1.76
   2   1   6    0.71    1.41
  -2  -2   6   -2.35    2.88
  -2   2  -6    1.30    2.38
   2   2   6   -1.23    2.46
   6  -2  -2    1.35    2.70
   2   6   2   -4.07    3.03
   2  -6  -2    2.74    2.96
  -2  -2   6   -0.60    1.23
   6   2   2    1.36    2.09
  -6   2  -2   -1.36    2.49
  -2  -6   2    2.81    2.42
   6   2   2    2.58    2.24
   6   3  -2   -0.97    2.09
   6   3  -2   -2.22    2.36
   6   2  -3   -2.56    2.61
  -2  -6  -3   -1.92    1.83
  -3  -6  -2   -1.17    2.19
  -6   2   3    2.26    2.49
  -6   3   1   -1.35    2.80
   6   3  -1    1.12    2.03
   3   6  -1   -2.25    1.94
   3  -1   6    2.67    2.77
   3  -6   1    2.67    3.06
   1  -6   3   -0.97    1.92
  -3   1   6    6.49    3.34
   6   3  -1   -2.08    2.46
  -1  -3  -6    0.97    1.93
   6   1  -3   -1.34    2.97
  -1   3   6    1.64    1.76
   3   6  -1    1.09    2.27
  -3  -6  -1   -2.67    2.76
  -1  -6  -3   -0.90    1.72
  -6   1   3    2.03    2.33
  -3  -6  -1    1.26    2.18
   3   6   0   -1.13    1.62
   0  -3   6   -1.32    2.95
   3   0   6    1.27    2.65
  -3   0   6   -1.22    2.65
   3  -6   0   -6.87    2.97
   0   3   6    1.35    3.01
   6  -3   0   -1.31    2.40
   0  -6   3   -1.74    1.75
  -3   0  -6   -1.25    2.29
   6   0   3   -1.36    2.23
   6   0  -3   -4.13    2.97
  -3  -6   0   -2.45    2.56
   6   3   0   -1.23    2.14
   3   6   0   -1.22    2.44
   0   3   6    1.76    1.98
   3   0   6    1.70    1.72
   0  -3   6    0.76    1.18
   0  -6  -3    0.88    1.45
   0  -6   3   -1.36    2.24
  -3  -6   0    1.34    2.05
   0  -6  -3    1.37    2.75
  -6   3   0    1.38    2.52
   0  -3  -6    1.75    2.10
  -1  -3   6   -1.25    2.49
   3   1   6    1.22    3.06
  -3  -1   6   -1.16    2.50
   1   3   6    5.18    2.78
  -3   1  -6   -2.65    2.64
  -3  -6   1    1.10    2.37
   6  -3  -1   -1.32    2.63
   6   3   1    2.67    2.76
  -1  -6   3    0.80    1.72
   3   6   1    1.32    2.64
   1  -6  -3    1.78    1.70
   3   1   6   -0.95    1.64
   1   3   6    1.94    1.93
  -1  -3   6    0.77    1.40
   3   6   1   -2.35    1.91
  -3  -6   2   -2.86    2.27
  -2  -3   6   -1.17    2.44
  -3  -2   6   -1.12    2.41
   3   2   6    1.19    2.47
   2   3   6    2.47    2.94
   2   3   6    1.08    1.98
  -2  -3   6   -0.82    1.43
   3   2   6    3.22    2.15
   3   3   6   -2.33    3.09
  -6   2   4    3.09    2.73
  -1  -4  -6    2.30    2.66
  -1   4   6   -2.05    2.38
   6   4  -1   -1.16    2.43
   1  -4   6   -0.99    2.00
   4   6  -1    2.30    2.31
  -4   0   6   -4.81    3.00
   4   0   6   -2.09    2.33
   0   4   6    5.38    2.70
   0  -4   6   -0.97    1.70
   0  -4  -6    1.07    2.55
   4   1   6   -3.58    2.75
   4   1   6   -2.25    3.12
  -4  -1   6   -2.23    2.33
  -4  -6   1    8.09    3.12
   1   4   6   -1.15    2.73
  -1  -4   6   -0.98    2.00
   4   2   6    3.39    3.20
   7   0   0   -1.11    1.81
   0   0  -7    1.90    2.04
  -1  -1  -7   -2.85    2.46
   7  -1   1   -1.83    1.93
   7   0   1    6.59    2.36
   7  -1   0   -1.88    1.87
   7   1   0    1.26    1.92
   0   1  -7    3.31    2.28
   1   0  -7    1.65    2.01
  -1   0  -7   -3.23    2.55
   0  -7   1   -1.26    2.29
  -1   1  -7   -1.20    2.47
  -1  -7   1    1.23    2.41
  -2  -1  -7    1.11    2.35
   0  -7   2   -1.15    2.38
   0  -7  -2    2.34    1.90
   7   0   2   -1.11    1.81
  -1  -7   2   -1.10    2.65
  -2  -7   2   -1.07    2.27
   0   0   0    0.00    0.00
;
_shelx_hkl_checksum              45353
loop_
_space_group_symop_operation_xyz
'x, y, z'
'-x, -y, z'
'-x, y, -z'
'x, -y, -z'
'z, x, y'
'z, -x, -y'
'-z, -x, y'
'-z, x, -y'
'y, z, x'
'-y, z, -x'
'y, -z, -x'
'-y, -z, x'
'y, x, -z'
'-y, -x, -z'
'y, -x, z'
'-y, x, z'
'x, z, -y'
'-x, z, y'
'-x, -z, -y'
'x, -z, y'
'z, y, -x'
'z, -y, x'
'-z, y, x'
'-z, -y, -x'
'-x, -y, -z'
'x, y, -z'
'x, -y, z'
'-x, y, z'
'-z, -x, -y'
'-z, x, y'
'z, x, -y'
'z, -x, y'
'-y, -z, -x'
'y, -z, x'
'-y, z, x'
'y, z, -x'
'-y, -x, z'
'y, x, z'
'-y, x, -z'
'y, -x, -z'
'-x, -z, y'
'x, -z, -y'
'x, z, y'
'-x, z, -y'
'-z, -y, x'
'-z, y, -x'
'z, -y, -x'
'z, y, x'
loop_
_atom_site_label
_atom_site_type_symbol
_atom_site_fract_x
_atom_site_fract_y
_atom_site_fract_z
_atom_site_U_iso_or_equiv
_atom_site_adp_type
_atom_site_occupancy
_atom_site_site_symmetry_order
_atom_site_calc_flag
_atom_site_refinement_flags_posn
_atom_site_refinement_flags_adp
_atom_site_refinement_flags_occupancy
Cl1 Cl 0.0000 0.0000 0.0000 2(5) Uani 1 48 d DS T P
O1 O 0.0000 0.272(4) 0.0000 1(4) Uani 0.6666 8 d DS T P
C1 C 0.3902 0.5000 0.3902 0.247 Uani 0.8755 4 d S T P
loop_
_atom_site_aniso_label
_atom_site_aniso_U_11
_atom_site_aniso_U_22
_atom_site_aniso_U_33
_atom_site_aniso_U_23
_atom_site_aniso_U_13
_atom_site_aniso_U_12
Cl1 2(5) 2(5) 2(5) 0.000 0.000 0.000
O1 1.0(3) 2(13) 1.0(3) 0.000 0.000 0.000
C1 0.268 0.205 0.268 0.000 0.013 0.000
loop_
_atom_type_symbol
_atom_type_description
_atom_type_scat_dispersion_real
_atom_type_scat_dispersion_imag
_atom_type_scat_source
C C 0.0033 0.0016 'International Tables Vol C Tables 4.2.6.8 and 6.1.1.4'
O O 0.0106 0.0060 'International Tables Vol C Tables 4.2.6.8 and 6.1.1.4'
Cl Cl 0.1484 0.1585 'International Tables Vol C Tables 4.2.6.8 and 6.1.1.4'
loop_
_geom_angle_atom_site_label_1
_geom_angle_atom_site_label_2
_geom_angle_atom_site_label_3
_geom_angle
_geom_angle_site_symmetry_1
_geom_angle_site_symmetry_3
O1 Cl1 O1 180.0 33 9
O1 Cl1 O1 90.000(1) 33 25
O1 Cl1 O1 90.000(1) 9 25
O1 Cl1 O1 90.000(1) 33 5
O1 Cl1 O1 90.000(1) 9 5
O1 Cl1 O1 90.000(1) 25 5
O1 Cl1 O1 90.000(1) 33 29
O1 Cl1 O1 90.000(1) 9 29
O1 Cl1 O1 90.000(1) 25 29
O1 Cl1 O1 180.0 5 29
O1 Cl1 O1 90.000(1) 33 .
O1 Cl1 O1 90.000(1) 9 .
O1 Cl1 O1 180.0 25 .
O1 Cl1 O1 90.0 5 .
O1 Cl1 O1 90.0 29 .
C1 C1 C1 60.0 34_565 6_566
C1 C1 C1 90.0 34_565 9
C1 C1 C1 120.0 6_566 9
C1 C1 C1 120.0 34_565 5
C1 C1 C1 90.0 6_566 5
C1 C1 C1 60.0 9 5
C1 C1 C1 90.0 34_565 26_556
C1 C1 C1 45.0 6_566 26_556
C1 C1 C1 90.0 9 26_556
C1 C1 C1 45.0 5 26_556
C1 C1 C1 45.0 34_565 2_665
C1 C1 C1 90.0 6_566 2_665
C1 C1 C1 45.0 9 2_665
C1 C1 C1 90.0 5 2_665
C1 C1 C1 90.0 26_556 2_665
C1 C1 C1 54.7 34_565 33_666
C1 C1 C1 30.0 6_566 33_666
C1 C1 C1 90.0 9 33_666
C1 C1 C1 73.2 5 33_666
C1 C1 C1 35.3 26_556 33_666
C1 C1 C1 65.9 2_665 33_666
C1 C1 C1 30.0 34_565 29_666
C1 C1 C1 54.7 6_566 29_666
C1 C1 C1 73.2 9 29_666
C1 C1 C1 90.0 5 29_666
C1 C1 C1 65.9 26_556 29_666
C1 C1 C1 35.3 2_665 29_666
C1 C1 C1 33.6 33_666 29_666
C1 C1 C1 90.0 34_565 10_656
C1 C1 C1 73.2 6_566 10_656
C1 C1 C1 54.7 9 10_656
C1 C1 C1 30.0 5 10_656
C1 C1 C1 35.3 26_556 10_656
C1 C1 C1 65.9 2_665 10_656
C1 C1 C1 48.2 33_666 10_656
C1 C1 C1 60.0 29_666 10_656
C1 C1 C1 73.2 34_565 30_655
C1 C1 C1 90.0 6_566 30_655
C1 C1 C1 30.0 9 30_655
C1 C1 C1 54.7 5 30_655
C1 C1 C1 65.9 26_556 30_655
C1 C1 C1 35.3 2_665 30_655
C1 C1 C1 60.0 33_666 30_655
C1 C1 C1 48.2 29_666 30_655
C1 C1 C1 33.6 10_656 30_655
C1 C1 C1 60.0 34_565 25_666
C1 C1 C1 60.0 6_566 25_666
C1 C1 C1 60.0 9 25_666
C1 C1 C1 60.0 5 25_666
C1 C1 C1 45.0 26_556 25_666
C1 C1 C1 45.0 2_665 25_666
C1 C1 C1 30.0 33_666 25_666
C1 C1 C1 30.0 29_666 25_666
C1 C1 C1 30.0 10_656 25_666
C1 C1 C1 30.0 30_655 25_666
loop_
_geom_bond_atom_site_label_1
_geom_bond_atom_site_label_2
_geom_bond_distance
_geom_bond_site_symmetry_2
Cl1 O1 1.40(2) 33
Cl1 O1 1.40(2) 9
Cl1 O1 1.40(2) 25
Cl1 O1 1.40(2) 5
Cl1 O1 1.40(2) 29
Cl1 O1 1.40(2) .
C1 C1 0.8001 34_565
C1 C1 0.8001 6_566
C1 C1 0.8001 9
C1 C1 0.8001 5
C1 C1 1.1315 26_556
C1 C1 1.1315 2_665
C1 C1 1.3858 33_666
C1 C1 1.3858 29_666
C1 C1 1.3858 10_656
C1 C1 1.3858 30_655
C1 C1 1.6002 25_666
