#------------------------------------------------------------------------------
#$Date: 2019-11-03 15:39:33 +0200 (Sun, 03 Nov 2019) $
#$Revision: 221779 $
#$URL: file:///home/coder/svn-repositories/cod/cif/4/12/87/4128702.cif $
#------------------------------------------------------------------------------
#
# This file is available in the Crystallography Open Database (COD),
# http://www.crystallography.net/
#
# All data on this site have been placed in the public domain by the
# contributors.
#
data_4128702
loop_
_publ_author_name
'Kim, Dongyoung'
'Rahaman, S. M. Wahidur'
'Mercado, Brandon Q.'
'Poli, Rinaldo'
'Holland, Patrick L.'
_publ_section_title
;
 Roles of Iron Complexes in Catalytic Radical Alkene Cross-Coupling: A
 Computational and Mechanistic Study.
;
_journal_issue                   18
_journal_name_full               'Journal of the American Chemical Society'
_journal_page_first              7473
_journal_page_last               7485
_journal_paper_doi               10.1021/jacs.9b02117
_journal_volume                  141
_journal_year                    2019
_chemical_formula_moiety         'C24 H38 Fe2 O10'
_chemical_formula_sum            'C24 H38 Fe2 O10'
_chemical_formula_weight         598.24
_space_group_crystal_system      triclinic
_space_group_IT_number           2
_space_group_name_Hall           '-P 1'
_space_group_name_H-M_alt        'P -1'
_atom_sites_solution_hydrogens   geom
_atom_sites_solution_primary     SHELXT
_atom_sites_solution_secondary   difmap
_audit_creation_method           SHELXL-2014/7
_cell_angle_alpha                68.047(4)
_cell_angle_beta                 81.979(3)
_cell_angle_gamma                65.376(3)
_cell_formula_units_Z            1
_cell_length_a                   8.3679(2)
_cell_length_b                   9.3117(4)
_cell_length_c                   10.5715(4)
_cell_measurement_reflns_used    10862
_cell_measurement_temperature    93(2)
_cell_measurement_theta_max      27.4600
_cell_measurement_theta_min      3.3460
_cell_volume                     694.39(5)
_computing_cell_refinement       'CrysAlisPro 1.171.39.28e (Rigaku OD, 2015)'
_computing_data_collection       'CrysAlisPro 1.171.39.28e (Rigaku OD, 2015)'
_computing_data_reduction        'CrysAlisPro 1.171.39.28e (Rigaku OD, 2015)'
_computing_molecular_graphics
; 
Dolomanov, O.V.; Bourhis, L.J.; Gildea, R.J.; Howard, J.A.K.; Puschmann, H., 
OLEX2: A complete structure solution, refinement and analysis program 
(2009). J. Appl. Cryst., 42, 339-341. 
;
_computing_publication_material  'CIFTAB-2014/2 (Sheldrick, 2014)'
_computing_structure_refinement  'SHELXL-2014/7 (Sheldrick, 2014)'
_computing_structure_solution    'SHELXT-2014/5 (Sheldrick, 2014)'
_diffrn_ambient_temperature      93(2)
_diffrn_detector_area_resol_mean 5.8
_diffrn_measured_fraction_theta_full 0.998
_diffrn_measured_fraction_theta_max 0.999
_diffrn_measurement_device_type  'Dectris Pilatus 3R'
_diffrn_measurement_method       \w
_diffrn_radiation_type           MoK\a
_diffrn_radiation_wavelength     0.71073
_diffrn_reflns_av_R_equivalents  0.0241
_diffrn_reflns_av_unetI/netI     0.0176
_diffrn_reflns_Laue_measured_fraction_full 0.998
_diffrn_reflns_Laue_measured_fraction_max 0.999
_diffrn_reflns_limit_h_max       10
_diffrn_reflns_limit_h_min       -10
_diffrn_reflns_limit_k_max       12
_diffrn_reflns_limit_k_min       -12
_diffrn_reflns_limit_l_max       13
_diffrn_reflns_limit_l_min       -13
_diffrn_reflns_number            16738
_diffrn_reflns_point_group_measured_fraction_full 0.998
_diffrn_reflns_point_group_measured_fraction_max 0.999
_diffrn_reflns_theta_full        25.242
_diffrn_reflns_theta_max         27.473
_diffrn_reflns_theta_min         2.883
_diffrn_source                   'microfocus rotating anode'
_exptl_absorpt_coefficient_mu    1.095
_exptl_absorpt_correction_T_max  1.00000
_exptl_absorpt_correction_T_min  0.91116
_exptl_absorpt_correction_type   multi-scan
_exptl_absorpt_process_details
; 
CrysAlisPro 1.171.39.28e (Rigaku Oxford Diffraction, 2015) 
Empirical absorption correction using spherical harmonics, 
 implemented in SCALE3 ABSPACK scaling algorithm. 
;
_exptl_crystal_colour            Red
_exptl_crystal_density_diffrn    1.431
_exptl_crystal_description       Block
_exptl_crystal_F_000             314
_exptl_crystal_size_max          0.200
_exptl_crystal_size_mid          0.200
_exptl_crystal_size_min          0.200
_refine_diff_density_max         0.352
_refine_diff_density_min         -0.376
_refine_diff_density_rms         0.052
_refine_ls_extinction_method     none
_refine_ls_goodness_of_fit_ref   1.105
_refine_ls_hydrogen_treatment    constr
_refine_ls_matrix_type           full
_refine_ls_number_parameters     168
_refine_ls_number_reflns         3186
_refine_ls_number_restraints     0
_refine_ls_restrained_S_all      1.105
_refine_ls_R_factor_all          0.0244
_refine_ls_R_factor_gt           0.0229
_refine_ls_shift/su_max          0.001
_refine_ls_shift/su_mean         0.000
_refine_ls_structure_factor_coef Fsqd
_refine_ls_weighting_details
'w=1/[\s^2^(Fo^2^)+(0.0268P)^2^+0.3764P] where P=(Fo^2^+2Fc^2^)/3'
_refine_ls_weighting_scheme      calc
_refine_ls_wR_factor_gt          0.0618
_refine_ls_wR_factor_ref         0.0623
_reflns_Friedel_coverage         0.000
_reflns_number_gt                3012
_reflns_number_total             3186
_reflns_threshold_expression     'I > 2\s(I)'
_cod_data_source_file            ja9b02117_si_002.cif
_cod_data_source_block           007c-17053
_cod_database_code               4128702
_shelx_shelxl_version_number     2014/7
_shelx_space_group_comment
; 
The symmetry employed for this shelxl refinement is uniquely defined 
by the following loop, which should always be used as a source of 
symmetry information in preference to the above space-group names. 
They are only intended as comments. 
;
_shelx_estimated_absorpt_t_min   0.811
_shelx_estimated_absorpt_t_max   0.811
_shelx_res_file
; 
  
    007c-17053.res created by SHELXL-2014/7 
  
TITL 007c-17053 
CELL 0.71073 8.3679 9.3117 10.5715 68.047 81.979 65.376 
ZERR 1 0.0002 0.0004 0.0004 0.004 0.003 0.003 
LATT 1 
SFAC C H Fe O 
UNIT 24 38 2 10 
  
L.S. 10 
SIZE 0.2 0.2 0.2 
TEMP -180 
BOND $H 
CONF 
MORE -1 
ACTA 
  
WGHT    0.026800    0.376400 
FVAR       0.79742 
FE1   3    0.531849    0.590350    0.846564    11.00000    0.01050    0.01279 = 
         0.01167   -0.00486   -0.00011   -0.00306 
O11   4    0.278163    0.685989    0.785125    11.00000    0.01307    0.01533 = 
         0.01878   -0.00398   -0.00268   -0.00345 
O21   4    0.525891    0.823002    0.745568    11.00000    0.02038    0.01711 = 
         0.01813   -0.00306   -0.00026   -0.00880 
C11   1   -0.012342    0.867758    0.703728    11.00000    0.01507    0.02470 = 
         0.02764   -0.01187   -0.00477    0.00025 
AFIX 137 
H11A  2   -0.017641    0.801566    0.652125    11.00000   -1.50000 
H11B  2   -0.079263    0.987931    0.654481    11.00000   -1.50000 
H11C  2   -0.062902    0.833781    0.793846    11.00000   -1.50000 
AFIX   0 
C21   1    0.176914    0.836926    0.720273    11.00000    0.01594    0.01951 = 
         0.01260   -0.00860   -0.00174   -0.00190 
C31   1    0.230106    0.971975    0.666002    11.00000    0.02483    0.01421 = 
         0.02123   -0.00366   -0.00665   -0.00142 
AFIX  43 
H31   2    0.145672    1.079271    0.615163    11.00000   -1.20000 
AFIX   0 
C41   1    0.398772    0.959287    0.681685    11.00000    0.02836    0.01588 = 
         0.01165   -0.00590    0.00225   -0.00885 
C51   1    0.440233    1.114335    0.622568    11.00000    0.04043    0.01868 = 
         0.02455   -0.00558    0.00118   -0.01449 
AFIX 137 
H51A  2    0.448934    1.150718    0.696245    11.00000   -1.50000 
H51B  2    0.346458    1.205007    0.558059    11.00000   -1.50000 
H51C  2    0.552230    1.087961    0.575012    11.00000   -1.50000 
AFIX   0 
O12   4    0.594600    0.511644    0.686641    11.00000    0.01365    0.02381 = 
         0.01467   -0.00979    0.00052   -0.00662 
O22   4    0.791894    0.516022    0.873927    11.00000    0.01234    0.02340 = 
         0.01622   -0.01026    0.00051   -0.00597 
C12   1    0.745441    0.401434    0.515304    11.00000    0.02086    0.02703 = 
         0.01896   -0.01360    0.00192   -0.00930 
AFIX 137 
H12A  2    0.716206    0.302257    0.545715    11.00000   -1.50000 
H12B  2    0.862246    0.374566    0.474849    11.00000   -1.50000 
H12C  2    0.658037    0.495082    0.447138    11.00000   -1.50000 
AFIX   0 
C22   1    0.745188    0.451316    0.635728    11.00000    0.01800    0.01255 = 
         0.01188   -0.00391    0.00106   -0.00699 
C32   1    0.903602    0.424626    0.686664    11.00000    0.01365    0.02339 = 
         0.02023   -0.01260    0.00419   -0.00657 
AFIX  43 
H32   2    1.007141    0.386683    0.637470    11.00000   -1.20000 
AFIX   0 
C42   1    0.920538    0.450177    0.806417    11.00000    0.01323    0.01316 = 
         0.01638   -0.00402    0.00033   -0.00629 
C52   1    1.101368    0.392766    0.861826    11.00000    0.01219    0.02306 = 
         0.02380   -0.01047   -0.00156   -0.00537 
AFIX 137 
H52A  2    1.135284    0.489005    0.833188    11.00000   -1.50000 
H52B  2    1.185495    0.306206    0.826759    11.00000   -1.50000 
H52C  2    1.101265    0.345641    0.961670    11.00000   -1.50000 
AFIX   0 
O13   4    0.521247    0.375566    0.974884    11.00000    0.01508    0.01070 = 
         0.01420   -0.00648    0.00097   -0.00276 
C13   1    0.539488    0.233466    0.943781    11.00000    0.02112    0.01708 = 
         0.01834   -0.00971    0.00086   -0.00937 
AFIX  23 
H13A  2    0.495497    0.272141    0.849606    11.00000   -1.20000 
H13B  2    0.466777    0.177028    1.006593    11.00000   -1.20000 
AFIX   0 
C23   1    0.728991    0.108071    0.956378    11.00000    0.02996    0.01419 = 
         0.02420   -0.00916    0.00456   -0.00253 
AFIX 137 
H23A  2    0.801144    0.163163    0.893537    11.00000   -1.50000 
H23B  2    0.736386    0.012696    0.933607    11.00000   -1.50000 
H23C  2    0.772020    0.067243    1.050138    11.00000   -1.50000 
AFIX   0 
HKLF 4 
  
REM  007c-17053 
REM R1 =  0.0229 for    3012 Fo > 4sig(Fo)  and  0.0244 for all    3186 data 
REM    168 parameters refined using      0 restraints 
  
END 
  
WGHT      0.0268      0.3764 
  
REM Highest difference peak  0.352,  deepest hole -0.376,  1-sigma level  0.052 
Q1    1   1.0093  0.4227  0.8368  11.00000  0.05    0.35 
Q2    1   1.1069  0.4450  0.9154  11.00000  0.05    0.35 
Q3    1   0.7521  0.4205  0.5776  11.00000  0.05    0.33 
Q4    1   0.8198  0.4546  0.6567  11.00000  0.05    0.32 
Q5    1   0.6333  0.1640  0.9550  11.00000  0.05    0.29 
Q6    1   0.2207  0.8944  0.6842  11.00000  0.05    0.29 
Q7    1   0.3105  0.9543  0.6745  11.00000  0.05    0.28 
Q8    1   1.1756  0.4319  0.7790  11.00000  0.05    0.28 
Q9    1   0.4158  1.0378  0.6473  11.00000  0.05    0.28 
Q10   1   1.1609  0.2651  0.9079  11.00000  0.05    0.27 
Q11   1   0.9073  0.4408  0.7434  11.00000  0.05    0.27 
Q12   1   0.0815  0.8541  0.7074  11.00000  0.05    0.26 
Q13   1  -0.0913  0.9593  0.7240  11.00000  0.05    0.25 
Q14   1  -0.0502  0.9105  0.6127  11.00000  0.05    0.25 
Q15   1   0.5135  0.4542  0.9130  11.00000  0.05    0.22 
Q16   1   0.5298  0.3171  0.9661  11.00000  0.05    0.21 
Q17   1  -0.0303  0.7760  0.7413  11.00000  0.05    0.21 
Q18   1   0.2289  0.7633  0.7703  11.00000  0.05    0.20 
Q19   1   0.8582  0.4612  0.8457  11.00000  0.05    0.20 
Q20   1   0.7002  0.5506  0.8408  11.00000  0.05    0.19 
;
_shelx_res_checksum              20399
_shelx_hkl_file
; 
 -10  -8  -6  185.53    9.58 
 -10  -8  -6  166.57    9.22 
 -10  -8  -6  166.04    9.17 
 -10  -8  -5   -0.39    2.31 
 -10  -8  -5    2.61    2.28 
 -10  -8  -5    0.43    2.16 
 -10  -8  -4  115.79    6.92 
 -10  -8  -4  113.37    7.32 
 -10  -8  -4  105.03    7.28 
 -10  -8  -3   10.94    2.47 
 -10  -8  -3   12.16    2.83 
 -10  -8  -2   -1.12    1.96 
 -10  -8  -2   -0.30    1.77 
 -10  -8  -1  123.23    6.23 
 -10  -8  -1  121.64    7.11 
 -10  -7  -6   79.91    6.02 
 -10  -7  -6   86.50    6.23 
 -10  -7  -5   16.24    3.22 
 -10  -7  -5   16.01    3.12 
 -10  -7  -4   34.15    4.06 
 -10  -7  -4   34.13    4.09 
 -10  -7  -4   38.60    4.10 
 -10  -7  -3  265.18   11.68 
 -10  -7  -3  277.59   11.09 
 -10  -7  -2   78.64    5.68 
 -10  -7  -2   73.59    5.08 
 -10  -7  -2   74.16    5.92 
 -10  -7  -1   20.76    3.23 
 -10  -7  -1   22.53    2.78 
 -10  -7   0  100.16    6.82 
 -10  -7   0  102.27    5.34 
 -10  -7   0   98.01    6.31 
 -10  -7   1   13.79    1.98 
 -10  -7   1   13.36    2.85 
 -10  -7   1   17.29    2.91 
 -10  -6  -7   38.90    4.55 
 -10  -6  -7   42.46    4.54 
 -10  -6  -7   43.11    4.79 
 -10  -6  -6   88.66    6.41 
 -10  -6  -6   93.31    6.56 
 -10  -6  -5   12.93    3.05 
 -10  -6  -5   14.86    2.74 
 -10  -6  -4    1.24    1.69 
 -10  -6  -4   -0.36    1.97 
 -10  -6  -4    2.48    2.20 
 -10  -6  -3   68.03    5.03 
 -10  -6  -3   73.17    5.74 
 -10  -6  -3   69.18    5.65 
 -10  -6  -2  305.61   12.45 
 -10  -6  -2  288.40   11.32 
 -10  -6  -2  302.38   12.70 
 -10  -6  -1   27.25    3.12 
 -10  -6  -1   34.59    3.84 
 -10  -6   0  248.82    9.39 
 -10  -6   0  258.94   11.47 
 -10  -6   0  231.48   10.62 
 -10  -6   1   83.92    6.12 
 -10  -6   1   80.75    4.51 
 -10  -6   2    4.50    2.15 
 -10  -5  -6   40.06    4.48 
 -10  -5  -6   41.21    4.38 
 -10  -5  -5   46.68    4.71 
 -10  -5  -5   54.84    4.85 
 -10  -5  -4   64.44    5.22 
 -10  -5  -4   54.27    4.75 
 -10  -5  -3    7.32    2.52 
 -10  -5  -3    7.24    2.32 
 -10  -5  -3   10.28    2.58 
 -10  -5  -2  137.45    7.28 
 -10  -5  -2  144.61    8.17 
 -10  -5  -2  153.84    8.36 
 -10  -5  -1  162.87    8.86 
 -10  -5  -1  159.76    8.54 
 -10  -5  -1  171.74    7.94 
 -10  -5   0    4.19    2.12 
 -10  -5   0    7.73    2.04 
 -10  -5   1  164.47    7.19 
 -10  -5   1  177.27    9.14 
 -10  -5   2   96.27    4.83 
 -10  -5   3   49.91    4.66 
 -10  -4  -6   27.23    4.03 
 -10  -4  -6   25.47    4.06 
 -10  -4  -6   34.40    4.02 
 -10  -4  -5   23.54    3.43 
 -10  -4  -5   21.50    3.24 
 -10  -4  -5   17.58    3.22 
 -10  -4  -4   52.35    4.84 
 -10  -4  -4   51.78    4.81 
 -10  -4  -3    6.16    2.30 
 -10  -4  -2  111.48    6.47 
 -10  -4  -2  104.66    6.97 
 -10  -4  -2  105.99    7.04 
 -10  -4  -1  248.47   11.24 
 -10  -4  -1  240.74   10.09 
 -10  -4  -1  244.18   11.19 
 -10  -4   0    6.37    2.14 
 -10  -4   1   15.34    2.92 
 -10  -4   1   10.04    2.15 
 -10  -4   2  172.60    9.05 
 -10  -4   2  157.14    6.99 
 -10  -4   3   47.76    3.28 
 -10  -4   3   55.83    5.05 
 -10  -3  -5    5.20    2.48 
 -10  -3  -5   10.66    2.62 
 -10  -3  -5    5.43    2.75 
 -10  -3  -4   43.19    4.55 
 -10  -3  -4   51.42    5.09 
 -10  -3  -4   51.07    4.77 
 -10  -3  -3   42.63    4.45 
 -10  -3  -3   39.96    4.50 
 -10  -3  -3   41.13    4.49 
 -10  -3  -2   32.19    4.10 
 -10  -3  -2   32.08    3.85 
 -10  -3  -1   94.96    6.58 
 -10  -3  -1   89.94    5.84 
 -10  -3   0   11.61    2.68 
 -10  -3   0   16.20    2.77 
 -10  -3   1    2.07    1.66 
 -10  -3   2   75.49    4.81 
 -10  -3   2   76.67    5.99 
 -10  -3   3  147.11    8.38 
 -10  -3   3  141.60    6.60 
 -10  -2  -4   13.46    2.85 
 -10  -2  -4   17.48    3.56 
 -10  -2  -4   16.96    3.20 
 -10  -2  -3   58.94    5.33 
 -10  -2  -3   67.87    5.88 
 -10  -2  -3   66.20    5.61 
 -10  -2  -2   -0.45    2.00 
 -10  -2  -2   -1.56    2.13 
 -10  -2  -1    4.48    2.32 
 -10  -2  -1    7.75    2.59 
 -10  -2   0    6.65    2.31 
 -10  -2   0    5.38    2.13 
 -10  -2   1    2.64    1.90 
 -10  -2   2    6.28    2.53 
 -10  -2   2    7.40    2.17 
 -10  -2   3  136.04    8.11 
 -10  -2   3  119.42    6.38 
 -10  -1  -2   22.28    3.68 
 -10  -1  -2   21.99    3.62 
 -10  -1  -1   41.18    4.45 
 -10  -1   0    1.91    2.39 
 -10  -1   0    3.08    2.20 
 -10  -1   1   26.48    3.57 
 -10  -1   2   10.87    2.63 
  -9 -10  -6    1.80    2.05 
  -9 -10  -6   -1.35    1.97 
  -9 -10  -6    1.74    2.32 
  -9 -10  -5   67.22    5.65 
  -9 -10  -5   55.71    5.16 
  -9 -10  -5   67.06    5.64 
  -9 -10  -4  111.47    7.01 
  -9 -10  -4  101.68    6.77 
  -9 -10  -4  110.11    7.38 
  -9 -10  -3    0.35    2.15 
  -9 -10  -3    4.57    2.13 
  -9 -10  -2  117.14    6.69 
  -9 -10  -2  115.50    6.46 
  -9  -9  -8   55.82    5.17 
  -9  -9  -8   59.87    5.78 
  -9  -9  -7  172.95    9.17 
  -9  -9  -7  166.17    9.24 
  -9  -9  -6   16.67    3.35 
  -9  -9  -6    9.69    2.60 
  -9  -9  -6   13.97    3.20 
  -9  -9  -5   18.34    3.28 
  -9  -9  -5   14.33    3.15 
  -9  -9  -5   21.54    3.32 
  -9  -9  -4  118.07    7.21 
  -9  -9  -4  124.78    7.26 
  -9  -9  -4  133.51    7.85 
  -9  -9  -3   -0.42    1.92 
  -9  -9  -3    2.47    1.88 
  -9  -9  -3    2.00    1.95 
  -9  -9  -2    5.98    2.21 
  -9  -9  -2    6.25    2.02 
  -9  -9  -1   51.44    3.94 
  -9  -9  -1   55.31    4.53 
  -9  -9  -1   56.48    5.09 
  -9  -9   0  177.43    7.27 
  -9  -9   0  176.83    7.97 
  -9  -9   0  182.07    9.39 
  -9  -8  -8    1.57    2.05 
  -9  -8  -8    1.39    2.08 
  -9  -8  -7  386.74   15.44 
  -9  -8  -7  406.84   15.11 
  -9  -8  -6  227.49   10.49 
  -9  -8  -6  220.54   10.55 
  -9  -8  -6  227.20   10.62 
  -9  -8  -5   -0.39    1.99 
  -9  -8  -5   -0.38    1.99 
  -9  -8  -5    0.80    2.13 
  -9  -8  -4   73.60    5.40 
  -9  -8  -4   73.25    5.71 
  -9  -8  -4   72.24    5.46 
  -9  -8  -3    0.32    1.67 
  -9  -8  -3   -0.70    1.95 
  -9  -8  -2    5.45    1.85 
  -9  -8  -2    3.69    1.94 
  -9  -8  -1   20.21    2.93 
  -9  -8  -1   18.35    2.39 
  -9  -8   0   95.30    4.91 
  -9  -8   0   90.08    5.52 
  -9  -8   0   95.71    6.48 
  -9  -8   1   81.39    5.89 
  -9  -8   1   77.70    4.89 
  -9  -8   1   74.43    3.90 
  -9  -8   2   21.11    3.36 
  -9  -7  -9   96.66    6.27 
  -9  -7  -9  101.61    7.29 
  -9  -7  -8   56.37    5.37 
  -9  -7  -8   41.20    4.70 
  -9  -7  -8   47.36    4.41 
  -9  -7  -7  175.92    9.36 
  -9  -7  -7  194.66    9.31 
  -9  -7  -6  425.03   15.87 
  -9  -7  -6  443.38   15.83 
  -9  -7  -5  135.52    7.63 
  -9  -7  -5  122.46    7.18 
  -9  -7  -5  142.02    7.78 
  -9  -7  -4   97.99    6.38 
  -9  -7  -4   91.33    5.96 
  -9  -7  -4   89.85    6.15 
  -9  -7  -3  110.79    6.32 
  -9  -7  -3  103.01    6.41 
  -9  -7  -3  113.25    6.88 
  -9  -7  -2   92.89    5.56 
  -9  -7  -2  114.28    6.84 
  -9  -7  -2  106.98    6.36 
  -9  -7  -1   21.08    2.58 
  -9  -7  -1   15.40    2.70 
  -9  -7   0   24.25    3.26 
  -9  -7   0   25.43    2.52 
  -9  -7   0   26.00    3.15 
  -9  -7   1   30.20    3.69 
  -9  -7   1   33.78    2.57 
  -9  -7   1   33.23    3.39 
  -9  -7   2   -0.38    1.78 
  -9  -7   3    6.71    2.26 
  -9  -6  -9  122.29    8.03 
  -9  -6  -9  140.06    7.40 
  -9  -6  -9  124.31    7.98 
  -9  -6  -8   81.35    6.36 
  -9  -6  -8   93.04    6.04 
  -9  -6  -7    5.85    2.62 
  -9  -6  -7    2.91    1.82 
  -9  -6  -7    6.31    2.49 
  -9  -6  -6  134.84    7.75 
  -9  -6  -6  133.63    7.79 
  -9  -6  -6  144.03    7.70 
  -9  -6  -5  175.09    8.83 
  -9  -6  -5  209.62    9.40 
  -9  -6  -4    4.05    1.84 
  -9  -6  -4    3.71    2.00 
  -9  -6  -4    2.56    1.74 
  -9  -6  -4    1.68    1.76 
  -9  -6  -3  176.20    8.80 
  -9  -6  -3  180.71    8.82 
  -9  -6  -3  180.32    8.76 
  -9  -6  -3  179.87    8.27 
  -9  -6  -2  596.22   19.52 
  -9  -6  -2  594.45   18.20 
  -9  -6  -2  569.25   18.88 
  -9  -6  -2  610.60   19.56 
  -9  -6  -1   88.32    5.07 
  -9  -6  -1   91.84    5.82 
  -9  -6   0   57.99    4.92 
  -9  -6   0   61.52    4.65 
  -9  -6   0   60.78    3.90 
  -9  -6   1   71.33    5.28 
  -9  -6   1   71.51    3.92 
  -9  -6   1   62.04    4.64 
  -9  -6   2   31.40    2.35 
  -9  -6   2   38.62    3.90 
  -9  -6   3   56.25    4.77 
  -9  -6   4   77.69    5.57 
  -9  -5  -9  184.31    9.96 
  -9  -5  -9  198.97    9.11 
  -9  -5  -9  167.60    9.43 
  -9  -5  -8  129.87    7.24 
  -9  -5  -8  115.52    7.58 
  -9  -5  -7   13.08    3.06 
  -9  -5  -7   21.14    3.08 
  -9  -5  -6   24.12    3.22 
  -9  -5  -6   19.85    3.20 
  -9  -5  -6   20.36    3.37 
  -9  -5  -5   82.50    6.02 
  -9  -5  -5   90.40    6.01 
  -9  -5  -5   87.48    5.87 
  -9  -5  -5   85.18    5.84 
  -9  -5  -4  145.72    7.84 
  -9  -5  -4  144.35    7.55 
  -9  -5  -4  146.40    7.79 
  -9  -5  -3   -0.36    1.67 
  -9  -5  -3    0.73    1.59 
  -9  -5  -3   -0.31    1.56 
  -9  -5  -2  421.18   14.28 
  -9  -5  -2  443.88   15.51 
  -9  -5  -2  437.07   15.42 
  -9  -5  -2  409.71   15.07 
  -9  -5  -1  321.04   12.23 
  -9  -5  -1  312.04   11.13 
  -9  -5  -1  309.63   12.32 
  -9  -5   0   16.93    2.34 
  -9  -5   0   22.25    3.19 
  -9  -5   0   21.96    3.05 
  -9  -5   1  220.06   10.03 
  -9  -5   1  226.00   10.19 
  -9  -5   1  238.89    8.44 
  -9  -5   1  224.94    9.76 
  -9  -5   2  131.08    7.39 
  -9  -5   2  134.95    7.45 
  -9  -5   2  127.75    5.38 
  -9  -5   3   30.05    2.05 
  -9  -5   3   25.75    3.36 
  -9  -5   4  101.60    6.30 
  -9  -5   5  153.58    8.01 
  -9  -4  -8   54.42    5.23 
  -9  -4  -8   56.03    5.41 
  -9  -4  -8   64.65    5.02 
  -9  -4  -7  120.23    7.53 
  -9  -4  -7  119.28    6.89 
  -9  -4  -6    9.55    2.68 
  -9  -4  -6    5.40    2.06 
  -9  -4  -6   11.43    2.79 
  -9  -4  -5   60.23    4.84 
  -9  -4  -5   43.16    4.52 
  -9  -4  -5   51.45    4.70 
  -9  -4  -5   59.51    4.72 
  -9  -4  -4   71.70    5.39 
  -9  -4  -4   81.30    5.62 
  -9  -4  -4   77.20    5.60 
  -9  -4  -4   77.72    5.47 
  -9  -4  -3   50.79    4.31 
  -9  -4  -3   58.67    4.73 
  -9  -4  -3   51.39    4.48 
  -9  -4  -2   73.18    5.29 
  -9  -4  -2   64.32    5.08 
  -9  -4  -2   66.00    4.75 
  -9  -4  -2   65.58    5.17 
  -9  -4  -1  651.69   20.26 
  -9  -4  -1  630.45   20.08 
  -9  -4  -1  594.24   18.61 
  -9  -4  -1  614.72   19.83 
  -9  -4   0   92.19    5.14 
  -9  -4   0   88.75    5.81 
  -9  -4   1   23.80    2.65 
  -9  -4   1   28.57    3.55 
  -9  -4   1   30.31    3.59 
  -9  -4   2  226.56   10.31 
  -9  -4   2  236.35    8.41 
  -9  -4   2  236.25   10.39 
  -9  -4   3   83.28    5.71 
  -9  -4   3   84.45    4.10 
  -9  -4   3   89.06    5.85 
  -9  -4   4  100.60    6.18 
  -9  -4   4   80.08    3.41 
  -9  -4   5  123.99    7.00 
  -9  -3  -8    6.25    2.15 
  -9  -3  -8    5.54    2.53 
  -9  -3  -8    4.84    2.78 
  -9  -3  -7  253.54   10.78 
  -9  -3  -7  245.22   11.39 
  -9  -3  -6   62.71    5.36 
  -9  -3  -5    0.80    2.03 
  -9  -3  -5    0.74    1.69 
  -9  -3  -5   -0.39    1.91 
  -9  -3  -4  134.68    7.45 
  -9  -3  -4  128.09    7.60 
  -9  -3  -4  145.27    7.76 
  -9  -3  -3   99.10    6.33 
  -9  -3  -3   96.60    6.11 
  -9  -3  -3   92.14    6.27 
  -9  -3  -2    2.95    1.84 
  -9  -3  -2   -0.37    1.65 
  -9  -3  -2    1.58    1.76 
  -9  -3  -1  193.45    9.32 
  -9  -3  -1  212.56    9.55 
  -9  -3  -1  187.17    8.40 
  -9  -3  -1  203.83    9.49 
  -9  -3   0  158.80    8.11 
  -9  -3   0  143.86    6.94 
  -9  -3   0  139.87    7.61 
  -9  -3   2  312.63   10.65 
  -9  -3   2  294.88   12.14 
  -9  -3   3  287.36    9.81 
  -9  -3   3  292.66   11.90 
  -9  -3   4   24.18    2.26 
  -9  -3   5   32.59    3.69 
  -9  -2  -7   30.23    4.18 
  -9  -2  -7   38.59    4.44 
  -9  -2  -7   42.47    4.30 
  -9  -2  -6   72.82    5.86 
  -9  -2  -6   70.40    5.41 
  -9  -2  -5   66.88    5.63 
  -9  -2  -5   86.07    6.03 
  -9  -2  -4   74.24    5.80 
  -9  -2  -4   85.09    6.16 
  -9  -2  -3  325.86   12.83 
  -9  -2  -3  345.94   13.33 
  -9  -2  -3  320.00   13.15 
  -9  -2  -2   94.18    6.43 
  -9  -2  -2   94.77    6.32 
  -9  -2  -1  108.27    6.32 
  -9  -2  -1  115.53    6.92 
  -9  -2   0   75.33    5.57 
  -9  -2   0   71.96    4.94 
  -9  -2   2   25.63    2.91 
  -9  -2   2   33.75    3.84 
  -9  -2   3  211.17    8.36 
  -9  -2   3  203.03    9.75 
  -9  -2   4  236.84    8.81 
  -9  -2   4  256.30   11.04 
  -9  -2   5    0.77    1.65 
  -9  -2   5    0.91    1.15 
  -9  -2   6   65.39    5.35 
  -9  -1  -6    3.96    2.38 
  -9  -1  -6    3.29    1.92 
  -9  -1  -6    2.77    2.70 
  -9  -1  -5   13.97    2.85 
  -9  -1  -5   17.66    3.02 
  -9  -1  -4    5.92    2.19 
  -9  -1  -4    3.69    2.09 
  -9  -1  -3  254.70   11.26 
  -9  -1  -3  251.01   11.27 
  -9  -1  -2  345.70   13.61 
  -9  -1  -2  312.77   12.74 
  -9  -1  -1    2.48    1.89 
  -9  -1  -1   -1.06    1.86 
  -9  -1   0   79.28    5.96 
  -9  -1   0   77.27    5.36 
  -9  -1   1  123.17    6.75 
  -9  -1   2   -0.60    1.51 
  -9  -1   3   34.01    3.93 
  -9  -1   3   32.32    3.32 
  -9  -1   4  229.92   10.78 
  -9  -1   5  107.89    5.55 
  -9  -1   5  101.39    6.88 
  -9   0  -5    3.52    2.31 
  -9   0  -4   18.12    3.30 
  -9   0  -3   52.37    5.07 
  -9   0  -3   51.51    4.99 
  -9   0  -2   87.91    6.39 
  -9   0  -2   92.12    6.69 
  -9   0  -1   87.33    6.47 
  -9   0  -1   80.10    5.94 
  -9   0   0    5.98    2.56 
  -9   0   0    6.71    2.52 
  -9   0   1  180.60    9.54 
  -9   0   1  170.99    8.57 
  -9   0   2  103.14    6.36 
  -9   0   3   -0.45    1.96 
  -9   0   3    1.99    2.04 
  -9   0   4  167.68    9.08 
  -9   0   4  157.38    7.82 
  -9   0   5   54.94    5.15 
  -9   0   5   63.20    4.57 
  -9   1  -3   44.84    4.94 
  -9   1  -3   41.80    4.99 
  -9   1  -2   -0.90    2.43 
  -9   1  -2    1.90    2.38 
  -9   1  -1   12.46    2.95 
  -9   1  -1   10.34    2.85 
  -9   1   0    6.23    2.77 
  -9   1   0   14.94    3.24 
  -9   1   1   11.60    3.10 
  -9   1   2  301.76   12.63 
  -9   1   3   90.99    6.20 
  -9   1   3   77.50    6.45 
  -9   1   4   67.32    5.40 
  -9   1   4   74.48    6.29 
  -8 -11  -6   -0.46    2.04 
  -8 -11  -6    0.44    2.18 
  -8 -11  -5  178.37    9.60 
  -8 -11  -5  160.37    8.79 
  -8 -11  -4   -1.37    2.39 
  -8 -11  -4    3.35    2.41 
  -8 -11  -3   19.33    3.06 
  -8 -10  -8    8.84    2.37 
  -8 -10  -8    4.63    2.21 
  -8 -10  -8    2.84    2.37 
  -8 -10  -8    4.00    2.50 
  -8 -10  -7    2.11    1.81 
  -8 -10  -7    6.62    2.66 
  -8 -10  -7    0.89    2.31 
  -8 -10  -6   16.78    3.21 
  -8 -10  -6   24.56    3.50 
  -8 -10  -6   15.13    3.18 
  -8 -10  -5    5.07    2.26 
  -8 -10  -5    9.18    2.75 
  -8 -10  -5    7.82    2.65 
  -8 -10  -4   79.81    5.92 
  -8 -10  -4   79.80    6.13 
  -8 -10  -4   64.19    5.17 
  -8 -10  -3   78.79    5.64 
  -8 -10  -3   79.96    5.50 
  -8 -10  -2   93.79    5.87 
  -8 -10  -2   89.27    5.56 
  -8 -10  -1   36.40    4.17 
  -8 -10  -1   43.69    3.69 
  -8 -10  -1   33.81    3.47 
  -8 -10   0   14.97    2.95 
  -8 -10   0   15.11    2.20 
  -8 -10   0    9.06    2.04 
  -8  -9  -9    6.53    2.17 
  -8  -9  -9    3.54    1.86 
  -8  -9  -8   36.66    3.87 
  -8  -9  -8   36.18    3.96 
  -8  -9  -8   36.59    4.44 
  -8  -9  -7   39.84    4.61 
  -8  -9  -7   34.52    3.87 
  -8  -9  -7   40.37    4.47 
  -8  -9  -6   32.29    4.17 
  -8  -9  -6   46.03    4.54 
  -8  -9  -6   44.95    4.71 
  -8  -9  -5   19.66    3.05 
  -8  -9  -5   15.86    2.87 
  -8  -9  -5   13.74    2.80 
  -8  -9  -4    4.36    2.25 
  -8  -9  -4    1.57    1.80 
  -8  -9  -4    5.28    2.27 
  -8  -9  -3  113.02    7.16 
  -8  -9  -3  121.21    6.73 
  -8  -9  -3  111.70    6.48 
  -8  -9  -2    1.51    1.65 
  -8  -9  -2    2.11    1.74 
  -8  -9  -1  135.99    7.91 
  -8  -9  -1  153.41    7.01 
  -8  -9  -1  151.02    7.09 
  -8  -9   0  259.83    9.45 
  -8  -9   0  249.06    9.58 
  -8  -9   0  280.43   11.65 
  -8  -9   1    8.49    2.53 
  -8  -9   1   11.20    1.82 
  -8  -9   2   12.24    2.65 
  -8  -8 -10  133.37    8.55 
  -8  -8 -10  136.93    8.68 
  -8  -8 -10  144.53    7.55 
  -8  -8  -9   48.00    5.02 
  -8  -8  -9   43.79    4.15 
  -8  -8  -8    3.94    2.59 
  -8  -8  -8    1.44    1.58 
  -8  -8  -7  143.37    7.66 
  -8  -8  -7  136.49    8.23 
  -8  -8  -7  155.10    8.00 
  -8  -8  -6  212.51    9.95 
  -8  -8  -6  225.86   10.02 
  -8  -8  -6  204.17    9.88 
  -8  -8  -6  206.62    9.71 
  -8  -8  -5   21.48    3.26 
  -8  -8  -5   33.59    3.80 
  -8  -8  -5   28.25    3.46 
  -8  -8  -5   19.20    3.03 
  -8  -8  -4   12.12    2.63 
  -8  -8  -4   13.77    2.68 
  -8  -8  -4   11.96    2.53 
  -8  -8  -4   11.97    2.55 
  -8  -8  -3   50.38    4.20 
  -8  -8  -3   55.03    4.58 
  -8  -8  -3   41.62    4.11 
  -8  -8  -3   47.37    4.08 
  -8  -8  -2   14.93    2.55 
  -8  -8  -2   14.33    2.42 
  -8  -8  -1    2.97    1.50 
  -8  -8  -1    0.36    1.71 
  -8  -8  -1    2.22    1.57 
  -8  -8   0  209.63    7.82 
  -8  -8   0  194.13    8.16 
  -8  -8   0  196.31    9.33 
  -8  -8   0  202.43    9.43 
  -8  -8   1  299.70   10.52 
  -8  -8   1  321.11   12.42 
  -8  -8   1  306.78    9.75 
  -8  -8   2   57.58    4.79 
  -8  -8   2   53.43    3.46 
  -8  -8   2   52.94    2.72 
  -8  -8   3  289.01   11.74 
  -8  -7 -10    6.51    2.79 
  -8  -7 -10    6.53    2.15 
  -8  -7 -10    3.35    2.35 
  -8  -7  -9   43.29    4.04 
  -8  -7  -9   42.26    3.92 
  -8  -7  -9   41.28    4.62 
  -8  -7  -9   38.68    4.49 
  -8  -7  -8   83.69    5.66 
  -8  -7  -8   93.41    5.98 
  -8  -7  -8   86.43    6.42 
  -8  -7  -7   79.73    6.06 
  -8  -7  -7   74.61    5.32 
  -8  -7  -7   66.52    5.16 
  -8  -7  -7   79.10    5.82 
  -8  -7  -6  353.77   13.64 
  -8  -7  -6  349.69   13.13 
  -8  -7  -6  345.14   13.04 
  -8  -7  -5  236.67   10.33 
  -8  -7  -5  250.51   10.50 
  -8  -7  -5  245.18   10.50 
  -8  -7  -5  246.58   10.52 
  -8  -7  -4   54.21    4.49 
  -8  -7  -4   55.10    4.51 
  -8  -7  -4   53.62    4.32 
  -8  -7  -4   46.05    3.57 
  -8  -7  -4   47.35    4.18 
  -8  -7  -3  116.56    6.49 
  -8  -7  -3  114.48    6.70 
  -8  -7  -3  125.62    6.99 
  -8  -7  -3  116.05    6.30 
  -8  -7  -2   10.66    2.11 
  -8  -7  -2   11.97    2.51 
  -8  -7  -2   14.58    2.46 
  -8  -7  -2   14.85    2.73 
  -8  -7  -1   22.27    2.85 
  -8  -7  -1   26.24    2.69 
  -8  -7   0   14.09    2.64 
  -8  -7   0    8.64    1.90 
  -8  -7   0   12.41    1.76 
  -8  -7   1  201.35    7.12 
  -8  -7   1  196.38    9.14 
  -8  -7   1  214.03    9.44 
  -8  -7   1  197.75    8.13 
  -8  -7   2   -0.34    1.39 
  -8  -7   2    2.37    1.29 
  -8  -7   2    0.34    1.70 
  -8  -7   2   -0.11    0.84 
  -8  -7   3  133.08    7.21 
  -8  -7   3  133.69    7.28 
  -8  -7   4  146.46    7.78 
  -8  -7   4  156.22    7.82 
  -8  -6 -10    2.24    2.20 
  -8  -6 -10   -0.93    1.50 
  -8  -6 -10   -0.46    2.36 
  -8  -6  -9   12.81    3.09 
  -8  -6  -9   16.46    2.59 
  -8  -6  -9   16.26    2.61 
  -8  -6  -9   14.57    3.13 
  -8  -6  -8  203.36    9.22 
  -8  -6  -8  216.28    9.33 
  -8  -6  -8  225.17   10.46 
  -8  -6  -7   43.89    4.48 
  -8  -6  -7   45.05    4.07 
  -8  -6  -7   48.96    4.21 
  -8  -6  -6  106.45    6.39 
  -8  -6  -6  107.69    6.60 
  -8  -6  -6  100.39    6.41 
  -8  -6  -6  107.91    6.25 
  -8  -6  -5  290.18   11.29 
  -8  -6  -5  287.40   11.30 
  -8  -6  -5  276.82    9.84 
  -8  -6  -5  266.11   11.09 
  -8  -6  -4   18.05    2.36 
  -8  -6  -4   18.18    2.73 
  -8  -6  -4   14.84    2.62 
  -8  -6  -4   14.80    2.56 
  -8  -6  -4   17.72    2.74 
  -8  -6  -3  104.70    6.20 
  -8  -6  -3  107.11    6.25 
  -8  -6  -3  110.88    5.97 
  -8  -6  -3   97.30    5.35 
  -8  -6  -3  111.88    6.24 
  -8  -6  -2  228.16    9.09 
  -8  -6  -2  245.40   10.12 
  -8  -6  -2  228.51    9.59 
  -8  -6  -2  241.08   10.07 
  -8  -6  -1  119.08    6.14 
  -8  -6  -1  101.33    5.33 
  -8  -6   0    1.32    1.65 
  -8  -6   0    2.95    1.26 
  -8  -6   0    0.27    1.41 
  -8  -6   1   42.18    3.92 
  -8  -6   1   44.91    3.59 
  -8  -6   1   45.98    3.98 
  -8  -6   2   10.38    1.97 
  -8  -6   2    8.50    2.30 
  -8  -6   2    6.17    1.89 
  -8  -6   2   10.59    1.40 
  -8  -6   3    2.26    1.72 
  -8  -6   3    3.25    1.80 
  -8  -6   4   11.15    2.31 
  -8  -6   4   14.44    2.73 
  -8  -6   5  193.76    8.76 
  -8  -6   5  191.19    8.76 
  -8  -5 -10   57.76    5.29 
  -8  -5 -10   51.21    4.14 
  -8  -5 -10   45.17    4.93 
  -8  -5  -9   41.71    4.67 
  -8  -5  -9   49.57    4.04 
  -8  -5  -9   38.40    4.34 
  -8  -5  -8  584.68   19.86 
  -8  -5  -8  603.10   18.84 
  -8  -5  -8  587.56   20.09 
  -8  -5  -8  610.08   18.98 
  -8  -5  -7  175.44    8.99 
  -8  -5  -7  192.98    8.57 
  -8  -5  -7  192.31    8.60 
  -8  -5  -6    3.15    1.65 
  -8  -5  -6    2.53    1.87 
  -8  -5  -6    1.26    1.58 
  -8  -5  -6    2.49    1.46 
  -8  -5  -5  148.30    7.35 
  -8  -5  -5  143.27    7.22 
  -8  -5  -5  141.92    7.46 
  -8  -5  -5  141.71    7.60 
  -8  -5  -5  142.71    6.47 
  -8  -5  -4   58.42    4.50 
  -8  -5  -4   70.51    4.27 
  -8  -5  -4   54.53    4.35 
  -8  -5  -4   68.27    4.80 
  -8  -5  -3    7.28    2.03 
  -8  -5  -3    8.44    1.79 
  -8  -5  -3    5.37    1.70 
  -8  -5  -3    6.68    1.97 
  -8  -5  -3    6.04    1.86 
  -8  -5  -2  125.61    6.23 
  -8  -5  -2  129.02    6.81 
  -8  -5  -2  120.10    6.50 
  -8  -5  -2  131.91    6.91 
  -8  -5  -1  209.96    9.27 
  -8  -5  -1  232.58    8.51 
  -8  -5  -1  203.98    8.90 
  -8  -5   0    9.23    1.68 
  -8  -5   0    6.65    1.92 
  -8  -5   1  155.06    7.60 
  -8  -5   1  157.73    7.20 
  -8  -5   1  151.70    7.51 
  -8  -5   1  158.43    6.12 
  -8  -5   2    3.83    1.15 
  -8  -5   2    3.78    1.89 
  -8  -5   2    1.57    1.47 
  -8  -5   3   48.00    4.06 
  -8  -5   3   42.86    2.21 
  -8  -5   3   50.72    4.11 
  -8  -5   4   40.42    3.71 
  -8  -5   4   38.50    3.67 
  -8  -5   5   72.70    5.02 
  -8  -5   5   54.28    4.36 
  -8  -5   6   96.05    5.70 
  -8  -4 -10  187.29    8.31 
  -8  -4 -10  175.37    9.33 
  -8  -4 -10  171.49    9.61 
  -8  -4  -9    9.88    2.71 
  -8  -4  -9    3.05    2.11 
  -8  -4  -9    8.87    2.08 
  -8  -4  -8  281.27   10.91 
  -8  -4  -8  280.22   12.07 
  -8  -4  -8  253.25   11.45 
  -8  -4  -8  273.87   10.78 
  -8  -4  -7  447.07   15.13 
  -8  -4  -7  454.82   16.09 
  -8  -4  -7  452.31   15.24 
  -8  -4  -7  427.17   15.96 
  -8  -4  -6    9.04    2.16 
  -8  -4  -6    5.46    2.16 
  -8  -4  -6    8.14    2.09 
  -8  -4  -5  228.50    9.46 
  -8  -4  -5  216.14    9.57 
  -8  -4  -5  215.81    9.28 
  -8  -4  -5  209.77    8.52 
  -8  -4  -5  235.57   10.06 
  -8  -4  -4   88.08    5.12 
  -8  -4  -4   95.49    5.99 
  -8  -4  -4  103.14    5.91 
  -8  -4  -4  100.64    5.86 
  -8  -4  -4   92.95    5.72 
  -8  -4  -3  261.69   10.60 
  -8  -4  -3  276.57   10.44 
  -8  -4  -3  264.32   10.67 
  -8  -4  -2    0.26    1.22 
  -8  -4  -2    0.62    1.06 
  -8  -4  -2    0.31    1.49 
  -8  -4  -2    0.31    1.54 
  -8  -4  -1  459.47   15.62 
  -8  -4  -1  477.81   15.83 
  -8  -4  -1  470.62   15.47 
  -8  -4  -1  464.37   14.53 
  -8  -4   0  158.71    6.65 
  -8  -4   0  154.61    7.42 
  -8  -4   1    0.94    1.51 
  -8  -4   1    0.94    1.15 
  -8  -4   1    0.28    1.39 
  -8  -4   2   10.62    2.19 
  -8  -4   2   11.26    2.33 
  -8  -4   2   10.75    1.66 
  -8  -4   3  178.33    8.15 
  -8  -4   3  169.95    5.87 
  -8  -4   3  166.39    8.02 
  -8  -4   4   15.99    1.15 
  -8  -4   4   14.19    2.40 
  -8  -4   4   12.50    2.48 
  -8  -4   5   48.83    4.14 
  -8  -4   5   38.85    3.78 
  -8  -4   6   86.79    5.43 
  -8  -4   7   35.27    3.54 
  -8  -3  -9   64.48    5.69 
  -8  -3  -9   65.20    5.67 
  -8  -3  -8   33.69    3.98 
  -8  -3  -8   40.07    4.50 
  -8  -3  -8   35.59    3.63 
  -8  -3  -7  384.19   14.47 
  -8  -3  -7  392.61   13.78 
  -8  -3  -7  368.89   14.51 
  -8  -3  -6  209.80    9.21 
  -8  -3  -6  218.41    9.23 
  -8  -3  -6  209.66    9.79 
  -8  -3  -5    0.32    1.39 
  -8  -3  -5    1.77    1.91 
  -8  -3  -5    1.26    1.55 
  -8  -3  -4  201.45    8.88 
  -8  -3  -4  191.56    8.68 
  -8  -3  -4  183.26    8.57 
  -8  -3  -4  197.93    9.05 
  -8  -3  -3  305.84   11.34 
  -8  -3  -3  291.09    9.69 
  -8  -3  -3  300.97   11.61 
  -8  -3  -3  303.19   11.58 
  -8  -3  -3  302.93   11.71 
  -8  -3  -2   -0.95    1.53 
  -8  -3  -2    1.35    1.20 
  -8  -3  -2    2.54    1.86 
  -8  -3  -2    0.27    1.42 
  -8  -3  -1  245.29   10.13 
  -8  -3  -1  256.46    8.96 
  -8  -3  -1  234.92   10.04 
  -8  -3  -1  248.10    9.47 
  -8  -3   0  342.24   12.88 
  -8  -3   0  356.72   12.90 
  -8  -3   0  376.94   12.04 
  -8  -3   0  357.09   11.89 
  -8  -3   1  114.23    6.00 
  -8  -3   1  132.53    5.83 
  -8  -3   1  119.02    6.57 
  -8  -3   2    0.96    1.70 
  -8  -3   2    0.57    1.16 
  -8  -3   2    0.32    1.50 
  -8  -3   3  404.35   14.17 
  -8  -3   3  423.95   14.38 
  -8  -3   3  400.45   11.99 
  -8  -3   4  245.48   10.24 
  -8  -3   4  257.54    7.93 
  -8  -3   5    0.94    1.38 
  -8  -3   6   44.21    3.89 
  -8  -3   7   15.67    2.58 
  -8  -2  -9   15.91    3.02 
  -8  -2  -9   10.51    2.87 
  -8  -2  -9   10.38    2.42 
  -8  -2  -8    4.37    2.15 
  -8  -2  -8    5.64    2.63 
  -8  -2  -8    1.97    1.50 
  -8  -2  -7  100.57    6.01 
  -8  -2  -7   90.33    6.41 
  -8  -2  -7   97.01    6.41 
  -8  -2  -6  195.24    8.98 
  -8  -2  -6  198.84    9.48 
  -8  -2  -6  207.12    9.75 
  -8  -2  -5  111.97    6.62 
  -8  -2  -5   89.66    5.78 
  -8  -2  -4   41.45    4.11 
  -8  -2  -4   40.90    3.83 
  -8  -2  -3  658.82   20.24 
  -8  -2  -3  677.46   20.50 
  -8  -2  -3  640.46   20.43 
  -8  -2  -3  636.97   18.51 
  -8  -2  -2  320.71   11.84 
  -8  -2  -2  321.52   12.30 
  -8  -2  -2  325.71   12.31 
  -8  -2  -2  326.41   10.98 
  -8  -2  -1  120.62    6.18 
  -8  -2  -1  113.04    5.73 
  -8  -2  -1  110.99    6.47 
  -8  -2   0   93.70    5.28 
  -8  -2   0   92.97    5.24 
  -8  -2   0  103.53    6.09 
  -8  -2   1   73.08    4.39 
  -8  -2   1   62.90    4.49 
  -8  -2   2   20.82    2.80 
  -8  -2   2   16.57    2.20 
  -8  -2   2   16.61    2.79 
  -8  -2   3  535.86   15.91 
  -8  -2   3  568.64   18.05 
  -8  -2   4  476.53   16.33 
  -8  -2   4  493.24   14.18 
  -8  -2   5   16.09    2.64 
  -8  -2   5   18.60    1.86 
  -8  -2   7  104.10    6.17 
  -8  -1  -8   34.49    3.72 
  -8  -1  -8   39.90    4.30 
  -8  -1  -8   26.00    4.15 
  -8  -1  -7    3.47    2.54 
  -8  -1  -7    1.18    1.83 
  -8  -1  -7    1.06    1.70 
  -8  -1  -6   10.01    2.62 
  -8  -1  -6   12.35    2.90 
  -8  -1  -6   11.60    2.35 
  -8  -1  -5  123.37    7.41 
  -8  -1  -5  136.63    7.53 
  -8  -1  -5  126.63    7.08 
  -8  -1  -4   15.79    2.66 
  -8  -1  -4   12.82    2.67 
  -8  -1  -3  308.94   12.08 
  -8  -1  -3  286.09   11.76 
  -8  -1  -3  319.68   12.41 
  -8  -1  -2  673.55   21.49 
  -8  -1  -2  693.75   21.51 
  -8  -1  -2  674.19   20.04 
  -8  -1  -2  707.57   21.21 
  -8  -1  -1   27.43    3.33 
  -8  -1  -1   31.03    3.31 
  -8  -1  -1   29.51    3.13 
  -8  -1   0   97.69    6.09 
  -8  -1   0   95.01    5.58 
  -8  -1   0   90.97    5.44 
  -8  -1   1  378.68   12.98 
  -8  -1   1  380.12   13.43 
  -8  -1   2   15.68    2.43 
  -8  -1   3   98.05    5.29 
  -8  -1   3  105.64    6.39 
  -8  -1   4  175.20    8.50 
  -8  -1   4  172.67    7.21 
  -8  -1   5   94.05    5.93 
  -8  -1   5   80.40    4.45 
  -8  -1   6    8.10    2.21 
  -8  -1   7  136.48    7.37 
  -8   0  -7    5.22    1.99 
  -8   0  -7    3.70    2.54 
  -8   0  -7    3.27    2.11 
  -8   0  -6   -0.40    2.20 
  -8   0  -6    1.77    1.89 
  -8   0  -6    3.79    1.90 
  -8   0  -5   72.60    5.53 
  -8   0  -5   73.05    5.57 
  -8   0  -5   81.55    6.11 
  -8   0  -4   75.26    5.63 
  -8   0  -3   11.82    2.43 
  -8   0  -2  410.50   15.19 
  -8   0  -2  415.59   14.94 
  -8   0  -1  225.94   10.21 
  -8   0  -1  212.84    9.56 
  -8   0   0   16.82    2.79 
  -8   0   0   15.35    2.74 
  -8   0   1  412.57   14.28 
  -8   0   1  417.98   15.32 
  -8   0   2  244.11    9.92 
  -8   0   3   17.72    2.67 
  -8   0   3   13.90    2.73 
  -8   0   4  151.15    7.14 
  -8   0   4  145.07    8.04 
  -8   0   5   36.44    3.98 
  -8   0   5   38.15    3.37 
  -8   0   6   37.82    4.06 
  -8   0   6   29.76    3.02 
  -8   0   7   39.43    4.05 
  -8   1  -6    1.13    1.81 
  -8   1  -6   -0.48    2.27 
  -8   1  -5   50.02    5.14 
  -8   1  -4  131.72    7.94 
  -8   1  -4  108.45    7.08 
  -8   1  -3   28.58    3.76 
  -8   1  -2   89.25    6.38 
  -8   1  -2   96.14    6.45 
  -8   1  -1  125.42    7.39 
  -8   1  -1  116.55    7.37 
  -8   1   0   94.82    6.66 
  -8   1   0   97.88    6.30 
  -8   1   1  112.42    7.17 
  -8   1   1  113.62    6.72 
  -8   1   2  362.58   13.51 
  -8   1   3  235.17   10.06 
  -8   1   4   20.94    3.36 
  -8   1   4   14.20    2.73 
  -8   1   5  123.57    7.58 
  -8   1   5  127.65    6.82 
  -8   1   6   28.58    3.19 
  -8   1   7   10.99    2.60 
  -8   2  -4  248.29   12.13 
  -8   2  -4  256.68   11.42 
  -8   2  -3   37.77    4.08 
  -8   2  -2    0.42    1.95 
  -8   2  -1   44.46    4.76 
  -8   2  -1   54.84    5.03 
  -8   2   0  120.56    7.46 
  -8   2   0  107.41    7.01 
  -8   2   1    0.85    1.74 
  -8   2   1    2.00    2.06 
  -8   2   2   76.09    5.74 
  -8   2   2   82.38    6.18 
  -8   2   3  309.26   12.59 
  -8   2   4   65.47    5.28 
  -8   2   4   57.60    5.22 
  -8   2   5   93.98    6.52 
  -8   2   5   94.41    6.21 
  -8   2   6  221.21   10.58 
  -8   2   6  217.16    9.90 
  -8   3  -2    7.69    2.71 
  -8   3  -1   36.54    4.57 
  -8   3  -1   42.29    4.45 
  -8   3   0   45.88    4.88 
  -8   3   0   42.84    4.77 
  -8   3   1   54.40    5.31 
  -8   3   1   62.19    5.59 
  -8   3   2    9.73    2.81 
  -8   3   2   11.54    2.84 
  -8   3   3  232.78   11.17 
  -8   3   4  115.17    7.62 
  -8   3   4  119.38    7.61 
  -8   3   5    0.43    2.04 
  -8   3   5    1.37    2.32 
  -7 -11  -8  117.29    7.54 
  -7 -11  -8  108.47    8.04 
  -7 -11  -8  121.73    8.10 
  -7 -11  -7   98.55    7.12 
  -7 -11  -7  110.16    7.19 
  -7 -11  -7  111.18    7.81 
  -7 -11  -6    1.74    2.03 
  -7 -11  -6    1.69    2.15 
  -7 -11  -6    0.51    2.31 
  -7 -11  -5  277.11   12.08 
  -7 -11  -5  303.60   12.83 
  -7 -11  -4  125.84    7.75 
  -7 -11  -4  117.45    6.97 
  -7 -11  -2  104.88    7.14 
  -7 -11  -2   95.76    5.78 
  -7 -11  -1  172.81    9.09 
  -7 -11  -1  161.28    7.17 
  -7 -10  -9   15.45    2.96 
  -7 -10  -9   14.72    3.05 
  -7 -10  -8   64.58    5.70 
  -7 -10  -8   63.66    5.52 
  -7 -10  -8   69.37    5.50 
  -7 -10  -7   84.90    6.40 
  -7 -10  -7   83.00    6.29 
  -7 -10  -7   77.15    5.85 
  -7 -10  -6   33.60    4.09 
  -7 -10  -6   37.16    4.19 
  -7 -10  -6   39.73    4.54 
  -7 -10  -5  232.45   10.54 
  -7 -10  -5  244.52   11.07 
  -7 -10  -4  397.47   14.91 
  -7 -10  -4  377.74   14.12 
  -7 -10  -3   14.00    2.65 
  -7 -10  -1  137.31    6.54 
  -7 -10  -1  145.22    7.96 
  -7 -10   0   77.08    5.81 
  -7 -10   0   87.09    4.62 
  -7 -10   1   32.26    2.54 
  -7 -10   1   37.88    4.08 
  -7  -9 -10   47.68    4.33 
  -7  -9 -10   57.22    5.65 
  -7  -9 -10   59.56    5.61 
  -7  -9 -10   51.75    4.69 
  -7  -9  -9    5.61    2.11 
  -7  -9  -9    3.70    2.64 
  -7  -9  -9    4.70    2.26 
  -7  -9  -8   31.64    3.74 
  -7  -9  -8   31.71    3.73 
  -7  -9  -7   64.77    5.03 
  -7  -9  -7   61.84    4.96 
  -7  -9  -7   50.56    4.91 
  -7  -9  -7   60.79    5.13 
  -7  -9  -6  101.22    6.56 
  -7  -9  -6  108.95    6.50 
  -7  -9  -6   96.59    6.47 
  -7  -9  -6   87.26    6.03 
  -7  -9  -5   49.48    4.47 
  -7  -9  -5   53.18    4.66 
  -7  -9  -5   48.88    4.54 
  -7  -9  -4   84.09    5.59 
  -7  -9  -4   81.33    5.75 
  -7  -9  -4   84.91    5.89 
  -7  -9  -3   38.75    4.03 
  -7  -9  -3   45.18    3.96 
  -7  -9  -3   46.52    4.34 
  -7  -9  -2    9.81    2.11 
  -7  -9  -1  337.45   12.96 
  -7  -9  -1  329.54   11.82 
  -7  -9  -1  340.28   13.03 
  -7  -9  -1  328.45   11.59 
  -7  -9   0  322.88   12.71 
  -7  -9   0  337.52   12.86 
  -7  -9   0  303.88   10.92 
  -7  -9   0  327.64   10.86 
  -7  -9   1    9.36    1.75 
  -7  -9   1    6.49    2.33 
  -7  -9   1    6.45    1.47 
  -7  -9   2   10.05    2.30 
  -7  -9   2   10.16    1.49 
  -7  -9   2    8.11    1.51 
  -7  -9   3   95.69    6.14 
  -7  -8 -11   10.28    3.15 
  -7  -8 -11   17.56    2.62 
  -7  -8 -11   19.12    3.66 
  -7  -8 -10   69.01    6.03 
  -7  -8 -10   77.10    6.43 
  -7  -8 -10   71.65    5.00 
  -7  -8 -10   67.44    4.94 
  -7  -8  -9    0.33    1.38 
  -7  -8  -9    0.92    2.34 
  -7  -8  -9    2.65    2.42 
  -7  -8  -9    1.98    1.50 
  -7  -8  -9   -0.32    1.56 
  -7  -8  -8    7.02    2.07 
  -7  -8  -8    4.65    2.02 
  -7  -8  -8    7.09    2.47 
  -7  -8  -8    4.78    1.73 
  -7  -8  -7   44.44    4.06 
  -7  -8  -7   42.11    3.91 
  -7  -8  -7   38.63    3.73 
  -7  -8  -7   42.42    4.41 
  -7  -8  -6  246.70   10.35 
  -7  -8  -6  231.41   10.42 
  -7  -8  -6  250.86   10.92 
  -7  -8  -6  247.31   10.36 
  -7  -8  -6  236.44   10.13 
  -7  -8  -5    1.38    1.89 
  -7  -8  -5   -0.33    1.53 
  -7  -8  -5    0.36    1.92 
  -7  -8  -5   -0.67    1.54 
  -7  -8  -5    1.33    1.58 
  -7  -8  -4   -0.34    1.48 
  -7  -8  -4   -0.33    1.62 
  -7  -8  -4    0.22    1.29 
  -7  -8  -4    0.33    1.72 
  -7  -8  -4   -1.28    1.57 
  -7  -8  -4    0.23    1.48 
  -7  -8  -3   39.82    3.74 
  -7  -8  -3   34.63    3.33 
  -7  -8  -3   35.74    3.19 
  -7  -8  -3   38.70    3.87 
  -7  -8  -3   38.34    3.76 
  -7  -8  -3   33.78    3.43 
  -7  -8  -2   10.34    2.09 
  -7  -8  -2    9.28    1.99 
  -7  -8  -2    5.01    2.02 
  -7  -8  -2    5.01    1.79 
  -7  -8  -1   20.11    2.52 
  -7  -8  -1   24.01    2.67 
  -7  -8  -1   18.62    2.95 
  -7  -8   0  189.56    8.80 
  -7  -8   0  193.25    7.68 
  -7  -8   0  185.87    7.64 
  -7  -8   0  206.97    9.12 
  -7  -8   0  201.06    7.68 
  -7  -8   1  102.72    4.88 
  -7  -8   1   89.02    4.56 
  -7  -8   1  104.31    6.30 
  -7  -8   1   98.96    6.20 
  -7  -8   1  104.17    4.71 
  -7  -8   2    1.66    1.89 
  -7  -8   2    1.69    1.14 
  -7  -8   2    2.33    1.49 
  -7  -8   3  245.45   10.38 
  -7  -8   3  250.35   10.41 
  -7  -8   4   93.57    5.86 
  -7  -8   4   93.62    5.91 
  -7  -7 -11   33.05    4.33 
  -7  -7 -11   33.57    4.51 
  -7  -7 -11   31.75    3.24 
  -7  -7 -10   -0.45    1.95 
  -7  -7 -10    1.18    1.48 
  -7  -7 -10    0.46    2.06 
  -7  -7  -9   77.18    5.04 
  -7  -7  -9   70.30    4.93 
  -7  -7  -9   62.56    5.35 
  -7  -7  -9   71.06    5.87 
  -7  -7  -8    5.84    1.66 
  -7  -7  -8    3.66    1.57 
  -7  -7  -8    2.80    1.90 
  -7  -7  -8    0.92    1.59 
  -7  -7  -7   21.37    2.95 
  -7  -7  -7   20.97    2.39 
  -7  -7  -7   21.85    3.33 
  -7  -7  -7   25.86    2.82 
  -7  -7  -6   49.04    4.48 
  -7  -7  -6   56.04    4.30 
  -7  -7  -6   49.37    4.06 
  -7  -7  -6   45.15    3.73 
  -7  -7  -5   86.62    5.42 
  -7  -7  -5   80.54    4.27 
  -7  -7  -5   84.65    5.55 
  -7  -7  -5   93.63    5.68 
  -7  -7  -5   83.69    5.61 
  -7  -7  -4   69.80    4.91 
  -7  -7  -4   75.80    4.22 
  -7  -7  -4   72.68    5.06 
  -7  -7  -4   73.14    5.00 
  -7  -7  -4   72.80    5.00 
  -7  -7  -3  107.51    5.58 
  -7  -7  -3  101.33    5.93 
  -7  -7  -3   99.29    5.16 
  -7  -7  -3   98.76    6.00 
  -7  -7  -3  105.01    5.81 
  -7  -7  -3  106.31    5.92 
  -7  -7  -2   73.39    4.68 
  -7  -7  -2   68.69    4.38 
  -7  -7  -2   73.26    4.68 
  -7  -7  -2   77.05    5.12 
  -7  -7  -2   73.68    5.05 
  -7  -7  -2   73.52    4.61 
  -7  -7  -1   40.35    3.54 
  -7  -7  -1   41.31    3.22 
  -7  -7  -1   36.55    3.58 
  -7  -7  -1   40.18    3.28 
  -7  -7   0    8.56    1.75 
  -7  -7   0    6.52    2.07 
  -7  -7   0   10.95    1.74 
  -7  -7   0   11.22    2.20 
  -7  -7   1  110.69    4.80 
  -7  -7   1  123.33    5.45 
  -7  -7   1  121.45    6.57 
  -7  -7   1  112.32    6.35 
  -7  -7   2  113.46    5.02 
  -7  -7   2  120.15    6.46 
  -7  -7   2  113.65    4.30 
  -7  -7   2  108.39    4.38 
  -7  -7   2  127.41    6.63 
  -7  -7   3  109.53    6.21 
  -7  -7   3  116.44    6.43 
  -7  -7   4  195.03    8.81 
  -7  -7   4  204.97    8.85 
  -7  -7   5   85.98    5.42 
  -7  -7   5   76.46    5.03 
  -7  -6 -11  112.26    7.51 
  -7  -6 -11  105.60    5.68 
  -7  -6 -11  102.66    7.11 
  -7  -6 -10    2.20    1.49 
  -7  -6 -10    0.44    2.01 
  -7  -6 -10    1.28    2.27 
  -7  -6  -9    3.74    1.70 
  -7  -6  -9    2.51    2.16 
  -7  -6  -9    4.22    1.54 
  -7  -6  -9    0.81    1.99 
  -7  -6  -8  108.68    5.21 
  -7  -6  -8  118.04    6.20 
  -7  -6  -8  114.95    6.29 
  -7  -6  -8  113.80    6.98 
  -7  -6  -8  124.50    7.29 
  -7  -6  -7   77.43    4.27 
  -7  -6  -7   77.82    4.92 
  -7  -6  -7   74.60    5.35 
  -7  -6  -7   74.14    4.86 
  -7  -6  -7   70.31    4.34 
  -7  -6  -6   67.48    3.76 
  -7  -6  -6   76.26    4.93 
  -7  -6  -6   70.79    4.21 
  -7  -6  -6   73.18    5.25 
  -7  -6  -6   78.12    4.90 
  -7  -6  -5   74.89    4.89 
  -7  -6  -5   74.19    5.14 
  -7  -6  -5   75.80    4.07 
  -7  -6  -5   85.18    5.21 
  -7  -6  -4   62.64    3.73 
  -7  -6  -4   62.84    4.44 
  -7  -6  -4   58.02    4.32 
  -7  -6  -4   59.22    4.32 
  -7  -6  -3    0.29    1.31 
  -7  -6  -3    0.27    1.41 
  -7  -6  -3    2.24    1.47 
  -7  -6  -3    0.42    1.18 
  -7  -6  -3   -0.29    1.23 
  -7  -6  -2  250.57    9.46 
  -7  -6  -2  250.11    9.33 
  -7  -6  -2  265.83   10.26 
  -7  -6  -2  255.14    9.80 
  -7  -6  -2  243.88    9.50 
  -7  -6  -1  407.13   12.86 
  -7  -6  -1  372.53   12.82 
  -7  -6  -1  375.59   12.16 
  -7  -6  -1  376.51   12.65 
  -7  -6   0   14.70    1.93 
  -7  -6   0   16.04    2.23 
  -7  -6   0   10.97    2.51 
  -7  -6   0   17.23    2.57 
  -7  -6   1  118.57    6.28 
  -7  -6   1  111.79    4.71 
  -7  -6   1  110.37    6.14 
  -7  -6   1  117.71    5.46 
  -7  -6   2  210.35    7.67 
  -7  -6   2  210.68    6.55 
  -7  -6   2  192.62    8.64 
  -7  -6   2  213.06    8.90 
  -7  -6   3   15.21    2.39 
  -7  -6   3   11.97    0.77 
  -7  -6   5  290.84   10.84 
  -7  -6   5  292.96   11.03 
  -7  -6   6   53.18    3.99 
  -7  -6   6   50.50    4.08 
  -7  -5 -11  221.80   10.99 
  -7  -5 -11  233.18   10.91 
  -7  -5 -10   13.56    2.16 
  -7  -5 -10   11.57    3.09 
  -7  -5 -10   11.80    3.10 
  -7  -5  -9   40.95    3.54 
  -7  -5  -9   34.92    3.97 
  -7  -5  -9   40.39    3.41 
  -7  -5  -9   38.13    4.33 
  -7  -5  -8  196.33    8.18 
  -7  -5  -8  207.59    9.59 
  -7  -5  -8  182.88    8.11 
  -7  -5  -8  178.29    8.94 
  -7  -5  -7  187.01    8.00 
  -7  -5  -7  180.29    6.85 
  -7  -5  -7  176.07    8.73 
  -7  -5  -7  179.22    8.68 
  -7  -5  -7  184.74    8.03 
  -7  -5  -6  129.98    7.02 
  -7  -5  -6  130.25    6.55 
  -7  -5  -6  134.78    6.51 
  -7  -5  -6  121.79    5.90 
  -7  -5  -6  133.33    5.59 
  -7  -5  -5  142.87    6.77 
  -7  -5  -5  128.21    6.46 
  -7  -5  -5  115.92    6.55 
  -7  -5  -5  127.08    5.59 
  -7  -5  -5  132.41    6.77 
  -7  -5  -5  125.61    5.89 
  -7  -5  -4  136.14    6.66 
  -7  -5  -4  127.27    5.74 
  -7  -5  -4  127.20    6.56 
  -7  -5  -4  139.85    6.69 
  -7  -5  -4  141.11    6.91 
  -7  -5  -4  124.12    5.88 
  -7  -5  -3   38.29    3.54 
  -7  -5  -3   37.88    3.44 
  -7  -5  -3   42.89    3.50 
  -7  -5  -3   39.21    3.06 
  -7  -5  -3   41.16    3.53 
  -7  -5  -2   35.10    3.00 
  -7  -5  -2   31.45    3.11 
  -7  -5  -2   30.27    3.14 
  -7  -5  -2   34.99    3.03 
  -7  -5  -2   31.59    3.25 
  -7  -5  -2   38.03    3.32 
  -7  -5  -1  348.85   12.27 
  -7  -5  -1  359.60   11.91 
  -7  -5  -1  335.55   12.08 
  -7  -5  -1  338.15   11.13 
  -7  -5  -1  343.65   11.65 
  -7  -5   0  498.53   14.83 
  -7  -5   0  482.57   13.86 
  -7  -5   0  455.44   14.84 
  -7  -5   0  460.66   15.50 
  -7  -5   0  466.57   15.14 
  -7  -5   1  215.50    9.17 
  -7  -5   1  214.96    8.87 
  -7  -5   1  218.09    8.25 
  -7  -5   1  218.07    7.29 
  -7  -5   1  221.19    9.08 
  -7  -5   2  403.08   13.86 
  -7  -5   2  420.99   11.45 
  -7  -5   2  407.24   13.76 
  -7  -5   2  421.69   13.01 
  -7  -5   3    0.82    1.14 
  -7  -5   3    1.11    1.48 
  -7  -5   3    0.12    0.56 
  -7  -5   4    3.56    1.54 
  -7  -5   4    3.51    1.50 
  -7  -5   5  191.55    7.97 
  -7  -5   5  172.90    7.81 
  -7  -5   6  137.10    6.55 
  -7  -5   6  141.62    6.76 
  -7  -5   7    4.71    1.64 
  -7  -5   7    6.17    1.87 
  -7  -4 -11   19.91    3.50 
  -7  -4 -11   24.52    3.76 
  -7  -4 -10   92.61    6.65 
  -7  -4 -10   91.58    6.43 
  -7  -4  -9   33.82    3.99 
  -7  -4  -9   43.63    4.50 
  -7  -4  -9   39.99    3.53 
  -7  -4  -9   34.80    3.15 
  -7  -4  -8  263.79   10.94 
  -7  -4  -8  251.67    9.64 
  -7  -4  -8  260.07    9.88 
  -7  -4  -8  235.70   10.72 
  -7  -4  -7  322.18   12.57 
  -7  -4  -7  329.28   11.58 
  -7  -4  -7  326.11   11.69 
  -7  -4  -7  328.49   10.75 
  -7  -4  -7  334.72   12.00 
  -7  -4  -7  320.53   12.46 
  -7  -4  -6   41.15    3.58 
  -7  -4  -6   39.76    3.89 
  -7  -4  -6   44.33    3.15 
  -7  -4  -6   38.86    2.05 
  -7  -4  -6   45.34    3.60 
  -7  -4  -6   39.85    3.41 
  -7  -4  -5   82.66    5.01 
  -7  -4  -5   75.65    4.29 
  -7  -4  -5   84.22    5.33 
  -7  -4  -5   76.35    4.99 
  -7  -4  -5   79.29    3.03 
  -7  -4  -5   75.28    4.50 
  -7  -4  -5   95.08    5.17 
  -7  -4  -4   66.93    4.64 
  -7  -4  -4   69.50    4.09 
  -7  -4  -4   75.37    4.79 
  -7  -4  -4   74.64    4.69 
  -7  -4  -4   76.60    4.91 
  -7  -4  -4   70.63    2.87 
  -7  -4  -4   75.21    4.70 
  -7  -4  -4   70.19    4.28 
  -7  -4  -3  135.62    6.47 
  -7  -4  -3  142.44    6.71 
  -7  -4  -3  126.91    6.04 
  -7  -4  -3  139.61    4.71 
  -7  -4  -3  142.63    6.17 
  -7  -4  -3  138.26    6.67 
  -7  -4  -3  125.81    6.54 
  -7  -4  -2    3.45    1.43 
  -7  -4  -2    4.23    1.52 
  -7  -4  -2    3.69    1.42 
  -7  -4  -2    4.09    1.80 
  -7  -4  -2    2.16    1.39 
  -7  -4  -1  242.10    8.98 
  -7  -4  -1  219.97    8.93 
  -7  -4  -1  219.18    8.94 
  -7  -4  -1  216.81    9.12 
  -7  -4  -1  223.65    8.19 
  -7  -4  -1  217.27    8.48 
  -7  -4   0  148.42    6.02 
  -7  -4   0  154.83    6.84 
  -7  -4   0  152.37    6.72 
  -7  -4   1    2.23    1.87 
  -7  -4   1    2.56    1.44 
  -7  -4   1    2.02    1.56 
  -7  -4   1    1.90    1.36 
  -7  -4   1    4.68    1.73 
  -7  -4   1    3.23    1.18 
  -7  -4   2  101.45    5.20 
  -7  -4   2  109.42    4.30 
  -7  -4   2   99.62    5.78 
  -7  -4   2  103.36    5.77 
  -7  -4   2  111.18    5.83 
  -7  -4   3  178.53    7.99 
  -7  -4   3  190.14    7.88 
  -7  -4   3  173.63    7.72 
  -7  -4   3  172.83    5.50 
  -7  -4   4    1.75    1.56 
  -7  -4   4    2.65    1.55 
  -7  -4   4    1.07    1.59 
  -7  -4   5  201.15    8.48 
  -7  -4   5  205.66    8.39 
  -7  -4   6  173.83    7.64 
  -7  -4   6  165.56    7.37 
  -7  -4   7    2.00    1.39 
  -7  -4   8   21.78    2.53 
  -7  -3 -10   54.84    4.85 
  -7  -3  -9  419.02   15.12 
  -7  -3  -9  420.47   13.63 
  -7  -3  -9  386.33   15.20 
  -7  -3  -8    8.23    1.90 
  -7  -3  -8    6.01    2.22 
  -7  -3  -8   10.97    2.61 
  -7  -3  -7  357.90   12.13 
  -7  -3  -7  347.86   12.22 
  -7  -3  -7  328.91   11.43 
  -7  -3  -7  367.79   13.26 
  -7  -3  -7  361.43   12.44 
  -7  -3  -7  339.71   13.17 
  -7  -3  -6  357.08   13.54 
  -7  -3  -6  391.35   13.01 
  -7  -3  -6  368.63   12.17 
  -7  -3  -6  379.42   13.57 
  -7  -3  -6  387.27   12.91 
  -7  -3  -6  377.10   10.98 
  -7  -3  -5   57.77    4.47 
  -7  -3  -5   58.34    3.73 
  -7  -3  -5   55.11    3.99 
  -7  -3  -5   56.50    3.03 
  -7  -3  -5   54.53    4.09 
  -7  -3  -4   45.18    3.69 
  -7  -3  -4   44.95    2.68 
  -7  -3  -4   48.77    3.80 
  -7  -3  -4   50.14    4.01 
  -7  -3  -4   43.36    3.25 
  -7  -3  -4   43.05    3.32 
  -7  -3  -3   23.37    2.59 
  -7  -3  -3   28.92    2.76 
  -7  -3  -3   22.49    2.67 
  -7  -3  -3   24.82    2.88 
  -7  -3  -3   22.79    2.00 
  -7  -3  -3   22.43    2.46 
  -7  -3  -3   20.12    2.58 
  -7  -3  -2   47.99    3.46 
  -7  -3  -2   44.79    2.86 
  -7  -3  -2   41.85    3.37 
  -7  -3  -2   44.45    3.63 
  -7  -3  -2   49.94    3.56 
  -7  -3  -2   50.34    3.76 
  -7  -3  -1   84.18    5.05 
  -7  -3  -1   74.95    4.52 
  -7  -3  -1   82.65    4.44 
  -7  -3  -1   78.70    4.83 
  -7  -3  -1   77.40    4.02 
  -7  -3   0  557.35   16.00 
  -7  -3   0  565.24   15.98 
  -7  -3   0  528.58   16.61 
  -7  -3   0  547.87   17.10 
  -7  -3   0  567.23   16.98 
  -7  -3   1   20.25    2.09 
  -7  -3   1   21.34    2.53 
  -7  -3   1   25.43    2.68 
  -7  -3   2    5.24    1.23 
  -7  -3   2    8.32    1.82 
  -7  -3   2    4.61    1.70 
  -7  -3   3    2.67    1.38 
  -7  -3   3    5.15    1.70 
  -7  -3   3    5.17    1.16 
  -7  -3   4  325.59    9.08 
  -7  -3   4  327.99   11.77 
  -7  -3   5   -0.27    1.56 
  -7  -3   5    0.57    1.53 
  -7  -3   5    2.11    1.42 
  -7  -3   6  297.64   10.77 
  -7  -3   7    1.54    1.37 
  -7  -3   8   22.13    2.55 
  -7  -2 -10   22.12    3.54 
  -7  -2 -10   28.31    3.58 
  -7  -2  -9  233.66    9.36 
  -7  -2  -9  235.47   11.00 
  -7  -2  -9  253.88   10.78 
  -7  -2  -8   78.94    5.54 
  -7  -2  -8   76.09    5.78 
  -7  -2  -8   76.51    4.81 
  -7  -2  -7   58.24    4.16 
  -7  -2  -7   55.14    4.76 
  -7  -2  -7   65.44    4.94 
  -7  -2  -6  674.87   21.09 
  -7  -2  -6  667.04   20.72 
  -7  -2  -6  676.94   20.04 
  -7  -2  -5  179.60    7.91 
  -7  -2  -5  178.02    6.73 
  -7  -2  -5  174.57    8.36 
  -7  -2  -5  194.46    8.56 
  -7  -2  -5  181.38    7.60 
  -7  -2  -4    0.68    1.09 
  -7  -2  -4    0.83    1.31 
  -7  -2  -4   -0.71    1.26 
  -7  -2  -4    1.68    1.64 
  -7  -2  -4    0.90    1.53 
  -7  -2  -3  268.71   10.42 
  -7  -2  -3  283.19   10.39 
  -7  -2  -3  272.28    9.79 
  -7  -2  -3  276.74   10.39 
  -7  -2  -3  250.37    8.78 
  -7  -2  -2  200.07    8.41 
  -7  -2  -2  196.41    7.89 
  -7  -2  -2  193.09    7.98 
  -7  -2  -2  191.49    7.22 
  -7  -2  -2  197.60    7.91 
  -7  -2  -2  193.67    8.36 
  -7  -2  -2  192.74    8.27 
  -7  -2  -1    0.83    1.34 
  -7  -2  -1    1.69    1.38 
  -7  -2  -1    0.20    1.24 
  -7  -2  -1   -0.24    1.35 
  -7  -2  -1    0.93    1.24 
  -7  -2   0   40.87    3.11 
  -7  -2   0   34.62    3.29 
  -7  -2   0   36.92    3.34 
  -7  -2   0   35.65    3.21 
  -7  -2   0   38.16    3.10 
  -7  -2   1   25.38    2.70 
  -7  -2   1   23.19    2.60 
  -7  -2   1   24.32    2.33 
  -7  -2   2   26.94    2.91 
  -7  -2   2   30.46    3.07 
  -7  -2   2   27.03    2.93 
  -7  -2   2   27.56    2.41 
  -7  -2   3   70.56    3.69 
  -7  -2   3   78.68    4.84 
  -7  -2   3   70.13    4.79 
  -7  -2   4  223.59    8.95 
  -7  -2   4  208.95    7.03 
  -7  -2   5  239.34    9.37 
  -7  -2   5  222.85    6.92 
  -7  -2   6   23.02    2.72 
  -7  -2   7   29.34    3.04 
  -7  -2   8   47.17    3.76 
  -7  -1  -9  195.75    9.45 
  -7  -1  -9  200.34   10.10 
  -7  -1  -8  262.64   11.60 
  -7  -1  -8  260.60   10.27 
  -7  -1  -8  260.78   10.97 
  -7  -1  -7   -0.77    2.05 
  -7  -1  -7   -0.34    1.75 
  -7  -1  -7    0.30    1.53 
  -7  -1  -6   90.17    5.42 
  -7  -1  -6   91.40    5.82 
  -7  -1  -6   84.79    5.90 
  -7  -1  -5  130.25    6.76 
  -7  -1  -5  135.93    6.07 
  -7  -1  -5  141.19    7.20 
  -7  -1  -5  130.25    7.12 
  -7  -1  -4  170.09    7.75 
  -7  -1  -4  153.00    6.59 
  -7  -1  -4  165.02    7.85 
  -7  -1  -3  298.75   10.20 
  -7  -1  -3  305.25   11.54 
  -7  -1  -3  299.75   11.22 
  -7  -1  -2 1126.07   30.87 
  -7  -1  -2 1179.46   31.88 
  -7  -1  -2 1198.22   31.85 
  -7  -1  -2 1181.94   31.48 
  -7  -1  -2 1136.89   30.25 
  -7  -1  -1  123.93    5.80 
  -7  -1  -1  127.86    6.54 
  -7  -1  -1  119.38    6.43 
  -7  -1  -1  120.59    6.06 
  -7  -1  -1  128.76    6.28 
  -7  -1   0   11.87    2.17 
  -7  -1   0   12.22    2.06 
  -7  -1   0   10.39    1.93 
  -7  -1   0   11.01    2.04 
  -7  -1   1   27.26    2.73 
  -7  -1   1   23.80    2.77 
  -7  -1   2  205.01    7.91 
  -7  -1   2  211.59    8.85 
  -7  -1   3   39.45    2.97 
  -7  -1   3   32.09    3.23 
  -7  -1   3   31.10    3.42 
  -7  -1   4  184.69    7.03 
  -7  -1   4  189.09    8.28 
  -7  -1   5   91.48    5.58 
  -7  -1   5  110.96    6.19 
  -7  -1   5  103.77    4.63 
  -7  -1   6    0.89    1.43 
  -7  -1   6   -0.31    2.05 
  -7  -1   7   11.19    2.23 
  -7  -1   8  304.44   11.35 
  -7  -1   9  141.70    6.74 
  -7   0  -8  229.10   10.36 
  -7   0  -8  249.35   11.40 
  -7   0  -8  231.54    9.53 
  -7   0  -7   70.84    5.11 
  -7   0  -7   82.45    6.19 
  -7   0  -6    1.17    2.08 
  -7   0  -6    4.53    2.04 
  -7   0  -6    0.97    1.53 
  -7   0  -5  131.85    7.16 
  -7   0  -5  138.23    7.36 
  -7   0  -5  143.99    6.67 
  -7   0  -5  142.08    7.74 
  -7   0  -4  198.99    8.19 
  -7   0  -4  209.09    9.10 
  -7   0  -4  208.97    9.45 
  -7   0  -4  200.03    9.13 
  -7   0  -3    2.28    1.68 
  -7   0  -3    3.39    1.73 
  -7   0  -3   -0.64    1.38 
  -7   0  -2  609.33   18.84 
  -7   0  -2  570.50   17.50 
  -7   0  -1  495.61   16.04 
  -7   0  -1  464.68   15.31 
  -7   0  -1  450.74   14.76 
  -7   0   0   13.51    2.38 
  -7   0   0   12.70    2.33 
  -7   0   0   16.21    2.60 
  -7   0   1   68.37    4.57 
  -7   0   1   72.78    4.97 
  -7   0   1   63.44    4.41 
  -7   0   2  559.63   16.85 
  -7   0   2  540.10   17.50 
  -7   0   3  128.34    6.14 
  -7   0   3  125.08    6.82 
  -7   0   4   24.78    3.06 
  -7   0   4   26.94    2.68 
  -7   0   5  128.97    5.94 
  -7   0   5  133.51    7.01 
  -7   0   6   78.75    5.25 
  -7   0   6   68.77    4.84 
  -7   0   7    4.82    1.97 
  -7   0   7    6.12    2.21 
  -7   0   8   99.00    5.76 
  -7   0   9   76.85    4.93 
  -7   1  -7   81.96    6.38 
  -7   1  -7   82.53    5.32 
  -7   1  -6   33.09    3.48 
  -7   1  -6   31.08    3.94 
  -7   1  -5   23.56    3.64 
  -7   1  -5   26.67    3.14 
  -7   1  -5   20.75    2.99 
  -7   1  -4  361.33   13.76 
  -7   1  -4  385.32   14.44 
  -7   1  -3   71.60    5.41 
  -7   1  -3   73.77    5.31 
  -7   1  -2  222.68    9.99 
  -7   1  -1  152.46    7.96 
  -7   1  -1  159.74    7.90 
  -7   1   0  317.10   12.62 
  -7   1   0  326.52   12.11 
  -7   1   1   -0.36    1.75 
  -7   1   1    0.91    1.68 
  -7   1   2  807.78   23.49 
  -7   1   3  240.44    9.66 
  -7   1   4   23.44    3.11 
  -7   1   4   20.11    2.68 
  -7   1   5   65.79    4.52 
  -7   1   5   71.58    5.31 
  -7   1   6  136.70    7.43 
  -7   1   6  127.27    6.26 
  -7   1   6  132.57    6.46 
  -7   1   7   37.97    3.71 
  -7   1   8  115.00    6.48 
  -7   1   9  118.52    6.52 
  -7   2  -6  121.88    7.93 
  -7   2  -6  123.16    6.94 
  -7   2  -5    7.47    2.26 
  -7   2  -5    6.26    2.74 
  -7   2  -4  220.90   10.68 
  -7   2  -4  217.68    9.89 
  -7   2  -3  274.14   12.19 
  -7   2  -3  313.39   12.15 
  -7   2  -2    1.10    1.80 
  -7   2  -1   74.02    5.51 
  -7   2   0  280.27   11.52 
  -7   2   0  295.44   11.79 
  -7   2   1    4.18    2.18 
  -7   2   1    3.57    1.78 
  -7   2   2  232.92   10.75 
  -7   2   2  246.50   10.73 
  -7   2   2  246.55   10.38 
  -7   2   3  470.89   16.09 
  -7   2   4   48.68    4.50 
  -7   2   4   49.10    4.20 
  -7   2   5   21.56    3.12 
  -7   2   5   24.24    3.15 
  -7   2   6  110.35    6.37 
  -7   2   6  119.02    6.85 
  -7   2   7   19.67    2.94 
  -7   2   8   10.25    2.41 
  -7   3  -5   58.05    5.77 
  -7   3  -5   60.21    5.12 
  -7   3  -4   86.40    6.78 
  -7   3  -4   78.55    5.77 
  -7   3  -3  319.83   13.63 
  -7   3  -3  304.62   12.77 
  -7   3  -2   38.34    4.52 
  -7   3  -2   41.94    4.33 
  -7   3  -1    3.21    2.14 
  -7   3   0  338.22   13.70 
  -7   3   0  344.12   13.76 
  -7   3   1  174.51    9.00 
  -7   3   1  180.54    9.23 
  -7   3   2   44.56    4.49 
  -7   3   2   44.70    4.58 
  -7   3   3  157.40    8.38 
  -7   3   4   68.32    5.48 
  -7   3   4   80.72    5.93 
  -7   3   5   32.51    4.01 
  -7   3   5   39.69    4.12 
  -7   3   6   97.22    6.60 
  -7   3   6  113.69    7.02 
  -7   3   7   44.56    4.38 
  -7   4  -3   82.27    6.26 
  -7   4  -3   77.56    6.73 
  -7   4  -2  183.24    9.69 
  -7   4  -2  186.52   10.23 
  -7   4  -1   33.98    4.16 
  -7   4   0  108.38    7.35 
  -7   4   1   97.65    7.03 
  -7   4   1  104.79    7.16 
  -7   4   2   42.47    4.64 
  -7   4   2   46.35    5.00 
  -7   4   3  100.52    7.04 
  -7   4   3  105.05    7.19 
  -7   4   4  273.01   12.32 
  -7   4   5   83.10    6.37 
  -7   4   5   70.80    6.00 
  -7   4   6    3.95    2.31 
  -7   4   6    2.64    2.20 
  -7   5   1  126.01    8.50 
  -7   5   1  127.07    8.40 
  -7   5   2  148.76    8.92 
  -7   5   2  144.37    8.94 
  -7   5   3    5.55    2.69 
  -7   5   3    5.93    2.43 
  -7   5   4   68.48    6.14 
  -6 -11  -9    5.06    2.73 
  -6 -11  -9    3.76    2.09 
  -6 -11  -9    6.05    2.95 
  -6 -11  -8  107.37    6.99 
  -6 -11  -8   96.39    7.54 
  -6 -11  -8  110.69    7.97 
  -6 -11  -7   63.85    5.46 
  -6 -11  -7   57.90    5.77 
  -6 -11  -6    3.76    2.26 
  -6 -11  -6    5.63    2.52 
  -6 -11  -6    4.63    2.57 
  -6 -11  -5   49.26    4.76 
  -6 -11  -5   46.60    5.34 
  -6 -11  -5   37.52    4.61 
  -6 -11  -4  130.36    7.92 
  -6 -11  -4  126.78    8.63 
  -6 -11  -4  142.58    9.01 
  -6 -11  -4  138.93    7.57 
  -6 -11  -3    3.84    1.94 
  -6 -11  -2   88.63    6.91 
  -6 -11  -2   83.81    5.24 
  -6 -11  -2   93.35    6.49 
  -6 -11  -1   36.97    4.54 
  -6 -11  -1   46.28    4.72 
  -6 -11  -1   43.65    3.45 
  -6 -11   0    2.70    1.38 
  -6 -11   0    5.38    2.17 
  -6 -11   0    2.01    2.24 
  -6 -10 -10  181.24    8.82 
  -6 -10 -10  161.09    9.27 
  -6 -10 -10  159.57    9.16 
  -6 -10  -9   17.09    3.43 
  -6 -10  -9   12.90    2.99 
  -6 -10  -8   50.27    4.67 
  -6 -10  -8   53.11    5.22 
  -6 -10  -8   64.86    5.56 
  -6 -10  -7   62.03    5.01 
  -6 -10  -7   55.61    5.26 
  -6 -10  -6  124.38    7.24 
  -6 -10  -6  119.48    7.71 
  -6 -10  -5    3.04    1.87 
  -6 -10  -5    5.43    2.20 
  -6 -10  -5    4.14    2.41 
  -6 -10  -4  572.32   18.92 
  -6 -10  -4  586.23   20.37 
  -6 -10  -4  526.28   18.00 
  -6 -10  -3   74.05    5.13 
  -6 -10  -2   25.05    2.93 
  -6 -10  -1   40.08    3.39 
  -6 -10  -1   45.02    4.71 
  -6 -10  -1   46.54    4.44 
  -6 -10   0   44.23    3.19 
  -6 -10   0   42.88    4.21 
  -6 -10   0   40.22    4.53 
  -6 -10   1    2.57    1.15 
  -6 -10   1    3.36    1.99 
  -6 -10   1    3.66    2.17 
  -6 -10   2   64.22    5.67 
  -6 -10   2   61.05    5.01 
  -6  -9 -11   31.32    3.91 
  -6  -9 -11   23.99    3.13 
  -6  -9 -11   26.76    3.75 
  -6  -9 -11   22.86    4.10 
  -6  -9 -11   29.06    4.36 
  -6  -9 -10  453.90   15.45 
  -6  -9 -10  442.54   17.10 
  -6  -9 -10  430.80   16.30 
  -6  -9 -10  430.43   15.33 
  -6  -9 -10  449.54   16.14 
  -6  -9  -9  228.09   10.37 
  -6  -9  -9  224.93    9.94 
  -6  -9  -9  209.04   10.69 
  -6  -9  -9  226.22    9.83 
  -6  -9  -8   53.41    4.81 
  -6  -9  -8   50.94    4.39 
  -6  -9  -7   32.25    3.92 
  -6  -9  -7   37.96    3.88 
  -6  -9  -7   36.44    4.10 
  -6  -9  -6  149.02    8.06 
  -6  -9  -6  147.07    7.77 
  -6  -9  -5  100.67    6.24 
  -6  -9  -5  104.48    6.36 
  -6  -9  -5  104.06    6.77 
  -6  -9  -4  301.06   12.50 
  -6  -9  -4  292.59   11.67 
  -6  -9  -4  281.03   11.18 
  -6  -9  -3  259.42   10.83 
  -6  -9  -3  258.70   10.22 
  -6  -9  -2   22.67    2.81 
  -6  -9  -2   18.65    2.69 
  -6  -9  -1  166.66    7.15 
  -6  -9  -1  172.41    7.66 
  -6  -9  -1  184.21    8.66 
  -6  -9   0  370.73   11.59 
  -6  -9   0  372.77   13.63 
  -6  -9   0  342.86   11.83 
  -6  -9   1  131.14    5.85 
  -6  -9   1  146.32    7.49 
  -6  -9   2    2.03    1.63 
  -6  -9   2    3.37    2.02 
  -6  -9   2    3.36    0.96 
  -6  -9   3   11.88    2.89 
  -6  -9   3   13.72    2.63 
  -6  -9   3   13.76    2.71 
  -6  -9   4    1.32    1.81 
  -6  -9   4    1.99    1.72 
  -6  -9   4    1.20    1.93 
  -6  -8 -12  107.55    7.58 
  -6  -8 -12  100.72    7.70 
  -6  -8 -11    2.36    2.40 
  -6  -8 -11    3.51    1.56 
  -6  -8 -11    6.99    2.28 
  -6  -8 -11    4.40    2.64 
  -6  -8 -10   42.15    4.87 
  -6  -8 -10   56.47    5.28 
  -6  -8 -10   55.71    4.27 
  -6  -8 -10   50.84    4.43 
  -6  -8 -10   52.43    4.17 
  -6  -8  -9  117.14    7.40 
  -6  -8  -9  122.16    6.77 
  -6  -8  -9  109.75    6.33 
  -6  -8  -9  103.88    7.20 
  -6  -8  -9  123.25    6.58 
  -6  -8  -8  163.13    7.99 
  -6  -8  -8  156.75    7.66 
  -6  -8  -8  177.39    8.92 
  -6  -8  -8  160.57    7.86 
  -6  -8  -7  166.17    8.07 
  -6  -8  -7  173.92    8.10 
  -6  -8  -7  181.99    8.42 
  -6  -8  -6 1420.10   37.61 
  -6  -8  -6 1339.73   36.85 
  -6  -8  -5  141.28    7.20 
  -6  -8  -5  138.10    5.83 
  -6  -8  -5  137.91    7.48 
  -6  -8  -5  148.31    5.83 
  -6  -8  -5  135.26    7.23 
  -6  -8  -4   53.41    4.26 
  -6  -8  -4   52.80    3.47 
  -6  -8  -4   57.50    4.71 
  -6  -8  -4   49.31    4.14 
  -6  -8  -4   52.86    3.50 
  -6  -8  -3   54.82    4.34 
  -6  -8  -3   53.93    3.63 
  -6  -8  -3   59.34    3.81 
  -6  -8  -3   51.33    4.07 
  -6  -8  -2  108.87    5.66 
  -6  -8  -2  104.71    5.47 
  -6  -8  -2  107.90    5.59 
  -6  -8  -1    1.59    1.39 
  -6  -8  -1    0.27    1.48 
  -6  -8  -1    0.98    1.30 
  -6  -8   0  533.57   16.95 
  -6  -8   0  501.55   15.40 
  -6  -8   0  519.13   15.20 
  -6  -8   0  530.30   16.94 
  -6  -8   1  459.54   14.90 
  -6  -8   1  432.58   14.72 
  -6  -8   1  437.12   12.55 
  -6  -8   2    4.92    1.99 
  -6  -8   2    3.38    1.78 
  -6  -8   2    3.88    1.19 
  -6  -8   2    4.13    1.00 
  -6  -8   3   82.25    3.41 
  -6  -8   3   89.35    5.46 
  -6  -8   3   90.29    5.61 
  -6  -8   4   88.17    5.44 
  -6  -8   4   85.26    5.52 
  -6  -8   5   32.04    3.30 
  -6  -8   5   25.29    3.32 
  -6  -8   5   27.80    3.15 
  -6  -7 -12  263.88   12.25 
  -6  -7 -12  273.27   12.63 
  -6  -7 -11   48.87    4.91 
  -6  -7 -11   45.78    4.92 
  -6  -7 -11   49.46    4.09 
  -6  -7 -11   45.93    3.66 
  -6  -7 -10   58.55    4.18 
  -6  -7 -10   60.41    5.31 
  -6  -7 -10   59.43    4.20 
  -6  -7 -10   61.33    4.43 
  -6  -7 -10   49.21    4.97 
  -6  -7  -9   29.36    3.12 
  -6  -7  -9   28.94    3.88 
  -6  -7  -9   32.45    3.11 
  -6  -7  -9   29.82    3.88 
  -6  -7  -9   35.47    3.34 
  -6  -7  -8    1.97    1.23 
  -6  -7  -8    0.85    1.31 
  -6  -7  -8    1.98    2.11 
  -6  -7  -8    1.89    1.80 
  -6  -7  -8    0.36    1.12 
  -6  -7  -8    3.89    1.69 
  -6  -7  -7   72.13    4.69 
  -6  -7  -7   73.23    4.74 
  -6  -7  -7   67.01    5.14 
  -6  -7  -7   70.46    3.80 
  -6  -7  -7   75.25    4.82 
  -6  -7  -6  791.60   22.67 
  -6  -7  -6  764.99   20.08 
  -6  -7  -6  780.80   22.66 
  -6  -7  -6  785.13   22.68 
  -6  -7  -5 1186.84   31.67 
  -6  -7  -5 1177.72   31.65 
  -6  -7  -5 1125.47   29.23 
  -6  -7  -5 1183.05   31.72 
  -6  -7  -4   61.35    3.56 
  -6  -7  -4   59.78    4.38 
  -6  -7  -4   60.31    4.41 
  -6  -7  -4   64.00    4.55 
  -6  -7  -4   68.94    4.71 
  -6  -7  -3  547.43   16.94 
  -6  -7  -3  523.18   15.46 
  -6  -7  -3  527.01   15.58 
  -6  -7  -3  514.55   16.75 
  -6  -7  -3  536.18   17.12 
  -6  -7  -3  541.40   16.55 
  -6  -7  -2  154.93    6.80 
  -6  -7  -2  171.38    7.67 
  -6  -7  -2  166.05    6.90 
  -6  -7  -2  164.50    7.16 
  -6  -7  -2  164.48    7.54 
  -6  -7  -1  147.32    6.81 
  -6  -7  -1  155.59    6.90 
  -6  -7  -1  165.72    6.78 
  -6  -7   0   57.08    4.18 
  -6  -7   0   46.31    3.86 
  -6  -7   0   48.15    3.91 
  -6  -7   0   56.01    4.22 
  -6  -7   0   55.78    3.47 
  -6  -7   1  282.44   10.60 
  -6  -7   1  270.10    8.96 
  -6  -7   1  273.84    9.03 
  -6  -7   1  289.98    9.17 
  -6  -7   1  282.21   10.69 
  -6  -7   2   64.54    4.47 
  -6  -7   2   62.86    3.14 
  -6  -7   2   72.59    3.42 
  -6  -7   2   70.67    4.62 
  -6  -7   2   70.08    3.29 
  -6  -7   3   77.99    4.95 
  -6  -7   3   71.65    2.67 
  -6  -7   3   67.70    4.63 
  -6  -7   4  239.99    9.44 
  -6  -7   4  234.22    9.51 
  -6  -7   5   85.23    5.18 
  -6  -7   5   94.19    5.41 
  -6  -7   6   24.38    2.75 
  -6  -7   6   24.67    2.77 
  -6  -6 -12  212.51   10.78 
  -6  -6 -12  220.59   10.79 
  -6  -6 -11   75.02    6.02 
  -6  -6 -11   80.47    4.61 
  -6  -6 -11   88.06    6.34 
  -6  -6 -10    2.10    2.24 
  -6  -6 -10    2.83    2.15 
  -6  -6 -10    0.50    1.34 
  -6  -6 -10    1.22    1.24 
  -6  -6 -10    0.95    1.28 
  -6  -6  -9   53.15    3.67 
  -6  -6  -9   60.11    4.07 
  -6  -6  -9   57.98    4.04 
  -6  -6  -9   54.20    3.53 
  -6  -6  -9   53.73    4.92 
  -6  -6  -9   57.44    4.91 
  -6  -6  -9   55.90    4.10 
  -6  -6  -8   61.67    4.10 
  -6  -6  -8   54.91    4.08 
  -6  -6  -8   57.58    3.61 
  -6  -6  -8   60.84    5.04 
  -6  -6  -8   62.32    3.92 
  -6  -6  -8   70.83    4.55 
  -6  -6  -8   55.54    4.73 
  -6  -6  -7   12.29    2.11 
  -6  -6  -7   10.88    1.94 
  -6  -6  -7   11.67    1.74 
  -6  -6  -7   13.53    2.52 
  -6  -6  -7   12.73    2.71 
  -6  -6  -7   10.75    1.33 
  -6  -6  -7   13.27    2.26 
  -6  -6  -7   11.49    1.89 
  -6  -6  -6  153.55    7.62 
  -6  -6  -6  156.77    6.69 
  -6  -6  -6  153.20    7.01 
  -6  -6  -6  153.76    6.14 
  -6  -6  -6  145.03    5.44 
  -6  -6  -6  160.38    7.17 
  -6  -6  -6  155.92    7.29 
  -6  -6  -5   59.93    4.18 
  -6  -6  -5   56.23    3.14 
  -6  -6  -5   59.29    3.94 
  -6  -6  -5   58.96    4.29 
  -6  -6  -5   56.02    4.01 
  -6  -6  -4  331.40   11.98 
  -6  -6  -4  358.34   12.13 
  -6  -6  -4  354.12   12.07 
  -6  -6  -4  319.91   11.99 
  -6  -6  -4  351.55   10.64 
  -6  -6  -3   76.73    4.67 
  -6  -6  -3   71.41    4.60 
  -6  -6  -3   64.00    3.81 
  -6  -6  -3   77.98    4.71 
  -6  -6  -3   72.55    4.64 
  -6  -6  -2 1282.04   33.35 
  -6  -6  -2 1302.27   33.91 
  -6  -6  -2 1330.06   34.62 
  -6  -6  -2 1346.54   34.60 
  -6  -6  -2 1293.98   33.60 
  -6  -6  -2 1311.60   33.87 
  -6  -6  -2 1265.17   34.67 
  -6  -6  -1  207.74    7.83 
  -6  -6  -1  210.88    8.11 
  -6  -6  -1  211.92    8.24 
  -6  -6  -1  205.61    7.89 
  -6  -6   0   95.12    5.57 
  -6  -6   0  103.77    4.91 
  -6  -6   0  101.37    4.71 
  -6  -6   0  102.76    5.56 
  -6  -6   0  103.02    5.47 
  -6  -6   0  114.08    5.76 
  -6  -6   1   54.96    3.91 
  -6  -6   1   47.13    3.92 
  -6  -6   1   45.30    3.64 
  -6  -6   1   46.64    3.05 
  -6  -6   1   41.97    3.66 
  -6  -6   1   48.65    2.81 
  -6  -6   1   42.99    3.65 
  -6  -6   2  285.91    8.12 
  -6  -6   2  252.11   10.22 
  -6  -6   2  289.32   10.44 
  -6  -6   2  266.74    8.17 
  -6  -6   2  284.76   10.32 
  -6  -6   2  275.96    8.74 
  -6  -6   3   15.60    2.46 
  -6  -6   3   17.71    2.47 
  -6  -6   3   21.70    1.08 
  -6  -6   3   20.33    2.40 
  -6  -6   4   88.77    5.08 
  -6  -6   4   81.19    5.02 
  -6  -6   4   93.74    5.20 
  -6  -6   5  239.05    9.23 
  -6  -6   5  254.81    9.54 
  -6  -6   6  102.66    5.31 
  -6  -6   6   92.03    5.23 
  -6  -6   7   17.41    2.13 
  -6  -5 -12   68.09    5.75 
  -6  -5 -12   76.53    6.01 
  -6  -5 -11   70.50    5.67 
  -6  -5 -11   90.02    6.39 
  -6  -5 -10   13.29    2.72 
  -6  -5 -10   16.14    2.10 
  -6  -5 -10   12.70    2.79 
  -6  -5  -9   17.52    3.05 
  -6  -5  -9   18.27    2.89 
  -6  -5  -9   13.91    2.01 
  -6  -5  -9   17.75    2.38 
  -6  -5  -9   15.74    2.24 
  -6  -5  -9   16.39    1.88 
  -6  -5  -8  118.07    6.00 
  -6  -5  -8  114.55    6.70 
  -6  -5  -8  127.89    5.94 
  -6  -5  -8  117.65    5.54 
  -6  -5  -8  129.36    6.09 
  -6  -5  -8  116.11    3.65 
  -6  -5  -8  126.96    5.23 
  -6  -5  -8  111.52    6.80 
  -6  -5  -7  128.37    6.14 
  -6  -5  -7  124.41    7.03 
  -6  -5  -7  123.05    6.32 
  -6  -5  -7  141.25    5.19 
  -6  -5  -7  145.35    6.49 
  -6  -5  -7  129.14    6.95 
  -6  -5  -7  138.71    5.54 
  -6  -5  -7  130.62    5.77 
  -6  -5  -6   25.33    3.12 
  -6  -5  -6   28.75    2.75 
  -6  -5  -6   32.42    2.48 
  -6  -5  -6   30.51    2.54 
  -6  -5  -6   31.85    2.97 
  -6  -5  -6   32.48    3.32 
  -6  -5  -6   22.74    2.72 
  -6  -5  -6   28.68    2.19 
  -6  -5  -5    1.47    1.25 
  -6  -5  -5    0.24    1.04 
  -6  -5  -5    0.73    0.92 
  -6  -5  -5    1.47    1.12 
  -6  -5  -5    2.64    1.53 
  -6  -5  -5    0.85    1.42 
  -6  -5  -5    0.15    0.93 
  -6  -5  -4    1.22    1.04 
  -6  -5  -4    3.44    1.69 
  -6  -5  -4    2.37    1.21 
  -6  -5  -4    1.23    1.19 
  -6  -5  -4    1.58    1.21 
  -6  -5  -4    2.91    1.02 
  -6  -5  -3   40.56    3.29 
  -6  -5  -3   45.79    3.47 
  -6  -5  -3   43.08    3.45 
  -6  -5  -3   42.67    2.88 
  -6  -5  -3   40.37    3.47 
  -6  -5  -2   14.37    2.08 
  -6  -5  -2   14.18    1.97 
  -6  -5  -2    9.51    1.91 
  -6  -5  -2   13.36    2.05 
  -6  -5  -2   16.00    2.22 
  -6  -5  -2   13.57    1.87 
  -6  -5  -1 1385.27   36.74 
  -6  -5  -1 1444.96   37.60 
  -6  -5  -1 1456.53   37.18 
  -6  -5  -1 1481.04   37.66 
  -6  -5  -1 1454.68   36.59 
  -6  -5  -1 1492.09   37.03 
  -6  -5   0  163.67    7.14 
  -6  -5   0  169.08    7.06 
  -6  -5   0  164.07    6.61 
  -6  -5   0  176.37    6.34 
  -6  -5   1  271.44    9.05 
  -6  -5   1  275.64   10.00 
  -6  -5   1  260.67   10.07 
  -6  -5   1  272.48    8.35 
  -6  -5   1  268.90    9.87 
  -6  -5   1  277.16    9.98 
  -6  -5   1  279.24   10.20 
  -6  -5   2  184.99    8.08 
  -6  -5   2  194.34    7.75 
  -6  -5   2  184.66    7.73 
  -6  -5   2  175.38    7.76 
  -6  -5   2  180.00    7.88 
  -6  -5   2  181.17    6.64 
  -6  -5   2  185.23    5.73 
  -6  -5   3    1.46    1.26 
  -6  -5   3    2.82    0.49 
  -6  -5   3    2.90    1.65 
  -6  -5   3    4.30    1.38 
  -6  -5   4    6.83    1.53 
  -6  -5   4    6.55    1.68 
  -6  -5   4   10.42    1.97 
  -6  -5   5  263.15    9.48 
  -6  -5   5  247.42    9.68 
  -6  -5   5  266.17    9.60 
  -6  -5   6  336.78   11.01 
  -6  -5   6  307.57   11.14 
  -6  -5   6  324.17   10.99 
  -6  -5   7   10.69    1.72 
  -6  -5   8  103.73    4.87 
  -6  -4 -12   13.93    3.27 
  -6  -4 -12   13.79    3.05 
  -6  -4 -11    8.69    2.66 
  -6  -4 -11   11.41    2.68 
  -6  -4 -10   24.11    2.39 
  -6  -4 -10   26.31    3.51 
  -6  -4 -10   28.49    3.42 
  -6  -4  -9    3.06    1.28 
  -6  -4  -9    4.50    1.48 
  -6  -4  -9    3.14    2.11 
  -6  -4  -9    2.59    1.88 
  -6  -4  -8   87.76    4.77 
  -6  -4  -8   91.44    5.74 
  -6  -4  -8   85.44    4.11 
  -6  -4  -8   81.65    4.85 
  -6  -4  -8   89.90    4.74 
  -6  -4  -8   85.41    3.56 
  -6  -4  -8   82.93    5.68 
  -6  -4  -7  288.31   11.32 
  -6  -4  -7  291.21   10.18 
  -6  -4  -7  282.48    9.14 
  -6  -4  -7  272.34    9.87 
  -6  -4  -7  288.80    8.04 
  -6  -4  -7  303.50   11.35 
  -6  -4  -7  284.97   10.38 
  -6  -4  -7  292.61    8.51 
  -6  -4  -6   47.56    3.32 
  -6  -4  -6   48.91    2.03 
  -6  -4  -6   59.10    3.74 
  -6  -4  -6   48.07    2.97 
  -6  -4  -6   58.69    3.92 
  -6  -4  -6   48.23    3.49 
  -6  -4  -6   47.00    3.93 
  -6  -4  -6   38.96    3.62 
  -6  -4  -5    5.74    1.66 
  -6  -4  -5    4.74    0.60 
  -6  -4  -5    4.73    1.40 
  -6  -4  -5    6.47    1.72 
  -6  -4  -5    4.01    1.35 
  -6  -4  -5    4.58    1.29 
  -6  -4  -5    6.07    1.23 
  -6  -4  -4   47.32    3.62 
  -6  -4  -4   40.34    3.27 
  -6  -4  -4   42.32    1.61 
  -6  -4  -4   44.04    3.09 
  -6  -4  -4   42.81    2.85 
  -6  -4  -4   43.06    3.36 
  -6  -4  -4   45.72    3.33 
  -6  -4  -3   22.11    2.52 
  -6  -4  -3   19.54    2.29 
  -6  -4  -3   23.24    2.58 
  -6  -4  -3   22.92    2.27 
  -6  -4  -3   22.84    2.16 
  -6  -4  -3   18.88    2.26 
  -6  -4  -2   35.88    3.07 
  -6  -4  -2   29.35    2.79 
  -6  -4  -2   40.12    3.10 
  -6  -4  -2   31.18    2.57 
  -6  -4  -2   34.90    2.78 
  -6  -4  -1   21.17    2.07 
  -6  -4  -1   22.60    2.31 
  -6  -4  -1   21.67    2.37 
  -6  -4  -1   19.72    2.36 
  -6  -4  -1   19.27    2.16 
  -6  -4   0  789.66   22.23 
  -6  -4   0  833.23   22.17 
  -6  -4   0  822.55   22.60 
  -6  -4   0  809.54   21.27 
  -6  -4   1  452.82   13.18 
  -6  -4   1  441.45   14.07 
  -6  -4   1  441.70   13.87 
  -6  -4   1  419.30   13.80 
  -6  -4   1  425.50   13.64 
  -6  -4   1  430.85   12.09 
  -6  -4   2  912.71   25.69 
  -6  -4   2  942.40   25.89 
  -6  -4   2  960.23   25.62 
  -6  -4   2  950.05   24.63 
  -6  -4   2  901.25   25.90 
  -6  -4   2  973.63   25.55 
  -6  -4   2  929.63   23.14 
  -6  -4   3  290.23   10.94 
  -6  -4   3  312.78    8.00 
  -6  -4   3  307.26   11.37 
  -6  -4   3  290.47   10.45 
  -6  -4   3  306.31   10.90 
  -6  -4   3  304.65   10.52 
  -6  -4   4    1.79    1.37 
  -6  -4   4    2.52    1.45 
  -6  -4   4    0.25    1.14 
  -6  -4   5   25.16    2.55 
  -6  -4   5   28.22    2.84 
  -6  -4   5   29.14    2.74 
  -6  -4   6  166.50    7.26 
  -6  -4   6  175.24    7.05 
  -6  -4   6  178.72    7.20 
  -6  -4   7  139.66    6.42 
  -6  -4   7  138.35    6.18 
  -6  -4   7  151.16    6.27 
  -6  -4   8   56.12    3.50 
  -6  -3 -11    4.34    2.22 
  -6  -3 -11   11.91    2.79 
  -6  -3 -10   15.14    2.95 
  -6  -3 -10   16.05    2.78 
  -6  -3 -10   16.47    2.07 
  -6  -3  -9  173.74    8.35 
  -6  -3  -9  164.67    8.45 
  -6  -3  -9  179.80    7.12 
  -6  -3  -8   10.47    1.87 
  -6  -3  -8    9.93    1.89 
  -6  -3  -8    8.92    2.23 
  -6  -3  -8   10.05    1.77 
  -6  -3  -8   10.49    2.22 
  -6  -3  -7   89.13    4.89 
  -6  -3  -7   85.13    4.34 
  -6  -3  -7   81.72    5.47 
  -6  -3  -7   88.04    3.83 
  -6  -3  -7   83.65    4.62 
  -6  -3  -7   90.08    4.85 
  -6  -3  -7   83.83    5.34 
  -6  -3  -6  229.92    8.11 
  -6  -3  -6  215.68    8.64 
  -6  -3  -6  245.86    8.82 
  -6  -3  -6  231.54    9.37 
  -6  -3  -6  235.30    8.64 
  -6  -3  -6  232.14    9.55 
  -6  -3  -6  228.08    7.15 
  -6  -3  -5   38.22    2.72 
  -6  -3  -5   40.29    3.08 
  -6  -3  -5   31.95    3.22 
  -6  -3  -5   39.30    2.94 
  -6  -3  -5   35.10    2.07 
  -6  -3  -5   35.18    3.37 
  -6  -3  -5   34.66    3.00 
  -6  -3  -4  130.14    5.57 
  -6  -3  -4  136.14    4.60 
  -6  -3  -4  123.18    5.61 
  -6  -3  -4  128.75    5.99 
  -6  -3  -4  130.96    6.26 
  -6  -3  -4  139.56    6.11 
  -6  -3  -3  175.84    7.16 
  -6  -3  -3  182.64    7.47 
  -6  -3  -3  174.90    7.25 
  -6  -3  -3  171.79    6.70 
  -6  -3  -3  169.09    6.75 
  -6  -3  -3  172.47    5.65 
  -6  -3  -2   95.00    4.60 
  -6  -3  -2   90.39    4.60 
  -6  -3  -2   93.34    4.95 
  -6  -3  -2   89.91    4.59 
  -6  -3  -2   91.85    3.80 
  -6  -3  -2   97.03    4.97 
  -6  -3  -1    1.24    1.01 
  -6  -3  -1    1.57    0.98 
  -6  -3  -1    0.46    1.03 
  -6  -3  -1    1.45    1.12 
  -6  -3  -1    2.70    1.18 
  -6  -3   0  350.11   10.62 
  -6  -3   0  361.76   11.44 
  -6  -3   0  339.47   11.51 
  -6  -3   0  339.41   11.25 
  -6  -3   0  360.68   10.73 
  -6  -3   1  531.81   16.32 
  -6  -3   1  535.67   16.67 
  -6  -3   1  564.67   15.17 
  -6  -3   2    9.81    1.82 
  -6  -3   2    8.47    1.20 
  -6  -3   2   10.01    1.72 
  -6  -3   2    9.84    2.01 
  -6  -3   2   11.73    1.95 
  -6  -3   2    8.73    1.61 
  -6  -3   3  425.56   11.19 
  -6  -3   3  429.16   14.11 
  -6  -3   3  431.14   13.33 
  -6  -3   3  397.95   13.57 
  -6  -3   3  427.85   13.40 
  -6  -3   4  850.51   22.51 
  -6  -3   4  872.14   22.53 
  -6  -3   4  893.79   24.32 
  -6  -3   4  838.04   22.82 
  -6  -3   5   73.62    5.27 
  -6  -3   5   82.50    4.77 
  -6  -3   5   78.82    4.55 
  -6  -3   5   83.22    4.54 
  -6  -3   6  327.68   10.95 
  -6  -3   6  328.45   11.18 
  -6  -3   6  311.86   10.69 
  -6  -3   7   26.42    2.53 
  -6  -3   7   36.54    3.08 
  -6  -3   8    1.00    1.29 
  -6  -3   9   22.41    2.24 
  -6  -2 -11   23.54    3.63 
  -6  -2 -11   21.03    3.08 
  -6  -2 -10   59.19    5.11 
  -6  -2 -10   55.32    4.55 
  -6  -2  -9  145.66    7.44 
  -6  -2  -9  128.21    7.52 
  -6  -2  -9  137.34    6.14 
  -6  -2  -8   27.52    2.63 
  -6  -2  -8   22.26    3.13 
  -6  -2  -8   25.62    3.18 
  -6  -2  -7    0.69    1.09 
  -6  -2  -7    0.33    1.65 
  -6  -2  -7    0.60    1.52 
  -6  -2  -7    1.82    1.23 
  -6  -2  -6  448.57   13.11 
  -6  -2  -6  436.13   15.19 
  -6  -2  -6  463.11   15.06 
  -6  -2  -6  484.16   14.35 
  -6  -2  -5  246.12    9.12 
  -6  -2  -5  237.42    8.85 
  -6  -2  -5  239.13    8.59 
  -6  -2  -5  238.57    9.42 
  -6  -2  -5  252.86    9.77 
  -6  -2  -5  235.16    7.80 
  -6  -2  -4   -0.52    1.29 
  -6  -2  -4    0.47    1.07 
  -6  -2  -4    1.02    1.10 
  -6  -2  -4   -0.14    0.97 
  -6  -2  -4    0.46    1.10 
  -6  -2  -4    0.20    1.10 
  -6  -2  -4   -0.78    1.67 
  -6  -2  -3  146.15    6.11 
  -6  -2  -3  152.71    6.64 
  -6  -2  -3  147.09    6.50 
  -6  -2  -3  143.91    5.42 
  -6  -2  -3  146.87    6.21 
  -6  -2  -3  144.91    6.63 
  -6  -2  -2  279.63    9.96 
  -6  -2  -2  280.07    9.57 
  -6  -2  -2  275.86    9.84 
  -6  -2  -2  274.97    8.77 
  -6  -2  -2  291.95   10.15 
  -6  -2  -2  270.31    9.44 
  -6  -2  -2  290.70    9.79 
  -6  -2  -1    4.00    1.42 
  -6  -2  -1    4.84    1.16 
  -6  -2  -1    5.05    1.28 
  -6  -2  -1    5.03    1.30 
  -6  -2  -1    4.67    1.37 
  -6  -2  -1    3.89    1.13 
  -6  -2   0  457.15   13.68 
  -6  -2   0  465.54   13.83 
  -6  -2   0  482.64   14.34 
  -6  -2   0  477.30   14.63 
  -6  -2   0  487.02   14.76 
  -6  -2   1  172.38    6.97 
  -6  -2   1  164.85    6.16 
  -6  -2   1  173.57    6.84 
  -6  -2   1  158.83    6.79 
  -6  -2   2    1.95    0.96 
  -6  -2   2    0.68    1.18 
  -6  -2   2    1.17    1.21 
  -6  -2   2    2.51    1.28 
  -6  -2   2    2.45    1.55 
  -6  -2   3   22.58    2.56 
  -6  -2   3   27.21    2.61 
  -6  -2   3   26.16    1.94 
  -6  -2   3   28.18    2.79 
  -6  -2   4  835.47   23.28 
  -6  -2   4  846.73   23.50 
  -6  -2   4  851.92   21.12 
  -6  -2   5  686.15   19.35 
  -6  -2   5  661.69   20.46 
  -6  -2   6   97.98    6.11 
  -6  -2   6  101.80    5.15 
  -6  -2   7  335.14   11.43 
  -6  -2   7  339.90   11.26 
  -6  -2   8   19.48    2.33 
  -6  -2   8   18.71    2.27 
  -6  -2   9   30.68    2.64 
  -6  -1 -10  123.89    7.59 
  -6  -1 -10  116.21    6.63 
  -6  -1  -9  194.00    8.61 
  -6  -1  -9  174.20    8.97 
  -6  -1  -9  176.41    7.37 
  -6  -1  -8  186.69    9.01 
  -6  -1  -8  182.63    7.59 
  -6  -1  -8  183.04    8.37 
  -6  -1  -7    1.48    1.35 
  -6  -1  -7    2.41    1.80 
  -6  -1  -7    1.36    1.75 
  -6  -1  -7    4.38    1.57 
  -6  -1  -6  129.29    6.64 
  -6  -1  -6  130.60    5.75 
  -6  -1  -6  132.52    6.92 
  -6  -1  -6  133.42    6.20 
  -6  -1  -5   39.86    3.29 
  -6  -1  -5   43.97    3.70 
  -6  -1  -5   41.88    2.98 
  -6  -1  -5   47.18    3.96 
  -6  -1  -4   40.35    3.32 
  -6  -1  -4   40.08    3.54 
  -6  -1  -4   48.51    3.83 
  -6  -1  -4   42.30    2.88 
  -6  -1  -3  110.26    4.90 
  -6  -1  -3  109.06    5.73 
  -6  -1  -3  110.87    5.33 
  -6  -1  -3  110.56    5.30 
  -6  -1  -3  121.95    5.82 
  -6  -1  -2  680.37   19.57 
  -6  -1  -2  660.04   18.99 
  -6  -1  -2  678.61   19.63 
  -6  -1  -2  663.94   18.91 
  -6  -1  -2  690.29   18.54 
  -6  -1  -1  511.64   14.66 
  -6  -1  -1  500.21   15.52 
  -6  -1  -1  493.52   15.02 
  -6  -1  -1  474.62   14.86 
  -6  -1  -1  528.45   15.73 
  -6  -1  -1  515.81   15.13 
  -6  -1   0  101.58    4.94 
  -6  -1   0  102.29    4.93 
  -6  -1   0  106.00    5.13 
  -6  -1   0   93.26    5.19 
  -6  -1   1   33.31    2.60 
  -6  -1   1   33.60    3.04 
  -6  -1   1   34.87    2.90 
  -6  -1   1   33.17    2.85 
  -6  -1   2   40.46    3.41 
  -6  -1   2   41.65    3.24 
  -6  -1   2   42.94    2.86 
  -6  -1   3   23.37    2.09 
  -6  -1   3   21.83    2.52 
  -6  -1   3   18.78    2.51 
  -6  -1   4  233.16    9.50 
  -6  -1   4  226.94    9.23 
  -6  -1   4  231.00    7.58 
  -6  -1   4  229.17    8.84 
  -6  -1   5  408.13   13.73 
  -6  -1   5  427.42   13.47 
  -6  -1   5  403.68   11.62 
  -6  -1   6    9.23    1.81 
  -6  -1   6    7.50    2.24 
  -6  -1   7  136.89    6.26 
  -6  -1   7  119.31    6.70 
  -6  -1   8  367.24   12.16 
  -6  -1   9   25.93    2.57 
  -6  -1  10   74.50    4.08 
  -6   0  -9    4.45    2.25 
  -6   0  -9    3.53    2.07 
  -6   0  -8  358.81   12.95 
  -6   0  -8  353.99   11.99 
  -6   0  -8  361.44   13.87 
  -6   0  -7  572.10   17.53 
  -6   0  -7  577.25   18.97 
  -6   0  -7  567.69   18.03 
  -6   0  -6   53.72    4.04 
  -6   0  -6   60.83    4.43 
  -6   0  -6   56.45    3.88 
  -6   0  -6   49.74    4.48 
  -6   0  -5   28.85    2.75 
  -6   0  -5   26.77    3.06 
  -6   0  -5   27.55    2.96 
  -6   0  -5   24.19    3.11 
  -6   0  -4    3.21    1.42 
  -6   0  -4    2.52    1.47 
  -6   0  -4    2.42    1.32 
  -6   0  -4    4.53    1.70 
  -6   0  -3    5.90    1.72 
  -6   0  -3    5.19    1.71 
  -6   0  -3    3.38    1.73 
  -6   0  -3    7.04    1.59 
  -6   0  -2  170.54    7.45 
  -6   0  -2  168.14    7.48 
  -6   0  -2  163.17    6.76 
  -6   0  -2  159.32    6.88 
  -6   0  -1  538.62   16.18 
  -6   0  -1  516.17   16.63 
  -6   0  -1  555.19   16.85 
  -6   0  -1  559.35   16.10 
  -6   0   0   41.09    3.39 
  -6   0   0   40.35    3.20 
  -6   0   0   39.42    3.17 
  -6   0   0   31.03    2.81 
  -6   0   1    5.50    1.49 
  -6   0   1    7.41    1.57 
  -6   0   1    9.55    1.91 
  -6   0   2  115.69    5.38 
  -6   0   2  111.94    5.85 
  -6   0   3  123.51    6.31 
  -6   0   3  113.43    5.32 
  -6   0   3  115.80    6.02 
  -6   0   4   15.95    1.97 
  -6   0   4   10.04    2.27 
  -6   0   4   13.29    2.32 
  -6   0   4   11.92    2.06 
  -6   0   4   10.33    1.95 
  -6   0   5   73.22    4.58 
  -6   0   5   72.67    4.65 
  -6   0   5   65.20    4.60 
  -6   0   5   67.11    3.76 
  -6   0   6    4.86    1.65 
  -6   0   6    1.53    1.61 
  -6   0   7    2.95    1.45 
  -6   0   7   -0.27    1.77 
  -6   0   8  115.53    5.73 
  -6   0   8   98.23    5.87 
  -6   0   9  235.72    8.91 
  -6   0  10    5.20    1.63 
  -6   1  -9    5.87    2.09 
  -6   1  -9    3.03    2.43 
  -6   1  -8  130.50    7.86 
  -6   1  -8  141.73    7.32 
  -6   1  -7  264.65   10.72 
  -6   1  -7  267.56   11.68 
  -6   1  -7  281.08   10.37 
  -6   1  -6  129.75    7.43 
  -6   1  -6  125.22    6.35 
  -6   1  -6  129.48    6.86 
  -6   1  -5   11.35    2.26 
  -6   1  -5   13.12    2.69 
  -6   1  -4  551.87   17.25 
  -6   1  -4  515.13   16.46 
  -6   1  -4  540.92   17.24 
  -6   1  -4  547.25   17.82 
  -6   1  -3   44.46    3.89 
  -6   1  -3   49.44    3.70 
  -6   1  -3   52.08    4.28 
  -6   1  -2   60.12    4.31 
  -6   1  -2   50.37    3.59 
  -6   1  -2   48.52    3.70 
  -6   1  -1   14.61    2.10 
  -6   1  -1   16.63    2.51 
  -6   1  -1   18.71    2.51 
  -6   1  -1   17.26    2.26 
  -6   1   0    1.07    1.56 
  -6   1   0    0.97    1.15 
  -6   1   0    2.25    1.55 
  -6   1   0    3.65    1.66 
  -6   1   0    1.76    1.20 
  -6   1   1  180.66    7.53 
  -6   1   1  194.25    8.37 
  -6   1   1  161.04    7.00 
  -6   1   1  171.06    7.65 
  -6   1   1  185.15    7.71 
  -6   1   2   81.51    4.75 
  -6   1   2   80.14    5.06 
  -6   1   3  295.31   10.77 
  -6   1   3  306.33   11.53 
  -6   1   3  312.59   10.79 
  -6   1   4   17.79    2.26 
  -6   1   4   16.16    2.50 
  -6   1   4   16.43    2.47 
  -6   1   5  125.21    5.96 
  -6   1   5  132.51    6.71 
  -6   1   5  114.86    6.23 
  -6   1   6    7.77    2.00 
  -6   1   6    7.93    1.75 
  -6   1   6    9.44    1.95 
  -6   1   7   55.71    3.87 
  -6   1   7   60.77    4.33 
  -6   1   8    0.24    1.52 
  -6   1   8   -1.09    1.59 
  -6   1   9  101.84    5.56 
  -6   1  10  125.20    6.18 
  -6   2  -8   18.81    3.59 
  -6   2  -7  166.79    9.09 
  -6   2  -7  177.62    7.97 
  -6   2  -6  104.41    6.95 
  -6   2  -6  106.31    6.03 
  -6   2  -5   57.01    5.10 
  -6   2  -5   70.23    4.84 
  -6   2  -4  109.21    6.87 
  -6   2  -4  116.56    6.45 
  -6   2  -3  912.38   26.87 
  -6   2  -3  911.96   26.14 
  -6   2  -2    0.63    1.46 
  -6   2  -2    2.36    2.00 
  -6   2  -1  246.76    9.69 
  -6   2  -1  231.98   10.06 
  -6   2   0   13.82    2.32 
  -6   2   0   18.12    2.24 
  -6   2   0   14.93    2.60 
  -6   2   1  175.97    8.03 
  -6   2   1  191.55    8.83 
  -6   2   1  194.67    8.46 
  -6   2   1  176.39    7.41 
  -6   2   2   54.11    4.54 
  -6   2   2   67.56    4.66 
  -6   2   3  414.89   14.16 
  -6   2   4  300.35   11.45 
  -6   2   4  330.93   12.04 
  -6   2   5    1.62    1.82 
  -6   2   5   -0.31    1.49 
  -6   2   5    2.01    1.63 
  -6   2   6    2.83    1.60 
  -6   2   6    1.55    1.45 
  -6   2   6    3.07    1.51 
  -6   2   7  141.72    6.99 
  -6   2   7  125.48    5.53 
  -6   2   8    0.30    1.54 
  -6   2   9   95.78    5.67 
  -6   2  10  181.19    8.12 
  -6   3  -6  124.91    8.00 
  -6   3  -6  125.06    6.94 
  -6   3  -5   96.88    6.98 
  -6   3  -5  100.98    6.12 
  -6   3  -4   37.20    4.40 
  -6   3  -4   42.57    3.98 
  -6   3  -3  466.97   16.73 
  -6   3  -3  464.73   16.08 
  -6   3  -2  258.33   11.26 
  -6   3  -2  264.80   10.89 
  -6   3  -1   38.94    4.19 
  -6   3  -1   40.59    4.04 
  -6   3   0  250.75   10.67 
  -6   3   1  318.64   12.51 
  -6   3   1  312.10   12.24 
  -6   3   2   27.54    3.38 
  -6   3   2   26.35    3.35 
  -6   3   3   79.24    5.41 
  -6   3   4  158.36    7.93 
  -6   3   5  269.12   10.19 
  -6   3   5  278.77   11.18 
  -6   3   5  263.61   11.06 
  -6   3   6   -0.68    1.76 
  -6   3   6    0.80    1.07 
  -6   3   6    1.38    1.76 
  -6   3   7  268.16   11.00 
  -6   3   8   52.36    4.39 
  -6   3   9   21.58    3.06 
  -6   4  -5  185.18   10.36 
  -6   4  -5  204.65    9.74 
  -6   4  -4   12.61    3.21 
  -6   4  -4   16.20    3.03 
  -6   4  -3  204.78    9.92 
  -6   4  -3  224.54   10.84 
  -6   4  -2  109.65    7.30 
  -6   4  -2  112.10    6.99 
  -6   4  -1  157.95    8.38 
  -6   4  -1  153.21    8.59 
  -6   4   0    9.02    2.44 
  -6   4   1  735.23   23.22 
  -6   4   2  162.42    8.56 
  -6   4   2  165.62    8.75 
  -6   4   3  345.22   13.59 
  -6   4   3  331.41   13.37 
  -6   4   4   96.70    6.46 
  -6   4   5   22.96    3.30 
  -6   4   5   23.57    3.36 
  -6   4   6   62.35    5.16 
  -6   4   6   60.02    5.13 
  -6   4   7   80.92    5.85 
  -6   4   8  273.59   11.67 
  -6   5  -3   12.21    3.08 
  -6   5  -3   22.25    3.91 
  -6   5  -2  132.08    8.44 
  -6   5  -2  122.58    7.81 
  -6   5  -1  322.19   14.04 
  -6   5  -1  327.12   13.68 
  -6   5   0    9.29    2.82 
  -6   5   0    5.27    2.31 
  -6   5   1  131.44    8.04 
  -6   5   2  201.04   10.26 
  -6   5   2  206.37   10.50 
  -6   5   3    3.97    2.01 
  -6   5   3    5.45    2.52 
  -6   5   4  139.15    8.41 
  -6   5   5  213.28   10.52 
  -6   5   5  220.85   11.01 
  -6   5   6   30.62    4.20 
  -6   5   6   34.55    4.12 
  -6   5   7   20.42    3.40 
  -6   6   0   40.63    4.97 
  -6   6   0   28.17    4.08 
  -6   6   0   34.24    3.75 
  -6   6   1   78.33    6.59 
  -6   6   1   86.68    5.27 
  -6   6   2  218.64   10.86 
  -6   6   2  177.32    7.40 
  -6   6   3  145.32    9.11 
  -6   6   3  146.32    8.89 
  -6   6   4   70.49    6.29 
  -6   6   5   71.79    6.53 
  -5 -12  -6   24.94    3.72 
  -5 -12  -6   23.84    4.11 
  -5 -12  -6   19.60    3.97 
  -5 -12  -5   99.71    7.93 
  -5 -12  -5   99.78    7.68 
  -5 -12  -5   91.22    6.78 
  -5 -12  -4   27.65    4.54 
  -5 -11  -9   22.84    4.00 
  -5 -11  -9   20.09    3.91 
  -5 -11  -9   21.72    3.42 
  -5 -11  -8  100.19    7.39 
  -5 -11  -8   96.71    6.55 
  -5 -11  -8   95.36    7.13 
  -5 -11  -7   75.04    5.76 
  -5 -11  -7   62.41    5.86 
  -5 -11  -7   65.32    6.04 
  -5 -11  -6    6.07    2.40 
  -5 -11  -6    7.69    2.77 
  -5 -11  -6    5.96    2.49 
  -5 -11  -5   26.05    4.50 
  -5 -11  -5   33.39    4.65 
  -5 -11  -5   36.08    3.93 
  -5 -11  -4   64.65    5.24 
  -5 -11  -4   47.31    5.10 
  -5 -11  -4   54.41    5.72 
  -5 -11  -3   52.25    5.86 
  -5 -11  -2   44.38    4.98 
  -5 -11  -2   54.10    4.90 
  -5 -11  -1   30.16    2.94 
  -5 -11  -1   31.17    3.88 
  -5 -11  -1   24.98    3.83 
  -5 -11   0    6.03    2.11 
  -5 -11   0    5.46    1.53 
  -5 -11   0    7.27    3.07 
  -5 -10 -11  136.26    8.55 
  -5 -10 -11  131.89    7.53 
  -5 -10 -11  140.30    8.22 
  -5 -10 -10   86.88    6.65 
  -5 -10 -10   97.25    6.23 
  -5 -10 -10   74.88    6.10 
  -5 -10  -9   51.78    4.65 
  -5 -10  -9   58.59    5.39 
  -5 -10  -9   61.94    5.51 
  -5 -10  -8   59.11    5.32 
  -5 -10  -8   55.04    4.61 
  -5 -10  -8   53.30    5.16 
  -5 -10  -7  390.05   15.29 
  -5 -10  -7  363.45   14.00 
  -5 -10  -7  388.10   15.25 
  -5 -10  -6   11.77    2.91 
  -5 -10  -6   15.82    3.16 
  -5 -10  -6   17.12    2.88 
  -5 -10  -5    1.82    1.82 
  -5 -10  -5    2.27    1.90 
  -5 -10  -5    2.29    2.01 
  -5 -10  -4   78.93    5.64 
  -5 -10  -4   80.23    6.14 
  -5 -10  -4   70.91    6.22 
  -5 -10  -3  101.49    7.28 
  -5 -10  -2    0.90    1.98 
  -5 -10  -1   26.05    3.71 
  -5 -10  -1   30.91    2.91 
  -5 -10  -1   35.97    3.79 
  -5 -10   0   61.52    5.52 
  -5 -10   0   68.41    5.21 
  -5 -10   0   63.60    3.83 
  -5 -10   1   28.09    3.42 
  -5 -10   1   20.18    1.88 
  -5 -10   1   24.24    3.72 
  -5 -10   2    8.22    2.32 
  -5 -10   2    7.80    2.57 
  -5  -9 -12  111.80    7.32 
  -5  -9 -12  100.06    5.92 
  -5  -9 -11    0.76    1.91 
  -5  -9 -11    0.63    1.63 
  -5  -9 -11    1.71    2.17 
  -5  -9 -10  547.91   17.64 
  -5  -9 -10  533.60   18.44 
  -5  -9 -10  521.75   18.50 
  -5  -9  -9   94.83    5.75 
  -5  -9  -9   84.76    6.06 
  -5  -9  -9   84.43    6.22 
  -5  -9  -8   58.96    5.16 
  -5  -9  -8   60.94    4.65 
  -5  -9  -8   54.67    4.91 
  -5  -9  -7   47.70    4.13 
  -5  -9  -7   49.96    4.62 
  -5  -9  -7   52.24    4.82 
  -5  -9  -6   52.83    4.80 
  -5  -9  -6   51.82    4.39 
  -5  -9  -5  100.13    6.11 
  -5  -9  -5  105.13    6.72 
  -5  -9  -4  182.21    8.53 
  -5  -9  -4  184.59    9.36 
  -5  -9  -3  164.92    8.04 
  -5  -9  -3  172.68    8.25 
  -5  -9  -3  192.21    9.59 
  -5  -9  -2   28.03    2.83 
  -5  -9  -2   32.90    3.30 
  -5  -9  -1    5.72    1.80 
  -5  -9  -1    9.99    1.87 
  -5  -9  -1    7.80    2.08 
  -5  -9   0   90.22    4.53 
  -5  -9   0   88.09    4.93 
  -5  -9   0   94.62    5.80 
  -5  -9   0   90.97    6.39 
  -5  -9   1  270.74   10.68 
  -5  -9   1  241.53   11.07 
  -5  -9   1  251.65    8.12 
  -5  -9   1  256.34    9.15 
  -5  -9   2   14.31    2.81 
  -5  -9   2   16.43    2.64 
  -5  -9   3   52.59    4.29 
  -5  -9   3   45.91    4.38 
  -5  -9   4   36.43    3.98 
  -5  -9   4   36.52    3.75 
  -5  -9   4   35.79    3.65 
  -5  -8 -12   15.83    3.34 
  -5  -8 -12   15.69    3.16 
  -5  -8 -11   84.11    5.66 
  -5  -8 -11  100.98    5.52 
  -5  -8 -11   87.09    6.08 
  -5  -8 -10   85.86    5.26 
  -5  -8 -10   94.94    6.18 
  -5  -8 -10   87.46    5.83 
  -5  -8 -10   85.07    5.34 
  -5  -8  -9  528.66   17.80 
  -5  -8  -9  543.04   17.03 
  -5  -8  -8   37.72    3.48 
  -5  -8  -8   34.71    3.76 
  -5  -8  -7  270.82   10.43 
  -5  -8  -7  267.06   10.94 
  -5  -8  -6   64.33    4.52 
  -5  -8  -6   59.63    3.07 
  -5  -8  -6   59.65    4.71 
  -5  -8  -5  435.98   14.37 
  -5  -8  -5  411.03   11.94 
  -5  -8  -5  429.78   14.96 
  -5  -8  -4   31.21    2.42 
  -5  -8  -4   31.75    3.24 
  -5  -8  -4   28.32    3.42 
  -5  -8  -3  109.63    6.04 
  -5  -8  -3  109.49    6.64 
  -5  -8  -2   14.78    2.10 
  -5  -8  -2   14.22    2.28 
  -5  -8  -1   26.20    2.75 
  -5  -8  -1   23.90    2.38 
  -5  -8   0   48.94    3.95 
  -5  -8   0   54.19    3.31 
  -5  -8   0   47.44    3.43 
  -5  -8   1  498.58   13.98 
  -5  -8   1  491.61   14.66 
  -5  -8   1  539.79   16.50 
  -5  -8   2  103.72    4.63 
  -5  -8   2  115.95    6.09 
  -5  -8   2  104.37    3.84 
  -5  -8   3   14.39    1.55 
  -5  -8   3   13.75    2.27 
  -5  -8   3   17.37    2.86 
  -5  -8   4  178.99    7.82 
  -5  -8   4  180.26    7.97 
  -5  -8   5   26.41    3.05 
  -5  -8   5   19.49    2.98 
  -5  -8   5   27.92    2.97 
  -5  -7 -12   36.75    4.41 
  -5  -7 -12   44.83    4.95 
  -5  -7 -12   43.06    4.16 
  -5  -7 -11  271.84   12.32 
  -5  -7 -11  281.52   10.95 
  -5  -7 -11  287.86   10.26 
  -5  -7 -11  277.23   12.55 
  -5  -7 -11  312.24   11.71 
  -5  -7 -10   17.73    2.44 
  -5  -7 -10   19.21    2.42 
  -5  -7 -10   19.72    2.82 
  -5  -7 -10   17.85    3.32 
  -5  -7  -9   34.19    3.11 
  -5  -7  -9   32.35    3.42 
  -5  -7  -9   28.40    3.00 
  -5  -7  -8   68.52    4.73 
  -5  -7  -8   66.18    3.38 
  -5  -7  -8   73.25    4.57 
  -5  -7  -7   79.29    4.72 
  -5  -7  -7   68.92    3.44 
  -5  -7  -7   83.94    5.08 
  -5  -7  -6  369.47   12.91 
  -5  -7  -6  354.94   12.51 
  -5  -7  -6  375.94   10.23 
  -5  -7  -5 1521.48   37.47 
  -5  -7  -5 1539.51   39.92 
  -5  -7  -5 1570.27   40.45 
  -5  -7  -4    2.61    1.33 
  -5  -7  -4    2.32    1.18 
  -5  -7  -4    3.78    1.31 
  -5  -7  -4    3.67    1.67 
  -5  -7  -4    2.70    1.60 
  -5  -7  -3   19.26    2.42 
  -5  -7  -3   14.70    2.50 
  -5  -7  -3   11.88    2.07 
  -5  -7  -3   18.37    1.99 
  -5  -7  -3   15.77    2.49 
  -5  -7  -3   17.85    2.03 
  -5  -7  -2  119.92    5.99 
  -5  -7  -2  113.59    5.18 
  -5  -7  -2  106.22    5.19 
  -5  -7  -2  113.57    5.48 
  -5  -7  -1  272.08    9.27 
  -5  -7  -1  265.73    9.61 
  -5  -7   0    7.53    1.52 
  -5  -7   0   12.29    2.65 
  -5  -7   0   10.19    2.02 
  -5  -7   0    7.59    1.46 
  -5  -7   0    6.74    1.77 
  -5  -7   1  157.35    7.03 
  -5  -7   1  153.10    5.96 
  -5  -7   1  154.29    7.23 
  -5  -7   1  152.19    5.63 
  -5  -7   2   25.73    1.78 
  -5  -7   2   24.45    1.98 
  -5  -7   2   28.40    2.94 
  -5  -7   3   -0.26    1.22 
  -5  -7   3    1.56    1.46 
  -5  -7   3    0.09    0.77 
  -5  -7   4  214.32    8.73 
  -5  -7   4  227.58    8.83 
  -5  -7   5  124.37    6.23 
  -5  -7   5  129.60    6.16 
  -5  -7   5  113.93    6.38 
  -5  -7   6   43.94    3.44 
  -5  -7   6   41.85    3.70 
  -5  -7   6   44.20    3.38 
  -5  -7   7   13.68    2.03 
  -5  -6 -12  121.14    6.59 
  -5  -6 -12  129.18    7.96 
  -5  -6 -12  126.78    7.84 
  -5  -6 -11  326.30   13.55 
  -5  -6 -11  354.20   11.28 
  -5  -6 -11  346.66   12.37 
  -5  -6 -11  338.30   13.95 
  -5  -6 -10   52.75    4.88 
  -5  -6 -10   43.45    3.71 
  -5  -6 -10   45.75    4.56 
  -5  -6 -10   46.46    3.31 
  -5  -6  -9    0.52    1.53 
  -5  -6  -9    0.47    0.69 
  -5  -6  -9    0.23    1.13 
  -5  -6  -9    1.52    1.96 
  -5  -6  -9   -0.23    1.21 
  -5  -6  -9   -0.36    2.01 
  -5  -6  -8   77.91    5.33 
  -5  -6  -8   82.83    3.91 
  -5  -6  -8   79.34    4.56 
  -5  -6  -8   72.04    2.45 
  -5  -6  -8   79.28    5.60 
  -5  -6  -8   75.33    4.38 
  -5  -6  -8   71.65    4.48 
  -5  -6  -7  747.32   22.34 
  -5  -6  -7  757.79   21.19 
  -5  -6  -7  751.79   18.36 
  -5  -6  -7  771.04   21.16 
  -5  -6  -7  732.13   21.06 
  -5  -6  -7  726.70   19.63 
  -5  -6  -7  725.64   21.30 
  -5  -6  -6   59.27    3.98 
  -5  -6  -6   59.30    4.02 
  -5  -6  -6   55.81    3.16 
  -5  -6  -6   60.78    3.95 
  -5  -6  -6   63.07    2.77 
  -5  -6  -6   61.76    4.18 
  -5  -6  -6   65.66    4.62 
  -5  -6  -5 1232.35   31.52 
  -5  -6  -5 1195.51   29.21 
  -5  -6  -5 1182.59   31.33 
  -5  -6  -5 1126.79   31.50 
  -5  -6  -4  654.27   18.90 
  -5  -6  -4  653.30   17.28 
  -5  -6  -4  678.43   19.25 
  -5  -6  -4  617.51   19.02 
  -5  -6  -3  127.67    5.24 
  -5  -6  -3  118.43    6.07 
  -5  -6  -3  125.98    5.08 
  -5  -6  -3  124.31    6.08 
  -5  -6  -3  122.37    5.86 
  -5  -6  -3  116.56    5.70 
  -5  -6  -2  521.04   14.78 
  -5  -6  -2  542.13   14.88 
  -5  -6  -2  498.21   15.86 
  -5  -6  -2  490.09   15.49 
  -5  -6  -2  500.80   15.16 
  -5  -6  -1  462.05   13.83 
  -5  -6  -1  476.39   14.04 
  -5  -6  -1  461.11   14.07 
  -5  -6   0  310.86   11.25 
  -5  -6   0  314.12   10.82 
  -5  -6   0  338.11   10.22 
  -5  -6   0  329.36   11.04 
  -5  -6   1  118.46    6.61 
  -5  -6   1  124.34    5.99 
  -5  -6   1  115.98    4.81 
  -5  -6   1  119.64    5.76 
  -5  -6   1  117.97    4.74 
  -5  -6   1  120.75    5.99 
  -5  -6   1  116.72    5.83 
  -5  -6   2  208.72    8.74 
  -5  -6   2  202.72    6.58 
  -5  -6   2  205.67    9.41 
  -5  -6   2  221.74    8.37 
  -5  -6   2  219.68    6.70 
  -5  -6   2  215.09    8.35 
  -5  -6   2  200.26    8.30 
  -5  -6   3   12.51    1.91 
  -5  -6   3   12.00    2.04 
  -5  -6   3   10.02    1.85 
  -5  -6   3   10.66    1.01 
  -5  -6   4    2.98    1.24 
  -5  -6   4    4.91    1.50 
  -5  -6   5    9.58    1.76 
  -5  -6   5    8.91    1.77 
  -5  -6   6  171.29    7.08 
  -5  -6   6  167.55    6.90 
  -5  -6   7    1.16    1.13 
  -5  -6   7    1.21    1.25 
  -5  -6   7    0.48    1.32 
  -5  -5 -12   42.51    4.55 
  -5  -5 -12   45.41    4.64 
  -5  -5 -11  356.37   10.78 
  -5  -5 -11  341.23   13.55 
  -5  -5 -11  329.37   11.56 
  -5  -5 -11  311.80   12.99 
  -5  -5 -10   77.50    3.94 
  -5  -5 -10   71.00    5.56 
  -5  -5 -10   85.95    4.70 
  -5  -5 -10   81.68    4.37 
  -5  -5 -10   80.67    5.65 
  -5  -5 -10   80.90    4.24 
  -5  -5  -9    8.72    1.70 
  -5  -5  -9    8.14    1.32 
  -5  -5  -9    8.46    1.64 
  -5  -5  -9    9.59    2.24 
  -5  -5  -9    9.75    2.45 
  -5  -5  -9    9.86    1.77 
  -5  -5  -9    9.49    1.59 
  -5  -5  -8   63.02    4.76 
  -5  -5  -8   61.33    4.82 
  -5  -5  -8   68.75    3.88 
  -5  -5  -8   64.47    2.72 
  -5  -5  -8   63.95    3.97 
  -5  -5  -8   59.95    3.74 
  -5  -5  -8   61.74    2.68 
  -5  -5  -8   69.01    4.14 
  -5  -5  -7 1056.67   27.90 
  -5  -5  -7 1058.84   27.56 
  -5  -5  -7 1043.61   26.33 
  -5  -5  -7 1075.41   25.99 
  -5  -5  -7 1066.60   25.09 
  -5  -5  -7 1032.84   23.70 
  -5  -5  -7 1067.34   25.63 
  -5  -5  -7 1075.97   26.14 
  -5  -5  -7  918.15   22.39 
  -5  -5  -6  304.12   10.68 
  -5  -5  -6  301.76    8.72 
  -5  -5  -6  307.79   11.27 
  -5  -5  -6  302.74   10.26 
  -5  -5  -6  278.59   11.13 
  -5  -5  -6  312.10   10.03 
  -5  -5  -6  316.35   10.48 
  -5  -5  -6  317.98    9.59 
  -5  -5  -5  355.36   11.68 
  -5  -5  -5  327.53    9.70 
  -5  -5  -5  352.05   11.32 
  -5  -5  -5  356.17   11.96 
  -5  -5  -5  338.10   10.26 
  -5  -5  -5  346.99   10.90 
  -5  -5  -5  339.99   11.29 
  -5  -5  -4  741.43   20.20 
  -5  -5  -4  693.77   20.31 
  -5  -5  -4  701.47   18.58 
  -5  -5  -4  688.05   18.85 
  -5  -5  -4  735.34   20.21 
  -5  -5  -4  760.25   20.03 
  -5  -5  -3  371.71   12.03 
  -5  -5  -3  365.91   12.04 
  -5  -5  -3  372.34   10.99 
  -5  -5  -3  374.34   12.38 
  -5  -5  -3  406.47   12.27 
  -5  -5  -2  105.43    5.18 
  -5  -5  -2  105.95    5.43 
  -5  -5  -2  119.38    5.51 
  -5  -5  -2  113.42    5.19 
  -5  -5  -2  108.12    4.68 
  -5  -5  -1 2078.53   51.59 
  -5  -5  -1 2082.49   50.94 
  -5  -5  -1 2062.16   50.82 
  -5  -5  -1 2110.36   51.56 
  -5  -5  -1 2083.27   50.84 
  -5  -5   0  307.22   10.35 
  -5  -5   0  323.22    9.80 
  -5  -5   0  310.93    9.55 
  -5  -5   0  298.33   10.19 
  -5  -5   1   97.16    5.14 
  -5  -5   1  107.51    5.29 
  -5  -5   1   99.67    4.94 
  -5  -5   1  106.61    4.40 
  -5  -5   1  106.19    5.32 
  -5  -5   1  102.79    5.10 
  -5  -5   1   97.13    4.09 
  -5  -5   2  144.42    7.23 
  -5  -5   2  139.72    6.08 
  -5  -5   2  142.70    5.04 
  -5  -5   2  141.02    6.53 
  -5  -5   2  129.89    6.14 
  -5  -5   2  135.11    4.64 
  -5  -5   2  140.28    4.59 
  -5  -5   2  132.31    6.07 
  -5  -5   3  185.45    7.23 
  -5  -5   3  176.47    8.45 
  -5  -5   3  165.60    7.58 
  -5  -5   3  176.49    4.64 
  -5  -5   3  165.16    6.89 
  -5  -5   3  165.65    7.16 
  -5  -5   4    4.02    1.35 
  -5  -5   4    0.62    1.07 
  -5  -5   4    2.96    1.31 
  -5  -5   5   31.03    2.74 
  -5  -5   5   27.23    2.71 
  -5  -5   5   31.13    2.59 
  -5  -5   6  180.52    6.98 
  -5  -5   6  185.24    7.21 
  -5  -5   7  163.07    6.43 
  -5  -5   7  164.84    6.36 
  -5  -5   8    1.22    0.95 
  -5  -5   8    0.57    1.14 
  -5  -4 -12   49.11    4.65 
  -5  -4 -12   40.65    4.34 
  -5  -4 -11   89.91    6.12 
  -5  -4 -11   80.75    5.71 
  -5  -4 -11   81.53    4.83 
  -5  -4 -10  201.13    9.28 
  -5  -4 -10  188.88    6.91 
  -5  -4 -10  181.47    7.05 
  -5  -4 -10  185.80    7.38 
  -5  -4 -10  196.35    8.96 
  -5  -4  -9    3.39    1.29 
  -5  -4  -9    1.64    1.05 
  -5  -4  -9    3.58    1.79 
  -5  -4  -9    3.25    1.14 
  -5  -4  -9    1.43    1.11 
  -5  -4  -9    2.44    1.09 
  -5  -4  -9    3.77    1.85 
  -5  -4  -8   63.13    3.87 
  -5  -4  -8   62.79    4.62 
  -5  -4  -8   59.83    3.29 
  -5  -4  -8   60.35    4.65 
  -5  -4  -8   57.03    3.56 
  -5  -4  -8   61.02    3.03 
  -5  -4  -8   67.85    3.68 
  -5  -4  -8   60.58    3.15 
  -5  -4  -7 1128.01   28.29 
  -5  -4  -7 1117.18   27.87 
  -5  -4  -7 1122.18   27.55 
  -5  -4  -7 1189.87   29.82 
  -5  -4  -7 1142.94   31.24 
  -5  -4  -7 1196.01   29.63 
  -5  -4  -7 1160.49   28.71 
  -5  -4  -7 1144.13   29.96 
  -5  -4  -7 1136.24   31.43 
  -5  -4  -6  253.68    8.71 
  -5  -4  -6  239.04    6.52 
  -5  -4  -6  255.82    8.87 
  -5  -4  -6  248.17    9.76 
  -5  -4  -6  251.42    7.69 
  -5  -4  -6  246.18    6.70 
  -5  -4  -6  250.02    8.98 
  -5  -4  -6  246.54    7.96 
  -5  -4  -6  258.53    9.75 
  -5  -4  -5   28.62    2.53 
  -5  -4  -5   26.96    2.39 
  -5  -4  -5   27.92    2.81 
  -5  -4  -5   24.32    2.66 
  -5  -4  -5   26.26    2.50 
  -5  -4  -5   27.59    2.06 
  -5  -4  -5   26.46    1.94 
  -5  -4  -5   28.00    2.23 
  -5  -4  -4  279.82    8.68 
  -5  -4  -4  248.38    9.25 
  -5  -4  -4  262.84    8.22 
  -5  -4  -4  279.69    9.77 
  -5  -4  -4  274.97    9.25 
  -5  -4  -4  263.54    8.52 
  -5  -4  -4  271.10    9.30 
  -5  -4  -3  531.06   14.80 
  -5  -4  -3  541.86   14.62 
  -5  -4  -3  515.25   15.43 
  -5  -4  -3  524.63   15.74 
  -5  -4  -3  543.39   15.61 
  -5  -4  -2   61.05    3.36 
  -5  -4  -2   71.21    4.15 
  -5  -4  -2   71.36    3.94 
  -5  -4  -2   77.24    4.14 
  -5  -4  -2   76.81    3.95 
  -5  -4  -1 1325.67   33.71 
  -5  -4  -1 1410.28   33.50 
  -5  -4  -1 1320.62   33.05 
  -5  -4  -1 1286.25   33.96 
  -5  -4  -1 1287.09   33.13 
  -5  -4  -1 1291.41   33.75 
  -5  -4   0 1754.26   44.62 
  -5  -4   0 1788.97   43.59 
  -5  -4   0 1874.67   44.19 
  -5  -4   0 1790.00   44.48 
  -5  -4   1  161.21    6.86 
  -5  -4   1  177.31    6.90 
  -5  -4   1  165.14    6.68 
  -5  -4   1  167.40    5.55 
  -5  -4   1  176.80    6.20 
  -5  -4   1  168.70    6.90 
  -5  -4   2  356.21   12.02 
  -5  -4   2  364.04   11.40 
  -5  -4   2  366.94   10.51 
  -5  -4   2  352.81   11.65 
  -5  -4   2  361.51    9.53 
  -5  -4   2  352.55   11.72 
  -5  -4   2  363.22   11.49 
  -5  -4   3  102.00    5.04 
  -5  -4   3   95.11    2.66 
  -5  -4   3   95.81    5.26 
  -5  -4   3  104.58    4.90 
  -5  -4   3  104.51    4.81 
  -5  -4   4   56.47    3.70 
  -5  -4   4   57.60    3.55 
  -5  -4   4   56.65    3.50 
  -5  -4   4   59.81    4.65 
  -5  -4   4   54.68    4.09 
  -5  -4   5    7.49    1.47 
  -5  -4   5    8.87    1.46 
  -5  -4   5   10.69    1.71 
  -5  -4   6  310.47    9.92 
  -5  -4   6  294.60   10.18 
  -5  -4   6  319.40   10.11 
  -5  -4   7  146.48    6.17 
  -5  -4   7  152.88    6.04 
  -5  -4   7  160.36    6.04 
  -5  -4   8   -0.30    0.84 
  -5  -3 -12    1.64    1.97 
  -5  -3 -12    4.18    2.14 
  -5  -3 -12    2.78    2.02 
  -5  -3 -11    2.02    1.74 
  -5  -3 -11    0.75    1.88 
  -5  -3 -10    0.32    0.84 
  -5  -3 -10    0.65    1.51 
  -5  -3 -10    1.42    1.72 
  -5  -3  -9  187.16    8.47 
  -5  -3  -9  189.60    6.90 
  -5  -3  -9  197.04    8.92 
  -5  -3  -9  193.68    7.08 
  -5  -3  -9  187.00    6.36 
  -5  -3  -8    3.75    1.74 
  -5  -3  -8    5.84    1.29 
  -5  -3  -8    4.36    1.84 
  -5  -3  -8    2.70    0.88 
  -5  -3  -8    4.97    1.42 
  -5  -3  -8    3.52    1.03 
  -5  -3  -8    2.39    1.11 
  -5  -3  -7  824.62   21.71 
  -5  -3  -7  858.97   23.17 
  -5  -3  -7  845.10   24.53 
  -5  -3  -7  882.58   24.49 
  -5  -3  -7  890.36   23.01 
  -5  -3  -7  844.15   21.25 
  -5  -3  -7  891.24   22.86 
  -5  -3  -6  163.77    6.69 
  -5  -3  -6  172.44    6.07 
  -5  -3  -6  165.30    5.38 
  -5  -3  -6  173.06    6.55 
  -5  -3  -6  161.40    5.19 
  -5  -3  -6  164.67    7.43 
  -5  -3  -6  175.10    7.44 
  -5  -3  -6  167.45    6.56 
  -5  -3  -5    2.40    0.87 
  -5  -3  -5    1.19    1.15 
  -5  -3  -5    2.29    1.17 
  -5  -3  -5    0.98    1.12 
  -5  -3  -5    1.29    0.92 
  -5  -3  -5    1.48    0.64 
  -5  -3  -5    1.96    0.63 
  -5  -3  -5    1.01    1.11 
  -5  -3  -4  107.03    3.51 
  -5  -3  -4  101.59    4.37 
  -5  -3  -4  113.23    5.09 
  -5  -3  -4  108.04    4.91 
  -5  -3  -4  103.75    5.19 
  -5  -3  -4  102.56    5.22 
  -5  -3  -4  106.64    5.09 
  -5  -3  -4  110.50    4.71 
  -5  -3  -3  334.62   10.20 
  -5  -3  -3  342.32    9.03 
  -5  -3  -3  357.10   11.09 
  -5  -3  -3  340.05   10.85 
  -5  -3  -3  346.26   11.14 
  -5  -3  -3  344.57   10.43 
  -5  -3  -2  447.08   13.14 
  -5  -3  -2  444.38   11.29 
  -5  -3  -2  441.09   12.99 
  -5  -3  -2  416.13   12.31 
  -5  -3  -1  153.14    5.92 
  -5  -3  -1  155.75    5.18 
  -5  -3  -1  149.56    6.25 
  -5  -3  -1  163.39    5.90 
  -5  -3  -1  153.83    6.18 
  -5  -3   0  806.80   22.96 
  -5  -3   0  876.11   22.87 
  -5  -3   0  885.96   22.15 
  -5  -3   0  840.63   23.01 
  -5  -3   0  909.86   22.82 
  -5  -3   1  686.09   18.88 
  -5  -3   1  669.70   19.07 
  -5  -3   1  688.06   17.52 
  -5  -3   1  690.37   18.41 
  -5  -3   2   21.98    1.42 
  -5  -3   2   18.56    1.79 
  -5  -3   2   21.26    2.26 
  -5  -3   2   19.63    2.15 
  -5  -3   2   21.78    2.13 
  -5  -3   2   22.22    2.47 
  -5  -3   2   19.59    2.09 
  -5  -3   3  481.48   14.54 
  -5  -3   3  489.05   13.95 
  -5  -3   3  473.01   11.67 
  -5  -3   3  463.84   14.79 
  -5  -3   3  478.26   14.02 
  -5  -3   3  451.92   14.11 
  -5  -3   4  738.44   19.65 
  -5  -3   4  664.08   20.26 
  -5  -3   4  710.74   19.80 
  -5  -3   4  690.55   21.03 
  -5  -3   4  738.51   19.53 
  -5  -3   5   45.16    2.90 
  -5  -3   5   35.58    2.90 
  -5  -3   5   34.93    3.63 
  -5  -3   5   41.20    2.92 
  -5  -3   6   73.45    3.98 
  -5  -3   6   84.80    4.10 
  -5  -3   6   76.37    4.17 
  -5  -3   7  179.64    6.47 
  -5  -3   7  163.97    6.56 
  -5  -3   8   18.64    1.97 
  -5  -3   8   22.13    1.95 
  -5  -3   9   11.85    1.47 
  -5  -2 -12  143.85    7.46 
  -5  -2 -12  141.67    8.07 
  -5  -2 -11   39.71    4.26 
  -5  -2 -11   39.48    3.80 
  -5  -2 -10   36.06    3.76 
  -5  -2 -10   33.52    3.47 
  -5  -2  -9    1.66    1.71 
  -5  -2  -9    0.87    1.43 
  -5  -2  -9    1.36    1.03 
  -5  -2  -8  166.10    4.67 
  -5  -2  -8  172.48    7.63 
  -5  -2  -8  153.67    6.32 
  -5  -2  -8  169.29    7.89 
  -5  -2  -8  166.42    6.39 
  -5  -2  -8  174.91    6.70 
  -5  -2  -7    9.97    2.09 
  -5  -2  -7   11.01    1.63 
  -5  -2  -7    9.78    1.48 
  -5  -2  -7    9.57    1.64 
  -5  -2  -7   11.56    2.20 
  -5  -2  -7    8.36    1.53 
  -5  -2  -6  252.55    8.01 
  -5  -2  -6  240.29    9.64 
  -5  -2  -6  266.70    8.86 
  -5  -2  -6  255.18    8.64 
  -5  -2  -6  243.86    9.38 
  -5  -2  -5  141.88    5.17 
  -5  -2  -5  149.44    6.07 
  -5  -2  -5  144.98    6.50 
  -5  -2  -5  157.37    6.10 
  -5  -2  -5  142.52    6.62 
  -5  -2  -4    0.22    0.99 
  -5  -2  -4    0.74    0.81 
  -5  -2  -4    1.57    0.90 
  -5  -2  -4    1.19    0.75 
  -5  -2  -4    1.57    1.19 
  -5  -2  -4    0.38    0.83 
  -5  -2  -3   92.65    4.51 
  -5  -2  -3   94.54    3.68 
  -5  -2  -3   97.79    4.39 
  -5  -2  -3   93.22    4.25 
  -5  -2  -3   86.24    4.45 
  -5  -2  -3  103.95    4.90 
  -5  -2  -2  382.99   11.44 
  -5  -2  -2  380.91   11.40 
  -5  -2  -2  383.61   11.89 
  -5  -2  -2  382.58   11.78 
  -5  -2  -2  389.13   10.64 
  -5  -2  -2  373.04   11.82 
  -5  -2  -1   19.00    1.68 
  -5  -2  -1   14.28    1.64 
  -5  -2  -1   18.09    1.93 
  -5  -2  -1   18.80    2.08 
  -5  -2  -1   17.83    1.81 
  -5  -2  -1   18.15    1.88 
  -5  -2   0  107.73    4.87 
  -5  -2   0  103.42    4.85 
  -5  -2   0  101.60    4.39 
  -5  -2   0  102.97    4.27 
  -5  -2   0  100.25    4.61 
  -5  -2   1  863.80   21.74 
  -5  -2   1  833.26   22.70 
  -5  -2   1  862.29   22.60 
  -5  -2   1  866.42   22.55 
  -5  -2   2   84.97    4.35 
  -5  -2   2   88.82    4.49 
  -5  -2   2   92.90    4.71 
  -5  -2   2   89.51    4.54 
  -5  -2   2   89.04    3.50 
  -5  -2   3   73.32    4.17 
  -5  -2   3   72.45    2.85 
  -5  -2   3   72.86    3.86 
  -5  -2   3   70.63    3.87 
  -5  -2   3   70.69    4.32 
  -5  -2   4  973.01   23.26 
  -5  -2   4  978.21   26.86 
  -5  -2   4 1004.32   25.63 
  -5  -2   4  955.98   25.65 
  -5  -2   5  597.87   17.84 
  -5  -2   5  563.79   16.24 
  -5  -2   5  584.85   16.17 
  -5  -2   6   11.07    2.60 
  -5  -2   6   10.71    1.60 
  -5  -2   6   11.17    1.72 
  -5  -2   7  247.37    8.77 
  -5  -2   7  260.48   10.63 
  -5  -2   7  267.03    8.72 
  -5  -2   8   13.13    1.65 
  -5  -2   8   11.81    1.68 
  -5  -2   9   14.36    1.61 
  -5  -1 -11  182.86    9.12 
  -5  -1 -11  179.47    8.26 
  -5  -1 -10    5.30    1.94 
  -5  -1 -10    4.68    2.28 
  -5  -1  -9  197.96    7.06 
  -5  -1  -9  184.58    8.07 
  -5  -1  -8    6.08    1.66 
  -5  -1  -8    6.05    1.98 
  -5  -1  -8   10.08    1.62 
  -5  -1  -8    7.63    1.89 
  -5  -1  -7   11.79    1.74 
  -5  -1  -7   10.40    2.14 
  -5  -1  -7   10.71    2.17 
  -5  -1  -7   10.24    1.64 
  -5  -1  -6   54.83    3.28 
  -5  -1  -6   55.98    4.13 
  -5  -1  -6   66.05    4.19 
  -5  -1  -6   56.25    3.50 
  -5  -1  -5  348.07   10.54 
  -5  -1  -5  359.97   11.73 
  -5  -1  -5  335.39   10.96 
  -5  -1  -5  342.70   11.92 
  -5  -1  -4  379.45   11.85 
  -5  -1  -4  369.19   12.39 
  -5  -1  -4  387.84   12.33 
  -5  -1  -4  381.42   11.13 
  -5  -1  -3   90.98    4.51 
  -5  -1  -3   84.32    3.83 
  -5  -1  -3   79.05    4.34 
  -5  -1  -3   83.14    4.53 
  -5  -1  -3   85.39    4.56 
  -5  -1  -2  558.64   16.30 
  -5  -1  -2  564.48   15.76 
  -5  -1  -2  558.33   15.26 
  -5  -1  -2  565.44   16.15 
  -5  -1  -2  559.80   15.82 
  -5  -1  -2  562.65   16.31 
  -5  -1  -1  683.39   19.02 
  -5  -1  -1  682.90   19.19 
  -5  -1  -1  675.51   18.59 
  -5  -1  -1  716.57   19.20 
  -5  -1  -1  665.01   18.18 
  -5  -1  -1  696.08   18.74 
  -5  -1   0  235.20    7.85 
  -5  -1   0  230.44    7.92 
  -5  -1   0  230.55    8.37 
  -5  -1   0  203.15    7.96 
  -5  -1   0  237.91    8.04 
  -5  -1   0  237.18    8.33 
  -5  -1   0  236.20    7.78 
  -5  -1   1  273.38    9.09 
  -5  -1   1  267.87    9.06 
  -5  -1   1  261.73    9.14 
  -5  -1   1  274.81    8.55 
  -5  -1   2  110.05    5.12 
  -5  -1   2  112.31    4.48 
  -5  -1   2  120.80    5.42 
  -5  -1   3   18.78    2.29 
  -5  -1   3   15.45    1.55 
  -5  -1   3   13.13    1.72 
  -5  -1   4  814.77   21.46 
  -5  -1   4  779.63   19.87 
  -5  -1   4  767.63   22.32 
  -5  -1   5  901.02   25.60 
  -5  -1   5  944.40   25.44 
  -5  -1   5  939.54   24.53 
  -5  -1   5  895.86   25.09 
  -5  -1   6  118.20    5.91 
  -5  -1   6  103.66    5.85 
  -5  -1   6  122.19    5.36 
  -5  -1   7   97.53    4.70 
  -5  -1   7   95.83    5.70 
  -5  -1   8  151.76    6.28 
  -5  -1   8  171.70    6.47 
  -5  -1   8  151.11    7.71 
  -5  -1   9  112.34    5.02 
  -5  -1   9  122.00    4.96 
  -5   0 -10  224.49   10.38 
  -5   0 -10  226.01    9.28 
  -5   0  -9   28.99    3.53 
  -5   0  -9   22.00    2.85 
  -5   0  -8  422.80   12.87 
  -5   0  -8  425.19   14.03 
  -5   0  -8  422.45   14.84 
  -5   0  -7  121.65    6.56 
  -5   0  -7  109.82    5.82 
  -5   0  -7  109.23    5.58 
  -5   0  -7  109.67    5.34 
  -5   0  -6   10.71    2.20 
  -5   0  -6    8.37    1.63 
  -5   0  -6    5.04    1.73 
  -5   0  -6    8.75    1.70 
  -5   0  -5   68.05    4.02 
  -5   0  -5   80.29    4.60 
  -5   0  -5   76.61    4.88 
  -5   0  -5   76.49    4.32 
  -5   0  -4   13.70    1.92 
  -5   0  -4   12.00    1.77 
  -5   0  -4   11.85    2.14 
  -5   0  -4   13.22    1.99 
  -5   0  -3  155.25    6.57 
  -5   0  -3  142.70    6.56 
  -5   0  -3  150.39    5.97 
  -5   0  -3  150.37    6.44 
  -5   0  -2  501.77   14.23 
  -5   0  -2  497.00   14.96 
  -5   0  -2  517.23   14.99 
  -5   0  -2  469.74   14.18 
  -5   0  -2  480.82   14.85 
  -5   0  -1 1893.32   48.11 
  -5   0  -1 1922.27   47.64 
  -5   0  -1 1993.24   48.34 
  -5   0  -1 1945.60   47.41 
  -5   0   0  272.02    8.98 
  -5   0   0  256.21    8.92 
  -5   0   0  268.42    9.43 
  -5   0   0  261.08    8.92 
  -5   0   1   62.38    3.51 
  -5   0   1   61.23    3.71 
  -5   0   1   62.03    3.84 
  -5   0   1   56.19    3.53 
  -5   0   2  363.33   10.93 
  -5   0   2  346.77   11.63 
  -5   0   3  753.51   21.02 
  -5   0   3  750.05   20.09 
  -5   0   3  774.40   21.12 
  -5   0   3  750.90   21.50 
  -5   0   4   48.39    3.83 
  -5   0   4   57.43    3.81 
  -5   0   4   55.77    3.62 
  -5   0   4   42.96    2.79 
  -5   0   4   50.36    3.44 
  -5   0   5  535.53   15.74 
  -5   0   5  515.69   16.75 
  -5   0   5  509.47   15.79 
  -5   0   5  524.00   14.61 
  -5   0   5  554.76   15.94 
  -5   0   5  531.15   16.28 
  -5   0   6  176.09    7.06 
  -5   0   6  163.04    7.26 
  -5   0   6  177.97    7.31 
  -5   0   6  166.89    7.68 
  -5   0   7   64.39    4.36 
  -5   0   7   65.45    4.37 
  -5   0   7   69.52    4.05 
  -5   0   8  184.34    8.29 
  -5   0   8  222.69    7.82 
  -5   0   9  369.06   11.43 
  -5   0  10   18.10    1.86 
  -5   1 -10   49.16    4.78 
  -5   1  -9    9.49    2.10 
  -5   1  -9   12.22    2.80 
  -5   1  -8   78.87    5.54 
  -5   1  -8   73.93    4.23 
  -5   1  -8   71.01    4.76 
  -5   1  -7  752.46   21.46 
  -5   1  -7  722.01   22.41 
  -5   1  -7  731.03   20.59 
  -5   1  -6   86.15    5.08 
  -5   1  -6   81.25    4.80 
  -5   1  -6   84.34    5.53 
  -5   1  -6   87.32    4.72 
  -5   1  -5  205.28    8.36 
  -5   1  -5  195.58    8.03 
  -5   1  -5  210.59    8.26 
  -5   1  -5  200.31    8.87 
  -5   1  -4   72.06    4.50 
  -5   1  -4   78.85    4.64 
  -5   1  -4   77.34    4.46 
  -5   1  -4   78.04    5.01 
  -5   1  -3    1.91    1.23 
  -5   1  -3    0.98    1.14 
  -5   1  -3    0.27    1.39 
  -5   1  -3    2.00    1.31 
  -5   1  -2  197.03    8.05 
  -5   1  -2  192.88    7.98 
  -5   1  -2  191.26    7.46 
  -5   1  -1  369.52   11.73 
  -5   1  -1  357.40   12.13 
  -5   1   0  534.26   15.65 
  -5   1   0  517.02   15.46 
  -5   1   0  549.92   16.33 
  -5   1   0  516.65   15.12 
  -5   1   1  116.77    5.40 
  -5   1   1  111.90    5.08 
  -5   1   1  114.18    5.56 
  -5   1   1  124.24    5.99 
  -5   1   1  121.74    5.58 
  -5   1   2  499.45   14.81 
  -5   1   2  495.97   15.33 
  -5   1   3  675.78   18.45 
  -5   1   3  657.18   19.28 
  -5   1   3  618.73   18.33 
  -5   1   4  214.50    7.88 
  -5   1   4  201.14    7.93 
  -5   1   4  213.80    8.40 
  -5   1   4  216.60    8.20 
  -5   1   4  206.13    8.77 
  -5   1   5  286.67    9.54 
  -5   1   5  285.22    9.36 
  -5   1   5  281.90   10.18 
  -5   1   5  264.24    9.92 
  -5   1   5  273.50    9.81 
  -5   1   5  260.62   10.66 
  -5   1   6  461.67   13.66 
  -5   1   6  465.17   14.43 
  -5   1   6  455.12   14.32 
  -5   1   6  421.38   14.44 
  -5   1   7   33.29    3.13 
  -5   1   7   29.83    2.73 
  -5   1   7   23.09    2.51 
  -5   1   8   43.51    3.22 
  -5   1   8   42.02    3.33 
  -5   1   9  228.91    8.44 
  -5   1  10   46.87    3.22 
  -5   1  11    0.89    1.10 
  -5   2  -9   58.28    5.32 
  -5   2  -8   19.84    3.49 
  -5   2  -7  109.34    5.72 
  -5   2  -7  124.93    7.28 
  -5   2  -6  176.78    8.69 
  -5   2  -6  169.33    7.45 
  -5   2  -5    0.34    1.77 
  -5   2  -5    0.26    1.27 
  -5   2  -4  426.06   14.56 
  -5   2  -4  399.15   13.50 
  -5   2  -4  396.42   13.32 
  -5   2  -3  257.35    9.93 
  -5   2  -3  264.84   10.11 
  -5   2  -3  285.27   10.81 
  -5   2  -2   16.20    2.34 
  -5   2  -2   13.40    2.15 
  -5   2  -2   17.05    2.57 
  -5   2  -1  168.36    6.78 
  -5   2  -1  177.06    7.90 
  -5   2  -1  172.59    7.30 
  -5   2  -1  182.35    7.90 
  -5   2   0    6.99    1.81 
  -5   2   0   10.01    2.05 
  -5   2   0    8.92    1.58 
  -5   2   1  189.33    7.88 
  -5   2   1  199.05    8.36 
  -5   2   1  179.76    7.01 
  -5   2   2    0.25    1.39 
  -5   2   2    0.78    1.37 
  -5   2   2   -0.29    1.33 
  -5   2   3  689.62   20.37 
  -5   2   3  662.05   19.31 
  -5   2   3  705.28   19.91 
  -5   2   4  135.36    6.14 
  -5   2   4  134.62    6.08 
  -5   2   4  135.60    6.51 
  -5   2   4  136.11    6.34 
  -5   2   4  129.75    6.79 
  -5   2   5   88.05    4.95 
  -5   2   5   85.59    4.76 
  -5   2   5   82.21    3.96 
  -5   2   5   84.47    4.82 
  -5   2   5   83.44    5.00 
  -5   2   6  102.41    4.48 
  -5   2   6   95.65    5.38 
  -5   2   6   93.54    5.24 
  -5   2   6   94.84    5.16 
  -5   2   7  211.36    8.66 
  -5   2   7  221.55    9.07 
  -5   2   7  220.58    7.69 
  -5   2   7  238.48    9.08 
  -5   2   8    0.51    1.30 
  -5   2   9  246.27    9.38 
  -5   2  10  274.23   10.11 
  -5   2  10  286.48   10.36 
  -5   2  11   39.50    3.20 
  -5   3  -8   69.80    5.83 
  -5   3  -7   32.87    3.31 
  -5   3  -7   38.42    4.52 
  -5   3  -6   37.29    4.14 
  -5   3  -6   33.76    3.40 
  -5   3  -5  133.94    6.71 
  -5   3  -5  125.68    7.42 
  -5   3  -4    1.78    1.38 
  -5   3  -4    5.49    2.41 
  -5   3  -3  436.28   14.51 
  -5   3  -3  416.68   15.17 
  -5   3  -2  234.88   10.05 
  -5   3  -2  230.04    9.53 
  -5   3  -1  266.37   10.45 
  -5   3  -1  288.05   11.22 
  -5   3  -1  282.63   10.90 
  -5   3  -1  286.72    9.81 
  -5   3   0    1.81    1.53 
  -5   3   0   -0.55    1.73 
  -5   3   0    0.60    1.19 
  -5   3   1   42.77    3.07 
  -5   3   1   42.03    3.68 
  -5   3   2   29.29    3.22 
  -5   3   2   24.30    2.49 
  -5   3   2   24.94    3.03 
  -5   3   2   24.61    2.96 
  -5   3   2   28.08    2.56 
  -5   3   3   15.23    2.52 
  -5   3   3   19.51    2.68 
  -5   3   3   15.14    2.05 
  -5   3   4  673.71   20.18 
  -5   3   4  651.74   19.17 
  -5   3   5   25.98    2.95 
  -5   3   5   31.59    2.95 
  -5   3   5   33.05    3.34 
  -5   3   5   25.41    2.64 
  -5   3   5   29.11    2.05 
  -5   3   6    6.40    1.73 
  -5   3   6    5.79    1.74 
  -5   3   6    9.64    2.15 
  -5   3   6    8.29    1.93 
  -5   3   6    3.22    1.05 
  -5   3   7   23.86    2.76 
  -5   3   7   17.94    2.66 
  -5   3   8   42.59    3.64 
  -5   3   9    0.87    1.59 
  -5   3  10  346.23   12.41 
  -5   3  10  332.35   12.11 
  -5   4  -6   12.93    3.11 
  -5   4  -6    9.61    2.34 
  -5   4  -5   83.28    6.26 
  -5   4  -5   76.21    5.45 
  -5   4  -5   78.24    5.43 
  -5   4  -4   46.69    4.80 
  -5   4  -4   52.27    4.30 
  -5   4  -3   55.33    4.52 
  -5   4  -3   48.37    4.74 
  -5   4  -2  315.96   12.71 
  -5   4  -2  309.08   12.11 
  -5   4  -1   43.06    4.30 
  -5   4  -1   48.38    4.22 
  -5   4   0    7.17    2.17 
  -5   4   0    5.81    1.95 
  -5   4   0    4.10    1.39 
  -5   4   1   69.53    5.07 
  -5   4   1   60.58    3.83 
  -5   4   2   12.74    2.03 
  -5   4   2   10.62    2.34 
  -5   4   3    4.89    1.97 
  -5   4   3    6.84    2.05 
  -5   4   4    6.00    2.09 
  -5   4   5   40.54    3.26 
  -5   4   5   38.20    3.84 
  -5   4   5   40.33    3.81 
  -5   4   6  160.68    8.06 
  -5   4   6  148.28    6.82 
  -5   4   7  147.41    7.49 
  -5   4   7  131.68    6.44 
  -5   4   8  171.71    8.36 
  -5   4   9   44.32    4.15 
  -5   4   9   46.23    4.27 
  -5   5  -5   98.61    7.37 
  -5   5  -5   88.57    6.85 
  -5   5  -5   80.19    5.88 
  -5   5  -4  201.53   10.55 
  -5   5  -4  204.51    9.86 
  -5   5  -4  218.90   10.91 
  -5   5  -4  213.42   10.09 
  -5   5  -3    4.05    2.30 
  -5   5  -3    8.57    2.39 
  -5   5  -3   11.69    2.76 
  -5   5  -2   41.47    4.73 
  -5   5  -2   54.49    4.94 
  -5   5  -2   42.99    4.38 
  -5   5  -1   83.89    6.24 
  -5   5  -1   84.28    5.94 
  -5   5   0  278.18   12.24 
  -5   5   0  302.14   12.37 
  -5   5   1   57.46    5.09 
  -5   5   1   50.69    3.60 
  -5   5   1   55.86    4.94 
  -5   5   2  384.26   14.48 
  -5   5   2  366.77   11.93 
  -5   5   3    4.68    1.95 
  -5   5   3    4.89    2.11 
  -5   5   4   23.87    3.50 
  -5   5   4   15.56    1.31 
  -5   5   5    2.41    1.34 
  -5   5   5    0.83    1.86 
  -5   5   5    2.33    1.87 
  -5   5   6  127.22    7.34 
  -5   5   6  112.85    5.63 
  -5   5   6  128.94    7.73 
  -5   5   7   20.13    3.25 
  -5   5   7   18.76    2.61 
  -5   5   7   18.61    3.18 
  -5   5   8  198.93    9.52 
  -5   5   8  191.67    9.47 
  -5   5   9  285.11   11.94 
  -5   6  -3    3.59    2.66 
  -5   6  -3    0.88    2.12 
  -5   6  -3    1.02    2.75 
  -5   6  -2    5.45    2.39 
  -5   6  -2    0.40    2.28 
  -5   6  -2    0.44    2.14 
  -5   6  -1  126.82    8.16 
  -5   6  -1  134.59    7.33 
  -5   6  -1  115.47    7.58 
  -5   6   0  218.35   10.73 
  -5   6   0  217.08    9.29 
  -5   6   0  207.57   10.83 
  -5   6   1   -0.50    1.61 
  -5   6   1    0.47    2.68 
  -5   6   1    0.45    1.87 
  -5   6   2  283.55    9.74 
  -5   6   2  315.95   13.15 
  -5   6   3  239.15   11.42 
  -5   6   4   26.85    3.85 
  -5   6   5   21.34    3.52 
  -5   6   6   50.27    4.90 
  -5   6   7   -0.44    1.93 
  -5   6   8   44.63    4.58 
  -5   7   0  128.76    8.64 
  -5   7   0  120.70    8.25 
  -5   7   0  123.22    6.87 
  -5   7   1   -0.78    1.77 
  -5   7   1   -0.50    2.56 
  -5   7   1    0.54    2.39 
  -5   7   2  206.79   11.25 
  -5   7   2  214.56   11.15 
  -5   7   2  208.83    7.83 
  -5   7   3  138.02    8.59 
  -5   7   4  181.59   10.30 
  -5   7   4  170.43    9.87 
  -5   7   5   -0.53    2.13 
  -5   7   6  156.12    9.27 
  -4 -12  -6   12.17    3.29 
  -4 -12  -6   10.06    2.78 
  -4 -12  -6    9.86    3.40 
  -4 -12  -5  141.21    8.22 
  -4 -12  -5  130.92    8.86 
  -4 -12  -5  143.36    9.62 
  -4 -12  -4   88.25    7.61 
  -4 -11  -9    2.77    2.20 
  -4 -11  -9    0.47    1.97 
  -4 -11  -9   -0.53    2.11 
  -4 -11  -8    4.29    2.42 
  -4 -11  -8    3.55    2.04 
  -4 -11  -8    6.25    2.77 
  -4 -11  -7   27.54    3.62 
  -4 -11  -7   35.15    4.49 
  -4 -11  -6   36.57    4.02 
  -4 -11  -6   27.53    4.08 
  -4 -11  -6   26.36    4.09 
  -4 -11  -5   97.75    7.12 
  -4 -11  -5  105.66    7.64 
  -4 -11  -4  159.10    8.48 
  -4 -11  -4  139.43    8.81 
  -4 -11  -4  161.52    9.67 
  -4 -11  -3  127.21    8.74 
  -4 -11  -2   79.42    6.42 
  -4 -11  -2   85.88    6.17 
  -4 -11  -1  155.64    8.45 
  -4 -11  -1  143.42    8.87 
  -4 -11   0    8.09    1.74 
  -4 -11   0   13.71    2.94 
  -4 -11   0   13.94    2.71 
  -4 -10 -11   47.61    4.26 
  -4 -10 -11   51.11    4.98 
  -4 -10 -11   50.31    5.42 
  -4 -10 -10   40.01    4.86 
  -4 -10 -10   46.91    4.74 
  -4 -10 -10   43.71    4.11 
  -4 -10  -9   53.06    4.58 
  -4 -10  -9   52.51    4.94 
  -4 -10  -9   50.70    5.29 
  -4 -10  -8   19.87    2.92 
  -4 -10  -8   12.03    3.10 
  -4 -10  -8   16.39    3.15 
  -4 -10  -7   35.00    3.78 
  -4 -10  -7   33.99    4.16 
  -4 -10  -7   26.50    3.87 
  -4 -10  -6   32.84    3.71 
  -4 -10  -6   43.27    4.64 
  -4 -10  -6   41.16    4.54 
  -4 -10  -5    4.39    2.13 
  -4 -10  -5    9.17    2.28 
  -4 -10  -5    6.89    2.69 
  -4 -10  -4   69.75    5.18 
  -4 -10  -4   76.12    6.25 
  -4 -10  -4   64.61    5.67 
  -4 -10  -3  255.41   12.11 
  -4 -10  -2   25.35    4.01 
  -4 -10  -2   19.70    3.45 
  -4 -10  -1  148.07    8.46 
  -4 -10  -1  149.42    7.81 
  -4 -10   0  171.29    8.51 
  -4 -10   0  168.38    9.12 
  -4 -10   1    1.45    1.08 
  -4 -10   1    1.77    1.83 
  -4 -10   1    3.41    2.17 
  -4 -10   2   63.87    4.97 
  -4 -10   2   62.75    5.39 
  -4  -9 -12  216.72    9.35 
  -4  -9 -12  242.62   11.52 
  -4  -9 -11   11.12    2.39 
  -4  -9 -11   11.62    2.69 
  -4  -9 -11   10.42    2.91 
  -4  -9 -10   81.03    5.73 
  -4  -9 -10   74.47    5.18 
  -4  -9  -9   64.35    4.76 
  -4  -9  -9   61.88    5.15 
  -4  -9  -9   69.29    5.69 
  -4  -9  -8    3.80    1.83 
  -4  -9  -8    2.46    2.08 
  -4  -9  -8    1.16    1.58 
  -4  -9  -7   51.72    4.20 
  -4  -9  -7   48.87    4.53 
  -4  -9  -7   48.09    4.62 
  -4  -9  -6  113.46    7.00 
  -4  -9  -6  112.45    7.06 
  -4  -9  -6  115.16    6.41 
  -4  -9  -5    7.11    2.40 
  -4  -9  -5    7.21    2.43 
  -4  -9  -5    8.16    1.97 
  -4  -9  -4    0.63    1.28 
  -4  -9  -4    0.83    1.99 
  -4  -9  -4   -0.40    1.73 
  -4  -9  -4    0.41    1.89 
  -4  -9  -3  116.67    7.24 
  -4  -9  -3  125.42    6.70 
  -4  -9  -3  126.98    7.72 
  -4  -9  -2   52.89    4.85 
  -4  -9  -2   46.41    4.24 
  -4  -9  -2   62.91    4.41 
  -4  -9  -1   19.69    3.13 
  -4  -9  -1   21.79    2.83 
  -4  -9  -1   19.45    2.66 
  -4  -9   0  181.89    8.23 
  -4  -9   0  166.57    7.31 
  -4  -9   0  155.97    8.41 
  -4  -9   1  110.15    5.53 
  -4  -9   1  100.99    6.61 
  -4  -9   1  107.44    4.50 
  -4  -9   1  108.96    6.19 
  -4  -9   2   -0.93    1.60 
  -4  -9   2    0.38    1.81 
  -4  -9   2   -2.07    1.58 
  -4  -9   3  149.66    8.07 
  -4  -9   3  156.69    7.57 
  -4  -9   4    1.79    1.85 
  -4  -9   4   -0.30    1.52 
  -4  -8 -12  148.01    6.80 
  -4  -8 -12  155.60    8.71 
  -4  -8 -11   88.13    5.16 
  -4  -8 -11   82.27    5.47 
  -4  -8 -11   96.56    6.60 
  -4  -8 -10   10.93    2.09 
  -4  -8 -10   12.48    2.99 
  -4  -8 -10    9.94    2.37 
  -4  -8  -9  420.96   11.84 
  -4  -8  -9  462.55   14.61 
  -4  -8  -9  439.21   15.25 
  -4  -8  -9  443.26   15.71 
  -4  -8  -8  219.93    6.68 
  -4  -8  -8  237.05    9.26 
  -4  -8  -8  232.09   10.09 
  -4  -8  -8  216.30    9.79 
  -4  -8  -7   84.36    5.66 
  -4  -8  -7   79.96    2.88 
  -4  -8  -7   91.40    5.88 
  -4  -8  -7   91.39    5.27 
  -4  -8  -6   53.87    2.29 
  -4  -8  -6   57.26    4.61 
  -4  -8  -6   53.54    4.04 
  -4  -8  -6   59.07    4.72 
  -4  -8  -5  131.59    7.30 
  -4  -8  -5  148.46    6.97 
  -4  -8  -5  146.21    7.52 
  -4  -8  -4   31.07    3.12 
  -4  -8  -4   36.49    3.78 
  -4  -8  -3   38.29    3.49 
  -4  -8  -3   36.49    3.81 
  -4  -8  -3   35.78    3.32 
  -4  -8  -2    0.86    1.79 
  -4  -8  -2    2.87    1.54 
  -4  -8  -2    0.75    1.64 
  -4  -8  -1    5.00    1.60 
  -4  -8  -1    7.69    2.35 
  -4  -8   0   21.98    3.09 
  -4  -8   0   14.85    2.95 
  -4  -8   0   18.87    1.97 
  -4  -8   0   19.40    2.26 
  -4  -8   0   22.46    2.76 
  -4  -8   1  416.23   11.87 
  -4  -8   1  431.00   14.12 
  -4  -8   1  401.36   14.75 
  -4  -8   1  420.43   12.86 
  -4  -8   2  146.12    4.61 
  -4  -8   2  137.99    5.83 
  -4  -8   2  147.22    6.96 
  -4  -8   2  145.32    7.63 
  -4  -8   3   10.78    2.29 
  -4  -8   3    6.81    1.78 
  -4  -8   3    6.64    1.33 
  -4  -8   4   44.24    3.68 
  -4  -8   4   41.34    3.90 
  -4  -8   5   56.33    4.07 
  -4  -8   5   55.17    4.40 
  -4  -8   6   33.81    3.05 
  -4  -7 -13    2.81    2.39 
  -4  -7 -13    4.90    2.33 
  -4  -7 -12  132.23    7.63 
  -4  -7 -12  134.58    8.19 
  -4  -7 -11  328.06   12.84 
  -4  -7 -11  336.78   11.10 
  -4  -7 -11  303.42   11.38 
  -4  -7 -10   23.68    2.59 
  -4  -7 -10   18.19    1.86 
  -4  -7 -10   26.84    3.31 
  -4  -7 -10   20.28    2.65 
  -4  -7  -9   92.90    3.81 
  -4  -7  -9   96.21    5.94 
  -4  -7  -9  100.66    5.75 
  -4  -7  -9   94.40    5.10 
  -4  -7  -8  182.38    5.86 
  -4  -7  -8  175.94    5.53 
  -4  -7  -8  195.45    7.84 
  -4  -7  -8  190.07    8.50 
  -4  -7  -7    4.51    1.96 
  -4  -7  -7    1.70    1.24 
  -4  -7  -7    2.35    0.58 
  -4  -7  -6  214.93    8.43 
  -4  -7  -6  208.52    8.87 
  -4  -7  -5  887.37   22.15 
  -4  -7  -5  895.49   25.37 
  -4  -7  -5  895.90   24.68 
  -4  -7  -4  188.03    7.69 
  -4  -7  -4  185.57    6.02 
  -4  -7  -4  170.19    8.02 
  -4  -7  -3    7.28    1.67 
  -4  -7  -3    6.15    1.78 
  -4  -7  -2   19.18    2.37 
  -4  -7  -2   20.93    2.93 
  -4  -7  -1    9.13    2.20 
  -4  -7  -1   11.41    1.86 
  -4  -7   0   58.97    4.58 
  -4  -7   0   62.59    4.02 
  -4  -7   0   64.60    3.72 
  -4  -7   0   53.92    3.15 
  -4  -7   1   21.82    3.05 
  -4  -7   1   17.96    1.93 
  -4  -7   1   15.09    1.54 
  -4  -7   1   16.09    2.17 
  -4  -7   2  233.33    8.84 
  -4  -7   2  227.37    6.59 
  -4  -7   2  226.79    7.57 
  -4  -7   3   44.79    3.85 
  -4  -7   3   45.62    3.50 
  -4  -7   3   47.26    2.63 
  -4  -7   4  167.69    5.52 
  -4  -7   4  180.04    7.40 
  -4  -7   4  177.91    7.96 
  -4  -7   5  364.91   12.15 
  -4  -7   5  352.98   12.62 
  -4  -7   5  376.42   12.30 
  -4  -7   5  371.07   12.30 
  -4  -7   6   58.16    4.20 
  -4  -7   6   64.94    4.10 
  -4  -7   7   14.77    1.97 
  -4  -6 -13   -0.88    2.35 
  -4  -6 -13   -1.29    2.26 
  -4  -6 -13    0.74    1.76 
  -4  -6 -12   30.86    4.00 
  -4  -6 -12   33.20    4.17 
  -4  -6 -12   38.57    4.02 
  -4  -6 -11  725.27   19.61 
  -4  -6 -11  699.62   20.20 
  -4  -6 -11  763.29   22.03 
  -4  -6 -11  685.11   19.61 
  -4  -6 -11  695.69   22.75 
  -4  -6 -10  280.81    9.41 
  -4  -6 -10  265.76    9.88 
  -4  -6 -10  277.42   10.83 
  -4  -6 -10  272.16    8.87 
  -4  -6 -10  251.68   11.31 
  -4  -6 -10  279.25    9.54 
  -4  -6  -9   24.33    2.32 
  -4  -6  -9   25.02    1.91 
  -4  -6  -9   21.35    2.32 
  -4  -6  -9   23.94    3.00 
  -4  -6  -8  173.15    7.45 
  -4  -6  -8  154.10    6.54 
  -4  -6  -8  155.55    5.09 
  -4  -6  -7   21.23    2.25 
  -4  -6  -7   18.63    1.61 
  -4  -6  -7   23.13    2.67 
  -4  -6  -7   22.22    1.25 
  -4  -6  -6  118.63    5.89 
  -4  -6  -6  114.37    5.45 
  -4  -6  -6  118.03    4.30 
  -4  -6  -5  382.93   10.29 
  -4  -6  -5  384.61   12.26 
  -4  -6  -5  384.37   12.64 
  -4  -6  -4  502.21   13.33 
  -4  -6  -4  501.90   14.95 
  -4  -6  -4  494.82   15.38 
  -4  -6  -4  477.39   15.09 
  -4  -6  -3   37.52    3.13 
  -4  -6  -3   44.80    2.65 
  -4  -6  -3   40.53    2.50 
  -4  -6  -3   45.55    3.51 
  -4  -6  -3   42.82    3.15 
  -4  -6  -2  368.18   11.67 
  -4  -6  -2  354.59   10.60 
  -4  -6  -2  351.60   10.84 
  -4  -6  -2  341.15   11.73 
  -4  -6  -2  376.08   12.64 
  -4  -6  -1  161.22    6.53 
  -4  -6  -1  171.62    6.31 
  -4  -6   0  661.20   17.05 
  -4  -6   0  632.87   18.07 
  -4  -6   1    0.58    1.73 
  -4  -6   1    1.19    1.30 
  -4  -6   1    2.58    1.00 
  -4  -6   1    2.00    0.87 
  -4  -6   1    1.27    0.98 
  -4  -6   2   50.73    2.28 
  -4  -6   2   52.74    2.72 
  -4  -6   2   48.92    3.39 
  -4  -6   2   50.87    4.22 
  -4  -6   3  122.96    5.70 
  -4  -6   3  123.67    4.28 
  -4  -6   4   -0.42    1.13 
  -4  -6   4    1.07    1.12 
  -4  -6   5  255.33    9.84 
  -4  -6   5  283.63    9.53 
  -4  -6   5  279.71    9.62 
  -4  -6   6  248.73    8.56 
  -4  -6   6  229.99    8.86 
  -4  -6   6  239.20    8.59 
  -4  -6   7    0.21    1.23 
  -4  -6   7   -0.17    0.98 
  -4  -6   7    0.54    1.04 
  -4  -5 -13    8.74    2.72 
  -4  -5 -13   10.43    2.70 
  -4  -5 -12    8.82    1.99 
  -4  -5 -12   11.53    2.66 
  -4  -5 -12    9.79    2.24 
  -4  -5 -12    7.20    2.59 
  -4  -5 -11   99.47    6.52 
  -4  -5 -11   91.88    5.62 
  -4  -5 -11   96.32    4.29 
  -4  -5 -11   94.58    5.05 
  -4  -5 -11  101.14    6.41 
  -4  -5 -10  340.32   12.88 
  -4  -5 -10  320.50   10.21 
  -4  -5 -10  332.28   10.17 
  -4  -5 -10  310.16   11.38 
  -4  -5 -10  296.27   10.27 
  -4  -5 -10  344.77   12.68 
  -4  -5  -9    2.34    1.14 
  -4  -5  -9    1.07    0.89 
  -4  -5  -9    4.09    2.06 
  -4  -5  -9    0.92    1.01 
  -4  -5  -9    3.26    1.55 
  -4  -5  -8  270.41    7.98 
  -4  -5  -8  252.25    6.44 
  -4  -5  -8  269.91    8.90 
  -4  -5  -8  273.62   10.75 
  -4  -5  -8  265.21    8.93 
  -4  -5  -7  299.65   10.34 
  -4  -5  -7  321.76   10.19 
  -4  -5  -7  311.68    7.93 
  -4  -5  -7  328.04   10.52 
  -4  -5  -7  322.85   10.31 
  -4  -5  -7  308.30    8.47 
  -4  -5  -6  672.07   16.54 
  -4  -5  -6  721.71   18.22 
  -4  -5  -6  730.99   19.40 
  -4  -5  -6  730.60   17.15 
  -4  -5  -6  714.82   19.56 
  -4  -5  -6  741.37   19.76 
  -4  -5  -5   37.31    1.86 
  -4  -5  -5   39.17    2.97 
  -4  -5  -5   36.60    2.70 
  -4  -5  -5   36.69    2.20 
  -4  -5  -5   38.03    2.85 
  -4  -5  -4  191.64    5.87 
  -4  -5  -4  197.10    7.33 
  -4  -5  -4  183.20    7.03 
  -4  -5  -4  180.86    6.01 
  -4  -5  -4  182.52    7.27 
  -4  -5  -3  129.48    5.55 
  -4  -5  -3  130.36    4.73 
  -4  -5  -3  119.66    5.64 
  -4  -5  -3  133.27    5.80 
  -4  -5  -2    4.11    1.07 
  -4  -5  -2    4.99    1.15 
  -4  -5  -2    3.53    1.18 
  -4  -5  -2    4.86    1.37 
  -4  -5  -2    2.09    1.06 
  -4  -5  -2    3.56    1.24 
  -4  -5  -1  383.07   11.15 
  -4  -5  -1  362.18   11.07 
  -4  -5  -1  364.67   11.12 
  -4  -5  -1  380.67   11.61 
  -4  -5   0  625.11   17.12 
  -4  -5   0  585.03   17.02 
  -4  -5   0  622.82   16.39 
  -4  -5   1    1.11    0.75 
  -4  -5   1    2.79    1.06 
  -4  -5   1    0.62    1.11 
  -4  -5   1    2.43    0.80 
  -4  -5   1    0.62    1.00 
  -4  -5   2   99.86    5.77 
  -4  -5   2  111.65    4.91 
  -4  -5   2  105.13    3.80 
  -4  -5   2  107.64    5.41 
  -4  -5   2  101.86    4.99 
  -4  -5   2  101.46    3.67 
  -4  -5   3  291.10   11.64 
  -4  -5   3  327.25   10.27 
  -4  -5   3  319.77   11.31 
  -4  -5   3  297.72   10.34 
  -4  -5   3  337.59   10.45 
  -4  -5   4    4.75    1.22 
  -4  -5   4    4.63    2.30 
  -4  -5   4    3.42    1.69 
  -4  -5   4    6.02    1.40 
  -4  -5   5   11.91    1.64 
  -4  -5   5   10.28    1.65 
  -4  -5   6  175.49    6.51 
  -4  -5   6  169.40    6.49 
  -4  -5   7  194.70    6.82 
  -4  -5   7  176.34    6.99 
  -4  -5   7  194.18    6.69 
  -4  -5   8   26.30    1.91 
  -4  -5   8   25.70    1.98 
  -4  -5   8   27.23    2.14 
  -4  -4 -13  146.73    8.01 
  -4  -4 -13  158.02    8.46 
  -4  -4 -12  203.34    8.81 
  -4  -4 -12  214.29    9.11 
  -4  -4 -12  215.42   10.00 
  -4  -4 -12  212.66    9.70 
  -4  -4 -11   65.51    5.02 
  -4  -4 -11   56.33    4.61 
  -4  -4 -11   58.75    4.15 
  -4  -4 -11   54.74    4.03 
  -4  -4 -10   72.83    3.28 
  -4  -4 -10   73.05    3.60 
  -4  -4 -10   71.40    5.09 
  -4  -4 -10   75.40    3.56 
  -4  -4 -10   85.05    5.58 
  -4  -4 -10   77.72    4.53 
  -4  -4 -10   76.65    4.44 
  -4  -4  -9   72.59    5.08 
  -4  -4  -9   75.75    3.74 
  -4  -4  -9   70.81    3.09 
  -4  -4  -9   64.00    4.67 
  -4  -4  -9   75.78    3.64 
  -4  -4  -9   70.63    3.93 
  -4  -4  -9   66.59    4.07 
  -4  -4  -8  165.19    5.18 
  -4  -4  -8  173.71    6.24 
  -4  -4  -8  174.57    6.72 
  -4  -4  -8  161.23    7.55 
  -4  -4  -8  175.56    6.36 
  -4  -4  -8  170.32    7.93 
  -4  -4  -8  164.04    6.42 
  -4  -4  -8  158.07    6.02 
  -4  -4  -7  531.59   14.72 
  -4  -4  -7  532.22   14.76 
  -4  -4  -7  488.13   15.89 
  -4  -4  -7  524.82   14.55 
  -4  -4  -7  508.37   13.13 
  -4  -4  -7  510.22   14.80 
  -4  -4  -7  496.19   13.62 
  -4  -4  -7  512.74   16.31 
  -4  -4  -6 1853.42   44.31 
  -4  -4  -6 1873.84   46.28 
  -4  -4  -6 1891.62   47.34 
  -4  -4  -6 1929.31   45.97 
  -4  -4  -6 1907.21   45.77 
  -4  -4  -6 1847.56   47.51 
  -4  -4  -6 1924.27   46.05 
  -4  -4  -6 1846.26   44.13 
  -4  -4  -5    4.31    1.04 
  -4  -4  -5    2.82    1.27 
  -4  -4  -5    2.44    1.28 
  -4  -4  -5    5.82    1.28 
  -4  -4  -5    3.45    0.73 
  -4  -4  -5    2.32    0.84 
  -4  -4  -5    3.57    1.15 
  -4  -4  -5    3.30    1.01 
  -4  -4  -4  206.79    7.27 
  -4  -4  -4  207.33    6.22 
  -4  -4  -4  194.70    7.39 
  -4  -4  -4  212.23    7.38 
  -4  -4  -4  209.01    7.75 
  -4  -4  -4  217.27    7.16 
  -4  -4  -4  190.31    6.46 
  -4  -4  -3  132.54    4.75 
  -4  -4  -3  119.49    5.42 
  -4  -4  -3  129.34    4.55 
  -4  -4  -3  126.28    5.35 
  -4  -4  -3  136.19    5.33 
  -4  -4  -3  126.85    5.30 
  -4  -4  -2  220.47    7.62 
  -4  -4  -2  212.02    6.92 
  -4  -4  -2  224.91    8.00 
  -4  -4  -2  217.01    7.67 
  -4  -4  -2  233.42    7.79 
  -4  -4  -1    6.97    1.26 
  -4  -4  -1    8.53    1.37 
  -4  -4  -1    5.87    1.22 
  -4  -4  -1    8.53    1.25 
  -4  -4  -1    7.87    1.40 
  -4  -4  -1    5.44    1.37 
  -4  -4   0 1611.86   40.04 
  -4  -4   0 1606.76   39.96 
  -4  -4   0 1649.47   39.46 
  -4  -4   1  460.92   13.35 
  -4  -4   1  465.48   12.34 
  -4  -4   1  449.38   13.50 
  -4  -4   1  440.49   13.32 
  -4  -4   1  450.08   13.52 
  -4  -4   2   48.21    2.07 
  -4  -4   2   47.59    3.31 
  -4  -4   2   48.17    3.14 
  -4  -4   2   44.48    3.63 
  -4  -4   2   52.12    2.40 
  -4  -4   2   49.72    2.99 
  -4  -4   2   47.88    2.13 
  -4  -4   2   48.40    3.02 
  -4  -4   3   91.54    5.36 
  -4  -4   3   90.69    4.30 
  -4  -4   3   92.40    4.25 
  -4  -4   3   91.06    4.47 
  -4  -4   3   88.48    4.81 
  -4  -4   4    8.21    1.36 
  -4  -4   4    6.58    1.78 
  -4  -4   4    8.32    1.43 
  -4  -4   4    6.34    1.36 
  -4  -4   5    0.81    0.93 
  -4  -4   5    0.93    0.88 
  -4  -4   5    1.22    0.93 
  -4  -4   6  144.99    5.60 
  -4  -4   6  148.75    5.55 
  -4  -4   7  181.28    6.36 
  -4  -4   7  189.25    6.34 
  -4  -4   8   12.56    1.33 
  -4  -4   8   13.90    1.54 
  -4  -3 -12  235.17   10.00 
  -4  -3 -12  229.44   10.24 
  -4  -3 -12  220.84    9.83 
  -4  -3 -11   75.79    5.09 
  -4  -3 -11   79.32    5.55 
  -4  -3 -11   85.55    4.27 
  -4  -3 -11   84.80    4.78 
  -4  -3 -11   86.99    5.47 
  -4  -3 -10  119.25    6.54 
  -4  -3 -10  110.85    4.91 
  -4  -3 -10  110.35    6.22 
  -4  -3 -10  116.42    5.92 
  -4  -3 -10  106.90    5.24 
  -4  -3 -10  109.32    4.22 
  -4  -3  -9  143.55    5.11 
  -4  -3  -9  133.49    5.24 
  -4  -3  -9  128.43    6.63 
  -4  -3  -9  135.16    6.87 
  -4  -3  -9  121.25    5.49 
  -4  -3  -9  134.72    5.12 
  -4  -3  -8  327.73    9.85 
  -4  -3  -8  330.97   11.55 
  -4  -3  -8  317.81    9.63 
  -4  -3  -8  325.06   10.01 
  -4  -3  -8  318.10    9.95 
  -4  -3  -8  310.77   11.63 
  -4  -3  -7    5.67    1.12 
  -4  -3  -7    8.45    1.92 
  -4  -3  -7    5.96    1.28 
  -4  -3  -7    7.24    1.33 
  -4  -3  -7    6.52    1.42 
  -4  -3  -7    5.55    1.71 
  -4  -3  -6 2275.44   54.58 
  -4  -3  -6 2241.08   55.81 
  -4  -3  -6 2297.29   54.38 
  -4  -3  -6 2272.14   56.12 
  -4  -3  -6 2285.54   54.77 
  -4  -3  -6 2208.83   53.74 
  -4  -3  -5 1313.72   32.03 
  -4  -3  -5 1368.13   34.11 
  -4  -3  -5 1355.38   32.93 
  -4  -3  -5 1323.11   33.02 
  -4  -3  -5 1299.60   31.34 
  -4  -3  -5 1324.45   34.15 
  -4  -3  -5 1341.71   33.31 
  -4  -3  -5 1303.01   32.06 
  -4  -3  -4  126.04    5.63 
  -4  -3  -4  140.66    5.37 
  -4  -3  -4  132.51    5.18 
  -4  -3  -4  126.96    4.51 
  -4  -3  -4  123.27    3.61 
  -4  -3  -4  130.93    5.36 
  -4  -3  -4  130.05    4.55 
  -4  -3  -4  136.62    5.74 
  -4  -3  -3  649.48   17.39 
  -4  -3  -3  626.88   17.04 
  -4  -3  -3  645.87   17.00 
  -4  -3  -3  608.71   14.75 
  -4  -3  -3  611.22   16.14 
  -4  -3  -3  611.37   17.15 
  -4  -3  -3  635.26   16.44 
  -4  -3  -3  666.95   16.37 
  -4  -3  -2  648.65   17.25 
  -4  -3  -2  673.72   17.81 
  -4  -3  -2  681.73   17.20 
  -4  -3  -2  632.64   17.82 
  -4  -3  -2  649.72   18.01 
  -4  -3  -2  670.38   17.88 
  -4  -3  -1   37.81    2.46 
  -4  -3  -1   30.45    2.12 
  -4  -3  -1   32.68    2.26 
  -4  -3  -1   34.16    2.51 
  -4  -3  -1   32.13    2.40 
  -4  -3   0  890.71   21.89 
  -4  -3   0  883.00   22.19 
  -4  -3   0  862.72   22.60 
  -4  -3   0  877.86   22.51 
  -4  -3   0  835.95   22.62 
  -4  -3   1  699.20   19.19 
  -4  -3   1  709.96   19.06 
  -4  -3   1  707.91   18.33 
  -4  -3   1  722.59   17.74 
  -4  -3   2  201.54    5.52 
  -4  -3   2  205.23    6.37 
  -4  -3   2  201.90    7.05 
  -4  -3   2  199.98    7.29 
  -4  -3   2  205.28    7.59 
  -4  -3   2  203.37    6.95 
  -4  -3   2  199.03    7.17 
  -4  -3   3  122.30    4.85 
  -4  -3   3  117.80    5.52 
  -4  -3   3  116.13    5.01 
  -4  -3   3  113.42    5.34 
  -4  -3   3  117.44    4.87 
  -4  -3   4  210.09    7.04 
  -4  -3   4  211.35    7.39 
  -4  -3   4  210.46    7.18 
  -4  -3   4  203.48    8.05 
  -4  -3   4  204.57    8.56 
  -4  -3   5  180.58    6.47 
  -4  -3   5  181.98    6.70 
  -4  -3   5  193.12    6.49 
  -4  -3   5  180.14    8.15 
  -4  -3   6    4.71    1.68 
  -4  -3   6    3.48    2.08 
  -4  -3   6    3.50    0.95 
  -4  -3   6    2.12    0.99 
  -4  -3   6    3.43    1.11 
  -4  -3   7   35.20    2.42 
  -4  -3   7   41.83    2.48 
  -4  -3   7   39.33    2.34 
  -4  -3   8    4.08    0.86 
  -4  -2 -12  191.74    9.07 
  -4  -2 -12  194.98    9.41 
  -4  -2 -12  177.46    8.26 
  -4  -2 -11   19.82    2.66 
  -4  -2 -11   14.54    2.80 
  -4  -2 -11   15.07    2.17 
  -4  -2 -10    2.91    1.34 
  -4  -2 -10    0.92    1.16 
  -4  -2 -10    0.96    1.57 
  -4  -2  -9   52.50    4.21 
  -4  -2  -9   60.94    3.33 
  -4  -2  -9   56.22    4.13 
  -4  -2  -9   63.04    3.15 
  -4  -2  -9   62.72    3.01 
  -4  -2  -8 1121.09   30.47 
  -4  -2  -8 1139.59   31.00 
  -4  -2  -8 1167.95   28.93 
  -4  -2  -8 1103.92   28.49 
  -4  -2  -8 1184.70   28.61 
  -4  -2  -7   14.13    2.21 
  -4  -2  -7   10.34    1.35 
  -4  -2  -7   17.29    1.75 
  -4  -2  -7   11.03    1.95 
  -4  -2  -7   13.45    1.69 
  -4  -2  -7   14.87    1.39 
  -4  -2  -6  972.57   25.77 
  -4  -2  -6  971.27   25.48 
  -4  -2  -6  922.87   22.88 
  -4  -2  -6  913.77   24.28 
  -4  -2  -6  955.90   24.19 
  -4  -2  -6  951.27   24.06 
  -4  -2  -5  782.75   20.18 
  -4  -2  -5  754.93   19.42 
  -4  -2  -5  780.53   20.33 
  -4  -2  -5  798.49   21.24 
  -4  -2  -5  769.37   18.70 
  -4  -2  -5  761.30   21.37 
  -4  -2  -4  632.76   17.31 
  -4  -2  -4  603.34   17.27 
  -4  -2  -4  622.74   16.55 
  -4  -2  -4  617.61   16.68 
  -4  -2  -4  613.20   15.02 
  -4  -2  -4  605.43   15.47 
  -4  -2  -3  457.84   11.85 
  -4  -2  -3  492.86   13.61 
  -4  -2  -3  464.85   13.51 
  -4  -2  -3  473.69   13.26 
  -4  -2  -3  455.32   12.65 
  -4  -2  -3  455.95   13.06 
  -4  -2  -2 5100.19  118.11 
  -4  -2  -2 5142.16  118.11 
  -4  -2  -2 4966.52  117.44 
  -4  -2  -2 5015.72  116.48 
  -4  -2  -2 5138.88  117.95 
  -4  -2  -2 4983.94  117.55 
  -4  -2  -1  218.29    7.18 
  -4  -2  -1  225.42    7.22 
  -4  -2  -1  214.44    7.30 
  -4  -2  -1  233.40    7.63 
  -4  -2  -1  224.57    7.40 
  -4  -2  -1  226.58    6.61 
  -4  -2   0  661.30   17.60 
  -4  -2   0  663.54   17.03 
  -4  -2   0  661.82   16.93 
  -4  -2   0  648.83   17.45 
  -4  -2   0  658.69   17.76 
  -4  -2   1  342.20   10.15 
  -4  -2   1  365.38   10.46 
  -4  -2   1  360.20    9.62 
  -4  -2   1  356.26   10.66 
  -4  -2   2   46.36    3.09 
  -4  -2   2   49.73    2.66 
  -4  -2   2   44.67    2.78 
  -4  -2   2   49.04    3.04 
  -4  -2   2   47.80    2.02 
  -4  -2   3    0.75    0.85 
  -4  -2   3   -0.14    0.72 
  -4  -2   3    0.20    1.25 
  -4  -2   3   -0.32    0.36 
  -4  -2   3    1.09    1.05 
  -4  -2   4  147.60    6.59 
  -4  -2   4  140.86    5.49 
  -4  -2   4  153.08    5.56 
  -4  -2   5 1106.81   30.53 
  -4  -2   5 1160.60   28.64 
  -4  -2   5 1140.23   28.97 
  -4  -2   5 1149.03   28.77 
  -4  -2   6  135.54    6.76 
  -4  -2   6  125.99    6.28 
  -4  -2   6  137.68    5.22 
  -4  -2   6  129.25    5.27 
  -4  -2   6  142.51    5.16 
  -4  -2   7   98.76    5.88 
  -4  -2   7   99.86    5.68 
  -4  -2   7   95.31    4.21 
  -4  -2   7  103.45    4.15 
  -4  -2   8   10.70    1.29 
  -4  -2   8    9.18    1.24 
  -4  -2   9   21.51    1.39 
  -4  -1 -12  187.00    9.03 
  -4  -1 -11   58.92    4.73 
  -4  -1 -11   57.46    4.14 
  -4  -1 -11   48.83    4.01 
  -4  -1 -10    0.64    1.62 
  -4  -1 -10    0.26    1.48 
  -4  -1  -9   18.65    2.42 
  -4  -1  -9   20.39    2.77 
  -4  -1  -9   16.85    1.75 
  -4  -1  -9   20.16    1.66 
  -4  -1  -8  534.07   14.55 
  -4  -1  -8  541.28   16.73 
  -4  -1  -8  537.59   16.05 
  -4  -1  -8  524.21   13.96 
  -4  -1  -8  517.61   14.59 
  -4  -1  -7   63.31    4.27 
  -4  -1  -7   62.30    3.89 
  -4  -1  -7   58.91    2.48 
  -4  -1  -7   63.15    3.25 
  -4  -1  -6  191.85    7.98 
  -4  -1  -6  193.84    7.05 
  -4  -1  -6  210.59    7.80 
  -4  -1  -6  201.55    5.31 
  -4  -1  -6  221.43    7.12 
  -4  -1  -5  797.52   22.10 
  -4  -1  -5  777.87   20.65 
  -4  -1  -5  790.50   21.65 
  -4  -1  -5  832.70   20.98 
  -4  -1  -4  227.58    7.32 
  -4  -1  -4  245.72    8.28 
  -4  -1  -4  244.41    7.98 
  -4  -1  -4  238.05    8.45 
  -4  -1  -4  233.19    7.72 
  -4  -1  -3   60.72    3.48 
  -4  -1  -3   61.31    2.84 
  -4  -1  -3   58.70    3.34 
  -4  -1  -3   53.99    3.08 
  -4  -1  -3   60.64    3.26 
  -4  -1  -2 1873.80   46.32 
  -4  -1  -2 1949.24   46.45 
  -4  -1  -2 1882.08   45.32 
  -4  -1  -2 1977.01   46.32 
  -4  -1  -2 1914.79   45.93 
  -4  -1  -2 1914.80   46.37 
  -4  -1  -2 1838.62   45.88 
  -4  -1  -1 3322.99   79.26 
  -4  -1  -1 3363.46   78.81 
  -4  -1  -1 3339.15   79.30 
  -4  -1  -1 3402.85   79.61 
  -4  -1  -1 3379.89   79.75 
  -4  -1  -1 3389.61   79.64 
  -4  -1   0    5.96    1.24 
  -4  -1   0    3.32    1.06 
  -4  -1   0    3.77    1.05 
  -4  -1   0    4.35    1.13 
  -4  -1   0    3.10    1.03 
  -4  -1   1 1749.24   40.75 
  -4  -1   1 1731.46   41.55 
  -4  -1   1 1685.30   41.50 
  -4  -1   1 1611.08   41.42 
  -4  -1   2   36.52    1.96 
  -4  -1   2   40.58    2.74 
  -4  -1   2   31.34    2.40 
  -4  -1   2   33.78    2.57 
  -4  -1   3   25.55    2.45 
  -4  -1   3   27.73    1.64 
  -4  -1   3   29.85    2.18 
  -4  -1   3   29.62    2.30 
  -4  -1   4   22.02    1.33 
  -4  -1   4   21.82    1.94 
  -4  -1   4   23.35    2.41 
  -4  -1   4   25.54    2.09 
  -4  -1   5  800.82   21.95 
  -4  -1   5  777.40   21.63 
  -4  -1   5  789.47   20.64 
  -4  -1   6  477.93   15.02 
  -4  -1   6  469.30   14.73 
  -4  -1   6  491.62   13.57 
  -4  -1   7   -0.27    1.68 
  -4  -1   7    1.28    0.82 
  -4  -1   7    1.26    1.51 
  -4  -1   7    0.90    0.86 
  -4  -1   8   81.69    3.82 
  -4  -1   8   89.45    3.83 
  -4  -1   9  175.66    5.88 
  -4  -1   9  184.43    5.79 
  -4   0 -11  110.77    6.54 
  -4   0 -11  104.51    6.55 
  -4   0 -10   71.49    4.46 
  -4   0 -10   60.49    4.76 
  -4   0  -9    9.70    2.17 
  -4   0  -9    9.62    2.03 
  -4   0  -9   11.54    1.40 
  -4   0  -8  434.86   14.12 
  -4   0  -8  393.54   12.93 
  -4   0  -8  398.44   10.87 
  -4   0  -8  409.95   11.73 
  -4   0  -7   26.46    2.23 
  -4   0  -7   28.91    2.61 
  -4   0  -7   30.14    2.79 
  -4   0  -7   28.41    1.46 
  -4   0  -7   29.51    3.04 
  -4   0  -7   25.61    1.37 
  -4   0  -6   -0.42    1.14 
  -4   0  -6    0.25    1.35 
  -4   0  -6    0.17    0.82 
  -4   0  -6    0.58    0.98 
  -4   0  -5    6.20    1.34 
  -4   0  -5    8.16    1.39 
  -4   0  -5   10.33    1.87 
  -4   0  -5   10.80    1.73 
  -4   0  -4  228.57    8.40 
  -4   0  -4  239.76    7.91 
  -4   0  -4  234.98    8.16 
  -4   0  -3   21.77    1.93 
  -4   0  -3   20.82    2.15 
  -4   0  -3   21.17    2.09 
  -4   0  -3   27.22    2.17 
  -4   0  -2 1266.37   32.02 
  -4   0  -2 1285.42   32.61 
  -4   0  -2 1331.09   32.66 
  -4   0  -2 1295.39   32.74 
  -4   0  -1 1270.47   31.62 
  -4   0  -1 1197.56   30.96 
  -4   0  -1 1291.49   31.69 
  -4   0  -1 1250.18   31.05 
  -4   0   0 1878.13   46.05 
  -4   0   0 1951.41   46.51 
  -4   0   0 1864.28   46.09 
  -4   0   0 1915.63   46.54 
  -4   0   1    6.22    1.21 
  -4   0   1    4.66    1.14 
  -4   0   1    6.22    1.19 
  -4   0   1    4.92    1.14 
  -4   0   2 1044.93   26.42 
  -4   0   2 1046.69   25.43 
  -4   0   3  546.64   14.41 
  -4   0   3  513.35   15.62 
  -4   0   3  541.78   15.14 
  -4   0   4   93.47    4.55 
  -4   0   4   96.33    3.92 
  -4   0   4   99.68    4.83 
  -4   0   4   97.27    5.12 
  -4   0   4  104.71    4.61 
  -4   0   5  396.17   11.77 
  -4   0   5  387.01   12.06 
  -4   0   5  395.39   12.53 
  -4   0   5  375.50   12.04 
  -4   0   5  393.19   13.09 
  -4   0   6  323.27   10.58 
  -4   0   6  291.61   10.34 
  -4   0   6  318.35    9.92 
  -4   0   7    1.64    1.50 
  -4   0   7    3.47    1.03 
  -4   0   7    3.25    1.50 
  -4   0   8    1.78    1.54 
  -4   0   8    0.88    0.87 
  -4   0   9  491.32   13.55 
  -4   0   9  495.89   13.72 
  -4   0  10  317.14    8.91 
  -4   0  10  291.38    8.77 
  -4   0  10  310.16    8.79 
  -4   1 -10   59.47    4.91 
  -4   1  -9    1.64    1.42 
  -4   1  -9   -0.67    1.81 
  -4   1  -8  321.96   11.05 
  -4   1  -8  331.97   10.15 
  -4   1  -8  320.01   12.13 
  -4   1  -7  156.98    7.19 
  -4   1  -7  169.84    6.42 
  -4   1  -7  171.33    6.98 
  -4   1  -7  179.47    8.02 
  -4   1  -7  163.92    4.88 
  -4   1  -6  119.89    5.66 
  -4   1  -6  125.19    6.37 
  -4   1  -6  116.73    5.79 
  -4   1  -6  123.08    5.30 
  -4   1  -5   36.51    3.26 
  -4   1  -5   31.93    2.67 
  -4   1  -5   29.71    2.45 
  -4   1  -4   40.45    3.28 
  -4   1  -4   39.03    2.93 
  -4   1  -4   40.95    2.96 
  -4   1  -4   37.62    2.85 
  -4   1  -3  170.61    6.88 
  -4   1  -3  176.58    7.25 
  -4   1  -3  176.05    6.87 
  -4   1  -3  183.78    6.82 
  -4   1  -2    1.24    1.27 
  -4   1  -2    2.42    1.28 
  -4   1  -2    1.34    0.88 
  -4   1  -2    2.41    1.13 
  -4   1  -1  246.36    8.65 
  -4   1  -1  241.83    8.35 
  -4   1  -1  259.23    8.84 
  -4   1   0  499.56   14.43 
  -4   1   0  507.28   14.86 
  -4   1   1    4.77    1.16 
  -4   1   1    2.60    1.01 
  -4   1   1    4.40    1.20 
  -4   1   2   81.70    4.39 
  -4   1   2   90.45    4.20 
  -4   1   3 2849.05   67.08 
  -4   1   3 2743.34   68.03 
  -4   1   4  769.03   22.18 
  -4   1   4  809.73   20.96 
  -4   1   4  773.28   21.11 
  -4   1   4  793.53   21.32 
  -4   1   4  780.36   21.48 
  -4   1   5  453.64   13.51 
  -4   1   5  433.98   12.90 
  -4   1   5  453.81   13.65 
  -4   1   5  450.60   13.41 
  -4   1   5  438.74   12.81 
  -4   1   5  428.17   14.34 
  -4   1   6  374.84   11.20 
  -4   1   6  351.97   12.67 
  -4   1   6  337.71   11.71 
  -4   1   6  352.73   11.48 
  -4   1   6  367.53   11.21 
  -4   1   7    0.59    1.39 
  -4   1   7    1.44    1.07 
  -4   1   7    2.19    1.39 
  -4   1   8   14.16    1.75 
  -4   1   8   14.23    2.11 
  -4   1   9  233.98    9.37 
  -4   1   9  254.27    8.31 
  -4   1  10  189.60    6.76 
  -4   1  10  186.83    6.60 
  -4   2  -9   17.78    3.06 
  -4   2  -8    2.11    1.19 
  -4   2  -8    2.08    1.82 
  -4   2  -7   28.69    2.85 
  -4   2  -7   29.93    2.57 
  -4   2  -7   28.02    3.32 
  -4   2  -6   75.19    5.11 
  -4   2  -6   81.23    4.38 
  -4   2  -6   77.11    4.53 
  -4   2  -5   13.23    2.36 
  -4   2  -5   15.84    2.05 
  -4   2  -5   10.46    2.03 
  -4   2  -5   11.13    1.83 
  -4   2  -5   11.33    0.94 
  -4   2  -4   99.77    5.14 
  -4   2  -4   97.19    3.16 
  -4   2  -4  103.95    5.76 
  -4   2  -4  111.83    5.29 
  -4   2  -3  441.26   13.78 
  -4   2  -3  443.61   14.43 
  -4   2  -3  449.57   13.81 
  -4   2  -2  421.04   13.82 
  -4   2  -2  429.13   13.37 
  -4   2  -2  451.53   13.61 
  -4   2  -1    4.83    1.49 
  -4   2  -1    3.88    1.36 
  -4   2  -1    4.23    1.33 
  -4   2   0  312.85   10.75 
  -4   2   0  343.56   11.25 
  -4   2   0  327.02   10.65 
  -4   2   0  313.03    9.85 
  -4   2   1  278.60    9.72 
  -4   2   1  289.22   10.19 
  -4   2   1  285.07    8.98 
  -4   2   2   45.06    3.18 
  -4   2   2   42.99    3.26 
  -4   2   2   39.01    3.16 
  -4   2   2   42.02    2.68 
  -4   2   3  741.96   20.36 
  -4   2   3  712.31   19.83 
  -4   2   3  745.61   20.91 
  -4   2   4  890.97   23.37 
  -4   2   4  915.40   24.05 
  -4   2   4  858.61   23.31 
  -4   2   4  885.21   23.85 
  -4   2   4  845.33   24.48 
  -4   2   5   50.63    3.36 
  -4   2   5   54.00    4.12 
  -4   2   5   50.44    2.78 
  -4   2   5   55.74    3.52 
  -4   2   5   53.39    3.62 
  -4   2   5   56.06    3.67 
  -4   2   6  648.09   18.41 
  -4   2   6  636.24   19.70 
  -4   2   6  634.50   18.10 
  -4   2   6  636.78   17.02 
  -4   2   6  651.84   18.33 
  -4   2   7  381.31   12.22 
  -4   2   7  383.20   12.16 
  -4   2   8   15.65    2.02 
  -4   2   8   17.93    2.24 
  -4   2   9  168.21    7.19 
  -4   2   9  156.39    6.51 
  -4   2  10   78.31    4.34 
  -4   2  10   83.80    4.33 
  -4   3  -9  119.75    7.36 
  -4   3  -8   76.44    5.78 
  -4   3  -7    6.23    2.37 
  -4   3  -7    6.47    1.66 
  -4   3  -6   74.78    4.60 
  -4   3  -6   78.03    4.70 
  -4   3  -5  142.41    7.33 
  -4   3  -5  131.24    6.30 
  -4   3  -4   -0.63    1.89 
  -4   3  -4    0.25    1.17 
  -4   3  -4    0.10    0.85 
  -4   3  -3   88.80    5.26 
  -4   3  -3  104.79    5.47 
  -4   3  -3  103.09    3.98 
  -4   3  -3  107.09    6.03 
  -4   3  -2  486.18   15.69 
  -4   3  -2  471.09   15.00 
  -4   3  -2  488.41   15.13 
  -4   3  -2  476.50   13.10 
  -4   3  -1   36.10    3.36 
  -4   3  -1   36.33    3.19 
  -4   3  -1   46.56    3.57 
  -4   3   0  258.05    9.85 
  -4   3   0  257.62    9.51 
  -4   3   0  262.81    8.62 
  -4   3   0  256.33    9.68 
  -4   3   1  481.94   15.15 
  -4   3   1  503.74   15.56 
  -4   3   1  495.09   13.99 
  -4   3   2  205.10    7.13 
  -4   3   2  212.71    8.46 
  -4   3   2  200.14    8.24 
  -4   3   3  182.06    7.95 
  -4   3   3  192.04    7.36 
  -4   3   3  205.53    8.16 
  -4   3   4  993.86   26.64 
  -4   3   4  952.78   25.48 
  -4   3   4  939.47   26.71 
  -4   3   5  339.94   12.41 
  -4   3   5  340.37    9.28 
  -4   3   5  339.58   11.70 
  -4   3   5  340.35   10.92 
  -4   3   5  367.80   12.19 
  -4   3   5  335.50   11.06 
  -4   3   6   -0.08    0.72 
  -4   3   6    1.25    1.25 
  -4   3   6    1.03    1.39 
  -4   3   6    0.41    1.21 
  -4   3   7  188.19    7.62 
  -4   3   7  165.50    7.02 
  -4   3   8  364.36   12.10 
  -4   3   8  383.58   12.55 
  -4   3   9  132.16    6.18 
  -4   3   9  125.64    6.10 
  -4   3   9  126.13    6.21 
  -4   3  10  262.12    9.63 
  -4   3  10  266.46    9.81 
  -4   3  10  256.31    9.74 
  -4   4  -7   31.25    4.56 
  -4   4  -7   41.47    4.42 
  -4   4  -6  109.14    5.95 
  -4   4  -6  106.07    7.61 
  -4   4  -6  103.56    6.70 
  -4   4  -5  130.74    6.82 
  -4   4  -5  138.37    6.84 
  -4   4  -5  138.15    7.65 
  -4   4  -4    2.88    1.95 
  -4   4  -4    2.11    1.74 
  -4   4  -4    2.07    1.55 
  -4   4  -3   38.26    3.86 
  -4   4  -3   32.83    3.38 
  -4   4  -2  583.70   18.83 
  -4   4  -2  578.43   16.29 
  -4   4  -2  618.72   18.53 
  -4   4  -1  119.87    6.44 
  -4   4  -1  131.74    6.96 
  -4   4  -1  128.70    5.43 
  -4   4   0    2.80    1.78 
  -4   4   0    0.59    1.45 
  -4   4   0    3.03    1.72 
  -4   4   1  131.06    6.74 
  -4   4   1  140.89    5.68 
  -4   4   1  143.19    7.27 
  -4   4   1  155.79    7.25 
  -4   4   2  273.30   10.17 
  -4   4   2  254.28    8.47 
  -4   4   2  246.74   10.05 
  -4   4   3   47.73    3.40 
  -4   4   3   43.26    3.74 
  -4   4   3   41.15    3.72 
  -4   4   4  792.72   22.81 
  -4   4   4  736.17   20.88 
  -4   4   4  742.07   22.25 
  -4   4   5  314.73   10.86 
  -4   4   5  339.74   10.67 
  -4   4   5  341.09   12.53 
  -4   4   5  343.29   12.18 
  -4   4   6   62.08    3.96 
  -4   4   6   70.61    4.70 
  -4   4   6   74.47    4.10 
  -4   4   7   86.81    4.66 
  -4   4   7   82.11    4.59 
  -4   4   7   85.78    5.19 
  -4   4   8  367.02   13.06 
  -4   4   8  376.08   13.08 
  -4   4   8  365.92   12.06 
  -4   4   9  160.11    7.47 
  -4   4   9  151.78    7.25 
  -4   4   9  140.88    6.50 
  -4   4  10    5.17    1.93 
  -4   4  10    7.03    1.99 
  -4   5  -6    6.59    2.70 
  -4   5  -6    6.90    3.07 
  -4   5  -5   48.37    4.25 
  -4   5  -5   52.15    5.46 
  -4   5  -4  108.53    6.52 
  -4   5  -4   98.02    6.78 
  -4   5  -4  104.44    6.25 
  -4   5  -4   95.52    6.79 
  -4   5  -3   31.81    3.93 
  -4   5  -3   29.36    3.54 
  -4   5  -3   38.22    4.24 
  -4   5  -3   34.66    3.69 
  -4   5  -2  331.88   12.72 
  -4   5  -2  329.56   13.22 
  -4   5  -2  335.89   12.84 
  -4   5  -1   16.80    2.95 
  -4   5  -1   24.40    3.18 
  -4   5  -1   18.33    2.84 
  -4   5   0   15.31    2.82 
  -4   5   0   13.49    2.51 
  -4   5   0   13.97    2.19 
  -4   5   1   29.52    3.48 
  -4   5   1   27.91    2.46 
  -4   5   1   33.82    3.67 
  -4   5   2  231.82    8.04 
  -4   5   2  234.69   10.10 
  -4   5   3  150.42    5.20 
  -4   5   3  144.71    7.67 
  -4   5   4   94.70    4.99 
  -4   5   4   93.20    2.90 
  -4   5   4  103.73    6.41 
  -4   5   5  131.48    7.23 
  -4   5   5  134.16    7.25 
  -4   5   5  129.13    5.54 
  -4   5   5  127.96    6.05 
  -4   5   5  136.04    7.50 
  -4   5   6   23.99    3.10 
  -4   5   6   28.95    2.53 
  -4   5   6   19.64    3.02 
  -4   5   6   25.43    2.66 
  -4   5   7   56.60    3.85 
  -4   5   7   56.79    4.60 
  -4   5   7   65.62    3.83 
  -4   5   7   65.90    4.94 
  -4   5   8  234.35    8.79 
  -4   5   8  221.31    9.81 
  -4   5   8  225.72    9.84 
  -4   5   9  333.09   12.66 
  -4   5   9  324.19   11.24 
  -4   5   9  336.91   12.77 
  -4   5  10   38.73    3.89 
  -4   6  -4   66.30    6.08 
  -4   6  -4   55.10    5.56 
  -4   6  -3   79.82    5.93 
  -4   6  -3   76.77    6.31 
  -4   6  -3   83.46    6.02 
  -4   6  -3   89.19    6.47 
  -4   6  -2   94.00    6.76 
  -4   6  -2   97.88    6.44 
  -4   6  -2   97.61    6.50 
  -4   6  -2   90.04    6.27 
  -4   6  -1   33.80    3.68 
  -4   6  -1   30.18    3.89 
  -4   6  -1   34.50    3.94 
  -4   6  -1   32.77    3.83 
  -4   6   0    1.96    1.69 
  -4   6   0   -0.85    1.94 
  -4   6   0    0.40    1.77 
  -4   6   0    0.80    1.75 
  -4   6   1    1.60    1.79 
  -4   6   1    1.19    1.70 
  -4   6   1    0.84    2.10 
  -4   6   1    1.98    1.34 
  -4   6   1   -0.23    1.58 
  -4   6   2   40.29    4.37 
  -4   6   2   39.97    4.19 
  -4   6   2   45.89    4.51 
  -4   6   2   38.62    2.86 
  -4   6   2   40.90    3.01 
  -4   6   3  143.02    5.08 
  -4   6   3  139.47    7.99 
  -4   6   3  139.87    7.92 
  -4   6   3  142.85    5.81 
  -4   6   5   -0.43    2.12 
  -4   6   5    1.75    1.24 
  -4   6   5   -1.18    1.93 
  -4   6   6  145.49    8.03 
  -4   6   6  149.39    5.97 
  -4   6   6  141.91    7.97 
  -4   6   7   10.65    2.58 
  -4   6   7   12.15    2.66 
  -4   6   7    7.72    1.72 
  -4   6   8   69.89    5.52 
  -4   6   8   73.24    5.65 
  -4   6   9  192.01    9.41 
  -4   6   9  194.93    9.50 
  -4   7  -2    5.32    2.72 
  -4   7  -2    2.02    2.35 
  -4   7  -1   24.61    3.59 
  -4   7  -1   30.33    3.82 
  -4   7  -1   27.75    4.22 
  -4   7   0   84.97    6.65 
  -4   7   0   86.08    6.50 
  -4   7   0   91.66    5.60 
  -4   7   1    3.72    1.67 
  -4   7   1    8.22    2.57 
  -4   7   1    7.21    1.62 
  -4   7   2   97.73    6.99 
  -4   7   2  100.84    4.85 
  -4   7   2   95.35    7.03 
  -4   7   2   90.17    4.70 
  -4   7   3   34.95    4.63 
  -4   7   3   38.90    2.88 
  -4   7   3   41.08    4.54 
  -4   7   4   46.45    4.69 
  -4   7   5  121.53    8.12 
  -4   7   6   17.64    3.53 
  -4   7   7  102.39    7.04 
  -4   8   1  141.07    6.79 
  -4   8   1  134.76    9.04 
  -4   8   2    3.29    2.70 
  -4   8   3   83.60    7.07 
  -3 -11  -9   18.59    3.70 
  -3 -11  -9   25.32    3.54 
  -3 -11  -8   30.63    3.63 
  -3 -11  -8   22.96    4.10 
  -3 -11  -7  133.65    7.60 
  -3 -11  -7  130.66    8.26 
  -3 -11  -7  133.65    8.88 
  -3 -11  -6   28.24    4.28 
  -3 -11  -6   35.30    4.09 
  -3 -11  -6   32.93    4.38 
  -3 -11  -5   31.98    3.76 
  -3 -11  -5   35.40    4.44 
  -3 -11  -5   35.69    4.61 
  -3 -11  -4  133.64    8.43 
  -3 -11  -4  136.54    7.90 
  -3 -11  -4  150.85    9.39 
  -3 -11  -2   32.01    4.30 
  -3 -11  -2   34.84    4.05 
  -3 -11  -1  113.52    7.08 
  -3 -11   0    1.19    2.07 
  -3 -10 -11   24.83    4.27 
  -3 -10 -10  111.11    6.71 
  -3 -10 -10  113.71    8.01 
  -3 -10  -9  115.89    7.35 
  -3 -10  -9  116.45    8.04 
  -3 -10  -9  119.20    6.79 
  -3 -10  -8   26.32    3.28 
  -3 -10  -8   23.20    3.58 
  -3 -10  -8   30.16    4.12 
  -3 -10  -7   29.38    3.87 
  -3 -10  -7   28.53    3.97 
  -3 -10  -7   32.83    3.61 
  -3 -10  -6   94.94    5.91 
  -3 -10  -6   81.83    6.24 
  -3 -10  -6   82.30    6.42 
  -3 -10  -5   41.18    4.00 
  -3 -10  -5   35.18    4.33 
  -3 -10  -4  104.30    6.25 
  -3 -10  -4   85.27    6.40 
  -3 -10  -4   86.03    6.58 
  -3 -10  -3  519.05   19.24 
  -3 -10  -2   72.13    5.95 
  -3 -10  -1  158.90    8.08 
  -3 -10  -1  147.47    8.37 
  -3 -10   0  147.83    8.45 
  -3 -10   0  148.71    7.82 
  -3 -10   1   -2.11    2.17 
  -3 -10   1    2.80    1.81 
  -3 -10   2    9.39    2.38 
  -3  -9 -12   73.33    4.99 
  -3  -9 -12   89.07    7.04 
  -3  -9 -11   -0.31    1.40 
  -3  -9 -11   -0.97    2.50 
  -3  -9 -10  110.80    6.20 
  -3  -9 -10  110.10    6.68 
  -3  -9 -10  111.18    7.49 
  -3  -9  -9  106.30    6.14 
  -3  -9  -9  101.21    6.58 
  -3  -9  -9  111.88    7.42 
  -3  -9  -9  110.14    4.97 
  -3  -9  -8    0.88    0.95 
  -3  -9  -8   -0.31    1.46 
  -3  -9  -8    0.38    1.72 
  -3  -9  -8    0.43    2.27 
  -3  -9  -7   31.53    3.32 
  -3  -9  -7   33.85    3.78 
  -3  -9  -7   32.28    3.89 
  -3  -9  -6  239.66    9.72 
  -3  -9  -6  218.14   10.21 
  -3  -9  -6  228.62   10.62 
  -3  -9  -5   85.78    5.31 
  -3  -9  -5   85.39    5.95 
  -3  -9  -5   77.82    5.88 
  -3  -9  -5   78.31    4.56 
  -3  -9  -4   36.69    3.55 
  -3  -9  -4   40.49    4.19 
  -3  -9  -4   35.41    3.23 
  -3  -9  -4   37.06    4.13 
  -3  -9  -3  399.56   13.39 
  -3  -9  -3  396.35   13.96 
  -3  -9  -3  379.09   14.66 
  -3  -9  -3  417.08   15.45 
  -3  -9  -2  335.21   12.25 
  -3  -9  -2  356.58   14.18 
  -3  -9  -1   41.93    3.64 
  -3  -9  -1   47.93    4.03 
  -3  -9  -1   42.17    3.90 
  -3  -9  -1   40.32    4.15 
  -3  -9   0  387.07   14.66 
  -3  -9   0  378.99   13.11 
  -3  -9   1  427.35   14.31 
  -3  -9   1  378.41   13.06 
  -3  -9   1  416.31   15.01 
  -3  -9   2   45.44    3.87 
  -3  -9   2   43.89    3.46 
  -3  -9   2   40.42    2.09 
  -3  -9   2   40.10    4.14 
  -3  -9   3  199.79    8.77 
  -3  -9   4   16.98    2.54 
  -3  -8 -12   78.36    4.68 
  -3  -8 -12   74.01    6.13 
  -3  -8 -11   28.95    2.95 
  -3  -8 -11   26.55    4.11 
  -3  -8 -11   24.00    3.09 
  -3  -8 -11   28.58    2.75 
  -3  -8 -10    1.88    1.54 
  -3  -8 -10    1.54    1.23 
  -3  -8 -10    1.59    1.45 
  -3  -8 -10    0.84    2.17 
  -3  -8  -9  171.17    7.54 
  -3  -8  -9  171.31    6.42 
  -3  -8  -9  151.27    7.78 
  -3  -8  -9  175.90    8.92 
  -3  -8  -8   39.50    2.66 
  -3  -8  -8   41.14    3.99 
  -3  -8  -8   44.53    4.39 
  -3  -8  -8   49.46    3.72 
  -3  -8  -7    4.02    1.84 
  -3  -8  -7    3.59    0.97 
  -3  -8  -7    3.22    1.57 
  -3  -8  -7    1.82    1.85 
  -3  -8  -6  147.93    6.91 
  -3  -8  -6  150.77    7.86 
  -3  -8  -6  154.06    7.70 
  -3  -8  -5  222.00    8.90 
  -3  -8  -5  202.56    9.41 
  -3  -8  -4   98.41    5.38 
  -3  -8  -4   87.30    5.77 
  -3  -8  -4   84.42    5.80 
  -3  -8  -4   89.79    5.46 
  -3  -8  -3  317.50   11.13 
  -3  -8  -3  286.15   11.74 
  -3  -8  -3  296.43   11.13 
  -3  -8  -3  318.54   12.41 
  -3  -8  -3  296.96   10.59 
  -3  -8  -2  154.78    7.16 
  -3  -8  -2  169.27    8.37 
  -3  -8  -2  151.80    7.15 
  -3  -8  -1   53.17    3.94 
  -3  -8  -1   60.92    4.50 
  -3  -8  -1   65.98    5.15 
  -3  -8   0  123.82    6.01 
  -3  -8   0  143.65    6.69 
  -3  -8   0  134.79    7.26 
  -3  -8   0  137.72    7.10 
  -3  -8   1  738.18   22.79 
  -3  -8   1  725.28   20.81 
  -3  -8   2  381.56   12.57 
  -3  -8   2  349.97    9.69 
  -3  -8   2  354.97   13.09 
  -3  -8   2  351.81   11.41 
  -3  -8   3  196.67    8.17 
  -3  -8   3  188.97    8.76 
  -3  -8   3  185.32    7.13 
  -3  -8   4  259.07    9.76 
  -3  -8   4  250.77   10.27 
  -3  -8   4  245.91    8.47 
  -3  -8   5    9.19    2.01 
  -3  -8   6   10.00    1.89 
  -3  -7 -13   11.34    2.97 
  -3  -7 -13   10.35    3.19 
  -3  -7 -12   28.11    2.86 
  -3  -7 -12   30.27    4.02 
  -3  -7 -11   47.81    3.48 
  -3  -7 -11   51.67    3.53 
  -3  -7 -11   47.68    3.69 
  -3  -7 -11   51.18    4.82 
  -3  -7 -10   11.84    1.81 
  -3  -7 -10   11.08    1.94 
  -3  -7 -10    7.36    1.84 
  -3  -7 -10   10.63    1.91 
  -3  -7 -10    7.97    2.51 
  -3  -7  -9   18.82    2.30 
  -3  -7  -9   11.65    2.02 
  -3  -7  -9   15.23    2.43 
  -3  -7  -9   15.27    1.79 
  -3  -7  -9   13.91    2.88 
  -3  -7  -8   29.71    2.75 
  -3  -7  -8   25.84    2.07 
  -3  -7  -8   25.40    2.93 
  -3  -7  -8   24.67    1.36 
  -3  -7  -8   22.13    3.05 
  -3  -7  -7   58.62    3.84 
  -3  -7  -7   53.57    2.79 
  -3  -7  -7   49.81    4.02 
  -3  -7  -7   56.33    4.44 
  -3  -7  -6  138.04    6.77 
  -3  -7  -6  139.93    6.18 
  -3  -7  -6  125.04    3.44 
  -3  -7  -6  144.37    7.07 
  -3  -7  -5  631.73   17.86 
  -3  -7  -5  577.74   18.45 
  -3  -7  -5  593.08   18.64 
  -3  -7  -4  431.96   14.30 
  -3  -7  -4  433.21   13.41 
  -3  -7  -3   34.53    3.00 
  -3  -7  -3   28.23    3.05 
  -3  -7  -3   33.85    3.17 
  -3  -7  -3   33.38    3.28 
  -3  -7  -2  102.81    5.31 
  -3  -7  -2  107.25    5.35 
  -3  -7  -2  115.64    5.59 
  -3  -7  -2   94.88    5.66 
  -3  -7  -2  100.56    5.98 
  -3  -7  -1   30.31    3.07 
  -3  -7  -1   28.57    2.68 
  -3  -7  -1   25.60    3.09 
  -3  -7   0    2.76    1.84 
  -3  -7   0    3.70    1.32 
  -3  -7   0    2.16    1.33 
  -3  -7   0    3.86    1.69 
  -3  -7   1  235.63    9.72 
  -3  -7   1  222.19    8.05 
  -3  -7   1  249.71    8.90 
  -3  -7   1  215.56    9.19 
  -3  -7   2  750.09   20.52 
  -3  -7   2  720.14   17.84 
  -3  -7   2  701.99   21.18 
  -3  -7   2  691.12   21.80 
  -3  -7   2  705.38   19.31 
  -3  -7   3    9.42    1.78 
  -3  -7   3   11.96    1.67 
  -3  -7   3   14.27    2.13 
  -3  -7   3   14.89    2.34 
  -3  -7   4  237.78    7.77 
  -3  -7   4  232.83    8.94 
  -3  -7   4  245.02    9.57 
  -3  -7   4  242.51    8.91 
  -3  -7   5  255.46    9.30 
  -3  -7   5  251.37    7.93 
  -3  -7   5  258.12    9.25 
  -3  -7   5  256.24    9.72 
  -3  -7   7   55.08    3.48 
  -3  -6 -13  142.15    8.27 
  -3  -6 -13  141.57    8.30 
  -3  -6 -12   63.40    4.42 
  -3  -6 -12   61.37    5.30 
  -3  -6 -12   63.62    5.24 
  -3  -6 -11  368.37   12.08 
  -3  -6 -11  362.34   11.68 
  -3  -6 -11  357.97   11.14 
  -3  -6 -11  358.11   13.69 
  -3  -6 -10  184.56    7.35 
  -3  -6 -10  197.65    7.50 
  -3  -6 -10  213.05    7.49 
  -3  -6 -10  199.51    7.89 
  -3  -6 -10  198.41    9.05 
  -3  -6  -9   57.12    3.88 
  -3  -6  -9   55.92    3.43 
  -3  -6  -9   49.40    3.12 
  -3  -6  -9   59.44    4.55 
  -3  -6  -8    9.05    1.31 
  -3  -6  -8    8.88    1.48 
  -3  -6  -8   12.09    1.96 
  -3  -6  -8   10.07    2.16 
  -3  -6  -7    8.18    1.52 
  -3  -6  -7    5.01    1.43 
  -3  -6  -7    5.12    0.78 
  -3  -6  -7    6.19    1.06 
  -3  -6  -7    5.79    1.77 
  -3  -6  -6    1.39    0.98 
  -3  -6  -6    0.71    0.59 
  -3  -6  -6    0.78    1.36 
  -3  -6  -6    0.40    0.48 
  -3  -6  -5   84.26    4.44 
  -3  -6  -5   87.62    3.23 
  -3  -6  -5   97.62    5.22 
  -3  -6  -4  749.77   20.69 
  -3  -6  -4  750.96   18.51 
  -3  -6  -4  760.62   21.52 
  -3  -6  -3   15.54    1.96 
  -3  -6  -3   15.84    2.18 
  -3  -6  -2  281.90    9.63 
  -3  -6  -2  293.67   10.68 
  -3  -6  -1  256.26    8.82 
  -3  -6  -1  266.66   10.02 
  -3  -6  -1  252.59    9.26 
  -3  -6   0  261.30    9.76 
  -3  -6   0  266.72    8.79 
  -3  -6   1   13.51    1.60 
  -3  -6   1   10.23    1.62 
  -3  -6   1    9.92    2.15 
  -3  -6   2  122.91    4.85 
  -3  -6   2  131.20    4.07 
  -3  -6   2  127.69    5.57 
  -3  -6   2  115.35    5.91 
  -3  -6   2  124.81    6.62 
  -3  -6   3    0.60    0.92 
  -3  -6   3    0.78    1.11 
  -3  -6   3    3.88    1.93 
  -3  -6   3    0.75    1.35 
  -3  -6   4    1.16    1.12 
  -3  -6   4    1.21    1.29 
  -3  -6   4    0.96    0.90 
  -3  -6   5  363.35    9.80 
  -3  -6   5  331.95   11.18 
  -3  -6   5  369.86   11.28 
  -3  -6   5  337.51   11.62 
  -3  -6   6  256.75    8.92 
  -3  -6   6  271.37    9.01 
  -3  -6   6  265.00    9.33 
  -3  -6   6  267.22    9.06 
  -3  -6   7   -0.16    0.92 
  -3  -6   7    0.17    1.03 
  -3  -5 -13   88.31    6.14 
  -3  -5 -13   76.28    5.39 
  -3  -5 -13   70.28    5.61 
  -3  -5 -13   85.40    6.00 
  -3  -5 -12   69.52    5.41 
  -3  -5 -12   83.18    5.14 
  -3  -5 -11  161.47    7.33 
  -3  -5 -11  180.67    6.13 
  -3  -5 -11  173.41    6.38 
  -3  -5 -11  178.11    8.72 
  -3  -5 -11  167.51    8.26 
  -3  -5 -10  625.27   17.74 
  -3  -5 -10  652.10   20.30 
  -3  -5 -10  662.64   17.28 
  -3  -5 -10  617.95   17.31 
  -3  -5 -10  646.87   19.78 
  -3  -5 -10  626.87   17.28 
  -3  -5 -10  636.81   18.32 
  -3  -5  -9   24.18    2.06 
  -3  -5  -9   19.95    2.12 
  -3  -5  -9   20.86    2.22 
  -3  -5  -9   19.61    2.63 
  -3  -5  -8  258.74    8.46 
  -3  -5  -8  274.65    9.85 
  -3  -5  -7  183.20    6.65 
  -3  -5  -7  180.78    7.49 
  -3  -5  -7  179.99    5.94 
  -3  -5  -6  412.78   11.05 
  -3  -5  -6  437.68   12.54 
  -3  -5  -6  428.72   13.26 
  -3  -5  -5   22.39    1.23 
  -3  -5  -5   22.88    2.03 
  -3  -5  -5   22.73    2.32 
  -3  -5  -5   23.02    1.41 
  -3  -5  -4    2.02    0.62 
  -3  -5  -4    2.18    0.91 
  -3  -5  -4    3.60    1.25 
  -3  -5  -3    5.34    1.19 
  -3  -5  -3    3.84    0.86 
  -3  -5  -3    3.81    0.83 
  -3  -5  -3    3.24    1.13 
  -3  -5  -2    0.37    0.77 
  -3  -5  -2    1.00    0.79 
  -3  -5  -2    0.41    0.77 
  -3  -5  -2    0.43    0.96 
  -3  -5  -1  407.85   11.95 
  -3  -5  -1  409.36   13.17 
  -3  -5  -1  422.45   12.32 
  -3  -5   0  620.73   17.37 
  -3  -5   0  637.07   16.92 
  -3  -5   1   21.49    1.73 
  -3  -5   1   22.50    1.99 
  -3  -5   1   20.75    2.46 
  -3  -5   1   20.55    1.50 
  -3  -5   1   20.07    2.19 
  -3  -5   2   58.28    2.22 
  -3  -5   2   55.02    3.19 
  -3  -5   2   58.68    2.70 
  -3  -5   3  124.28    4.24 
  -3  -5   3  128.71    5.26 
  -3  -5   3  124.46    6.50 
  -3  -5   4  108.65    6.29 
  -3  -5   4  114.13    4.86 
  -3  -5   4  110.01    3.69 
  -3  -5   4  111.25    5.26 
  -3  -5   5    7.84    1.34 
  -3  -5   5   10.83    1.57 
  -3  -5   5    9.51    1.63 
  -3  -5   6  172.92    6.27 
  -3  -5   6  166.07    6.61 
  -3  -5   6  181.46    6.49 
  -3  -5   6  176.68    6.39 
  -3  -5   7  155.85    5.73 
  -3  -5   7  169.28    6.16 
  -3  -5   7  160.33    5.70 
  -3  -5   8    9.33    1.14 
  -3  -4 -13  159.11    8.22 
  -3  -4 -13  154.32    7.99 
  -3  -4 -13  136.24    7.72 
  -3  -4 -13  148.49    7.88 
  -3  -4 -12  303.22   11.84 
  -3  -4 -12  288.13   11.45 
  -3  -4 -12  279.70   11.39 
  -3  -4 -12  268.28   11.04 
  -3  -4 -11    7.51    2.08 
  -3  -4 -11   10.07    2.18 
  -3  -4 -11   14.27    2.66 
  -3  -4 -11   13.33    2.43 
  -3  -4 -10  163.84    5.63 
  -3  -4 -10  168.33    7.61 
  -3  -4 -10  164.07    5.88 
  -3  -4 -10  166.77    5.55 
  -3  -4 -10  156.98    7.82 
  -3  -4 -10  157.61    7.05 
  -3  -4  -9  455.46   12.45 
  -3  -4  -9  448.89   12.56 
  -3  -4  -9  449.37   11.31 
  -3  -4  -9  452.75   13.72 
  -3  -4  -9  455.97   14.41 
  -3  -4  -9  432.34   15.00 
  -3  -4  -9  430.92   12.83 
  -3  -4  -8   77.57    4.92 
  -3  -4  -8   71.26    2.36 
  -3  -4  -8   69.71    3.40 
  -3  -4  -8   77.04    2.49 
  -3  -4  -8   78.45    4.47 
  -3  -4  -8   80.48    3.68 
  -3  -4  -8   66.75    3.69 
  -3  -4  -7  532.27   14.49 
  -3  -4  -7  538.92   12.80 
  -3  -4  -7  513.64   14.37 
  -3  -4  -7  520.93   12.69 
  -3  -4  -7  523.34   14.60 
  -3  -4  -7  545.62   15.62 
  -3  -4  -6  556.13   14.97 
  -3  -4  -6  550.62   13.07 
  -3  -4  -6  531.74   14.09 
  -3  -4  -6  522.22   15.15 
  -3  -4  -6  556.69   15.62 
  -3  -4  -5   10.54    0.76 
  -3  -4  -5   11.62    0.90 
  -3  -4  -5   11.20    1.36 
  -3  -4  -5   12.04    1.55 
  -3  -4  -5   13.83    1.71 
  -3  -4  -4   58.34    2.15 
  -3  -4  -4   52.84    2.35 
  -3  -4  -4   55.13    3.10 
  -3  -4  -4   53.93    2.92 
  -3  -4  -3   97.34    4.07 
  -3  -4  -3   91.49    3.21 
  -3  -4  -3   81.01    4.04 
  -3  -4  -3   97.11    4.25 
  -3  -4  -3   82.13    3.19 
  -3  -4  -2   17.72    1.41 
  -3  -4  -2   17.54    1.64 
  -3  -4  -2   17.09    1.83 
  -3  -4  -2   17.84    1.89 
  -3  -4  -1  623.35   16.70 
  -3  -4  -1  620.97   16.22 
  -3  -4  -1  630.82   16.32 
  -3  -4  -1  603.22   16.97 
  -3  -4  -1  628.70   17.39 
  -3  -4   0  654.28   16.74 
  -3  -4   0  646.93   17.27 
  -3  -4   0  654.23   17.42 
  -3  -4   1  758.44   18.95 
  -3  -4   1  771.78   18.74 
  -3  -4   1  733.37   20.74 
  -3  -4   1  736.08   20.07 
  -3  -4   1  740.59   20.02 
  -3  -4   2    0.96    1.09 
  -3  -4   2    1.71    0.60 
  -3  -4   2    1.71    0.48 
  -3  -4   2    3.24    0.92 
  -3  -4   2    1.37    1.41 
  -3  -4   2    1.12    0.80 
  -3  -4   3  208.10    7.35 
  -3  -4   3  225.52    8.27 
  -3  -4   3  226.35    8.75 
  -3  -4   3  212.98    7.14 
  -3  -4   4  195.04    6.50 
  -3  -4   4  174.60    8.00 
  -3  -4   4  194.94    6.62 
  -3  -4   4  176.74    7.64 
  -3  -4   5    2.67    0.85 
  -3  -4   5    2.09    0.87 
  -3  -4   6  235.91    7.33 
  -3  -4   6  222.18    7.13 
  -3  -4   6  217.46    7.54 
  -3  -4   7  357.10   10.19 
  -3  -4   7  368.39   10.31 
  -3  -4   7  365.10   10.60 
  -3  -4   7  377.26   10.43 
  -3  -4   8  152.46    4.71 
  -3  -4   8  158.85    4.86 
  -3  -3 -13   50.94    4.49 
  -3  -3 -13   44.11    5.22 
  -3  -3 -12  254.36   10.43 
  -3  -3 -12  225.48    9.80 
  -3  -3 -12  239.37    9.99 
  -3  -3 -12  246.01   10.62 
  -3  -3 -11   69.33    4.98 
  -3  -3 -11   76.60    4.94 
  -3  -3 -11   78.98    5.10 
  -3  -3 -11   79.64    3.80 
  -3  -3 -11   76.41    5.20 
  -3  -3 -10   74.28    2.95 
  -3  -3 -10   76.77    4.92 
  -3  -3 -10   82.38    3.74 
  -3  -3 -10   76.16    3.10 
  -3  -3 -10   90.23    5.21 
  -3  -3 -10   82.37    4.83 
  -3  -3 -10   82.29    2.98 
  -3  -3 -10   73.65    5.03 
  -3  -3  -9  299.59    8.33 
  -3  -3  -9  282.92   10.82 
  -3  -3  -9  270.55   10.44 
  -3  -3  -9  289.43   10.15 
  -3  -3  -9  295.24    8.42 
  -3  -3  -9  288.84    8.71 
  -3  -3  -9  289.32   10.21 
  -3  -3  -8  157.60    6.93 
  -3  -3  -8  157.16    5.35 
  -3  -3  -8  159.17    6.36 
  -3  -3  -8  152.39    6.34 
  -3  -3  -8  155.26    5.27 
  -3  -3  -8  147.52    5.18 
  -3  -3  -8  149.43    6.99 
  -3  -3  -7   35.79    2.95 
  -3  -3  -7   37.01    2.24 
  -3  -3  -7   36.63    2.18 
  -3  -3  -7   36.24    2.53 
  -3  -3  -7   35.62    3.09 
  -3  -3  -7   35.23    2.28 
  -3  -3  -7   34.64    2.61 
  -3  -3  -6 1842.84   44.93 
  -3  -3  -6 1858.02   44.63 
  -3  -3  -6 1814.03   44.75 
  -3  -3  -6 1842.83   45.13 
  -3  -3  -6 1913.76   44.66 
  -3  -3  -6 1879.34   46.60 
  -3  -3  -5  283.51    9.77 
  -3  -3  -5  298.58    8.77 
  -3  -3  -5  298.45    7.89 
  -3  -3  -5  289.71    9.01 
  -3  -3  -5  293.54    8.84 
  -3  -3  -5  300.38    8.90 
  -3  -3  -5  291.02    8.10 
  -3  -3  -4  218.09    7.07 
  -3  -3  -4  216.35    6.19 
  -3  -3  -4  226.39    7.38 
  -3  -3  -4  237.95    7.06 
  -3  -3  -4  230.81    7.23 
  -3  -3  -4  221.92    5.84 
  -3  -3  -3    7.03    1.08 
  -3  -3  -3    5.36    0.96 
  -3  -3  -3    7.76    1.24 
  -3  -3  -3    5.93    1.14 
  -3  -3  -3    7.47    0.80 
  -3  -3  -3    9.98    1.18 
  -3  -3  -3    8.46    1.00 
  -3  -3  -2    3.13    0.69 
  -3  -3  -2    2.80    0.83 
  -3  -3  -2    3.01    1.00 
  -3  -3  -2    3.78    0.81 
  -3  -3  -2    4.09    1.02 
  -3  -3  -2    5.24    0.95 
  -3  -3  -1   99.06    3.99 
  -3  -3  -1   98.79    3.72 
  -3  -3  -1   95.84    4.17 
  -3  -3   0  369.68   10.11 
  -3  -3   0  365.84   10.48 
  -3  -3   0  368.61   10.46 
  -3  -3   0  373.04   10.53 
  -3  -3   1  550.84   13.79 
  -3  -3   1  543.58   14.81 
  -3  -3   1  521.02   14.81 
  -3  -3   2 1642.09   41.31 
  -3  -3   2 1650.85   41.97 
  -3  -3   2 1720.46   39.60 
  -3  -3   2 1677.02   40.60 
  -3  -3   2 1623.94   40.86 
  -3  -3   2 1716.77   40.78 
  -3  -3   3   63.44    3.22 
  -3  -3   3   59.88    3.96 
  -3  -3   3   62.32    2.97 
  -3  -3   3   66.65    3.74 
  -3  -3   3   62.39    3.05 
  -3  -3   4  641.08   18.78 
  -3  -3   4  689.17   17.44 
  -3  -3   4  654.48   17.64 
  -3  -3   4  679.53   17.51 
  -3  -3   5   88.69    3.68 
  -3  -3   5   91.98    3.78 
  -3  -3   5   92.10    3.90 
  -3  -3   6   26.79    1.80 
  -3  -3   6   21.19    2.67 
  -3  -3   6   24.25    1.70 
  -3  -3   6   22.68    3.06 
  -3  -3   7  205.06    6.63 
  -3  -3   7  218.63    6.36 
  -3  -3   7  214.28    6.44 
  -3  -2 -13    0.33    1.78 
  -3  -2 -13    0.44    2.40 
  -3  -2 -13    0.53    2.81 
  -3  -2 -12  242.22    9.95 
  -3  -2 -12  249.42   10.28 
  -3  -2 -12  257.24    9.93 
  -3  -2 -11  138.13    6.84 
  -3  -2 -11  125.02    6.34 
  -3  -2 -11  125.47    5.72 
  -3  -2 -11  112.60    6.05 
  -3  -2 -11  129.22    7.15 
  -3  -2 -10    0.39    0.98 
  -3  -2 -10   -0.29    1.48 
  -3  -2 -10   -0.52    1.47 
  -3  -2 -10   -0.72    1.46 
  -3  -2  -9    5.00    0.80 
  -3  -2  -9    4.83    1.65 
  -3  -2  -9    3.19    1.52 
  -3  -2  -9    4.65    1.27 
  -3  -2  -9    3.80    1.43 
  -3  -2  -8  196.64    7.86 
  -3  -2  -8  180.28    5.81 
  -3  -2  -8  184.40    6.92 
  -3  -2  -8  179.41    5.84 
  -3  -2  -8  184.25    5.71 
  -3  -2  -8  192.88    7.55 
  -3  -2  -7  337.58   10.97 
  -3  -2  -7  315.32   11.03 
  -3  -2  -7  337.95    9.32 
  -3  -2  -7  320.46   10.05 
  -3  -2  -7  333.11    9.56 
  -3  -2  -7  339.00    9.45 
  -3  -2  -6  523.27   13.98 
  -3  -2  -6  518.29   15.26 
  -3  -2  -6  529.60   13.89 
  -3  -2  -6  521.60   14.14 
  -3  -2  -6  521.20   14.14 
  -3  -2  -6  555.66   15.75 
  -3  -2  -5 1538.01   35.85 
  -3  -2  -5 1431.96   36.77 
  -3  -2  -5 1480.48   35.41 
  -3  -2  -5 1494.04   35.99 
  -3  -2  -5 1433.45   35.66 
  -3  -2  -5 1449.43   37.03 
  -3  -2  -4  402.00   12.03 
  -3  -2  -4  391.99   11.13 
  -3  -2  -4  417.92   11.28 
  -3  -2  -4  403.79   10.56 
  -3  -2  -4  406.76   11.41 
  -3  -2  -4  415.21   11.97 
  -3  -2  -3  411.53   10.47 
  -3  -2  -3  415.32   11.62 
  -3  -2  -3  419.11   12.07 
  -3  -2  -3  420.00   11.13 
  -3  -2  -3  444.00   11.79 
  -3  -2  -3  442.21   10.96 
  -3  -2  -3  441.26   12.26 
  -3  -2  -2   14.61    1.41 
  -3  -2  -2   17.94    1.63 
  -3  -2  -2   15.85    0.87 
  -3  -2  -2   16.96    1.28 
  -3  -2  -2   16.04    1.53 
  -3  -2  -2   18.25    1.26 
  -3  -2  -2   18.17    1.47 
  -3  -2  -2   19.13    1.40 
  -3  -2  -1  337.61    9.52 
  -3  -2  -1  336.82    9.43 
  -3  -2  -1  328.86    8.45 
  -3  -2  -1  334.00    9.43 
  -3  -2  -1  316.05    9.07 
  -3  -2  -1  326.01    9.15 
  -3  -2   0    1.20    0.66 
  -3  -2   0    0.10    0.61 
  -3  -2   0    1.50    0.74 
  -3  -2   1   79.13    2.68 
  -3  -2   1   76.61    3.00 
  -3  -2   1   75.89    3.42 
  -3  -2   1   78.30    3.54 
  -3  -2   2   24.57    1.02 
  -3  -2   2   25.91    2.21 
  -3  -2   2   26.05    1.55 
  -3  -2   2   21.55    1.90 
  -3  -2   2   25.05    1.85 
  -3  -2   2   21.96    1.70 
  -3  -2   3   35.85    2.13 
  -3  -2   3   36.89    2.57 
  -3  -2   3   35.24    2.10 
  -3  -2   3   34.87    2.19 
  -3  -2   4  141.28    4.93 
  -3  -2   4  150.20    5.10 
  -3  -2   4  145.59    5.19 
  -3  -2   5 1529.44   39.66 
  -3  -2   5 1523.40   37.48 
  -3  -2   5 1567.34   37.31 
  -3  -2   5 1557.01   37.17 
  -3  -2   6  206.84    8.41 
  -3  -2   6  188.27    6.10 
  -3  -2   6  194.26    7.84 
  -3  -2   6  192.94    6.25 
  -3  -2   6  203.17    6.07 
  -3  -2   7  183.17    5.78 
  -3  -2   7  172.85    7.72 
  -3  -2   7  191.67    5.65 
  -3  -2   8  136.87    4.05 
  -3  -1 -12   48.28    4.18 
  -3  -1 -12   50.45    3.95 
  -3  -1 -12   51.18    5.59 
  -3  -1 -11  245.25    9.31 
  -3  -1 -11  244.75    9.94 
  -3  -1 -11  261.59    9.76 
  -3  -1 -11  250.20    9.58 
  -3  -1 -10   47.54    3.48 
  -3  -1 -10   51.07    3.66 
  -3  -1 -10   41.88    3.34 
  -3  -1 -10   42.63    3.76 
  -3  -1  -9    9.47    0.85 
  -3  -1  -9   10.48    1.75 
  -3  -1  -9   11.80    1.93 
  -3  -1  -9    9.37    0.90 
  -3  -1  -9   11.37    1.79 
  -3  -1  -9    6.58    1.78 
  -3  -1  -8  183.73    7.18 
  -3  -1  -8  180.06    5.63 
  -3  -1  -8  189.12    7.71 
  -3  -1  -8  179.69    5.68 
  -3  -1  -8  179.74    6.67 
  -3  -1  -7  885.57   23.69 
  -3  -1  -7  873.15   22.64 
  -3  -1  -7  849.14   24.05 
  -3  -1  -7  888.36   22.23 
  -3  -1  -7  912.41   22.10 
  -3  -1  -6   18.69    2.18 
  -3  -1  -6   19.95    1.56 
  -3  -1  -6   17.16    1.89 
  -3  -1  -6   20.33    1.53 
  -3  -1  -5  400.29   11.09 
  -3  -1  -5  407.07   12.26 
  -3  -1  -5  388.97   10.37 
  -3  -1  -5  394.01   11.88 
  -3  -1  -5  418.07   11.04 
  -3  -1  -4  624.66   16.22 
  -3  -1  -4  615.60   15.02 
  -3  -1  -4  632.05   16.96 
  -3  -1  -4  644.45   16.39 
  -3  -1  -4  656.02   17.32 
  -3  -1  -3  530.88   14.20 
  -3  -1  -3  512.66   13.70 
  -3  -1  -3  508.31   14.24 
  -3  -1  -3  527.60   13.84 
  -3  -1  -3  507.49   13.23 
  -3  -1  -2  689.10   18.33 
  -3  -1  -2  706.20   18.34 
  -3  -1  -2  718.21   17.48 
  -3  -1  -2  714.39   18.28 
  -3  -1  -2  703.38   18.10 
  -3  -1  -1 3423.40   79.57 
  -3  -1  -1 3383.80   80.32 
  -3  -1  -1 3392.80   80.04 
  -3  -1  -1 3496.68   80.44 
  -3  -1  -1 3503.24   80.32 
  -3  -1  -1 3385.01   80.03 
  -3  -1   0   10.98    1.23 
  -3  -1   0    8.92    1.09 
  -3  -1   0    6.72    0.95 
  -3  -1   0   11.86    1.19 
  -3  -1   0    7.80    1.01 
  -3  -1   0    7.02    1.01 
  -3  -1   1    1.95    0.67 
  -3  -1   1    3.07    0.60 
  -3  -1   1    2.38    0.86 
  -3  -1   1    3.60    0.87 
  -3  -1   2    2.79    0.94 
  -3  -1   2    1.80    0.51 
  -3  -1   2    1.49    1.03 
  -3  -1   2    1.51    0.78 
  -3  -1   3   57.78    2.04 
  -3  -1   3   58.98    3.31 
  -3  -1   3   60.90    3.34 
  -3  -1   3   63.37    2.83 
  -3  -1   3   61.18    2.87 
  -3  -1   4   17.67    2.12 
  -3  -1   4   19.40    1.49 
  -3  -1   4   15.55    1.44 
  -3  -1   5  119.65    5.48 
  -3  -1   5  109.70    5.15 
  -3  -1   5  124.04    4.34 
  -3  -1   6  529.22   15.95 
  -3  -1   6  515.52   15.46 
  -3  -1   6  518.47   13.92 
  -3  -1   6  530.97   13.76 
  -3  -1   7    5.11    1.62 
  -3  -1   7    4.28    0.83 
  -3  -1   7    3.63    0.85 
  -3  -1   8  467.66   14.98 
  -3  -1   8  467.35   11.88 
  -3   0 -12   -1.71    3.00 
  -3   0 -12   -0.99    1.91 
  -3   0 -12    0.32    1.79 
  -3   0 -11   95.66    7.39 
  -3   0 -11   84.16    5.46 
  -3   0 -11   92.22    5.58 
  -3   0 -10  173.34    7.92 
  -3   0 -10  163.79    6.85 
  -3   0 -10  163.32    6.98 
  -3   0 -10  177.06    7.83 
  -3   0  -9  315.53    8.22 
  -3   0  -9  300.84   10.17 
  -3   0  -9  302.44   10.26 
  -3   0  -9  319.97   11.32 
  -3   0  -8  317.13   11.18 
  -3   0  -8  322.26   10.00 
  -3   0  -8  315.56    8.95 
  -3   0  -8  315.89   10.37 
  -3   0  -8  319.52    8.87 
  -3   0  -7 1132.16   29.31 
  -3   0  -7 1150.99   30.23 
  -3   0  -6  140.40    5.62 
  -3   0  -6  138.20    5.03 
  -3   0  -6  133.96    6.02 
  -3   0  -5   12.35    1.57 
  -3   0  -5   10.37    1.66 
  -3   0  -5   11.21    0.96 
  -3   0  -5    9.23    1.21 
  -3   0  -4  365.48   11.12 
  -3   0  -4  349.97   10.39 
  -3   0  -4  356.00   10.26 
  -3   0  -4  358.65   10.62 
  -3   0  -3 1944.32   45.71 
  -3   0  -3 1862.42   45.39 
  -3   0  -3 1868.87   45.25 
  -3   0  -3 1884.96   45.99 
  -3   0  -2   44.12    2.41 
  -3   0  -2   51.11    2.73 
  -3   0  -2   46.71    2.63 
  -3   0  -2   47.49    2.73 
  -3   0  -1 3982.20   91.49 
  -3   0  -1 3917.93   91.82 
  -3   0  -1 4017.44   91.93 
  -3   0  -1 3770.09   91.88 
  -3   0   0 2648.54   61.40 
  -3   0   0 2583.63   61.62 
  -3   0   0 2629.80   61.45 
  -3   0   0 2602.46   61.70 
  -3   0   0 2540.88   61.23 
  -3   0   1    3.11    0.91 
  -3   0   1    2.64    0.79 
  -3   0   2  227.45    6.45 
  -3   0   2  216.13    7.27 
  -3   0   3   35.44    1.90 
  -3   0   3   33.28    2.58 
  -3   0   3   40.06    2.34 
  -3   0   4  108.89    4.64 
  -3   0   4  105.59    4.55 
  -3   0   4  117.89    4.44 
  -3   0   4  111.66    5.21 
  -3   0   5   16.07    1.78 
  -3   0   5   17.18    1.57 
  -3   0   5   18.94    1.97 
  -3   0   6  182.26    6.21 
  -3   0   6  191.94    7.13 
  -3   0   6  198.78    7.35 
  -3   0   7   44.09    3.18 
  -3   0   7   45.99    2.41 
  -3   0   8   10.17    2.05 
  -3   0   8    7.60    1.03 
  -3   0   9   29.49    1.60 
  -3   0   9   29.86    3.07 
  -3   0   9   29.88    1.67 
  -3   1 -11   -1.14    2.99 
  -3   1 -11    3.53    2.05 
  -3   1 -11    3.28    2.05 
  -3   1 -10   25.05    4.31 
  -3   1 -10   29.64    3.37 
  -3   1 -10   32.30    3.55 
  -3   1  -9  413.27   13.97 
  -3   1  -9  412.25   12.63 
  -3   1  -8   84.73    3.62 
  -3   1  -8   86.66    5.14 
  -3   1  -8   89.69    4.44 
  -3   1  -8   88.17    3.76 
  -3   1  -7 1090.26   27.06 
  -3   1  -7 1110.77   28.06 
  -3   1  -7 1041.84   26.93 
  -3   1  -7 1109.69   29.29 
  -3   1  -6  999.76   25.95 
  -3   1  -6  986.01   24.83 
  -3   1  -6  954.43   24.07 
  -3   1  -5   14.82    1.54 
  -3   1  -5   13.29    1.95 
  -3   1  -5   10.64    1.62 
  -3   1  -5   14.09    1.72 
  -3   1  -5   11.93    1.04 
  -3   1  -4  102.50    4.75 
  -3   1  -4   99.36    4.45 
  -3   1  -4  115.21    4.76 
  -3   1  -4  108.69    3.30 
  -3   1  -4  112.98    5.19 
  -3   1  -3 1012.35   26.35 
  -3   1  -3 1005.34   26.29 
  -3   1  -3 1061.91   26.93 
  -3   1  -3 1052.88   26.33 
  -3   1  -3 1031.92   24.23 
  -3   1  -2   77.97    3.80 
  -3   1  -2   83.96    4.00 
  -3   1  -2   78.97    3.73 
  -3   1  -2   78.47    3.73 
  -3   1  -1 1152.32   29.41 
  -3   1  -1 1172.92   29.66 
  -3   1  -1 1210.30   29.63 
  -3   1  -1 1190.33   29.75 
  -3   1   0 2644.27   64.28 
  -3   1   0 2787.64   64.60 
  -3   1   0 2687.60   64.19 
  -3   1   1  231.99    7.68 
  -3   1   1  237.18    7.78 
  -3   1   1  233.37    7.42 
  -3   1   2   52.66    3.16 
  -3   1   3  825.04   22.32 
  -3   1   3  838.41   21.56 
  -3   1   3  835.03   21.42 
  -3   1   4  977.16   25.29 
  -3   1   4  991.10   24.98 
  -3   1   4 1001.96   24.72 
  -3   1   4 1007.31   25.42 
  -3   1   4  963.82   25.14 
  -3   1   4  990.94   26.38 
  -3   1   5    2.66    0.96 
  -3   1   5    0.71    1.27 
  -3   1   5    0.71    1.19 
  -3   1   5    1.52    0.87 
  -3   1   5    2.98    1.06 
  -3   1   6   92.38    4.36 
  -3   1   6   91.19    4.25 
  -3   1   6   89.96    4.00 
  -3   1   6   93.41    5.22 
  -3   1   7    0.95    0.79 
  -3   1   7    0.38    1.28 
  -3   1   8   39.66    3.08 
  -3   1   8   41.31    2.45 
  -3   1   9   15.89    1.56 
  -3   1   9   15.31    1.51 
  -3   1   9   13.65    2.25 
  -3   1  10  449.20   14.40 
  -3   1  10  440.91   11.74 
  -3   2 -10   16.71    2.97 
  -3   2 -10   12.46    3.24 
  -3   2 -10   12.85    2.69 
  -3   2  -9   68.47    6.29 
  -3   2  -9   72.30    5.12 
  -3   2  -9   70.90    5.41 
  -3   2  -8    1.49    1.75 
  -3   2  -8    3.57    1.30 
  -3   2  -7  169.34    6.32 
  -3   2  -7  179.78    6.58 
  -3   2  -7  173.54    6.74 
  -3   2  -7  167.81    7.75 
  -3   2  -6  433.23   14.31 
  -3   2  -6  470.76   13.58 
  -3   2  -6  441.52   12.40 
  -3   2  -6  469.21   13.32 
  -3   2  -6  466.69   14.84 
  -3   2  -5  237.48    8.10 
  -3   2  -5  222.75    8.65 
  -3   2  -5  249.55    8.32 
  -3   2  -5  249.03    9.20 
  -3   2  -5  231.43    7.04 
  -3   2  -4   97.54    4.51 
  -3   2  -4   96.92    4.89 
  -3   2  -4   92.11    4.40 
  -3   2  -4   93.39    3.49 
  -3   2  -4  100.01    5.14 
  -3   2  -3 2366.85   58.35 
  -3   2  -3 2451.90   59.00 
  -3   2  -3 2389.42   56.38 
  -3   2  -3 2441.01   58.17 
  -3   2  -2  450.63   13.32 
  -3   2  -2  447.74   11.79 
  -3   2  -2  445.62   13.61 
  -3   2  -2  461.20   13.28 
  -3   2  -1    1.05    0.91 
  -3   2  -1    1.19    1.13 
  -3   2  -1    0.94    1.13 
  -3   2  -1    1.08    0.70 
  -3   2   0  251.01    8.60 
  -3   2   0  258.98    8.59 
  -3   2   0  259.76    8.62 
  -3   2   1  234.38    8.05 
  -3   2   1  235.22    8.04 
  -3   2   1  229.43    7.20 
  -3   2   2  101.78    4.73 
  -3   2   2  101.54    4.62 
  -3   2   2   93.92    3.87 
  -3   2   3  644.92   18.40 
  -3   2   3  651.37   17.45 
  -3   2   3  662.40   17.96 
  -3   2   4 1742.89   43.76 
  -3   2   4 1771.16   43.03 
  -3   2   4 1750.92   42.40 
  -3   2   4 1745.74   41.29 
  -3   2   4 1717.74   42.43 
  -3   2   4 1705.44   42.79 
  -3   2   5  292.37    8.38 
  -3   2   5  302.93    9.47 
  -3   2   5  282.61    9.18 
  -3   2   5  299.96    9.52 
  -3   2   5  293.18   10.54 
  -3   2   6  244.63    8.21 
  -3   2   6  247.05    8.34 
  -3   2   6  242.11    9.52 
  -3   2   7   61.86    3.55 
  -3   2   7   60.26    3.39 
  -3   2   8  151.45    6.18 
  -3   2   8  142.65    5.73 
  -3   2   9   33.28    2.47 
  -3   2   9   39.93    2.76 
  -3   2   9   30.93    2.77 
  -3   2  10  225.65    7.67 
  -3   2  10  237.82    8.85 
  -3   2  11  163.29    7.28 
  -3   3  -9  403.56   16.99 
  -3   3  -9  413.14   15.39 
  -3   3  -9  364.85   14.00 
  -3   3  -8   10.27    2.65 
  -3   3  -7    1.58    1.58 
  -3   3  -6    3.60    2.02 
  -3   3  -6    2.27    1.16 
  -3   3  -6    3.84    1.42 
  -3   3  -5  196.67    7.53 
  -3   3  -5  203.04    8.50 
  -3   3  -5  204.26    7.76 
  -3   3  -5  181.51    6.40 
  -3   3  -4   32.94    3.25 
  -3   3  -4   37.79    2.35 
  -3   3  -4   35.31    3.14 
  -3   3  -3  580.14   17.25 
  -3   3  -3  588.34   16.99 
  -3   3  -3  574.18   15.49 
  -3   3  -3  615.17   17.82 
  -3   3  -2  877.59   23.89 
  -3   3  -2  867.13   23.95 
  -3   3  -2  887.41   22.43 
  -3   3  -2  902.89   24.49 
  -3   3  -1   88.06    4.70 
  -3   3  -1   98.43    5.06 
  -3   3  -1   98.44    4.89 
  -3   3  -1   95.22    4.06 
  -3   3   0  552.33   16.37 
  -3   3   0  571.91   16.70 
  -3   3   0  575.67   16.55 
  -3   3   0  563.96   15.52 
  -3   3   1  324.27   10.88 
  -3   3   1  338.15   10.36 
  -3   3   1  317.18   10.62 
  -3   3   1  329.17   10.87 
  -3   3   1  323.80    9.50 
  -3   3   2  701.47   19.80 
  -3   3   2  718.14   18.38 
  -3   3   2  702.48   19.87 
  -3   3   3    0.66    1.16 
  -3   3   3    2.04    0.92 
  -3   3   4 1157.12   29.53 
  -3   3   4 1116.90   27.90 
  -3   3   4 1080.59   28.12 
  -3   3   4 1088.13   29.56 
  -3   3   5  619.05   18.26 
  -3   3   5  593.20   17.66 
  -3   3   5  612.70   16.54 
  -3   3   5  600.31   16.63 
  -3   3   5  597.27   17.32 
  -3   3   6    8.96    1.65 
  -3   3   6    8.26    1.56 
  -3   3   6    6.90    1.36 
  -3   3   7   18.61    1.94 
  -3   3   7   13.41    1.83 
  -3   3   8  496.37   14.69 
  -3   3   8  481.06   14.32 
  -3   3   8  491.73   14.78 
  -3   3   9    8.01    1.59 
  -3   3   9    8.71    1.77 
  -3   3   9    7.00    1.61 
  -3   3  10  256.53    9.18 
  -3   3  11  150.65    6.65 
  -3   4  -8   90.58    6.16 
  -3   4  -7    3.55    2.05 
  -3   4  -7    3.57    2.90 
  -3   4  -6   55.57    4.61 
  -3   4  -6   47.37    3.68 
  -3   4  -6   40.60    4.82 
  -3   4  -5   12.44    2.92 
  -3   4  -5   10.89    2.01 
  -3   4  -5   10.09    2.24 
  -3   4  -5   12.96    2.04 
  -3   4  -4  123.15    6.64 
  -3   4  -4  119.89    6.12 
  -3   4  -4  123.79    5.14 
  -3   4  -4  127.75    6.12 
  -3   4  -3   21.92    2.88 
  -3   4  -3   20.05    2.53 
  -3   4  -3   24.86    2.66 
  -3   4  -3   19.68    2.63 
  -3   4  -3   23.68    2.13 
  -3   4  -2  337.52   11.77 
  -3   4  -2  300.76    9.74 
  -3   4  -2  308.71   11.07 
  -3   4  -2  323.42   11.18 
  -3   4  -1  617.36   18.67 
  -3   4  -1  636.04   19.23 
  -3   4  -1  647.72   18.92 
  -3   4  -1  649.90   17.64 
  -3   4   0   39.40    3.36 
  -3   4   0   46.90    3.82 
  -3   4   0   48.73    3.66 
  -3   4   0   47.18    3.14 
  -3   4   1  209.99    8.12 
  -3   4   1  203.13    8.38 
  -3   4   1  195.04    6.67 
  -3   4   1  191.22    7.45 
  -3   4   1  196.08    8.09 
  -3   4   2  608.48   19.03 
  -3   4   2  657.34   18.90 
  -3   4   2  656.88   17.03 
  -3   4   2  643.17   18.49 
  -3   4   2  642.98   19.01 
  -3   4   3   13.83    2.19 
  -3   4   3   14.16    2.15 
  -3   4   4  576.25   16.23 
  -3   4   4  598.57   17.90 
  -3   4   4  562.88   17.49 
  -3   4   5  739.82   20.15 
  -3   4   5  751.94   19.71 
  -3   4   5  750.95   21.92 
  -3   4   5  758.86   21.51 
  -3   4   6  229.47    9.00 
  -3   4   6  229.89    7.88 
  -3   4   6  250.36    9.32 
  -3   4   6  233.59    8.08 
  -3   4   7    8.82    1.94 
  -3   4   7   12.04    1.73 
  -3   4   7   12.69    1.98 
  -3   4   8  445.06   13.25 
  -3   4   8  442.61   14.30 
  -3   4   8  444.00   14.21 
  -3   4   9  104.73    5.46 
  -3   4   9  101.54    4.89 
  -3   4   9  101.04    5.51 
  -3   4  10   16.98    2.16 
  -3   4  10   14.87    2.35 
  -3   4  11   89.34    4.98 
  -3   5  -7  125.38    7.58 
  -3   5  -7  137.75    9.23 
  -3   5  -6   25.77    4.31 
  -3   5  -6   23.64    3.38 
  -3   5  -5  117.43    7.12 
  -3   5  -5  121.80    6.60 
  -3   5  -5  126.86    7.95 
  -3   5  -4    1.21    1.32 
  -3   5  -4    4.68    1.97 
  -3   5  -4    6.95    2.87 
  -3   5  -4    3.98    1.63 
  -3   5  -3    0.70    1.59 
  -3   5  -3    3.70    1.82 
  -3   5  -3    0.91    1.39 
  -3   5  -3    0.99    1.25 
  -3   5  -3   -0.36    1.90 
  -3   5  -2    7.93    2.03 
  -3   5  -2    7.08    1.93 
  -3   5  -2    5.71    2.25 
  -3   5  -2    6.26    1.64 
  -3   5  -2    4.36    1.92 
  -3   5  -1  516.48   16.52 
  -3   5  -1  515.29   16.07 
  -3   5  -1  503.64   16.75 
  -3   5  -1  502.61   16.51 
  -3   5  -1  490.97   15.04 
  -3   5   0  662.56   20.72 
  -3   5   0  715.31   19.78 
  -3   5   0  683.76   20.96 
  -3   5   0  670.44   20.44 
  -3   5   0  692.64   19.59 
  -3   5   0  711.21   21.28 
  -3   5   1    9.72    1.69 
  -3   5   1   10.82    2.34 
  -3   5   1   13.91    2.39 
  -3   5   1    8.21    2.05 
  -3   5   1   12.92    2.44 
  -3   5   1    9.93    2.09 
  -3   5   2  723.24   21.38 
  -3   5   2  745.42   19.27 
  -3   5   2  738.30   22.21 
  -3   5   2  742.99   22.10 
  -3   5   2  732.29   21.17 
  -3   5   2  731.33   21.92 
  -3   5   2  727.87   19.23 
  -3   5   3  494.34   12.62 
  -3   5   3  484.53   15.97 
  -3   5   3  464.15   13.30 
  -3   5   3  510.78   16.22 
  -3   5   5  284.01    8.80 
  -3   5   5  276.11    9.45 
  -3   5   5  283.93   11.05 
  -3   5   5  284.91   10.92 
  -3   5   5  290.34   11.37 
  -3   5   6   56.18    3.19 
  -3   5   6   61.06    3.58 
  -3   5   6   56.63    4.37 
  -3   5   6   55.28    4.25 
  -3   5   7   27.80    3.10 
  -3   5   7   31.89    2.64 
  -3   5   7   33.81    3.34 
  -3   5   8  466.12   13.81 
  -3   5   8  465.79   15.40 
  -3   5   8  458.28   15.39 
  -3   5   9  405.90   12.45 
  -3   5   9  400.82   13.95 
  -3   5  10   58.15    3.63 
  -3   5  10   56.72    4.40 
  -3   5  11    2.90    1.80 
  -3   6  -6   85.45    6.44 
  -3   6  -6   96.42    7.64 
  -3   6  -5    4.51    2.78 
  -3   6  -5    6.80    2.66 
  -3   6  -4  152.35    8.44 
  -3   6  -4  152.10    8.75 
  -3   6  -4  141.77    7.73 
  -3   6  -3  150.76    8.33 
  -3   6  -3  150.48    8.30 
  -3   6  -3  157.27    8.11 
  -3   6  -2   51.65    4.42 
  -3   6  -2   57.12    4.98 
  -3   6  -2   55.00    4.69 
  -3   6  -2   50.26    4.58 
  -3   6  -1   41.31    3.77 
  -3   6  -1   27.89    3.40 
  -3   6  -1   35.11    3.84 
  -3   6  -1   27.15    3.44 
  -3   6  -1   34.92    3.17 
  -3   6   0   84.67    5.87 
  -3   6   0   81.98    5.67 
  -3   6   0   76.82    4.77 
  -3   6   0   78.93    4.85 
  -3   6   0   86.85    5.80 
  -3   6   1  124.16    5.72 
  -3   6   1  138.51    7.56 
  -3   6   1  114.70    6.87 
  -3   6   1  129.60    7.19 
  -3   6   1  124.46    6.40 
  -3   6   2  289.65   12.31 
  -3   6   2  312.72   12.23 
  -3   6   2  308.88    9.62 
  -3   6   2  307.25   12.20 
  -3   6   2  306.96   11.39 
  -3   6   2  301.96    9.44 
  -3   6   3 1167.56   32.67 
  -3   6   3 1123.85   32.90 
  -3   6   3 1211.15   32.82 
  -3   6   3 1112.04   31.63 
  -3   6   3 1190.08   28.21 
  -3   6   3 1108.10   28.77 
  -3   6   5   40.99    2.52 
  -3   6   5   35.24    2.97 
  -3   6   5   37.18    3.82 
  -3   6   6  304.43   11.88 
  -3   6   6  287.23    9.83 
  -3   6   6  285.23    8.82 
  -3   6   6  286.63   11.66 
  -3   6   7   69.27    5.18 
  -3   6   7   54.74    3.65 
  -3   6   7   64.99    5.03 
  -3   6   8  104.64    5.05 
  -3   6   8  103.25    6.40 
  -3   6   9  115.61    5.29 
  -3   6   9  118.71    6.84 
  -3   6  10  138.22    7.49 
  -3   7  -4   50.93    5.23 
  -3   7  -4   54.25    5.78 
  -3   7  -3  317.77   13.49 
  -3   7  -3  310.82   13.55 
  -3   7  -3  308.23   12.89 
  -3   7  -2   17.25    3.37 
  -3   7  -2   19.54    3.28 
  -3   7  -2   15.92    3.19 
  -3   7  -1   73.44    5.97 
  -3   7  -1   73.60    5.76 
  -3   7  -1   77.81    5.48 
  -3   7   0  101.65    7.08 
  -3   7   0  105.03    5.88 
  -3   7   0  111.89    7.17 
  -3   7   1    2.06    1.99 
  -3   7   1    3.06    1.64 
  -3   7   1    4.37    2.15 
  -3   7   1    4.09    2.18 
  -3   7   1    1.80    1.20 
  -3   7   2   11.14    1.80 
  -3   7   2    6.19    2.11 
  -3   7   2    5.27    2.31 
  -3   7   2    5.73    2.18 
  -3   7   2    6.63    1.42 
  -3   7   3  233.47    7.72 
  -3   7   3  240.52   11.02 
  -3   7   3  230.01   10.76 
  -3   7   3  239.66   11.26 
  -3   7   4  295.95   12.62 
  -3   7   4  309.16   12.87 
  -3   7   5   21.26    1.91 
  -3   7   6  271.21    8.36 
  -3   7   6  298.64   12.32 
  -3   7   6  285.93    9.98 
  -3   7   7  284.81   10.00 
  -3   7   7  293.73   12.39 
  -3   7   8    2.33    1.37 
  -3   7   8    2.43    1.92 
  -3   7   9  140.87    8.02 
  -3   8  -2   50.11    5.13 
  -3   8  -2   53.32    5.50 
  -3   8  -1    6.66    2.44 
  -3   8  -1    7.18    2.69 
  -3   8   0   47.07    5.29 
  -3   8   0   51.23    4.38 
  -3   8   1   60.36    5.79 
  -3   8   1   55.29    4.10 
  -3   8   2   24.08    4.00 
  -3   8   3  140.65    8.90 
  -3   9   2   59.03    6.08 
  -3   9   3   11.29    3.31 
  -2 -11  -9  156.35    8.45 
  -2 -11  -9  152.55    9.90 
  -2 -11  -8   10.14    2.55 
  -2 -11  -8    6.06    3.26 
  -2 -11  -7  360.93   14.06 
  -2 -11  -7  365.47   15.72 
  -2 -11  -6   60.67    5.07 
  -2 -11  -6   63.72    6.04 
  -2 -11  -5   21.56    3.28 
  -2 -11  -4  224.14   10.40 
  -2 -11  -3   26.37    4.24 
  -2 -11  -2    7.21    2.26 
  -2 -11  -2    1.09    2.53 
  -2 -11  -1   44.16    4.40 
  -2 -11  -1   42.84    5.21 
  -2 -10 -11    6.26    2.18 
  -2 -10 -11   15.58    3.77 
  -2 -10 -10  131.16    7.29 
  -2 -10 -10  141.01    8.96 
  -2 -10  -9  164.49    8.20 
  -2 -10  -9  155.11    9.45 
  -2 -10  -9  157.82    7.14 
  -2 -10  -8    0.51    1.39 
  -2 -10  -8    2.43    1.76 
  -2 -10  -8   -1.99    2.91 
  -2 -10  -7  219.37    9.72 
  -2 -10  -7  217.48   11.04 
  -2 -10  -6  256.00   10.76 
  -2 -10  -6  263.96   12.26 
  -2 -10  -5    7.27    2.24 
  -2 -10  -5    8.89    2.67 
  -2 -10  -4  299.45   11.91 
  -2 -10  -1   54.27    4.62 
  -2 -10  -1   50.00    5.35 
  -2 -10   0   68.21    5.24 
  -2 -10   1   -0.71    1.61 
  -2 -10   2    1.05    1.65 
  -2  -9 -12  100.56    5.88 
  -2  -9 -12  108.43    8.06 
  -2  -9 -11   35.43    3.54 
  -2  -9 -11   29.74    3.14 
  -2  -9 -11   36.59    4.79 
  -2  -9 -10  183.83    7.80 
  -2  -9 -10  180.13   10.14 
  -2  -9  -9  289.52   10.19 
  -2  -9  -9  278.63   10.96 
  -2  -9  -9  279.49   12.67 
  -2  -9  -8   43.60    3.37 
  -2  -9  -8   44.65    3.94 
  -2  -9  -8   47.66    4.83 
  -2  -9  -7   31.23    2.78 
  -2  -9  -7   27.99    3.59 
  -2  -9  -7   29.72    3.23 
  -2  -9  -6  178.48    8.18 
  -2  -9  -6  176.35    8.89 
  -2  -9  -6  187.92    9.46 
  -2  -9  -5   80.51    5.96 
  -2  -9  -5   94.88    6.44 
  -2  -9  -5   94.48    5.60 
  -2  -9  -4    1.91    1.75 
  -2  -9  -4    1.45    1.31 
  -2  -9  -4    1.22    1.36 
  -2  -9  -4    1.23    1.91 
  -2  -9  -3  176.78    7.49 
  -2  -9  -3  180.87    8.21 
  -2  -9  -3  180.34    9.05 
  -2  -9  -2  277.11   10.38 
  -2  -9  -1   50.53    4.23 
  -2  -9  -1   46.30    4.52 
  -2  -9   0  171.86    8.07 
  -2  -9   1  105.19    6.11 
  -2  -9   2   59.06    4.44 
  -2  -9   3   24.29    3.04 
  -2  -8 -12   17.74    2.39 
  -2  -8 -12   15.00    3.64 
  -2  -8 -11  132.00    6.43 
  -2  -8 -11  131.56    6.37 
  -2  -8 -11  119.16    7.96 
  -2  -8 -10   47.84    3.68 
  -2  -8 -10   51.23    3.88 
  -2  -8 -10   43.65    4.83 
  -2  -8  -9  418.95   13.27 
  -2  -8  -9  427.13   13.97 
  -2  -8  -9  415.64   15.89 
  -2  -8  -8  196.21    7.55 
  -2  -8  -8  207.95    8.39 
  -2  -8  -8  190.15    8.83 
  -2  -8  -8  195.04    9.73 
  -2  -8  -7   48.23    3.73 
  -2  -8  -7   47.54    4.16 
  -2  -8  -7   47.66    3.19 
  -2  -8  -7   48.71    4.57 
  -2  -8  -6  136.63    5.34 
  -2  -8  -6  143.64    6.64 
  -2  -8  -6  144.71    5.84 
  -2  -8  -6  125.97    7.28 
  -2  -8  -5  252.66    9.45 
  -2  -8  -5  225.85   10.04 
  -2  -8  -5  254.20    8.26 
  -2  -8  -5  226.66   10.21 
  -2  -8  -5  226.70    9.47 
  -2  -8  -4  338.35   10.99 
  -2  -8  -4  338.28   12.30 
  -2  -8  -4  382.07   12.45 
  -2  -8  -4  343.47   13.09 
  -2  -8  -4  333.26   12.48 
  -2  -8  -4  382.75   13.68 
  -2  -8  -3    6.55    1.86 
  -2  -8  -3    3.65    1.61 
  -2  -8  -3    5.82    1.64 
  -2  -8  -3    5.22    1.67 
  -2  -8  -3    9.09    2.30 
  -2  -8  -3    3.93    1.91 
  -2  -8  -2  323.98   10.90 
  -2  -8  -2  292.50   11.01 
  -2  -8  -1   25.91    2.95 
  -2  -8  -1   25.04    2.77 
  -2  -8  -1   23.17    2.81 
  -2  -8   0   74.00    4.56 
  -2  -8   0   81.73    4.90 
  -2  -8   0   76.10    5.24 
  -2  -8   0   73.00    4.99 
  -2  -8   1  128.24    6.15 
  -2  -8   1  124.02    6.38 
  -2  -8   1  137.64    7.17 
  -2  -8   2  288.41   10.40 
  -2  -8   2  266.78    7.90 
  -2  -8   2  265.15    9.67 
  -2  -8   3   43.23    3.39 
  -2  -8   3   45.12    3.73 
  -2  -8   4  161.60    7.23 
  -2  -8   4  161.12    6.75 
  -2  -8   5   29.06    2.93 
  -2  -8   6   22.48    2.53 
  -2  -7 -13    2.23    1.79 
  -2  -7 -13    0.98    2.77 
  -2  -7 -12   64.53    4.62 
  -2  -7 -12   61.27    5.68 
  -2  -7 -11   90.47    5.25 
  -2  -7 -11   90.90    4.80 
  -2  -7 -11   98.82    6.89 
  -2  -7 -10   53.95    3.65 
  -2  -7 -10   48.62    3.62 
  -2  -7 -10   46.83    3.51 
  -2  -7 -10   50.47    4.80 
  -2  -7  -9   10.96    1.82 
  -2  -7  -9    7.76    1.66 
  -2  -7  -9    6.35    1.88 
  -2  -7  -9    9.18    1.85 
  -2  -7  -9   11.92    2.70 
  -2  -7  -8  140.16    6.53 
  -2  -7  -8  145.53    6.44 
  -2  -7  -8  146.26    7.01 
  -2  -7  -8  146.56    7.76 
  -2  -7  -8  143.99    6.00 
  -2  -7  -7  386.96   11.43 
  -2  -7  -7  349.98   12.19 
  -2  -7  -7  370.67   12.87 
  -2  -7  -7  387.96   12.30 
  -2  -7  -7  358.48   13.54 
  -2  -7  -6  125.55    6.68 
  -2  -7  -6  135.28    6.10 
  -2  -7  -6  126.43    6.51 
  -2  -7  -6  141.16    5.36 
  -2  -7  -6  121.23    6.02 
  -2  -7  -6  121.34    6.76 
  -2  -7  -5  450.74   14.68 
  -2  -7  -5  467.35   14.49 
  -2  -7  -5  487.62   13.49 
  -2  -7  -5  472.79   15.48 
  -2  -7  -5  499.59   15.92 
  -2  -7  -5  442.82   15.20 
  -2  -7  -4  734.82   21.32 
  -2  -7  -4  765.97   21.14 
  -2  -7  -4  718.28   21.90 
  -2  -7  -4  770.18   20.15 
  -2  -7  -4  756.02   22.28 
  -2  -7  -3  110.14    5.67 
  -2  -7  -3  114.25    5.50 
  -2  -7  -3  104.39    5.59 
  -2  -7  -3  107.54    4.97 
  -2  -7  -3  104.92    5.88 
  -2  -7  -3  105.35    6.05 
  -2  -7  -2  303.31   10.74 
  -2  -7  -2  328.72   10.81 
  -2  -7  -2  301.18   11.37 
  -2  -7  -2  305.59   10.34 
  -2  -7  -2  307.22   11.69 
  -2  -7  -1  321.25   10.96 
  -2  -7  -1  348.67   12.52 
  -2  -7  -1  313.30   10.96 
  -2  -7   0   38.07    3.14 
  -2  -7   0   37.80    3.06 
  -2  -7   0   44.49    3.24 
  -2  -7   0   33.82    3.28 
  -2  -7   0   36.23    3.43 
  -2  -7   1   14.46    2.61 
  -2  -7   1   16.31    2.15 
  -2  -7   1   11.93    1.93 
  -2  -7   1   15.04    2.31 
  -2  -7   1   14.41    1.95 
  -2  -7   2  694.36   21.19 
  -2  -7   2  729.08   19.95 
  -2  -7   2  748.81   20.63 
  -2  -7   2  718.77   20.72 
  -2  -7   3  140.17    6.53 
  -2  -7   3  152.40    6.53 
  -2  -7   3  154.07    7.09 
  -2  -7   3  143.47    6.01 
  -2  -7   4   94.39    4.57 
  -2  -7   4   89.69    4.86 
  -2  -7   4   95.49    5.04 
  -2  -7   5  108.99    4.93 
  -2  -7   5  115.97    5.43 
  -2  -7   5  100.23    5.17 
  -2  -7   6  111.84    5.32 
  -2  -7   7    6.31    1.48 
  -2  -6 -13   60.12    4.65 
  -2  -6 -13   60.34    5.48 
  -2  -6 -12   79.35    5.18 
  -2  -6 -12   80.00    4.61 
  -2  -6 -12   87.86    6.51 
  -2  -6 -11  233.75    9.36 
  -2  -6 -11  242.53    8.23 
  -2  -6 -11  236.30   10.93 
  -2  -6 -10  122.00    5.51 
  -2  -6 -10  145.01    5.74 
  -2  -6 -10  124.01    6.04 
  -2  -6 -10  135.62    7.51 
  -2  -6  -9    5.51    1.36 
  -2  -6  -9    5.95    1.46 
  -2  -6  -9    4.96    1.50 
  -2  -6  -9    6.66    1.53 
  -2  -6  -9    6.29    2.07 
  -2  -6  -8    3.07    1.15 
  -2  -6  -8    6.07    1.42 
  -2  -6  -8    3.32    1.39 
  -2  -6  -8    3.69    1.37 
  -2  -6  -8    5.48    1.98 
  -2  -6  -7   50.14    2.92 
  -2  -6  -7   39.99    2.93 
  -2  -6  -7   46.45    3.49 
  -2  -6  -7   43.95    3.81 
  -2  -6  -7   48.39    3.29 
  -2  -6  -7   43.69    1.65 
  -2  -6  -6  186.06    7.03 
  -2  -6  -6  177.92    7.59 
  -2  -6  -6  179.47    6.26 
  -2  -6  -6  190.51    8.13 
  -2  -6  -5  169.75    5.79 
  -2  -6  -5  172.33    6.73 
  -2  -6  -5  157.63    7.10 
  -2  -6  -5  177.77    7.61 
  -2  -6  -4 3631.79   83.84 
  -2  -6  -4 3567.00   85.11 
  -2  -6  -4 3449.91   86.03 
  -2  -6  -4 3580.36   86.22 
  -2  -6  -3  122.96    5.37 
  -2  -6  -3  121.05    5.91 
  -2  -6  -3  112.32    5.78 
  -2  -6  -2  289.35    9.42 
  -2  -6  -2  274.23    9.54 
  -2  -6  -2  274.17   10.06 
  -2  -6  -2  269.16   10.12 
  -2  -6  -2  273.84    9.18 
  -2  -6  -1  476.95   14.39 
  -2  -6  -1  481.91   14.58 
  -2  -6   0  893.00   23.65 
  -2  -6   0  905.65   24.51 
  -2  -6   0  893.24   25.51 
  -2  -6   1   65.72    3.60 
  -2  -6   1   69.37    4.47 
  -2  -6   1   60.87    4.08 
  -2  -6   1   71.34    3.88 
  -2  -6   2 1083.37   27.53 
  -2  -6   2 1025.79   28.28 
  -2  -6   2 1091.47   28.99 
  -2  -6   2 1144.92   28.22 
  -2  -6   2 1038.70   29.53 
  -2  -6   3  246.90    8.34 
  -2  -6   3  213.64    8.60 
  -2  -6   3  234.28    7.73 
  -2  -6   3  227.12    8.40 
  -2  -6   4   17.99    2.02 
  -2  -6   4   17.81    1.82 
  -2  -6   4   21.69    2.40 
  -2  -6   4   22.14    2.27 
  -2  -6   5  132.60    5.16 
  -2  -6   5  130.28    5.56 
  -2  -6   5  132.36    5.67 
  -2  -6   6  308.23    9.90 
  -2  -6   6  310.96    9.44 
  -2  -6   6  301.51    9.81 
  -2  -6   7  146.15    5.67 
  -2  -5 -13   24.23    3.40 
  -2  -5 -13   27.33    3.60 
  -2  -5 -13   25.21    3.42 
  -2  -5 -12    3.24    1.78 
  -2  -5 -12    4.75    2.19 
  -2  -5 -12    2.85    2.20 
  -2  -5 -11  217.91    6.98 
  -2  -5 -11  238.53   10.36 
  -2  -5 -10  405.14   13.24 
  -2  -5 -10  400.91   11.75 
  -2  -5 -10  404.75   11.65 
  -2  -5 -10  413.90   14.72 
  -2  -5  -9    2.74    1.06 
  -2  -5  -9    3.60    1.01 
  -2  -5  -9    1.51    1.16 
  -2  -5  -9    0.92    1.04 
  -2  -5  -9   -0.32    1.65 
  -2  -5  -8   28.38    2.40 
  -2  -5  -8   31.43    2.44 
  -2  -5  -8   29.73    2.26 
  -2  -5  -8   29.05    2.53 
  -2  -5  -8   36.37    3.44 
  -2  -5  -7  106.76    4.53 
  -2  -5  -7  111.35    4.72 
  -2  -5  -7  105.39    5.13 
  -2  -5  -7  110.84    5.83 
  -2  -5  -6  207.97    7.11 
  -2  -5  -6  204.96    7.71 
  -2  -5  -6  205.22    8.13 
  -2  -5  -6  197.64    6.57 
  -2  -5  -5  399.09   11.11 
  -2  -5  -5  430.61   12.12 
  -2  -5  -5  406.72   10.08 
  -2  -5  -5  415.56   12.79 
  -2  -5  -5  422.42   13.07 
  -2  -5  -4  379.25   10.53 
  -2  -5  -4  389.99   11.68 
  -2  -5  -4  389.82   12.33 
  -2  -5  -4  403.42    9.66 
  -2  -5  -4  397.28   12.43 
  -2  -5  -3  781.48   20.65 
  -2  -5  -3  774.08   19.54 
  -2  -5  -3  807.62   21.52 
  -2  -5  -2  134.40    5.91 
  -2  -5  -2  130.04    5.25 
  -2  -5  -1 2369.32   57.76 
  -2  -5  -1 2370.96   57.62 
  -2  -5  -1 2381.40   57.52 
  -2  -5  -1 2472.45   58.80 
  -2  -5   0 1415.74   35.56 
  -2  -5   0 1481.40   36.43 
  -2  -5   1  682.45   18.02 
  -2  -5   1  712.76   18.45 
  -2  -5   1  689.62   19.47 
  -2  -5   1  646.87   19.05 
  -2  -5   2  616.02   16.24 
  -2  -5   2  579.02   17.43 
  -2  -5   2  600.91   18.19 
  -2  -5   3  654.72   17.37 
  -2  -5   3  636.05   19.27 
  -2  -5   3  620.39   18.04 
  -2  -5   3  639.82   16.68 
  -2  -5   4   20.02    1.88 
  -2  -5   4   15.41    1.50 
  -2  -5   4   15.02    1.79 
  -2  -5   4   17.97    2.05 
  -2  -5   5   96.20    4.37 
  -2  -5   5   98.38    3.86 
  -2  -5   5   93.36    4.21 
  -2  -5   5  100.06    4.68 
  -2  -5   6  220.27    7.39 
  -2  -5   6  230.87    7.46 
  -2  -5   6  223.35    7.05 
  -2  -5   7  215.51    7.08 
  -2  -5   7  226.00    7.24 
  -2  -5   7  229.54    7.16 
  -2  -4 -13   77.61    5.70 
  -2  -4 -13   73.61    5.71 
  -2  -4 -13   62.11    5.01 
  -2  -4 -13   65.10    5.53 
  -2  -4 -12  155.94    7.80 
  -2  -4 -12  138.24    7.62 
  -2  -4 -12  150.74    8.04 
  -2  -4 -11   20.37    2.88 
  -2  -4 -11   16.21    2.59 
  -2  -4 -11   16.99    2.79 
  -2  -4 -10   25.28    3.04 
  -2  -4 -10   24.26    1.67 
  -2  -4 -10   25.03    1.69 
  -2  -4 -10   25.05    1.26 
  -2  -4 -10   20.36    2.89 
  -2  -4 -10   28.90    1.85 
  -2  -4 -10   20.40    2.61 
  -2  -4  -9   66.17    4.15 
  -2  -4  -9   73.42    3.32 
  -2  -4  -9   75.25    3.22 
  -2  -4  -9   78.57    3.55 
  -2  -4  -9   68.08    2.11 
  -2  -4  -9   75.94    4.87 
  -2  -4  -8   39.14    2.93 
  -2  -4  -8   40.70    2.34 
  -2  -4  -8   43.73    2.67 
  -2  -4  -8   41.71    3.43 
  -2  -4  -7  626.44   16.85 
  -2  -4  -7  606.14   16.22 
  -2  -4  -7  614.33   16.81 
  -2  -4  -7  609.84   17.94 
  -2  -4  -6  385.99   10.74 
  -2  -4  -6  380.91   11.93 
  -2  -4  -6  356.54   10.50 
  -2  -4  -5  193.41    5.93 
  -2  -4  -5  199.98    7.26 
  -2  -4  -5  192.76    6.45 
  -2  -4  -4  224.43    7.23 
  -2  -4  -4  235.84    6.38 
  -2  -4  -4  221.18    7.77 
  -2  -4  -4  225.03    6.04 
  -2  -4  -3    9.90    1.24 
  -2  -4  -3   11.36    0.89 
  -2  -4  -3   12.93    1.60 
  -2  -4  -2  396.01   10.99 
  -2  -4  -2  380.37    9.95 
  -2  -4  -2  389.86   11.60 
  -2  -4  -1  139.88    5.12 
  -2  -4  -1  143.99    5.77 
  -2  -4   0 3306.98   80.97 
  -2  -4   0 3373.06   80.18 
  -2  -4   1 1079.47   26.32 
  -2  -4   1 1058.18   27.84 
  -2  -4   2 1072.07   26.07 
  -2  -4   2 1071.20   25.12 
  -2  -4   2 1075.77   26.70 
  -2  -4   2 1043.66   28.17 
  -2  -4   3  209.98    6.70 
  -2  -4   3  200.18    8.13 
  -2  -4   3  200.71    7.14 
  -2  -4   3  203.58    6.05 
  -2  -4   4  346.34   12.39 
  -2  -4   4  359.11   10.27 
  -2  -4   4  338.54   10.66 
  -2  -4   4  370.36    9.61 
  -2  -4   5   32.01    2.08 
  -2  -4   5   31.45    2.28 
  -2  -4   5   28.28    2.08 
  -2  -4   5   33.49    1.83 
  -2  -4   6  421.79   11.67 
  -2  -4   6  417.81   11.19 
  -2  -4   6  415.05   11.60 
  -2  -4   6  422.99   11.90 
  -2  -4   6  440.19   11.74 
  -2  -4   7  295.56    8.35 
  -2  -4   7  290.79    8.21 
  -2  -4   7  291.28    8.25 
  -2  -3 -13   27.75    3.98 
  -2  -3 -13   29.44    3.30 
  -2  -3 -13   29.96    3.93 
  -2  -3 -13   30.20    3.30 
  -2  -3 -13   33.22    3.98 
  -2  -3 -12  224.73   10.23 
  -2  -3 -12  222.27    9.46 
  -2  -3 -12  222.06    9.36 
  -2  -3 -12  230.71   10.20 
  -2  -3 -12  235.11   10.65 
  -2  -3 -11  185.91    8.08 
  -2  -3 -11  172.59    6.03 
  -2  -3 -11  166.41    8.19 
  -2  -3 -11  161.36    8.11 
  -2  -3 -10   -0.21    0.38 
  -2  -3 -10    0.28    1.61 
  -2  -3 -10    0.30    1.60 
  -2  -3 -10    0.35    0.33 
  -2  -3 -10   -0.48    0.84 
  -2  -3 -10    0.55    0.39 
  -2  -3 -10    0.30    1.39 
  -2  -3  -9  182.36    5.60 
  -2  -3  -9  187.96    7.96 
  -2  -3  -9  196.12    6.01 
  -2  -3  -9  188.51    5.61 
  -2  -3  -9  184.89    5.73 
  -2  -3  -9  193.62    5.55 
  -2  -3  -9  189.75    8.05 
  -2  -3  -9  185.69    7.80 
  -2  -3  -8  155.31    6.92 
  -2  -3  -8  166.45    5.08 
  -2  -3  -8  163.90    5.15 
  -2  -3  -8  167.06    5.47 
  -2  -3  -8  164.33    7.01 
  -2  -3  -8  159.87    5.19 
  -2  -3  -8  153.35    6.62 
  -2  -3  -7    5.08    1.24 
  -2  -3  -7    3.22    0.70 
  -2  -3  -7    3.71    0.81 
  -2  -3  -7    4.64    0.65 
  -2  -3  -7    5.64    1.38 
  -2  -3  -6  745.11   19.33 
  -2  -3  -6  738.13   18.66 
  -2  -3  -6  731.80   19.99 
  -2  -3  -6  739.54   17.67 
  -2  -3  -5  178.65    5.60 
  -2  -3  -5  173.83    5.59 
  -2  -3  -5  174.60    4.44 
  -2  -3  -5  169.62    6.30 
  -2  -3  -4  712.53   17.01 
  -2  -3  -4  721.48   17.72 
  -2  -3  -4  684.54   16.25 
  -2  -3  -4  667.29   17.89 
  -2  -3  -4  708.75   18.22 
  -2  -3  -3    1.89    0.62 
  -2  -3  -3    1.46    0.33 
  -2  -3  -3    1.32    0.34 
  -2  -3  -3    1.59    0.40 
  -2  -3  -3    1.63    0.76 
  -2  -3  -3    2.01    0.79 
  -2  -3  -2    2.92    0.56 
  -2  -3  -2    3.27    0.74 
  -2  -3  -2    3.62    0.88 
  -2  -3  -2    3.74    0.87 
  -2  -3  -1  135.23    4.75 
  -2  -3  -1  150.45    4.52 
  -2  -3  -1  141.61    4.57 
  -2  -3  -1  133.51    4.99 
  -2  -3  -1  156.57    5.34 
  -2  -3   0   21.73    1.57 
  -2  -3   0   28.52    1.78 
  -2  -3   0   28.30    1.82 
  -2  -3   0   22.05    1.93 
  -2  -3   1 2176.93   50.19 
  -2  -3   1 2130.28   51.57 
  -2  -3   1 2107.65   52.06 
  -2  -3   1 2163.49   50.53 
  -2  -3   2  509.02   12.54 
  -2  -3   2  526.54   13.36 
  -2  -3   2  504.77   12.06 
  -2  -3   2  486.14   14.13 
  -2  -3   2  518.95   14.71 
  -2  -3   2  488.55   13.53 
  -2  -3   3  237.91    8.63 
  -2  -3   3  240.41    7.11 
  -2  -3   3  238.63    8.28 
  -2  -3   4  336.45   11.53 
  -2  -3   4  342.51    9.46 
  -2  -3   5   47.22    2.27 
  -2  -3   5   46.12    2.48 
  -2  -3   5   48.59    2.38 
  -2  -3   6    2.90    0.76 
  -2  -3   6    4.82    0.76 
  -2  -3   6    3.44    0.86 
  -2  -3   6    2.86    0.72 
  -2  -3   7  419.10   10.47 
  -2  -3   7  401.01   10.35 
  -2  -2 -13    5.42    2.99 
  -2  -2 -13    4.78    1.81 
  -2  -2 -13    5.49    2.68 
  -2  -2 -13    1.94    2.16 
  -2  -2 -12  214.19    8.85 
  -2  -2 -12  224.69    9.97 
  -2  -2 -12  221.46    9.20 
  -2  -2 -12  228.45   10.95 
  -2  -2 -12  218.48   10.44 
  -2  -2 -11  167.88    7.60 
  -2  -2 -11  163.83    7.38 
  -2  -2 -11  178.90    6.78 
  -2  -2 -11  161.00    8.00 
  -2  -2 -11  183.38    8.85 
  -2  -2 -10   46.67    3.70 
  -2  -2 -10   53.90    4.31 
  -2  -2 -10   44.83    3.49 
  -2  -2 -10   49.40    3.06 
  -2  -2 -10   38.87    3.57 
  -2  -2  -9  100.92    5.12 
  -2  -2  -9  100.67    4.40 
  -2  -2  -9   95.04    5.50 
  -2  -2  -9   94.97    5.29 
  -2  -2  -9  108.17    5.48 
  -2  -2  -8  195.68    7.70 
  -2  -2  -8  186.86    6.48 
  -2  -2  -8  196.42    5.59 
  -2  -2  -8  194.56    7.67 
  -2  -2  -8  195.39    5.37 
  -2  -2  -8  197.71    5.45 
  -2  -2  -7  138.20    5.99 
  -2  -2  -7  131.78    4.29 
  -2  -2  -7  148.64    5.01 
  -2  -2  -7  138.32    4.25 
  -2  -2  -7  139.34    5.83 
  -2  -2  -6  392.11   11.63 
  -2  -2  -6  366.73    9.83 
  -2  -2  -6  369.15    9.75 
  -2  -2  -6  360.77    9.89 
  -2  -2  -6  371.74   11.11 
  -2  -2  -5  955.41   25.35 
  -2  -2  -5  985.81   23.89 
  -2  -2  -5  974.42   24.76 
  -2  -2  -5  976.43   24.11 
  -2  -2  -5 1010.22   24.03 
  -2  -2  -4  437.22   11.10 
  -2  -2  -4  423.35   11.41 
  -2  -2  -4  412.51   11.28 
  -2  -2  -4  419.69   11.16 
  -2  -2  -3   20.04    1.33 
  -2  -2  -3   17.97    0.98 
  -2  -2  -3   19.48    1.35 
  -2  -2  -3   18.56    1.39 
  -2  -2  -2   58.08    2.12 
  -2  -2  -2   60.03    2.51 
  -2  -2  -2   63.28    2.29 
  -2  -2  -2   58.64    2.71 
  -2  -2  -2   62.04    2.48 
  -2  -2  -1    2.50    0.77 
  -2  -2  -1    2.39    0.66 
  -2  -2  -1    2.28    0.57 
  -2  -2  -1    1.89    0.75 
  -2  -2   0   66.83    2.73 
  -2  -2   0   73.62    2.84 
  -2  -2   0   69.16    2.75 
  -2  -2   0   69.61    2.96 
  -2  -2   1    5.11    1.06 
  -2  -2   1    3.17    0.79 
  -2  -2   2  226.05    7.55 
  -2  -2   2  218.69    6.67 
  -2  -2   2  228.74    6.59 
  -2  -2   2  231.08    7.22 
  -2  -2   3  631.40   17.21 
  -2  -2   3  653.78   16.07 
  -2  -2   3  638.88   16.29 
  -2  -2   3  602.29   17.55 
  -2  -2   3  657.19   16.18 
  -2  -2   4  757.28   18.63 
  -2  -2   4  740.09   18.83 
  -2  -2   4  772.11   18.77 
  -2  -2   5 1885.79   44.39 
  -2  -2   5 1883.79   44.29 
  -2  -2   6  122.42    3.75 
  -2  -2   6  124.00    3.83 
  -2  -2   7    0.44    0.29 
  -2  -1 -12   52.57    5.17 
  -2  -1 -12   56.36    5.87 
  -2  -1 -12   57.63    4.22 
  -2  -1 -12   47.78    3.87 
  -2  -1 -12   49.69    4.44 
  -2  -1 -11  463.19   17.32 
  -2  -1 -11  466.38   14.27 
  -2  -1 -11  432.14   14.58 
  -2  -1 -11  459.67   15.60 
  -2  -1 -11  476.98   14.63 
  -2  -1 -10  239.09    8.91 
  -2  -1 -10  207.72    8.13 
  -2  -1 -10  227.59    8.44 
  -2  -1 -10  213.60    8.99 
  -2  -1  -9   52.04    3.45 
  -2  -1  -9   49.14    3.31 
  -2  -1  -9   60.42    3.85 
  -2  -1  -9   62.13    4.06 
  -2  -1  -8   26.35    2.38 
  -2  -1  -8   24.27    2.46 
  -2  -1  -8   28.98    2.42 
  -2  -1  -8   25.64    2.54 
  -2  -1  -7  341.64   10.91 
  -2  -1  -7  359.74   11.33 
  -2  -1  -7  353.53   11.06 
  -2  -1  -7  352.78    9.18 
  -2  -1  -7  368.56    9.16 
  -2  -1  -6   14.03    1.64 
  -2  -1  -6   12.08    1.56 
  -2  -1  -6   13.09    1.05 
  -2  -1  -6   16.76    1.07 
  -2  -1  -6   13.84    1.58 
  -2  -1  -5  333.53   10.02 
  -2  -1  -5  343.23    9.66 
  -2  -1  -5  341.50    8.89 
  -2  -1  -5  331.60    9.06 
  -2  -1  -5  336.09    8.97 
  -2  -1  -5  340.61   10.28 
  -2  -1  -4  206.96    6.71 
  -2  -1  -4  188.15    6.43 
  -2  -1  -4  195.30    5.74 
  -2  -1  -4  198.60    5.66 
  -2  -1  -4  196.76    5.82 
  -2  -1  -3    5.24    0.93 
  -2  -1  -3    3.00    0.58 
  -2  -1  -3    4.90    0.71 
  -2  -1  -3    4.40    0.58 
  -2  -1  -2  236.59    6.61 
  -2  -1  -2  225.35    6.04 
  -2  -1  -2  232.45    6.88 
  -2  -1  -2  231.32    6.81 
  -2  -1  -2  236.65    6.52 
  -2  -1  -2  231.70    5.86 
  -2  -1  -1 4593.30  107.04 
  -2  -1  -1 4631.78  106.33 
  -2  -1  -1 4677.67  107.09 
  -2  -1  -1 4698.86  107.10 
  -2  -1  -1 4602.56  106.98 
  -2  -1  -1 4547.29  106.79 
  -2  -1  -1 4670.09  106.83 
  -2  -1   0  171.25    5.23 
  -2  -1   0  174.14    5.07 
  -2  -1   0  172.71    4.93 
  -2  -1   0  172.81    5.12 
  -2  -1   0  175.78    5.18 
  -2  -1   1  515.66   13.32 
  -2  -1   1  495.96   13.15 
  -2  -1   1  528.05   13.25 
  -2  -1   2   42.19    2.34 
  -2  -1   2   36.86    2.12 
  -2  -1   3   78.66    2.86 
  -2  -1   3   81.87    2.96 
  -2  -1   4    5.69    0.71 
  -2  -1   4    6.45    0.77 
  -2  -1   4    6.00    0.80 
  -2  -1   5 1086.39   27.72 
  -2  -1   5 1032.00   27.06 
  -2  -1   5 1048.39   25.43 
  -2  -1   5 1060.05   25.24 
  -2  -1   6 1446.51   36.98 
  -2  -1   6 1469.26   34.44 
  -2  -1   7   15.79    2.15 
  -2  -1   7   11.18    0.67 
  -2   0 -12   15.80    2.44 
  -2   0 -12   17.22    2.69 
  -2   0 -12   17.31    4.09 
  -2   0 -11  132.82    6.49 
  -2   0 -11  143.66    8.76 
  -2   0 -11  128.14    6.68 
  -2   0 -11  133.69    7.02 
  -2   0 -10  212.64   10.54 
  -2   0 -10  210.17    8.38 
  -2   0 -10  203.89    7.50 
  -2   0 -10  202.35    8.46 
  -2   0  -9   34.24    3.01 
  -2   0  -9   34.20    2.63 
  -2   0  -9   40.58    3.30 
  -2   0  -8  136.06    6.02 
  -2   0  -8  135.07    5.51 
  -2   0  -8  133.67    6.11 
  -2   0  -7  888.72   23.52 
  -2   0  -7  952.59   24.44 
  -2   0  -7  917.26   21.96 
  -2   0  -7  907.43   21.85 
  -2   0  -6   75.66    3.59 
  -2   0  -6   80.26    2.84 
  -2   0  -6   72.09    3.85 
  -2   0  -5   11.95    1.37 
  -2   0  -5   11.62    1.53 
  -2   0  -5   10.96    1.03 
  -2   0  -4   36.73    2.35 
  -2   0  -4   33.16    2.11 
  -2   0  -4   31.45    1.73 
  -2   0  -3    1.93    0.76 
  -2   0  -3    1.22    0.76 
  -2   0  -3    1.30    0.57 
  -2   0  -2    1.96    0.69 
  -2   0  -2    4.36    0.70 
  -2   0  -2    2.81    0.69 
  -2   0  -2    5.44    0.77 
  -2   0  -1 1337.65   31.20 
  -2   0  -1 1235.55   30.80 
  -2   0  -1 1339.99   31.16 
  -2   0  -1 1292.60   31.08 
  -2   0   0 1354.29   32.12 
  -2   0   0 1342.40   32.39 
  -2   0   0 1365.75   32.28 
  -2   0   0 1341.59   32.08 
  -2   0   0 1320.30   32.13 
  -2   0   0 1383.16   32.33 
  -2   0   0 1341.26   32.06 
  -2   0   1  334.30    8.86 
  -2   0   1  301.79    8.67 
  -2   0   1  310.07    8.60 
  -2   0   1  319.85    8.65 
  -2   0   2 1301.70   30.07 
  -2   0   2 1158.36   29.41 
  -2   0   3   95.49    3.77 
  -2   0   3   97.19    3.42 
  -2   0   3   95.54    4.20 
  -2   0   4  130.28    4.93 
  -2   0   4  145.94    4.51 
  -2   0   4  137.50    5.17 
  -2   0   5   44.25    2.09 
  -2   0   5   48.42    2.78 
  -2   0   5   45.24    2.90 
  -2   0   6  607.64   17.21 
  -2   0   6  640.33   15.67 
  -2   0   7  500.70   14.71 
  -2   0   7  502.63   12.50 
  -2   0   8  258.48    9.29 
  -2   1 -11    2.16    2.79 
  -2   1 -11    3.02    1.79 
  -2   1 -11    4.80    2.26 
  -2   1 -10   34.92    3.27 
  -2   1 -10   36.85    4.74 
  -2   1 -10   26.68    3.27 
  -2   1  -9  204.20    8.71 
  -2   1  -9  199.96   10.21 
  -2   1  -9  202.83    7.09 
  -2   1  -9  199.41    8.17 
  -2   1  -8   68.90    4.58 
  -2   1  -8   65.30    3.44 
  -2   1  -8   68.13    4.14 
  -2   1  -8   67.93    2.32 
  -2   1  -7  659.64   18.47 
  -2   1  -7  665.87   17.35 
  -2   1  -7  635.50   16.28 
  -2   1  -7  637.21   16.17 
  -2   1  -6  897.88   23.77 
  -2   1  -6  891.23   22.74 
  -2   1  -6  885.61   22.00 
  -2   1  -5    0.39    0.54 
  -2   1  -5    0.18    0.94 
  -2   1  -5    0.13    0.72 
  -2   1  -4    7.10    0.98 
  -2   1  -4    7.25    0.91 
  -2   1  -4    4.78    1.14 
  -2   1  -3    4.55    1.05 
  -2   1  -3    5.43    0.96 
  -2   1  -3    4.09    0.87 
  -2   1  -3    3.99    0.62 
  -2   1  -2  316.32    9.15 
  -2   1  -2  312.26    8.91 
  -2   1  -2  304.25    8.97 
  -2   1  -2  317.95    8.82 
  -2   1  -2  297.38    7.80 
  -2   1  -1  555.14   14.98 
  -2   1  -1  587.62   15.08 
  -2   1  -1  555.10   14.85 
  -2   1  -1  592.70   14.90 
  -2   1  -1  571.93   13.97 
  -2   1   0  594.91   15.60 
  -2   1   0  625.99   15.65 
  -2   1   0  589.09   15.70 
  -2   1   1  484.89   12.88 
  -2   1   1  472.74   12.81 
  -2   1   2   41.96    2.45 
  -2   1   3  249.86    7.45 
  -2   1   3  253.48    8.23 
  -2   1   3  252.44    7.06 
  -2   1   4  501.11   12.94 
  -2   1   4  485.98   14.21 
  -2   1   4  491.47   13.44 
  -2   1   4  478.21   13.11 
  -2   1   5   38.97    2.40 
  -2   1   5   37.89    2.36 
  -2   1   5   39.49    2.14 
  -2   1   6  232.04    7.70 
  -2   1   6  240.06    7.06 
  -2   1   7  286.21    8.06 
  -2   1   7  276.95    9.09 
  -2   1   8   29.69    1.69 
  -2   1   8   31.01    2.66 
  -2   1   8   28.68    1.75 
  -2   1   9   87.89    4.73 
  -2   2 -11   14.11    2.84 
  -2   2 -11   12.95    3.89 
  -2   2 -10   95.23    7.46 
  -2   2 -10   92.51    6.03 
  -2   2 -10   87.31    5.37 
  -2   2  -9   96.24    5.45 
  -2   2  -9  101.81    6.25 
  -2   2  -9   98.13    7.22 
  -2   2  -8  349.32   13.93 
  -2   2  -8  320.09   11.32 
  -2   2  -8  312.21    9.75 
  -2   2  -8  343.74   12.38 
  -2   2  -7   65.94    3.33 
  -2   2  -7   67.25    4.26 
  -2   2  -7   69.68    3.22 
  -2   2  -7   62.48    3.69 
  -2   2  -7   72.48    5.53 
  -2   2  -6  695.48   18.28 
  -2   2  -6  688.53   18.23 
  -2   2  -6  710.91   19.71 
  -2   2  -6  688.17   18.58 
  -2   2  -6  691.63   18.11 
  -2   2  -5  740.09   19.31 
  -2   2  -5  753.77   20.53 
  -2   2  -5  747.89   19.31 
  -2   2  -5  750.70   19.50 
  -2   2  -5  725.06   19.27 
  -2   2  -4   50.50    3.30 
  -2   2  -4   55.82    2.92 
  -2   2  -4   57.05    2.91 
  -2   2  -4   56.87    2.73 
  -2   2  -3  995.84   26.01 
  -2   2  -3 1005.27   26.03 
  -2   2  -3  978.31   24.60 
  -2   2  -3 1050.71   25.45 
  -2   2  -2  533.25   15.04 
  -2   2  -2  534.10   14.96 
  -2   2  -2  562.41   14.78 
  -2   2  -2  536.49   13.86 
  -2   2  -1   16.36    1.60 
  -2   2  -1   18.89    1.80 
  -2   2  -1   17.65    1.70 
  -2   2  -1   18.06    1.39 
  -2   2   0    0.84    0.84 
  -2   2   0    1.73    0.97 
  -2   2   0    1.20    0.69 
  -2   2   0    0.81    0.79 
  -2   2   1   58.07    3.04 
  -2   2   1   64.32    3.17 
  -2   2   1   62.60    2.54 
  -2   2   1   56.53    2.88 
  -2   2   1   57.66    3.04 
  -2   2   2  113.67    4.72 
  -2   2   2  119.45    4.60 
  -2   2   2  114.20    3.93 
  -2   2   3   31.72    1.96 
  -2   2   3   33.62    2.50 
  -2   2   4  590.49   15.40 
  -2   2   4  581.01   15.33 
  -2   2   4  579.05   16.57 
  -2   2   4  587.18   15.67 
  -2   2   5  444.71   12.47 
  -2   2   5  448.68   13.76 
  -2   2   5  446.89   12.29 
  -2   2   6   52.55    2.83 
  -2   2   6   52.28    2.83 
  -2   2   7  172.48    6.03 
  -2   2   7  168.37    6.19 
  -2   2   7  185.66    6.27 
  -2   2   8   62.83    3.09 
  -2   2   8   65.62    3.58 
  -2   2   8   63.18    3.17 
  -2   2   9    7.26    1.53 
  -2   2   9    8.13    1.20 
  -2   2  10  143.58    6.21 
  -2   3 -10   30.87    3.46 
  -2   3 -10   28.16    4.78 
  -2   3 -10   33.22    4.20 
  -2   3  -9  161.44    9.69 
  -2   3  -9  150.90    7.29 
  -2   3  -9  135.81    8.04 
  -2   3  -8  321.41   12.71 
  -2   3  -8  339.56   14.28 
  -2   3  -8  301.39   11.39 
  -2   3  -7  149.14    8.56 
  -2   3  -7  137.00    6.74 
  -2   3  -6   36.71    2.72 
  -2   3  -6   40.43    3.39 
  -2   3  -6   34.29    2.63 
  -2   3  -5  391.74   11.85 
  -2   3  -5  375.37   11.61 
  -2   3  -5  369.46   11.34 
  -2   3  -4  581.64   16.56 
  -2   3  -4  538.10   16.43 
  -2   3  -4  573.55   15.78 
  -2   3  -4  567.22   15.88 
  -2   3  -4  525.50   15.05 
  -2   3  -3  374.54   11.56 
  -2   3  -3  392.11   12.19 
  -2   3  -3  376.83   11.99 
  -2   3  -3  391.31   11.83 
  -2   3  -3  371.34   10.85 
  -2   3  -2 2807.36   66.00 
  -2   3  -2 2694.64   65.68 
  -2   3  -2 2709.22   65.44 
  -2   3  -2 2711.55   64.54 
  -2   3  -1  536.54   15.00 
  -2   3  -1  518.89   15.05 
  -2   3  -1  502.67   14.01 
  -2   3  -1  526.20   14.82 
  -2   3   0  346.31   10.81 
  -2   3   0  361.82   11.09 
  -2   3   0  338.59   10.25 
  -2   3   0  364.85   10.92 
  -2   3   1   10.86    1.67 
  -2   3   1   12.96    1.62 
  -2   3   1   10.69    1.58 
  -2   3   1   10.35    1.50 
  -2   3   2   50.72    3.19 
  -2   3   2   57.40    3.39 
  -2   3   2   57.49    3.30 
  -2   3   2   51.94    2.39 
  -2   3   2   54.67    3.20 
  -2   3   3  295.17    9.71 
  -2   3   4  233.21    7.03 
  -2   3   4  229.26    7.26 
  -2   3   5  347.50   10.06 
  -2   3   5  353.51   10.11 
  -2   3   5  345.34   10.78 
  -2   3   6    9.96    1.41 
  -2   3   6   12.76    1.76 
  -2   3   6   11.40    1.36 
  -2   3   7   -0.17    0.89 
  -2   3   7    0.42    0.81 
  -2   3   7    1.45    0.96 
  -2   3   8   18.25    1.90 
  -2   3   8   21.42    2.84 
  -2   3   8   23.80    2.02 
  -2   3   8   22.41    2.17 
  -2   3   9  142.18    5.75 
  -2   3   9  150.62    5.92 
  -2   3  10   33.66    2.74 
  -2   3  11  145.35    6.22 
  -2   4  -9  172.88   10.78 
  -2   4  -9  162.58    8.16 
  -2   4  -9  174.75    9.54 
  -2   4  -8  342.87   12.72 
  -2   4  -8  355.05   14.16 
  -2   4  -7   78.23    5.16 
  -2   4  -6    1.45    1.57 
  -2   4  -6    0.21    1.37 
  -2   4  -5  127.56    6.45 
  -2   4  -5  120.34    5.72 
  -2   4  -5  114.54    5.26 
  -2   4  -4  983.27   27.57 
  -2   4  -4  985.83   26.22 
  -2   4  -4  948.37   25.45 
  -2   4  -4  961.86   25.31 
  -2   4  -4  910.85   24.45 
  -2   4  -3   18.25    2.76 
  -2   4  -3   13.45    1.92 
  -2   4  -3   15.29    2.31 
  -2   4  -3   13.79    2.11 
  -2   4  -3   14.27    2.12 
  -2   4  -3   12.97    1.81 
  -2   4  -2  640.83   18.31 
  -2   4  -2  586.97   17.51 
  -2   4  -2  601.94   17.61 
  -2   4  -2  588.21   17.42 
  -2   4  -2  603.53   16.62 
  -2   4  -2  601.63   17.85 
  -2   4  -1 1248.63   32.47 
  -2   4  -1 1269.70   32.80 
  -2   4  -1 1256.65   32.42 
  -2   4  -1 1236.77   32.63 
  -2   4  -1 1238.63   32.29 
  -2   4  -1 1240.44   31.44 
  -2   4   0   16.62    2.00 
  -2   4   0   15.81    2.14 
  -2   4   0   17.36    2.10 
  -2   4   0   14.70    2.05 
  -2   4   0   14.77    1.83 
  -2   4   1  379.23   12.28 
  -2   4   1  388.06   11.04 
  -2   4   1  380.07   12.06 
  -2   4   1  388.50   12.49 
  -2   4   1  385.30   12.50 
  -2   4   1  387.65   11.85 
  -2   4   2  322.23    8.87 
  -2   4   2  328.41   10.66 
  -2   4   2  323.39   10.79 
  -2   4   2  304.06   10.75 
  -2   4   2  322.31   11.01 
  -2   4   2  320.11   10.52 
  -2   4   2  323.27    8.95 
  -2   4   3   60.19    2.00 
  -2   4   3   60.85    3.83 
  -2   4   3   57.79    3.73 
  -2   4   4   13.29    1.32 
  -2   4   4   15.62    1.56 
  -2   4   5  561.97   15.11 
  -2   4   5  585.95   17.08 
  -2   4   5  587.20   15.63 
  -2   4   5  594.16   17.05 
  -2   4   6  164.20    6.88 
  -2   4   6  163.33    6.98 
  -2   4   6  174.05    5.98 
  -2   4   6  163.69    7.41 
  -2   4   7   97.15    5.64 
  -2   4   7   91.00    4.89 
  -2   4   7   92.93    4.06 
  -2   4   7   94.96    4.89 
  -2   4   8    7.56    2.16 
  -2   4   8    8.66    1.42 
  -2   4   8   10.12    1.80 
  -2   4   9  388.20   11.50 
  -2   4   9  394.03   12.58 
  -2   4  10   33.12    2.54 
  -2   4  11  156.18    6.19 
  -2   4  12   32.71    2.41 
  -2   5  -8  135.26    7.59 
  -2   5  -8  154.22    8.97 
  -2   5  -7   68.24    6.40 
  -2   5  -7   59.26    4.85 
  -2   5  -7   68.04    5.84 
  -2   5  -6   11.41    2.54 
  -2   5  -6   10.60    3.15 
  -2   5  -5   54.34    4.42 
  -2   5  -5   57.58    4.13 
  -2   5  -5   52.88    5.21 
  -2   5  -4  344.55   13.42 
  -2   5  -4  350.66   12.50 
  -2   5  -4  327.30   11.82 
  -2   5  -4  320.89   10.89 
  -2   5  -3   33.25    3.71 
  -2   5  -3   24.60    3.00 
  -2   5  -3   31.91    3.09 
  -2   5  -3   28.44    2.70 
  -2   5  -2   76.40    5.09 
  -2   5  -2   76.29    4.77 
  -2   5  -2   80.45    5.08 
  -2   5  -2   75.59    4.68 
  -2   5  -2   80.49    5.00 
  -2   5  -2   72.93    4.21 
  -2   5  -1  885.37   24.46 
  -2   5  -1  892.93   24.83 
  -2   5  -1  853.35   24.51 
  -2   5  -1  886.80   25.09 
  -2   5  -1  876.39   24.88 
  -2   5  -1  891.66   23.80 
  -2   5   0  635.30   18.92 
  -2   5   0  620.25   18.49 
  -2   5   0  621.27   19.09 
  -2   5   0  642.26   19.02 
  -2   5   0  608.05   17.91 
  -2   5   0  650.25   18.01 
  -2   5   1  189.58    6.67 
  -2   5   1  178.17    7.77 
  -2   5   1  181.95    7.90 
  -2   5   1  181.52    7.32 
  -2   5   1  168.65    7.84 
  -2   5   2  416.27   11.43 
  -2   5   2  404.97   13.91 
  -2   5   2  420.85   13.78 
  -2   5   2  409.12   13.75 
  -2   5   2  417.30   13.32 
  -2   5   2  406.07   11.24 
  -2   5   3  566.16   17.40 
  -2   5   3  574.17   17.11 
  -2   5   3  534.13   16.61 
  -2   5   3  546.83   16.94 
  -2   5   3  538.13   14.17 
  -2   5   4   74.89    4.81 
  -2   5   5  340.10    9.42 
  -2   5   5  341.00   11.96 
  -2   5   5  325.72   10.14 
  -2   5   5  338.94   11.83 
  -2   5   6    8.63    2.07 
  -2   5   6    7.75    1.79 
  -2   5   6    7.33    1.86 
  -2   5   6    7.88    1.31 
  -2   5   7  311.89   11.10 
  -2   5   7  301.55    9.40 
  -2   5   7  307.49   11.18 
  -2   5   7  300.62   11.58 
  -2   5   8   21.37    1.89 
  -2   5   8   22.80    2.63 
  -2   5   9  638.51   17.28 
  -2   5   9  654.30   19.30 
  -2   5  10  177.30    6.39 
  -2   6  -6  108.33    8.05 
  -2   6  -6  100.21    6.58 
  -2   6  -5    1.49    1.93 
  -2   6  -5    2.89    2.56 
  -2   6  -4   78.75    5.70 
  -2   6  -4   77.15    5.23 
  -2   6  -4   67.25    5.82 
  -2   6  -3   62.33    5.26 
  -2   6  -3   58.23    4.83 
  -2   6  -3   66.25    4.81 
  -2   6  -3   57.58    4.03 
  -2   6  -2    1.34    1.81 
  -2   6  -2    1.72    1.60 
  -2   6  -2   -0.32    1.31 
  -2   6  -2    0.24    1.40 
  -2   6  -1  120.39    6.34 
  -2   6  -1  120.66    6.62 
  -2   6  -1  113.18    6.50 
  -2   6  -1  113.25    5.80 
  -2   6   0  175.39    8.31 
  -2   6   0  185.81    7.67 
  -2   6   0  192.68    8.66 
  -2   6   0  178.95    7.67 
  -2   6   0  177.50    8.51 
  -2   6   1  272.59   10.93 
  -2   6   1  262.28   11.05 
  -2   6   1  290.94    9.59 
  -2   6   1  272.22   10.31 
  -2   6   2  176.10    8.44 
  -2   6   2  170.34    6.14 
  -2   6   2  163.74    7.92 
  -2   6   2  186.39    8.35 
  -2   6   2  181.67    7.78 
  -2   6   2  161.31    5.70 
  -2   6   3 1368.88   35.66 
  -2   6   3 1338.77   35.52 
  -2   6   3 1330.53   35.00 
  -2   6   3 1353.55   36.05 
  -2   6   3 1282.28   31.58 
  -2   6   4  488.04   15.84 
  -2   6   4  497.97   16.27 
  -2   6   5   22.73    2.86 
  -2   6   5   21.28    1.58 
  -2   6   5   21.42    3.00 
  -2   6   5   21.06    2.98 
  -2   6   6   11.52    2.34 
  -2   6   6   13.63    1.67 
  -2   6   7   81.80    3.96 
  -2   6   7   79.37    5.34 
  -2   6   8   11.22    1.56 
  -2   6   8   10.86    2.27 
  -2   6   9  271.77    8.56 
  -2   6   9  257.59   10.61 
  -2   6  10  255.38    8.20 
  -2   7  -5   25.69    3.72 
  -2   7  -5   28.46    4.53 
  -2   7  -4   65.48    5.62 
  -2   7  -4   66.64    6.16 
  -2   7  -3  135.63    8.07 
  -2   7  -3  154.27    8.58 
  -2   7  -2  168.23    8.58 
  -2   7  -2  163.11    8.42 
  -2   7  -2  152.97    8.55 
  -2   7  -1   28.25    3.47 
  -2   7  -1   27.15    3.61 
  -2   7  -1   29.79    3.63 
  -2   7  -1   29.59    3.25 
  -2   7   0   43.47    3.72 
  -2   7   0   41.61    4.28 
  -2   7   0   42.18    4.20 
  -2   7   0   49.00    4.06 
  -2   7   1  188.67    9.43 
  -2   7   1  197.84    9.39 
  -2   7   1  189.16    8.57 
  -2   7   1  193.80    7.74 
  -2   7   2    1.86    1.73 
  -2   7   2    0.40    1.78 
  -2   7   2    0.65    0.87 
  -2   7   2   -0.31    1.97 
  -2   7   3  350.96   10.07 
  -2   7   3  364.89   13.28 
  -2   7   3  339.54   13.91 
  -2   7   4  455.72   16.24 
  -2   7   5   52.59    2.38 
  -2   7   6   36.80    2.81 
  -2   7   6   41.17    4.24 
  -2   7   7  605.29   16.96 
  -2   7   7  610.08   19.94 
  -2   7   8   19.06    1.97 
  -2   7   8   17.33    2.95 
  -2   7   9   76.24    3.83 
  -2   7   9   81.71    5.70 
  -2   8  -3   94.43    7.00 
  -2   8  -2  245.19   11.68 
  -2   8  -2  233.69   10.97 
  -2   8  -1   44.47    4.80 
  -2   8  -1   52.08    4.69 
  -2   8   0    5.06    2.26 
  -2   8   0    2.98    2.13 
  -2   8   0    4.90    2.17 
  -2   8   1  287.93   12.89 
  -2   8   1  300.03   12.78 
  -2   8   2  155.98    5.77 
  -2   8   2  164.62    8.97 
  -2   8   2  156.94    8.94 
  -2   8   3   77.79    6.26 
  -2   8   3   76.27    5.98 
  -2   8   3   75.64    3.43 
  -2   8   4  168.08    9.09 
  -2   8   6   27.08    3.65 
  -2   8   6   32.80    2.89 
  -2   8   7  322.48   10.60 
  -2   8   7  328.21   13.43 
  -2   9   0    0.53    2.45 
  -2   9   1  145.78    9.20 
  -2   9   2  152.47    9.34 
  -1 -11  -8   10.40    2.59 
  -1 -11  -8   11.32    2.46 
  -1 -11  -8    9.67    3.45 
  -1 -11  -5    4.83    2.78 
  -1 -11  -4   49.92    5.51 
  -1 -11  -3   90.99    7.20 
  -1 -11  -2   10.88    3.11 
  -1 -10 -10   63.75    4.76 
  -1 -10 -10   58.83    4.85 
  -1 -10 -10   62.14    6.39 
  -1 -10  -9  254.79   10.98 
  -1 -10  -9  267.23   12.95 
  -1 -10  -9  267.12   10.59 
  -1 -10  -8   -0.61    1.48 
  -1 -10  -8    0.52    2.40 
  -1 -10  -7   64.28    4.71 
  -1 -10  -7   71.45    6.31 
  -1 -10  -3  150.95    8.92 
  -1 -10  -2   88.52    6.87 
  -1 -10  -1    4.89    2.28 
  -1 -10   0   34.20    3.78 
  -1 -10   1   19.14    3.03 
  -1  -9 -11   95.26    5.75 
  -1  -9 -11   89.91    5.73 
  -1  -9 -11   92.23    7.52 
  -1  -9 -10    6.55    2.04 
  -1  -9 -10    9.37    2.26 
  -1  -9 -10    4.67    2.93 
  -1  -9  -9  151.17    7.35 
  -1  -9  -9  164.82    7.79 
  -1  -9  -9  164.36    9.55 
  -1  -9  -8  519.56   16.42 
  -1  -9  -8  528.27   19.03 
  -1  -9  -7    1.61    1.45 
  -1  -9  -7    1.34    2.55 
  -1  -9  -6  197.89    8.28 
  -1  -9  -6  191.19    9.88 
  -1  -9  -2  315.12   13.17 
  -1  -9  -1  158.57    8.79 
  -1  -9   0   88.28    6.46 
  -1  -9   1  243.88    8.41 
  -1  -9   2   14.48    2.54 
  -1  -9   3   12.76    2.40 
  -1  -9   4    2.74    1.67 
  -1  -8 -12   38.54    3.37 
  -1  -8 -12   34.52    3.78 
  -1  -8 -12   34.12    4.69 
  -1  -8 -11  326.33   12.20 
  -1  -8 -11  332.25   11.69 
  -1  -8 -11  321.55   14.39 
  -1  -8 -10   11.88    2.44 
  -1  -8 -10   12.45    3.31 
  -1  -8 -10   10.83    2.07 
  -1  -8  -9  312.60   11.25 
  -1  -8  -9  322.03   11.42 
  -1  -8  -9  299.19   13.24 
  -1  -8  -8  365.68   12.40 
  -1  -8  -8  385.09   14.93 
  -1  -8  -7   87.15    4.86 
  -1  -8  -7   80.57    5.96 
  -1  -8  -6   64.55    2.73 
  -1  -8  -6   69.56    4.22 
  -1  -8  -6   65.81    5.26 
  -1  -8  -5 1197.26   29.91 
  -1  -8  -5 1229.56   31.98 
  -1  -8  -5 1261.36   34.42 
  -1  -8  -3   19.28    2.68 
  -1  -8  -2    6.65    1.90 
  -1  -8  -1   19.54    2.65 
  -1  -8  -1   19.03    3.02 
  -1  -8   0    0.78    1.51 
  -1  -8   0    1.53    1.74 
  -1  -8   1  342.47   11.93 
  -1  -8   2  266.22    8.34 
  -1  -8   2  282.16   10.43 
  -1  -8   3   69.43    2.95 
  -1  -8   3   79.65    4.85 
  -1  -8   4   57.71    4.09 
  -1  -8   5   33.62    3.08 
  -1  -7 -13   -1.44    2.20 
  -1  -7 -13    1.06    2.83 
  -1  -7 -12   10.92    2.59 
  -1  -7 -12    8.03    3.12 
  -1  -7 -11  279.17   10.84 
  -1  -7 -11  277.59    9.89 
  -1  -7 -11  276.78   12.68 
  -1  -7 -10  305.37   11.39 
  -1  -7 -10  329.68   11.06 
  -1  -7 -10  330.13   13.68 
  -1  -7  -9   -0.23    1.14 
  -1  -7  -9   -0.47    1.31 
  -1  -7  -9   -0.51    1.65 
  -1  -7  -9    1.24    2.00 
  -1  -7  -8  475.49   14.82 
  -1  -7  -8  514.19   17.37 
  -1  -7  -8  470.42   14.89 
  -1  -7  -7  150.29    6.47 
  -1  -7  -7  153.64    7.62 
  -1  -7  -7  143.23    6.61 
  -1  -7  -7  166.37    8.28 
  -1  -7  -6   89.35    5.48 
  -1  -7  -6   93.86    4.72 
  -1  -7  -6   90.61    3.40 
  -1  -7  -6   99.32    6.09 
  -1  -7  -6   92.56    5.12 
  -1  -7  -5  489.00   15.43 
  -1  -7  -5  503.53   14.79 
  -1  -7  -5  499.48   16.18 
  -1  -7  -5  518.50   16.31 
  -1  -7  -5  508.29   16.71 
  -1  -7  -5  496.39   13.26 
  -1  -7  -4  707.70   18.80 
  -1  -7  -4  719.54   21.55 
  -1  -7  -4  728.52   21.89 
  -1  -7  -4  723.83   20.82 
  -1  -7  -4  755.60   20.16 
  -1  -7  -3  206.76    8.80 
  -1  -7  -3  202.61    7.06 
  -1  -7  -3  199.10    8.77 
  -1  -7  -3  192.82    8.05 
  -1  -7  -2  639.29   19.12 
  -1  -7  -2  663.08   18.20 
  -1  -7  -2  656.65   19.95 
  -1  -7  -1   72.42    4.45 
  -1  -7  -1   72.22    4.43 
  -1  -7   0   36.16    3.10 
  -1  -7   0   35.97    3.18 
  -1  -7   1   42.83    3.34 
  -1  -7   1   39.37    3.20 
  -1  -7   2   25.37    2.61 
  -1  -7   2   24.98    2.61 
  -1  -7   2   19.88    1.69 
  -1  -7   3  441.91   13.67 
  -1  -7   3  461.65   14.04 
  -1  -7   3  444.21   14.01 
  -1  -7   3  430.18   11.44 
  -1  -7   4   48.84    3.43 
  -1  -7   4   46.86    3.47 
  -1  -7   4   47.67    3.48 
  -1  -7   5  200.50    7.91 
  -1  -7   5  215.92    8.17 
  -1  -7   5  214.78    8.18 
  -1  -7   6   62.65    3.94 
  -1  -7   7    8.83    1.64 
  -1  -6 -13   34.59    4.05 
  -1  -6 -13   34.28    4.58 
  -1  -6 -12    1.69    1.80 
  -1  -6 -12    1.42    2.52 
  -1  -6 -11  124.07    5.52 
  -1  -6 -11  120.59    6.53 
  -1  -6 -11  126.26    5.41 
  -1  -6 -11  131.88    5.38 
  -1  -6 -11  126.00    7.89 
  -1  -6 -10  393.69   13.64 
  -1  -6 -10  418.75   12.58 
  -1  -6 -10  408.14   11.69 
  -1  -6 -10  424.10   12.25 
  -1  -6 -10  426.98   15.69 
  -1  -6 -10  403.70   12.54 
  -1  -6  -9   87.76    4.42 
  -1  -6  -9   84.16    4.45 
  -1  -6  -9   87.10    3.40 
  -1  -6  -9   78.83    4.74 
  -1  -6  -9   80.28    5.95 
  -1  -6  -8   85.95    4.63 
  -1  -6  -8   82.80    4.24 
  -1  -6  -8   77.52    4.28 
  -1  -6  -8   74.67    5.43 
  -1  -6  -7  309.04   10.48 
  -1  -6  -7  331.85   10.46 
  -1  -6  -7  301.26   11.45 
  -1  -6  -7  315.10   11.99 
  -1  -6  -6  106.02    5.16 
  -1  -6  -6  115.73    4.98 
  -1  -6  -6   96.33    5.53 
  -1  -6  -6  105.18    5.46 
  -1  -6  -6  100.53    5.85 
  -1  -6  -5  215.48    7.52 
  -1  -6  -5  210.26    8.04 
  -1  -6  -5  216.28    8.52 
  -1  -6  -5  233.86    9.18 
  -1  -6  -5  208.03    8.55 
  -1  -6  -4  774.88   19.73 
  -1  -6  -4  782.86   22.05 
  -1  -6  -4  794.37   20.70 
  -1  -6  -4  772.28   21.50 
  -1  -6  -4  789.44   22.13 
  -1  -6  -4  765.47   22.28 
  -1  -6  -3  551.05   16.37 
  -1  -6  -3  581.51   15.75 
  -1  -6  -3  549.28   16.88 
  -1  -6  -3  556.87   17.07 
  -1  -6  -3  561.95   15.10 
  -1  -6  -2   15.73    2.14 
  -1  -6  -2   14.55    1.76 
  -1  -6  -2   11.99    1.78 
  -1  -6  -2   13.15    2.08 
  -1  -6  -1  706.10   19.22 
  -1  -6  -1  694.33   19.51 
  -1  -6   0  151.44    6.60 
  -1  -6   0  167.02    6.73 
  -1  -6   0  158.70    6.44 
  -1  -6   1   16.37    2.43 
  -1  -6   1   18.05    2.04 
  -1  -6   1   16.82    2.30 
  -1  -6   1   15.43    1.96 
  -1  -6   2   19.96    2.18 
  -1  -6   2   22.09    2.24 
  -1  -6   3  103.84    5.03 
  -1  -6   3  100.54    4.77 
  -1  -6   3  106.18    4.95 
  -1  -6   4  131.82    5.69 
  -1  -6   4  136.96    5.96 
  -1  -6   4  150.15    5.97 
  -1  -6   5    5.09    1.34 
  -1  -6   5    6.26    1.53 
  -1  -6   5    8.86    1.52 
  -1  -6   6  247.07    8.76 
  -1  -6   6  264.67    8.72 
  -1  -6   6  250.81    8.63 
  -1  -6   7   83.47    4.04 
  -1  -5 -13   40.78    4.18 
  -1  -5 -13   32.47    3.95 
  -1  -5 -13   40.31    3.74 
  -1  -5 -13   40.88    4.83 
  -1  -5 -12   16.68    2.77 
  -1  -5 -12   14.68    2.33 
  -1  -5 -12   17.69    2.66 
  -1  -5 -12   11.66    2.71 
  -1  -5 -11   68.68    4.39 
  -1  -5 -11   64.54    4.81 
  -1  -5 -11   72.82    3.35 
  -1  -5 -11   72.93    4.29 
  -1  -5 -11   73.51    5.75 
  -1  -5 -10  581.95   15.69 
  -1  -5 -10  562.50   16.27 
  -1  -5 -10  580.39   19.22 
  -1  -5 -10  597.03   17.92 
  -1  -5 -10  564.44   15.67 
  -1  -5  -9  147.59    5.58 
  -1  -5  -9  140.73    5.51 
  -1  -5  -9  145.76    7.65 
  -1  -5  -9  143.01    5.58 
  -1  -5  -9  139.73    6.50 
  -1  -5  -8    5.46    1.19 
  -1  -5  -8    3.14    1.09 
  -1  -5  -8    1.72    1.26 
  -1  -5  -8    3.86    1.84 
  -1  -5  -7  160.09    6.48 
  -1  -5  -7  169.31    5.20 
  -1  -5  -7  170.13    6.42 
  -1  -5  -7  168.14    6.77 
  -1  -5  -6  426.10   12.19 
  -1  -5  -6  411.11   10.13 
  -1  -5  -6  411.49   12.71 
  -1  -5  -6  414.51   12.36 
  -1  -5  -6  402.85   13.62 
  -1  -5  -5  420.47   12.60 
  -1  -5  -5  433.26   12.12 
  -1  -5  -5  404.13   12.89 
  -1  -5  -5  433.83   13.67 
  -1  -5  -4  234.56    8.22 
  -1  -5  -4  233.90    8.74 
  -1  -5  -4  257.89    7.75 
  -1  -5  -4  232.06    8.55 
  -1  -5  -4  241.97    8.87 
  -1  -5  -3 1382.01   33.70 
  -1  -5  -3 1363.42   34.98 
  -1  -5  -3 1467.52   34.22 
  -1  -5  -3 1363.95   35.43 
  -1  -5  -3 1390.68   35.59 
  -1  -5  -3 1360.09   35.36 
  -1  -5  -2    5.27    1.16 
  -1  -5  -2    5.18    1.25 
  -1  -5  -2    6.40    1.40 
  -1  -5  -2    5.02    1.40 
  -1  -5  -1  324.28    9.89 
  -1  -5  -1  307.25   10.57 
  -1  -5  -1  334.49   10.85 
  -1  -5   0  409.37   12.08 
  -1  -5   0  411.33   12.41 
  -1  -5   1 1635.50   41.21 
  -1  -5   1 1627.52   40.14 
  -1  -5   1 1630.00   41.15 
  -1  -5   1 1651.95   40.63 
  -1  -5   2   15.26    1.68 
  -1  -5   2   21.46    2.06 
  -1  -5   2   20.93    2.18 
  -1  -5   3  497.71   14.35 
  -1  -5   3  500.55   14.05 
  -1  -5   3  513.14   14.24 
  -1  -5   4   63.53    3.34 
  -1  -5   4   61.69    3.32 
  -1  -5   4   64.08    3.45 
  -1  -5   5   53.10    3.03 
  -1  -5   5   50.36    2.93 
  -1  -5   5   48.97    2.98 
  -1  -5   6    1.57    0.96 
  -1  -5   6    2.71    1.03 
  -1  -5   6    1.30    1.15 
  -1  -5   7  594.27   16.16 
  -1  -5   7  603.58   16.83 
  -1  -5   7  614.95   16.12 
  -1  -5   8  105.02    3.88 
  -1  -5   8  110.77    3.98 
  -1  -4 -13   91.30    6.13 
  -1  -4 -13   85.48    6.25 
  -1  -4 -13   98.90    5.93 
  -1  -4 -13   81.24    5.71 
  -1  -4 -13   91.74    6.75 
  -1  -4 -12  116.95    6.56 
  -1  -4 -12  117.90    6.97 
  -1  -4 -12  119.78    6.58 
  -1  -4 -12   97.26    6.92 
  -1  -4 -11    0.86    1.74 
  -1  -4 -11    0.34    1.77 
  -1  -4 -11    0.31    1.50 
  -1  -4 -11    3.15    2.13 
  -1  -4 -10  169.05    7.58 
  -1  -4 -10  148.70    5.06 
  -1  -4 -10  153.16    4.48 
  -1  -4 -10  164.23    8.20 
  -1  -4  -9  108.07    4.08 
  -1  -4  -9  104.56    4.12 
  -1  -4  -9   94.01    5.90 
  -1  -4  -8   23.24    1.81 
  -1  -4  -8   22.71    1.74 
  -1  -4  -8   24.34    2.54 
  -1  -4  -8   23.95    2.89 
  -1  -4  -7  281.82    9.23 
  -1  -4  -7  269.42    8.23 
  -1  -4  -7  260.68    8.37 
  -1  -4  -7  278.84   10.28 
  -1  -4  -7  277.59    8.75 
  -1  -4  -6  723.87   20.08 
  -1  -4  -6  803.48   19.99 
  -1  -4  -6  771.16   20.48 
  -1  -4  -6  796.50   20.50 
  -1  -4  -6  795.30   21.88 
  -1  -4  -5 2522.94   61.38 
  -1  -4  -5 2577.79   61.15 
  -1  -4  -5 2602.02   61.79 
  -1  -4  -5 2616.71   62.72 
  -1  -4  -4   37.81    2.53 
  -1  -4  -4   37.90    2.85 
  -1  -4  -4   34.33    2.06 
  -1  -4  -3  733.35   19.86 
  -1  -4  -3  741.54   18.72 
  -1  -4  -3  770.70   20.12 
  -1  -4  -2  636.01   15.61 
  -1  -4  -2  607.70   16.60 
  -1  -4  -2  604.69   16.64 
  -1  -4  -1   33.06    2.48 
  -1  -4  -1   37.19    2.59 
  -1  -4  -1   39.16    2.38 
  -1  -4   0  589.23   15.69 
  -1  -4   0  559.77   15.22 
  -1  -4   0  564.55   16.09 
  -1  -4   1 3242.13   77.43 
  -1  -4   1 3142.68   76.78 
  -1  -4   1 3344.66   76.41 
  -1  -4   2  342.49   10.94 
  -1  -4   2  328.30   10.15 
  -1  -4   2  331.25    9.44 
  -1  -4   2  312.60    9.75 
  -1  -4   3  538.02   14.15 
  -1  -4   3  529.12   14.24 
  -1  -4   3  526.37   14.80 
  -1  -4   3  526.67   14.51 
  -1  -4   4  480.40   13.46 
  -1  -4   4  485.85   13.25 
  -1  -4   4  504.30   13.33 
  -1  -4   5    3.86    0.96 
  -1  -4   5    5.30    0.97 
  -1  -4   5    4.14    1.07 
  -1  -4   6    1.19    0.79 
  -1  -4   6    1.61    0.77 
  -1  -4   6    1.64    0.94 
  -1  -4   7   28.40    2.25 
  -1  -4   7   28.42    1.78 
  -1  -4   7   31.10    1.80 
  -1  -4   8  239.52    6.29 
  -1  -3 -13   42.07    4.63 
  -1  -3 -13   37.53    3.55 
  -1  -3 -13   38.71    4.53 
  -1  -3 -13   48.26    4.87 
  -1  -3 -12  248.30   10.70 
  -1  -3 -12  225.98   10.65 
  -1  -3 -12  235.23   10.92 
  -1  -3 -12  239.95    9.59 
  -1  -3 -11  199.47    9.14 
  -1  -3 -11  212.66    9.58 
  -1  -3 -11  216.49    8.82 
  -1  -3 -11  210.06    6.87 
  -1  -3 -11  200.42    9.66 
  -1  -3 -10   64.61    4.77 
  -1  -3 -10   65.38    3.03 
  -1  -3 -10   66.03    4.33 
  -1  -3 -10   68.59    5.09 
  -1  -3 -10   66.64    4.69 
  -1  -3  -9   41.21    3.57 
  -1  -3  -9   45.94    1.97 
  -1  -3  -9   47.96    2.33 
  -1  -3  -9   46.57    3.97 
  -1  -3  -9   47.36    2.03 
  -1  -3  -8   53.44    3.70 
  -1  -3  -8   54.40    2.42 
  -1  -3  -8   57.05    2.38 
  -1  -3  -8   55.74    2.34 
  -1  -3  -8   56.60    4.09 
  -1  -3  -7   26.61    2.34 
  -1  -3  -7   20.56    1.44 
  -1  -3  -7   22.05    1.61 
  -1  -3  -7   24.08    1.22 
  -1  -3  -7   20.38    2.38 
  -1  -3  -7   20.90    1.50 
  -1  -3  -6  351.34   10.32 
  -1  -3  -6  326.21    9.33 
  -1  -3  -6  334.66    9.14 
  -1  -3  -6  329.02    8.12 
  -1  -3  -6  335.80    9.55 
  -1  -3  -6  335.40   10.94 
  -1  -3  -5 3385.43   78.12 
  -1  -3  -5 3322.06   77.43 
  -1  -3  -5 3253.12   77.94 
  -1  -3  -5 3322.36   79.13 
  -1  -3  -4    0.84    0.62 
  -1  -3  -4    1.44    0.80 
  -1  -3  -4    1.08    1.00 
  -1  -3  -3 1120.19   26.66 
  -1  -3  -3 1073.76   27.46 
  -1  -3  -3 1134.59   27.78 
  -1  -3  -2 2933.17   66.47 
  -1  -3  -2 2729.39   67.43 
  -1  -3  -1 1530.48   37.15 
  -1  -3   0   61.55    3.00 
  -1  -3   0   62.44    2.99 
  -1  -3   0   68.64    3.25 
  -1  -3   1 6327.64  150.52 
  -1  -3   1 6572.50  149.47 
  -1  -3   2 1073.23   28.14 
  -1  -3   2 1102.68   26.56 
  -1  -3   2 1120.67   26.74 
  -1  -3   2 1084.32   27.23 
  -1  -3   3  198.69    7.56 
  -1  -3   3  195.61    5.87 
  -1  -3   3  193.77    5.95 
  -1  -3   3  202.23    6.42 
  -1  -3   3  203.52    6.25 
  -1  -3   4  407.33   11.05 
  -1  -3   4  419.55   11.05 
  -1  -3   4  416.55   11.23 
  -1  -3   4  427.14   11.48 
  -1  -3   5  690.59   17.34 
  -1  -3   5  682.30   17.22 
  -1  -3   5  697.48   17.58 
  -1  -3   6   24.02    1.43 
  -1  -3   6   22.78    1.42 
  -1  -3   6   24.42    1.83 
  -1  -3   7  627.53   15.16 
  -1  -2 -13    7.39    3.25 
  -1  -2 -13   13.78    3.20 
  -1  -2 -13    9.29    2.63 
  -1  -2 -12  117.35    7.52 
  -1  -2 -12  126.78    7.63 
  -1  -2 -12  121.23    6.00 
  -1  -2 -12  101.38    5.64 
  -1  -2 -12  118.65    5.41 
  -1  -2 -12  118.27    7.27 
  -1  -2 -11   18.01    3.20 
  -1  -2 -11   15.86    2.87 
  -1  -2 -11   16.37    2.30 
  -1  -2 -11   19.80    2.07 
  -1  -2 -11   15.11    2.72 
  -1  -2 -10    3.00    1.78 
  -1  -2 -10    2.84    1.38 
  -1  -2 -10    1.02    1.53 
  -1  -2 -10    1.80    1.01 
  -1  -2 -10    1.99    1.76 
  -1  -2  -9   62.31    3.82 
  -1  -2  -9   54.66    2.98 
  -1  -2  -9   55.90    4.20 
  -1  -2  -9   50.58    4.06 
  -1  -2  -8  320.52    7.87 
  -1  -2  -8  338.99   11.42 
  -1  -2  -8  340.92    9.53 
  -1  -2  -8  314.34    7.86 
  -1  -2  -8  359.80   10.97 
  -1  -2  -8  349.70   11.63 
  -1  -2  -7   36.28    2.71 
  -1  -2  -7   37.84    1.55 
  -1  -2  -7   38.67    2.06 
  -1  -2  -7   37.50    1.58 
  -1  -2  -7   37.27    3.04 
  -1  -2  -7   38.65    1.62 
  -1  -2  -7   38.99    3.03 
  -1  -2  -6   15.03    1.04 
  -1  -2  -6   11.60    1.65 
  -1  -2  -6   13.36    0.94 
  -1  -2  -6   14.64    1.08 
  -1  -2  -6   12.55    1.03 
  -1  -2  -6   15.53    1.82 
  -1  -2  -5 1917.92   45.32 
  -1  -2  -5 1912.27   45.15 
  -1  -2  -5 2012.64   46.76 
  -1  -2  -5 1954.61   45.66 
  -1  -2  -5 1946.31   47.21 
  -1  -2  -4  628.70   16.06 
  -1  -2  -4  632.08   15.43 
  -1  -2  -4  624.45   14.83 
  -1  -2  -4  626.97   16.63 
  -1  -2  -3   19.07    1.19 
  -1  -2  -3   18.36    1.14 
  -1  -2  -3   17.38    1.45 
  -1  -2  -2  746.74   17.54 
  -1  -2  -2  718.31   17.98 
  -1  -2  -2  753.82   18.41 
  -1  -2  -1 1364.47   32.07 
  -1  -2  -1 1301.20   31.73 
  -1  -2  -1 1375.81   31.56 
  -1  -2  -1 1407.10   32.46 
  -1  -2   0    0.66    0.48 
  -1  -2   0    1.95    0.76 
  -1  -2   0    1.00    0.77 
  -1  -2   1 9375.63  215.64 
  -1  -2   1 9347.37  215.35 
  -1  -2   2 1199.66   31.01 
  -1  -2   2 1269.16   29.41 
  -1  -2   3  110.16    4.89 
  -1  -2   3  110.43    3.37 
  -1  -2   3  110.18    3.48 
  -1  -2   3  108.50    3.73 
  -1  -2   4  327.19    8.67 
  -1  -2   4  333.63    8.55 
  -1  -2   4  327.78    8.82 
  -1  -2   5 1388.79   33.34 
  -1  -2   5 1401.04   32.77 
  -1  -2   5 1393.31   32.84 
  -1  -2   6  641.79   15.20 
  -1  -2   6  633.41   15.13 
  -1  -1 -13   97.17    7.47 
  -1  -1 -13   90.83    6.65 
  -1  -1 -13   96.18    7.28 
  -1  -1 -12   33.54    4.65 
  -1  -1 -12   41.34    3.40 
  -1  -1 -12   37.80    4.43 
  -1  -1 -12   41.65    3.45 
  -1  -1 -12   47.50    4.58 
  -1  -1 -11  199.43    9.95 
  -1  -1 -11  207.05    8.01 
  -1  -1 -11  196.72    7.74 
  -1  -1 -11  204.40    7.99 
  -1  -1 -11  200.75    9.47 
  -1  -1 -11  210.00   10.05 
  -1  -1 -10   43.15    4.37 
  -1  -1 -10   41.84    3.16 
  -1  -1 -10   44.90    3.22 
  -1  -1 -10   46.08    3.28 
  -1  -1 -10   50.15    4.40 
  -1  -1  -9    1.51    1.13 
  -1  -1  -9   -0.19    0.95 
  -1  -1  -9    0.40    1.07 
  -1  -1  -9    0.66    1.87 
  -1  -1  -8    2.46    1.04 
  -1  -1  -8    0.37    1.04 
  -1  -1  -7  280.84    9.00 
  -1  -1  -7  271.41    8.56 
  -1  -1  -6   36.40    2.43 
  -1  -1  -6   35.81    2.16 
  -1  -1  -5 1913.84   44.06 
  -1  -1  -5 1939.73   45.20 
  -1  -1  -5 1890.73   44.00 
  -1  -1  -5 1850.77   45.82 
  -1  -1  -4    2.14    0.74 
  -1  -1  -4    2.94    0.40 
  -1  -1  -4    2.91    0.47 
  -1  -1  -4    2.49    0.40 
  -1  -1  -3  243.78    6.24 
  -1  -1  -3  255.14    6.96 
  -1  -1  -3  235.00    6.35 
  -1  -1  -3  241.52    6.28 
  -1  -1  -2    1.14    0.42 
  -1  -1  -2    0.71    0.46 
  -1  -1  -2    0.46    0.54 
  -1  -1  -1 5426.83  119.72 
  -1  -1  -1 4970.46  119.82 
  -1  -1   1 1646.22   38.24 
  -1  -1   1 1587.29   37.96 
  -1  -1   2   26.26    1.89 
  -1  -1   2   35.87    1.89 
  -1  -1   3    2.10    1.02 
  -1  -1   3    2.85    0.40 
  -1  -1   3    2.11    0.41 
  -1  -1   4  301.35    7.50 
  -1  -1   4  299.45    7.44 
  -1   0 -12   34.97    4.84 
  -1   0 -12   32.07    4.47 
  -1   0 -12   40.07    3.65 
  -1   0 -11   50.57    3.96 
  -1   0 -11   50.54    3.55 
  -1   0 -11   50.39    5.31 
  -1   0 -10  400.53   12.08 
  -1   0 -10  405.04   12.74 
  -1   0 -10  403.93   15.50 
  -1   0 -10  426.22   13.57 
  -1   0  -9   28.02    3.55 
  -1   0  -9   28.56    2.48 
  -1   0  -9   23.87    2.11 
  -1   0  -9   25.75    2.65 
  -1   0  -8  104.15    6.24 
  -1   0  -8  107.15    4.85 
  -1   0  -8  106.18    4.54 
  -1   0  -8  120.85    5.40 
  -1   0  -7  355.81   10.93 
  -1   0  -7  359.38   10.54 
  -1   0  -7  373.82   11.34 
  -1   0  -6  140.05    5.26 
  -1   0  -6  138.18    5.01 
  -1   0  -6  134.63    5.40 
  -1   0  -5   14.39    1.48 
  -1   0  -5   12.54    1.29 
  -1   0  -5   16.25    0.78 
  -1   0  -5   13.60    0.71 
  -1   0  -4    5.38    0.98 
  -1   0  -4    4.78    0.83 
  -1   0  -4    5.09    0.53 
  -1   0  -3  300.20    8.33 
  -1   0  -3  297.77    8.08 
  -1   0  -3  296.50    7.51 
  -1   0  -2  406.85   10.38 
  -1   0  -2  409.89   10.08 
  -1   0  -2  410.15   10.57 
  -1   0  -1  976.18   23.26 
  -1   0  -1  992.08   23.32 
  -1   0  -1  988.26   23.34 
  -1   0  -1  981.69   23.26 
  -1   0  -1  997.01   23.46 
  -1   0   1  543.78   13.62 
  -1   0   1  544.32   13.35 
  -1   0   1  550.73   13.44 
  -1   0   1  550.74   13.39 
  -1   0   1  560.08   13.31 
  -1   0   2  114.24    3.92 
  -1   0   2  117.13    3.79 
  -1   0   3  744.41   17.71 
  -1   0   4  163.00    4.29 
  -1   0   4  145.47    5.17 
  -1   0   5  237.10    7.51 
  -1   0   5  235.78    5.91 
  -1   0   6  506.89   14.25 
  -1   1 -12  123.10    8.82 
  -1   1 -12  119.51    6.95 
  -1   1 -11   46.95    3.53 
  -1   1 -11   47.84    5.44 
  -1   1 -11   46.63    4.14 
  -1   1 -10  152.18    8.93 
  -1   1 -10  148.19    6.39 
  -1   1 -10  143.36    7.21 
  -1   1  -9  171.58    5.94 
  -1   1  -9  174.48    7.74 
  -1   1  -9  175.22    9.24 
  -1   1  -9  182.38    7.03 
  -1   1  -8    2.60    1.92 
  -1   1  -8    4.31    1.30 
  -1   1  -8    4.21    1.00 
  -1   1  -8    4.57    1.63 
  -1   1  -7  982.69   28.04 
  -1   1  -7  965.99   24.41 
  -1   1  -7  997.90   25.48 
  -1   1  -7  981.16   26.46 
  -1   1  -6  382.17   11.32 
  -1   1  -6  382.23   10.54 
  -1   1  -6  393.15   12.17 
  -1   1  -5    8.92    0.82 
  -1   1  -5   10.41    1.30 
  -1   1  -5    9.35    1.01 
  -1   1  -5    7.37    0.79 
  -1   1  -4   42.83    1.89 
  -1   1  -4   49.69    2.58 
  -1   1  -4   44.65    2.08 
  -1   1  -3    4.35    0.84 
  -1   1  -3    5.95    0.75 
  -1   1  -3    5.02    0.67 
  -1   1  -2 1338.29   31.16 
  -1   1  -2 1291.48   30.64 
  -1   1  -2 1247.69   30.57 
  -1   1  -2 1308.07   30.71 
  -1   1  -1 1315.58   31.15 
  -1   1  -1 1317.15   31.20 
  -1   1  -1 1316.45   30.86 
  -1   1  -1 1279.91   30.57 
  -1   1  -1 1303.67   30.95 
  -1   1   0   40.07    1.85 
  -1   1   0   37.55    1.80 
  -1   1   0   34.63    1.58 
  -1   1   0   36.32    1.76 
  -1   1   1   21.95    1.36 
  -1   1   1   22.04    1.44 
  -1   1   1   19.70    1.40 
  -1   1   1   21.57    1.30 
  -1   1   2 1700.25   40.52 
  -1   1   3 1162.90   28.47 
  -1   1   3 1141.46   27.34 
  -1   1   4 3258.53   73.96 
  -1   1   4 3179.09   74.28 
  -1   1   4 3047.14   75.40 
  -1   1   5   14.19    1.04 
  -1   1   5   14.43    1.07 
  -1   1   5   11.46    1.23 
  -1   1   6  466.77   12.89 
  -1   1   6  470.56   11.88 
  -1   1   7  447.81   12.80 
  -1   2 -11   31.65    5.12 
  -1   2 -11   37.48    4.04 
  -1   2 -10   11.31    3.48 
  -1   2 -10    4.87    1.66 
  -1   2 -10    7.73    2.25 
  -1   2  -9   59.90    5.58 
  -1   2  -9   49.99    3.53 
  -1   2  -9   54.78    4.45 
  -1   2  -8  250.11   11.35 
  -1   2  -8  245.90    7.44 
  -1   2  -8  264.36   10.26 
  -1   2  -8  265.30    9.09 
  -1   2  -7  116.23    6.86 
  -1   2  -7  115.39    5.12 
  -1   2  -7  111.55    4.00 
  -1   2  -7  109.79    5.83 
  -1   2  -7  101.64    3.44 
  -1   2  -6  595.70   19.32 
  -1   2  -6  603.73   17.11 
  -1   2  -6  628.02   15.78 
  -1   2  -6  613.35   18.26 
  -1   2  -5  233.39    9.31 
  -1   2  -5  226.99    7.69 
  -1   2  -5  228.12    6.69 
  -1   2  -5  229.75    6.95 
  -1   2  -5  218.36    7.64 
  -1   2  -4   73.69    3.12 
  -1   2  -4   80.74    3.70 
  -1   2  -4   75.15    2.94 
  -1   2  -4   74.29    3.23 
  -1   2  -4   73.58    3.47 
  -1   2  -3   35.37    2.04 
  -1   2  -3   35.53    2.31 
  -1   2  -3   32.81    2.02 
  -1   2  -3   36.50    2.13 
  -1   2  -2  177.32    5.72 
  -1   2  -2  183.02    6.01 
  -1   2  -2  173.92    5.56 
  -1   2  -1   30.62    1.87 
  -1   2  -1   35.78    2.07 
  -1   2  -1   30.59    1.97 
  -1   2  -1   30.92    1.72 
  -1   2   0   11.81    1.20 
  -1   2   0   15.43    1.40 
  -1   2   0   14.15    1.30 
  -1   2   0   15.06    1.26 
  -1   2   1 1409.40   34.03 
  -1   2   1 1401.44   34.01 
  -1   2   1 1428.59   34.16 
  -1   2   1 1399.44   33.98 
  -1   2   2    0.91    0.59 
  -1   2   2    1.26    0.68 
  -1   2   2    0.32    0.69 
  -1   2   2    0.36    0.86 
  -1   2   3  147.98    5.46 
  -1   2   3  160.64    4.66 
  -1   2   3  152.00    4.64 
  -1   2   4 1269.43   30.53 
  -1   2   4 1276.54   30.71 
  -1   2   4 1230.59   30.01 
  -1   2   5 2227.80   52.96 
  -1   2   5 2262.46   53.40 
  -1   2   5 2265.69   53.28 
  -1   2   6   16.28    1.39 
  -1   2   6   16.72    1.46 
  -1   2   6   13.60    1.33 
  -1   2   7 1462.39   35.57 
  -1   2   7 1453.82   35.20 
  -1   2   8  124.24    5.00 
  -1   2   9   34.85    1.64 
  -1   3 -10   12.02    2.96 
  -1   3 -10   15.25    4.10 
  -1   3  -9   20.54    4.03 
  -1   3  -9   22.25    2.69 
  -1   3  -9   19.17    3.27 
  -1   3  -8  137.58    8.45 
  -1   3  -8  146.09    7.60 
  -1   3  -8  143.47    6.45 
  -1   3  -7   30.69    3.90 
  -1   3  -7   32.57    2.91 
  -1   3  -7   33.86    3.48 
  -1   3  -7   28.99    1.91 
  -1   3  -7   26.32    2.71 
  -1   3  -6   33.08    3.86 
  -1   3  -6   31.60    2.71 
  -1   3  -6   30.84    3.27 
  -1   3  -6   25.89    2.47 
  -1   3  -5  327.94   12.13 
  -1   3  -5  318.22   10.29 
  -1   3  -5  308.86    9.56 
  -1   3  -5  306.98   10.11 
  -1   3  -4  111.15    4.92 
  -1   3  -4  111.97    4.64 
  -1   3  -4  101.73    4.61 
  -1   3  -3  172.29    6.16 
  -1   3  -3  179.75    6.54 
  -1   3  -3  172.91    6.28 
  -1   3  -3  174.52    6.23 
  -1   3  -2 1161.66   29.06 
  -1   3  -2 1183.42   29.31 
  -1   3  -2 1123.86   29.39 
  -1   3  -2 1183.90   29.24 
  -1   3  -2 1138.22   28.77 
  -1   3  -1   40.22    2.47 
  -1   3  -1   36.46    2.51 
  -1   3  -1   40.13    2.60 
  -1   3  -1   40.58    2.42 
  -1   3  -1   34.92    2.45 
  -1   3   0  104.92    4.08 
  -1   3   0  105.09    4.39 
  -1   3   0  102.06    4.31 
  -1   3   0  103.64    4.46 
  -1   3   0   95.79    4.08 
  -1   3   0  104.36    4.43 
  -1   3   1   56.25    2.40 
  -1   3   1   53.53    2.96 
  -1   3   1   53.07    2.86 
  -1   3   1   56.58    3.07 
  -1   3   1   55.55    3.07 
  -1   3   1   54.60    2.92 
  -1   3   2  263.83    6.74 
  -1   3   2  289.00    8.71 
  -1   3   2  263.25    8.34 
  -1   3   2  269.24    8.52 
  -1   3   2  264.99    8.47 
  -1   3   2  266.92    6.95 
  -1   3   3   24.57    2.21 
  -1   3   4  905.57   22.26 
  -1   3   4  931.95   22.47 
  -1   3   5  439.17   12.31 
  -1   3   5  417.25   11.23 
  -1   3   5  432.14   12.42 
  -1   3   6  971.46   24.06 
  -1   3   6 1016.19   25.22 
  -1   3   6  949.54   26.15 
  -1   3   7  284.09    8.23 
  -1   3   7  272.79    8.84 
  -1   3   7  288.65   10.18 
  -1   3   8  882.09   22.36 
  -1   3   9   29.98    2.21 
  -1   3  10  321.59    9.14 
  -1   4  -9    1.69    3.18 
  -1   4  -9   -1.37    1.76 
  -1   4  -9    4.26    2.37 
  -1   4  -8  343.38   14.97 
  -1   4  -8  348.58   13.71 
  -1   4  -8  334.25   11.91 
  -1   4  -7  208.76   10.42 
  -1   4  -7  184.01    7.85 
  -1   4  -7  198.72    9.34 
  -1   4  -7  184.35    6.62 
  -1   4  -6   12.11    2.16 
  -1   4  -6    8.30    2.22 
  -1   4  -6   12.18    1.95 
  -1   4  -5    0.46    1.33 
  -1   4  -5    1.67    1.19 
  -1   4  -4  331.52   10.88 
  -1   4  -4  339.37   10.62 
  -1   4  -3   96.48    4.78 
  -1   4  -3   82.94    4.61 
  -1   4  -3   85.34    4.50 
  -1   4  -3   87.52    4.30 
  -1   4  -2  580.85   17.31 
  -1   4  -2  584.43   16.82 
  -1   4  -2  573.56   16.82 
  -1   4  -2  604.40   16.89 
  -1   4  -2  587.35   16.34 
  -1   4  -1  548.26   15.92 
  -1   4  -1  568.45   16.18 
  -1   4  -1  570.52   15.96 
  -1   4  -1  565.26   16.04 
  -1   4  -1  556.24   16.12 
  -1   4  -1  542.22   15.48 
  -1   4   0   11.10    1.49 
  -1   4   0   12.71    1.65 
  -1   4   0   12.83    1.68 
  -1   4   0    9.97    1.50 
  -1   4   0   11.38    1.73 
  -1   4   0   10.48    1.55 
  -1   4   1  259.06    7.77 
  -1   4   1  250.63    8.75 
  -1   4   1  257.74    8.95 
  -1   4   1  255.37    8.89 
  -1   4   1  259.96    8.62 
  -1   4   2   30.94    2.65 
  -1   4   2   28.79    2.46 
  -1   4   2   28.49    1.61 
  -1   4   2   25.63    2.40 
  -1   4   2   29.68    2.50 
  -1   4   2   29.10    1.45 
  -1   4   3  105.25    4.92 
  -1   4   3  104.85    4.95 
  -1   4   3   99.24    4.93 
  -1   4   3  108.91    5.18 
  -1   4   4   78.25    2.76 
  -1   4   4   82.58    4.53 
  -1   4   5  779.25   22.12 
  -1   4   5  826.01   22.11 
  -1   4   5  826.70   20.37 
  -1   4   5  814.42   21.95 
  -1   4   6  142.25    4.79 
  -1   4   6  153.54    6.17 
  -1   4   6  139.41    6.42 
  -1   4   7   69.64    3.00 
  -1   4   7   75.24    4.04 
  -1   4   7   68.06    4.44 
  -1   4   8    2.22    1.75 
  -1   4   8    0.74    0.80 
  -1   4   9  583.25   15.41 
  -1   4  10   17.59    1.72 
  -1   4  11  522.56   14.49 
  -1   5  -8   24.68    3.15 
  -1   5  -8   24.83    3.75 
  -1   5  -7  186.74    8.35 
  -1   5  -7  193.61    9.77 
  -1   5  -6  155.29    7.38 
  -1   5  -6  164.89    8.57 
  -1   5  -5    7.97    1.97 
  -1   5  -5    9.54    2.92 
  -1   5  -5    7.40    1.78 
  -1   5  -4  324.51   12.49 
  -1   5  -4  305.03   10.98 
  -1   5  -4  286.71   10.29 
  -1   5  -3  203.76    8.91 
  -1   5  -3  211.73    8.33 
  -1   5  -3  183.12    8.07 
  -1   5  -3  200.51    8.05 
  -1   5  -3  187.16    7.51 
  -1   5  -2    1.94    1.77 
  -1   5  -2    1.50    1.14 
  -1   5  -2    1.17    1.21 
  -1   5  -2   -0.24    1.20 
  -1   5  -2    2.26    1.31 
  -1   5  -1  594.09   17.58 
  -1   5  -1  594.24   17.79 
  -1   5  -1  610.13   17.83 
  -1   5  -1  591.63   17.10 
  -1   5   0  498.88   14.40 
  -1   5   0  486.69   15.17 
  -1   5   0  471.69   15.01 
  -1   5   0  484.80   14.57 
  -1   5   1   -0.45    1.03 
  -1   5   1   -0.50    1.20 
  -1   5   1    0.71    0.97 
  -1   5   1   -0.97    1.27 
  -1   5   1    0.42    1.32 
  -1   5   2   13.98    2.00 
  -1   5   2   17.54    2.27 
  -1   5   2   16.02    1.46 
  -1   5   2   16.24    2.18 
  -1   5   2   16.10    2.13 
  -1   5   3   19.91    2.28 
  -1   5   3   25.06    2.70 
  -1   5   3   27.22    2.51 
  -1   5   3   30.58    2.77 
  -1   5   3   22.39    1.29 
  -1   5   3   21.39    2.49 
  -1   5   4    1.26    1.12 
  -1   5   4    1.52    1.33 
  -1   5   5  192.42    7.90 
  -1   5   5  198.86    6.35 
  -1   5   5  198.27    8.32 
  -1   5   5  193.19    7.75 
  -1   5   6  250.17    9.38 
  -1   5   6  240.57    7.39 
  -1   5   6  253.15    9.35 
  -1   5   7   12.19    2.32 
  -1   5   7   10.33    1.20 
  -1   5   7   10.70    1.98 
  -1   5   8    7.36    2.11 
  -1   5   8    6.91    1.02 
  -1   5   9   63.84    4.70 
  -1   5   9   65.54    2.93 
  -1   5  10  186.56    6.02 
  -1   5  11   22.36    2.32 
  -1   5  12  194.49    7.25 
  -1   6  -7  166.72    8.23 
  -1   6  -7  180.93    9.82 
  -1   6  -7  159.23   10.18 
  -1   6  -6  236.91   12.16 
  -1   6  -6  255.39   11.74 
  -1   6  -6  241.51    9.39 
  -1   6  -5  233.10   11.56 
  -1   6  -5  244.34   10.25 
  -1   6  -4  116.61    7.30 
  -1   6  -4  122.81    6.54 
  -1   6  -4  113.82    5.96 
  -1   6  -3  387.55   14.19 
  -1   6  -3  391.37   13.53 
  -1   6  -3  354.25   12.50 
  -1   6  -2    0.61    1.54 
  -1   6  -2    1.16    1.40 
  -1   6  -2    0.32    1.91 
  -1   6  -2    0.25    1.52 
  -1   6  -1  219.82    8.95 
  -1   6  -1  220.14    9.26 
  -1   6  -1  208.04    8.92 
  -1   6  -1  219.69    8.63 
  -1   6   0  233.75    8.77 
  -1   6   0  229.31    9.41 
  -1   6   0  224.06    8.86 
  -1   6   0  245.26    9.68 
  -1   6   1  291.09    9.50 
  -1   6   1  269.89   10.13 
  -1   6   1  282.84   11.00 
  -1   6   1  274.63   10.35 
  -1   6   2    1.23    1.48 
  -1   6   2    1.87    1.30 
  -1   6   2    0.58    1.44 
  -1   6   2    1.56    1.56 
  -1   6   3  372.14   12.42 
  -1   6   3  369.55   13.46 
  -1   6   3  381.93   13.24 
  -1   6   3  379.35    9.89 
  -1   6   3  395.20   13.08 
  -1   6   4  290.63   10.22 
  -1   6   4  274.08   10.61 
  -1   6   5   -0.25    1.40 
  -1   6   5    0.87    1.64 
  -1   6   5    0.31    1.64 
  -1   6   6   21.37    2.65 
  -1   6   6   18.40    1.65 
  -1   6   6   16.88    2.54 
  -1   6   6   21.78    3.09 
  -1   6   7    9.05    2.12 
  -1   6   7    7.37    1.14 
  -1   6   7    8.13    1.97 
  -1   6   8   37.01    3.75 
  -1   6   8   34.18    2.07 
  -1   6   9  221.64    6.72 
  -1   6  10  252.39    7.32 
  -1   6  12   21.93    2.57 
  -1   7  -6  225.51   10.29 
  -1   7  -6  218.07   11.34 
  -1   7  -6  192.72   11.46 
  -1   7  -5  232.56   10.55 
  -1   7  -5  221.91   11.73 
  -1   7  -5  246.33   11.67 
  -1   7  -4   39.24    4.83 
  -1   7  -4   39.03    4.16 
  -1   7  -4   40.15    4.43 
  -1   7  -3  265.03   11.90 
  -1   7  -3  282.73   11.53 
  -1   7  -2  528.48   17.80 
  -1   7  -2  544.95   17.97 
  -1   7  -2  513.98   16.72 
  -1   7  -1   -0.36    1.73 
  -1   7  -1    2.20    1.81 
  -1   7  -1   -1.42    1.76 
  -1   7   0   76.14    4.73 
  -1   7   0   69.75    5.17 
  -1   7   0   70.19    5.06 
  -1   7   0   74.75    4.94 
  -1   7   1   24.03    3.23 
  -1   7   1   26.97    3.25 
  -1   7   1   19.65    2.77 
  -1   7   2    3.26    1.75 
  -1   7   2    3.28    1.60 
  -1   7   2    5.46    2.02 
  -1   7   2    0.91    1.72 
  -1   7   3  209.82    8.75 
  -1   7   3  217.04    6.27 
  -1   7   3  214.06    9.60 
  -1   7   3  213.82    9.24 
  -1   7   4  769.88   22.52 
  -1   7   4  804.04   23.72 
  -1   7   4  779.08   23.39 
  -1   7   5   39.77    3.57 
  -1   7   6   30.24    3.28 
  -1   7   6   25.94    2.11 
  -1   7   6   33.99    3.65 
  -1   7   7   17.95    1.70 
  -1   7   8  295.58    8.83 
  -1   7   9    4.94    0.98 
  -1   7  10  131.73    4.35 
  -1   7  12    1.85    1.69 
  -1   8  -4    0.51    2.85 
  -1   8  -4    0.43    2.19 
  -1   8  -3  153.86    8.86 
  -1   8  -3  141.48    8.32 
  -1   8  -2  313.97   13.26 
  -1   8  -2  327.83   13.23 
  -1   8  -1   86.19    5.85 
  -1   8  -1   80.92    5.96 
  -1   8   0    8.79    2.60 
  -1   8   1  385.43   14.95 
  -1   8   2  166.23    8.92 
  -1   8   3   33.39    4.07 
  -1   8   3   38.19    2.02 
  -1   8   4   86.74    6.21 
  -1   8   7  116.01    4.92 
  -1   8   8  309.10    9.44 
  -1   9  -2   47.01    5.07 
  -1   9  -2   67.00    5.95 
  -1   9  -1  151.86    9.01 
  -1   9   0   25.88    3.96 
  -1   9   3   43.62    2.25 
   0 -10  -9   84.25    5.80 
   0 -10  -9   93.55    7.56 
   0 -10  -8    2.49    1.81 
   0 -10  -7    8.15    2.08 
   0 -10  -6   69.77    5.22 
   0 -10  -6   80.57    6.72 
   0 -10  -5   81.52    6.65 
   0 -10  -4   -0.96    2.57 
   0 -10  -3  190.86   10.35 
   0 -10  -2   24.67    3.97 
   0 -10  -1   10.75    3.13 
   0  -9 -11   34.28    3.54 
   0  -9 -11   28.36    3.68 
   0  -9 -11   22.43    4.41 
   0  -9 -10    3.50    1.97 
   0  -9 -10    5.48    2.83 
   0  -9  -9  146.92    7.51 
   0  -9  -9  133.04    8.89 
   0  -9  -8   37.66    3.73 
   0  -9  -8   34.51    4.53 
   0  -9  -7  220.35    9.37 
   0  -9  -6   -0.31    1.60 
   0  -9  -5   13.95    2.41 
   0  -9  -4  202.62   10.07 
   0  -9  -3   93.45    6.62 
   0  -9  -2  420.60   15.94 
   0  -9  -1   15.06    3.21 
   0  -9   0   36.00    4.36 
   0  -8 -12    1.13    2.07 
   0  -8 -12    2.26    3.01 
   0  -8 -11   79.27    5.55 
   0  -8 -11   72.83    4.76 
   0  -8 -11   63.91    6.17 
   0  -8 -10   50.63    4.40 
   0  -8 -10   51.84    5.59 
   0  -8  -9   92.12    5.80 
   0  -8  -9   94.00    7.04 
   0  -8  -8  241.97    9.73 
   0  -8  -8  238.13   11.41 
   0  -8  -7   19.56    2.60 
   0  -8  -7   21.76    3.70 
   0  -8  -6   -0.28    1.33 
   0  -8  -5   50.58    3.82 
   0  -8  -4    8.39    1.89 
   0  -8  -3   41.49    4.12 
   0  -8  -2   15.45    2.91 
   0  -8  -1  216.97    9.96 
   0  -8   0    0.38    1.47 
   0  -8   1  388.92   12.14 
   0  -8   1  405.22   14.89 
   0  -8   2  270.58    8.84 
   0  -8   5  123.70    6.28 
   0  -7 -12   10.05    2.60 
   0  -7 -12   14.49    3.54 
   0  -7 -11   93.86    5.96 
   0  -7 -11   85.20    4.80 
   0  -7 -11   82.54    6.72 
   0  -7 -10  224.25    9.71 
   0  -7 -10  238.00   11.55 
   0  -7  -9   98.06    5.76 
   0  -7  -9   96.30    6.96 
   0  -7  -9  105.37    5.45 
   0  -7  -8   84.99    5.10 
   0  -7  -8   67.91    5.65 
   0  -7  -8   75.51    4.65 
   0  -7  -7   74.93    4.62 
   0  -7  -7   73.05    5.60 
   0  -7  -7   63.36    4.23 
   0  -7  -6   32.22    3.03 
   0  -7  -6   27.29    3.17 
   0  -7  -6   28.93    2.89 
   0  -7  -6   31.52    3.82 
   0  -7  -5  318.57   11.23 
   0  -7  -5  317.29   11.69 
   0  -7  -5  335.55   11.15 
   0  -7  -5  301.23   12.13 
   0  -7  -4  677.50   20.38 
   0  -7  -4  710.03   19.83 
   0  -7  -4  675.59   19.96 
   0  -7  -3  121.60    5.83 
   0  -7  -3  111.16    5.78 
   0  -7  -2    3.13    1.79 
   0  -7  -1   32.70    3.15 
   0  -7  -1   33.41    3.07 
   0  -7   0  182.00    7.73 
   0  -7   0  181.27    7.77 
   0  -7   0  186.53    8.54 
   0  -7   1   19.29    2.51 
   0  -7   1   22.40    2.59 
   0  -7   1   18.86    2.71 
   0  -7   2  393.72   12.90 
   0  -7   2  383.16   11.31 
   0  -7   2  388.58   12.94 
   0  -7   3  137.77    6.56 
   0  -7   3  140.99    5.12 
   0  -7   3  140.14    6.56 
   0  -7   4   48.80    2.42 
   0  -7   4   54.27    3.84 
   0  -7   5  186.76    7.48 
   0  -7   5  164.07    7.47 
   0  -7   6  106.86    5.36 
   0  -6 -13  159.79    8.75 
   0  -6 -13  153.22    9.60 
   0  -6 -12   34.11    4.04 
   0  -6 -12   45.25    5.16 
   0  -6 -11  234.46    8.33 
   0  -6 -11  233.08   11.47 
   0  -6 -11  237.18   10.22 
   0  -6 -10  468.48   15.85 
   0  -6 -10  498.52   17.84 
   0  -6  -9  331.89   13.28 
   0  -6  -9  311.60   10.53 
   0  -6  -9  311.37   11.50 
   0  -6  -8    3.82    1.41 
   0  -6  -8    4.47    1.87 
   0  -6  -8    2.85    1.44 
   0  -6  -8    2.68    1.91 
   0  -6  -8    3.38    0.56 
   0  -6  -7  131.15    6.06 
   0  -6  -7  116.04    5.59 
   0  -6  -7  117.97    6.31 
   0  -6  -7  131.33    7.15 
   0  -6  -6  669.63   19.40 
   0  -6  -6  697.88   19.60 
   0  -6  -6  724.38   21.37 
   0  -6  -6  674.58   20.32 
   0  -6  -5   42.58    3.04 
   0  -6  -5   36.63    3.35 
   0  -6  -5   38.03    3.04 
   0  -6  -5   47.80    4.04 
   0  -6  -4  529.84   16.16 
   0  -6  -4  546.38   15.58 
   0  -6  -4  532.89   16.77 
   0  -6  -4  514.67   15.74 
   0  -6  -3  415.12   13.61 
   0  -6  -3  441.73   13.32 
   0  -6  -3  443.42   13.63 
   0  -6  -2    5.68    1.55 
   0  -6  -1  372.37   12.16 
   0  -6  -1  382.40   12.84 
   0  -6   0  157.88    6.77 
   0  -6   0  170.80    7.03 
   0  -6   0  183.23    7.80 
   0  -6   1   13.92    1.97 
   0  -6   1   16.04    2.11 
   0  -6   1   13.45    2.15 
   0  -6   2  143.25    6.23 
   0  -6   2  137.53    5.14 
   0  -6   2  150.96    6.34 
   0  -6   3  285.18    9.89 
   0  -6   3  281.21    8.31 
   0  -6   3  292.66    9.94 
   0  -6   4  158.63    5.06 
   0  -6   4  168.34    6.92 
   0  -6   4  156.97    6.58 
   0  -6   5  161.28    6.76 
   0  -6   5  155.06    6.75 
   0  -6   6  114.98    5.66 
   0  -6   6  107.07    5.01 
   0  -6   6  109.02    5.21 
   0  -6   7   22.57    2.23 
   0  -5 -13    6.75    2.76 
   0  -5 -13    5.21    2.74 
   0  -5 -12  375.93   14.23 
   0  -5 -12  357.00   12.31 
   0  -5 -12  387.23   15.57 
   0  -5 -11   -0.20    1.32 
   0  -5 -11    0.70    1.91 
   0  -5 -11    0.14    0.76 
   0  -5 -11   -0.63    1.38 
   0  -5 -11    2.71    2.60 
   0  -5 -10  779.51   21.19 
   0  -5 -10  828.00   23.85 
   0  -5 -10  841.44   21.28 
   0  -5 -10  746.03   23.24 
   0  -5 -10  823.68   21.54 
   0  -5 -10  795.32   25.21 
   0  -5  -9  513.83   13.77 
   0  -5  -9  511.15   16.15 
   0  -5  -9  477.28   15.96 
   0  -5  -9  496.21   13.88 
   0  -5  -9  504.69   17.48 
   0  -5  -9  506.56   14.39 
   0  -5  -8    0.37    0.77 
   0  -5  -8    0.27    1.20 
   0  -5  -8    0.25    1.27 
   0  -5  -8    1.39    1.05 
   0  -5  -8    1.76    1.96 
   0  -5  -7  142.59    4.24 
   0  -5  -7  138.40    6.60 
   0  -5  -7  140.62    6.29 
   0  -5  -7  140.10    7.28 
   0  -5  -7  142.48    5.79 
   0  -5  -6  834.35   22.41 
   0  -5  -6  801.31   21.97 
   0  -5  -6  821.49   23.84 
   0  -5  -6  813.55   23.09 
   0  -5  -6  832.50   19.45 
   0  -5  -5  170.47    6.53 
   0  -5  -5  160.71    7.00 
   0  -5  -5  182.36    7.67 
   0  -5  -5  171.41    6.56 
   0  -5  -4   52.81    3.29 
   0  -5  -4   56.45    3.27 
   0  -5  -4   55.98    3.65 
   0  -5  -4   56.37    3.86 
   0  -5  -3 1165.25   31.09 
   0  -5  -3 1268.73   30.60 
   0  -5  -3 1192.72   30.80 
   0  -5  -3 1177.99   31.44 
   0  -5  -2   77.45    4.10 
   0  -5  -2   73.68    4.10 
   0  -5  -2   86.69    4.09 
   0  -5   0  528.23   15.06 
   0  -5   0  519.93   15.66 
   0  -5   1   78.08    4.01 
   0  -5   1   77.40    4.46 
   0  -5   1   72.70    3.87 
   0  -5   2    6.79    1.44 
   0  -5   2   10.55    1.66 
   0  -5   2    8.36    1.13 
   0  -5   3   43.94    2.93 
   0  -5   3   39.05    2.08 
   0  -5   3   46.27    3.03 
   0  -5   4   42.42    3.00 
   0  -5   4   39.19    1.93 
   0  -5   4   42.93    2.83 
   0  -5   5  133.79    5.68 
   0  -5   5  148.20    6.08 
   0  -5   6   89.54    4.75 
   0  -5   6   93.54    4.16 
   0  -5   6   90.18    4.31 
   0  -5   7  322.20   10.89 
   0  -5   7  328.75    9.74 
   0  -5   7  318.97    9.75 
   0  -5   8   47.12    2.52 
   0  -4 -13   40.16    3.80 
   0  -4 -13   29.80    4.06 
   0  -4 -13   39.18    3.95 
   0  -4 -13   34.81    4.61 
   0  -4 -12   35.90    3.54 
   0  -4 -12   33.18    4.02 
   0  -4 -12   36.40    3.62 
   0  -4 -12   35.06    4.38 
   0  -4 -12   29.94    3.31 
   0  -4 -11  151.05    6.98 
   0  -4 -11  160.12    8.18 
   0  -4 -11  161.37    7.18 
   0  -4 -11  170.36    9.00 
   0  -4 -10   11.78    2.05 
   0  -4 -10    5.32    1.00 
   0  -4 -10    7.16    2.21 
   0  -4 -10    7.71    1.87 
   0  -4 -10    6.22    1.15 
   0  -4 -10    5.54    2.32 
   0  -4  -9 1101.72   28.71 
   0  -4  -9 1098.90   30.47 
   0  -4  -9 1143.83   28.92 
   0  -4  -9 1143.42   27.82 
   0  -4  -9 1104.03   28.00 
   0  -4  -9 1106.02   31.74 
   0  -4  -8  276.68   10.00 
   0  -4  -8  261.44    8.53 
   0  -4  -8  263.20    8.58 
   0  -4  -8  278.38   11.08 
   0  -4  -8  283.71    8.51 
   0  -4  -7  525.19   14.00 
   0  -4  -7  520.22   15.68 
   0  -4  -7  538.67   14.14 
   0  -4  -7  522.58   16.85 
   0  -4  -7  534.04   14.53 
   0  -4  -6  953.82   25.51 
   0  -4  -6  943.04   25.87 
   0  -4  -6  992.35   23.74 
   0  -4  -6 1008.80   27.01 
   0  -4  -6  964.32   24.81 
   0  -4  -5  392.90   11.56 
   0  -4  -5  373.58   12.00 
   0  -4  -5  398.00   12.68 
   0  -4  -5  383.58   11.24 
   0  -4  -4  238.60    7.80 
   0  -4  -4  243.73    7.81 
   0  -4  -4  235.11    8.32 
   0  -4  -4  247.22    8.75 
   0  -4  -3  287.82    7.45 
   0  -4  -3  306.03    8.94 
   0  -4  -3  277.15    9.33 
   0  -4  -3  302.47    9.66 
   0  -4  -3  281.32    8.98 
   0  -4  -2  310.54    8.41 
   0  -4  -2  304.86    9.55 
   0  -4  -2  312.00    9.70 
   0  -4  -2  310.53    9.25 
   0  -4  -2  314.59    9.94 
   0  -4  -1   20.43    1.78 
   0  -4  -1   26.08    2.04 
   0  -4   1  359.48   10.81 
   0  -4   1  375.85   10.82 
   0  -4   2  521.04   14.15 
   0  -4   2  496.07   14.08 
   0  -4   2  509.88   13.09 
   0  -4   3   82.51    3.82 
   0  -4   3   87.58    3.84 
   0  -4   3   77.38    2.88 
   0  -4   4   47.80    2.89 
   0  -4   4   43.70    2.61 
   0  -4   5    0.82    1.01 
   0  -4   5    0.83    0.86 
   0  -4   6   24.45    1.79 
   0  -4   6   28.39    2.40 
   0  -4   6   24.10    1.89 
   0  -4   7   64.49    3.77 
   0  -4   7   60.94    2.83 
   0  -4   7   63.76    2.90 
   0  -4   8  610.39   17.36 
   0  -4   8  594.97   14.96 
   0  -3 -13   13.28    2.86 
   0  -3 -13   13.63    3.20 
   0  -3 -13   18.15    3.15 
   0  -3 -13   14.83    3.39 
   0  -3 -12  327.06   13.40 
   0  -3 -12  327.82   11.45 
   0  -3 -12  314.58   12.14 
   0  -3 -12  310.05   13.46 
   0  -3 -12  300.93   12.06 
   0  -3 -11  211.22    9.16 
   0  -3 -11  222.10    8.85 
   0  -3 -11  219.68    9.23 
   0  -3 -11  223.94    7.33 
   0  -3 -11  217.04   10.42 
   0  -3 -11  225.93   10.28 
   0  -3 -10    0.26    1.47 
   0  -3 -10    0.47    0.47 
   0  -3 -10    0.34    0.46 
   0  -3 -10    0.69    1.66 
   0  -3 -10    0.26    1.53 
   0  -3 -10    0.19    0.41 
   0  -3 -10    0.75    0.85 
   0  -3 -10   -0.38    1.51 
   0  -3  -9    6.90    0.82 
   0  -3  -9    6.92    1.95 
   0  -3  -9    8.45    1.75 
   0  -3  -9    4.89    1.66 
   0  -3  -9    5.92    0.84 
   0  -3  -9    5.25    0.99 
   0  -3  -9    4.80    1.98 
   0  -3  -8  497.22   14.62 
   0  -3  -8  502.94   13.29 
   0  -3  -8  511.13   13.09 
   0  -3  -8  494.73   15.72 
   0  -3  -8  498.71   14.62 
   0  -3  -8  514.45   13.12 
   0  -3  -8  493.84   16.39 
   0  -3  -7  290.21    9.07 
   0  -3  -7  289.18   10.07 
   0  -3  -7  278.01    9.03 
   0  -3  -7  294.89    7.89 
   0  -3  -7  280.44   10.68 
   0  -3  -7  297.59    8.37 
   0  -3  -6 1413.91   36.24 
   0  -3  -6 1459.49   35.08 
   0  -3  -6 1449.10   33.96 
   0  -3  -6 1473.64   37.37 
   0  -3  -6 1419.92   34.87 
   0  -3  -5 2074.00   50.20 
   0  -3  -5 2101.39   48.88 
   0  -3  -5 2114.18   51.25 
   0  -3  -5 2021.00   49.29 
   0  -3  -4  115.13    4.63 
   0  -3  -4  123.23    3.61 
   0  -3  -4  128.00    4.52 
   0  -3  -4  120.06    5.28 
   0  -3  -3  225.64    7.00 
   0  -3  -3  237.92    7.02 
   0  -3  -3  222.01    7.42 
   0  -3  -3  228.20    7.24 
   0  -3  -3  220.78    7.60 
   0  -3  -2  133.04    4.44 
   0  -3  -2  123.28    4.75 
   0  -3  -2  120.77    4.71 
   0  -3  -2  118.12    4.50 
   0  -3  -2  135.16    4.94 
   0  -3  -2  123.94    3.63 
   0  -3  -1   40.73    1.95 
   0  -3  -1   36.81    2.23 
   0  -3  -1   40.46    2.34 
   0  -3  -1   44.30    2.50 
   0  -3  -1   43.90    2.47 
   0  -3  -1   38.17    2.11 
   0  -3   0  366.15   10.54 
   0  -3   2 1613.11   37.48 
   0  -3   2 1557.29   38.34 
   0  -3   2 1599.31   38.44 
   0  -3   3   37.37    2.21 
   0  -3   3   39.08    2.16 
   0  -3   3   36.27    1.59 
   0  -3   4   65.19    3.13 
   0  -3   4   60.46    2.77 
   0  -3   5  107.90    4.03 
   0  -3   5  109.59    4.48 
   0  -3   6   97.71    3.51 
   0  -3   6   99.54    4.46 
   0  -3   6  104.22    3.68 
   0  -3   7    6.01    0.75 
   0  -3   7    4.87    1.41 
   0  -2 -13    3.46    2.59 
   0  -2 -13   -1.00    2.80 
   0  -2 -13   -0.41    2.26 
   0  -2 -13   -0.49    2.31 
   0  -2 -12   87.83    6.61 
   0  -2 -12   90.79    6.27 
   0  -2 -12   80.15    5.83 
   0  -2 -12   81.86    4.72 
   0  -2 -12   83.50    4.51 
   0  -2 -12   92.23    6.58 
   0  -2 -11  434.75   16.18 
   0  -2 -11  427.15   13.64 
   0  -2 -11  444.51   15.51 
   0  -2 -11  459.11   13.26 
   0  -2 -11  416.48   15.93 
   0  -2 -10   24.54    3.05 
   0  -2 -10   26.98    2.64 
   0  -2 -10   28.26    3.50 
   0  -2 -10   25.56    2.25 
   0  -2 -10   26.15    3.35 
   0  -2  -9   91.36    5.62 
   0  -2  -9   92.01    5.23 
   0  -2  -9   93.95    4.74 
   0  -2  -9   92.81    4.10 
   0  -2  -9   87.72    5.62 
   0  -2  -8   79.24    4.93 
   0  -2  -8   78.53    2.39 
   0  -2  -8   83.11    4.58 
   0  -2  -8   83.06    3.55 
   0  -2  -8   71.61    4.79 
   0  -2  -8   77.79    2.41 
   0  -2  -7  180.45    7.26 
   0  -2  -7  167.24    4.73 
   0  -2  -7  169.30    6.56 
   0  -2  -7  170.62    5.48 
   0  -2  -7  165.60    7.35 
   0  -2  -7  165.38    4.83 
   0  -2  -6 1319.89   34.04 
   0  -2  -6 1350.93   32.07 
   0  -2  -6 1316.21   34.55 
   0  -2  -6 1346.57   31.81 
   0  -2  -5 1827.92   45.09 
   0  -2  -5 1876.22   43.32 
   0  -2  -5 1878.23   45.73 
   0  -2  -5 1818.39   43.50 
   0  -2  -4 5374.11  122.78 
   0  -2  -4 5302.01  123.71 
   0  -2  -4 5334.72  122.17 
   0  -2  -4 5167.68  124.37 
   0  -2  -3  733.88   17.62 
   0  -2  -3  735.68   18.31 
   0  -2  -3  733.68   19.04 
   0  -2  -3  718.99   18.12 
   0  -2  -3  761.94   18.53 
   0  -2  -2  646.59   16.59 
   0  -2  -2  686.06   16.57 
   0  -2  -2  672.90   16.97 
   0  -2  -2  669.03   16.78 
   0  -2  -2  667.21   17.06 
   0  -2  -1  140.65    3.98 
   0  -2  -1  149.67    4.39 
   0  -2  -1  148.94    4.67 
   0  -2  -1  135.14    4.47 
   0  -2  -1  138.09    4.59 
   0  -2  -1  149.94    4.71 
   0  -2   0 2200.97   52.53 
   0  -2   0 2258.76   52.64 
   0  -2   0 2217.26   52.60 
   0  -2   0 2309.42   52.84 
   0  -2   0 2249.06   52.79 
   0  -2   2 1867.44   43.39 
   0  -2   2 1813.23   43.42 
   0  -2   3  337.21    9.28 
   0  -2   3  343.98    9.02 
   0  -2   4    4.28    0.63 
   0  -2   4    6.67    1.03 
   0  -2   5  141.75    5.08 
   0  -2   5  145.47    4.20 
   0  -2   5  143.58    4.31 
   0  -2   6  522.06   14.58 
   0  -2   6  536.29   12.94 
   0  -1 -13   66.47    6.19 
   0  -1 -13   52.11    5.83 
   0  -1 -13   63.76    5.76 
   0  -1 -13   58.27    5.65 
   0  -1 -12    3.53    2.55 
   0  -1 -12    7.20    2.70 
   0  -1 -12    4.24    1.65 
   0  -1 -12    3.57    2.20 
   0  -1 -11  245.03   10.99 
   0  -1 -11  241.06    8.62 
   0  -1 -11  256.85    9.18 
   0  -1 -11  245.13   11.40 
   0  -1 -10   96.05    6.16 
   0  -1 -10   97.45    4.68 
   0  -1 -10   92.96    6.27 
   0  -1 -10  109.12    5.08 
   0  -1  -9   14.49    2.69 
   0  -1  -9   18.68    1.98 
   0  -1  -9   19.59    2.90 
   0  -1  -9   17.82    1.98 
   0  -1  -8  176.57    7.64 
   0  -1  -8  175.65    6.42 
   0  -1  -8  175.42    6.35 
   0  -1  -8  160.01    7.61 
   0  -1  -7  178.91    7.29 
   0  -1  -7  173.86    7.46 
   0  -1  -7  179.78    6.18 
   0  -1  -7  176.87    6.30 
   0  -1  -6  267.72    9.17 
   0  -1  -6  265.25    8.37 
   0  -1  -6  282.86    8.19 
   0  -1  -6  284.26    9.57 
   0  -1  -5   46.03    1.46 
   0  -1  -5   45.17    2.90 
   0  -1  -5   45.08    2.21 
   0  -1  -5   47.34    1.51 
   0  -1  -4 1950.62   45.96 
   0  -1  -4 1961.94   45.39 
   0  -1  -4 1984.94   47.20 
   0  -1  -3 9589.28  224.36 
   0  -1  -3 9999.00  224.29 
   0  -1  -3 9777.29  225.37 
   0  -1  -2   13.00    1.04 
   0  -1  -2   10.46    0.75 
   0  -1  -2   11.83    0.79 
   0  -1  -2   12.45    0.60 
   0  -1  -2   13.53    1.20 
   0  -1   3  196.90    5.63 
   0  -1   4   83.60    3.24 
   0  -1   4   86.83    2.40 
   0   0 -12    0.49    2.87 
   0   0 -12    2.54    2.63 
   0   0 -12    0.59    1.52 
   0   0 -11  172.63    9.56 
   0   0 -11  170.72    6.70 
   0   0 -11  195.71    8.04 
   0   0 -11  187.79    9.90 
   0   0 -10  192.66    9.50 
   0   0 -10  193.87    6.94 
   0   0 -10  174.98    6.56 
   0   0 -10  191.20    7.85 
   0   0 -10  187.99    9.48 
   0   0  -9  151.91    7.82 
   0   0  -9  141.97    5.57 
   0   0  -9  136.90    5.39 
   0   0  -9  153.85    6.47 
   0   0  -8    0.92    1.95 
   0   0  -8    1.45    0.92 
   0   0  -8    0.40    1.04 
   0   0  -7  383.86   12.83 
   0   0  -7  373.47   10.79 
   0   0  -7  377.35   11.46 
   0   0  -6 1406.44   35.51 
   0   0  -6 1368.21   33.48 
   0   0  -6 1368.66   34.10 
   0   0  -5  124.87    5.40 
   0   0  -5  124.44    4.28 
   0   0  -5  117.18    4.59 
   0   0  -4  282.64    7.74 
   0   0  -4  272.57    7.99 
   0   0  -3    4.35    0.66 
   0   0  -3    3.12    0.68 
   0   0  -2 2023.44   45.27 
   0   0  -2 1877.98   45.06 
   0   1 -12   19.53    3.99 
   0   1 -12   25.91    4.35 
   0   1 -12   20.35    3.10 
   0   1 -11    0.32    1.66 
   0   1 -11    1.98    2.67 
   0   1 -10   36.57    4.59 
   0   1 -10   40.39    2.78 
   0   1 -10   39.91    3.63 
   0   1  -9   39.03    4.38 
   0   1  -9   34.05    2.47 
   0   1  -9   31.48    2.00 
   0   1  -9   34.38    3.22 
   0   1  -8    1.76    2.01 
   0   1  -8    2.34    1.12 
   0   1  -8    1.00    0.74 
   0   1  -8    0.24    1.16 
   0   1  -7  423.36   14.71 
   0   1  -7  456.87   12.32 
   0   1  -7  428.23   11.56 
   0   1  -7  436.90   13.51 
   0   1  -6 1947.41   48.57 
   0   1  -6 1899.43   45.83 
   0   1  -6 1908.60   45.14 
   0   1  -6 1924.16   47.17 
   0   1  -5  147.60    6.51 
   0   1  -5  161.31    5.17 
   0   1  -5  152.86    4.65 
   0   1  -5  157.38    5.94 
   0   1  -4   90.25    4.40 
   0   1  -4   92.15    2.90 
   0   1  -4   96.31    3.37 
   0   1  -4   91.46    3.96 
   0   1  -4   85.03    2.55 
   0   1  -3  207.18    6.87 
   0   1  -3  202.34    5.71 
   0   1  -3  197.90    5.22 
   0   1  -3  196.03    6.35 
   0   1  -2  212.15    6.62 
   0   1  -2  218.26    5.77 
   0   1  -2  206.73    5.28 
   0   1  -2  216.74    5.61 
   0   1  -1    0.78    0.62 
   0   1  -1    0.53    0.42 
   0   1  -1    1.85    0.43 
   0   1  -1    2.33    0.57 
   0   1   2   12.79    1.07 
   0   1   4 1956.99   45.91 
   0   1   5   45.73    1.55 
   0   2 -11   32.69    4.95 
   0   2 -11   30.81    3.59 
   0   2 -10   -0.50    2.44 
   0   2 -10   -0.34    1.51 
   0   2  -9   21.42    3.75 
   0   2  -9   23.25    2.16 
   0   2  -9   21.84    2.78 
   0   2  -8  136.10    7.86 
   0   2  -8  138.10    4.16 
   0   2  -8  147.40    6.95 
   0   2  -8  139.89    5.56 
   0   2  -7   43.27    4.32 
   0   2  -7   49.60    2.90 
   0   2  -7   51.55    2.02 
   0   2  -7   49.63    3.78 
   0   2  -6  537.33   17.41 
   0   2  -6  561.71   14.87 
   0   2  -6  555.43   13.48 
   0   2  -6  541.86   16.36 
   0   2  -6  538.44   13.39 
   0   2  -5  148.31    6.86 
   0   2  -5  154.93    5.24 
   0   2  -5  144.47    4.11 
   0   2  -5  140.11    6.08 
   0   2  -5  141.08    4.40 
   0   2  -4    4.68    1.51 
   0   2  -4    4.74    0.93 
   0   2  -4    4.80    0.54 
   0   2  -4    5.40    1.30 
   0   2  -3  337.60   10.83 
   0   2  -3  354.76    9.61 
   0   2  -2 1932.28   46.23 
   0   2  -2 1923.53   45.09 
   0   2  -2 1927.28   45.19 
   0   2  -2 1849.75   45.50 
   0   2  -1    6.90    1.11 
   0   2  -1    7.32    0.87 
   0   2  -1    7.18    0.92 
   0   2  -1    6.49    0.96 
   0   2   0 2324.43   53.30 
   0   2   0 2167.30   53.12 
   0   2   0 2265.93   53.43 
   0   2   0 2338.81   53.36 
   0   2   1  137.50    4.27 
   0   2   1  143.71    4.61 
   0   2   1  136.96    4.59 
   0   2   1  138.02    4.55 
   0   2   2  674.79   16.57 
   0   2   2  635.46   16.72 
   0   2   3  707.91   18.39 
   0   2   4 5488.48  126.87 
   0   2   5 1842.82   43.22 
   0   2   7  169.66    5.01 
   0   2   8   80.09    2.58 
   0   3 -10    1.64    3.11 
   0   3 -10    5.78    2.28 
   0   3  -9   60.52    5.92 
   0   3  -9   65.65    3.79 
   0   3  -9   59.22    4.86 
   0   3  -8  130.54    7.96 
   0   3  -8  119.16    5.31 
   0   3  -8  126.74    6.84 
   0   3  -8  120.58    6.42 
   0   3  -7    7.58    2.50 
   0   3  -7    9.49    1.55 
   0   3  -7    4.56    1.83 
   0   3  -7    7.03    0.90 
   0   3  -7    4.16    1.75 
   0   3  -6   95.83    6.20 
   0   3  -6   93.22    4.28 
   0   3  -6   86.27    5.20 
   0   3  -6   94.18    3.61 
   0   3  -6   90.23    5.02 
   0   3  -5  117.96    6.46 
   0   3  -5  118.65    4.83 
   0   3  -5  115.70    5.80 
   0   3  -5  120.65    4.38 
   0   3  -5  112.50    5.37 
   0   3  -4   59.11    4.15 
   0   3  -4   54.08    2.94 
   0   3  -4   52.66    3.33 
   0   3  -3   38.73    3.11 
   0   3  -3   36.17    2.28 
   0   3  -3   33.21    2.42 
   0   3  -2 1585.22   38.09 
   0   3  -2 1566.59   38.14 
   0   3  -2 1545.24   38.31 
   0   3  -1  329.45    9.48 
   0   3  -1  329.18    9.69 
   0   3  -1  324.88    9.62 
   0   3   0  406.63   11.34 
   0   3   0  389.39   11.46 
   0   3   0  419.00   11.41 
   0   3   1   38.74    2.34 
   0   3   1   37.43    2.40 
   0   3   1   41.77    2.41 
   0   3   2  127.94    4.85 
   0   3   2  128.19    4.90 
   0   3   3  218.17    7.37 
   0   3   4  118.47    4.61 
   0   3   4  113.83    5.05 
   0   3   5 2044.55   49.60 
   0   3   6 1466.41   34.75 
   0   3   6 1496.09   36.99 
   0   3   7  291.20    8.02 
   0   3   8  509.44   13.59 
   0   3   9    7.13    1.01 
   0   3  10    0.55    0.52 
   0   4 -10  110.16    8.58 
   0   4 -10  112.06    7.28 
   0   4  -9    4.38    2.92 
   0   4  -9    0.41    2.24 
   0   4  -8  611.50   21.52 
   0   4  -8  578.07   17.13 
   0   4  -8  612.03   19.81 
   0   4  -7   65.96    3.94 
   0   4  -7   67.69    5.16 
   0   4  -7   65.83    5.69 
   0   4  -7   64.67    3.13 
   0   4  -7   66.92    4.67 
   0   4  -6   18.01    3.23 
   0   4  -6   25.96    2.43 
   0   4  -6   22.71    3.06 
   0   4  -6   27.22    2.07 
   0   4  -6   24.95    2.68 
   0   4  -5    0.35    1.86 
   0   4  -5    2.98    1.28 
   0   4  -5    1.79    1.68 
   0   4  -5    0.62    0.82 
   0   4  -5    0.46    1.12 
   0   4  -4   49.77    3.10 
   0   4  -4   41.10    3.47 
   0   4  -4   38.79    3.02 
   0   4  -3   81.01    3.97 
   0   4  -3   76.41    4.09 
   0   4  -2  514.64   14.32 
   0   4  -2  489.70   14.43 
   0   4  -1  349.15   11.34 
   0   4  -1  390.45   11.29 
   0   4  -1  374.40   11.38 
   0   4  -1  367.23   11.22 
   0   4   0  610.50   16.96 
   0   4   0  637.88   17.34 
   0   4   0  656.60   17.56 
   0   4   0  623.82   17.19 
   0   4   1   23.26    2.14 
   0   4   1   29.06    2.36 
   0   4   1   25.31    2.19 
   0   4   2  335.82   10.44 
   0   4   2  326.96   10.32 
   0   4   3  262.56    8.43 
   0   4   3  275.38    9.05 
   0   4   3  286.64    9.24 
   0   4   4  224.18    7.61 
   0   4   4  235.36    8.34 
   0   4   5  399.23   11.83 
   0   4   5  386.40    9.91 
   0   4   5  400.54   11.90 
   0   4   5  386.40   12.55 
   0   4   6  996.15   26.21 
   0   4   7  500.14   15.03 
   0   4   9 1174.97   29.62 
   0   4  10    5.75    1.19 
   0   4  11  145.07    5.04 
   0   5  -9   32.40    5.46 
   0   5  -9   26.10    3.82 
   0   5  -8   51.08    5.83 
   0   5  -8   42.10    4.61 
   0   5  -7  300.80   13.82 
   0   5  -7  320.88   11.12 
   0   5  -7  322.77   13.13 
   0   5  -6  102.20    5.28 
   0   5  -6   94.87    6.24 
   0   5  -6   94.46    4.61 
   0   5  -6   91.23    5.52 
   0   5  -5  141.72    6.36 
   0   5  -5  158.18    7.93 
   0   5  -5  143.76    6.05 
   0   5  -5  132.23    6.62 
   0   5  -4   34.67    2.98 
   0   5  -4   43.32    3.90 
   0   5  -4   41.23    3.39 
   0   5  -3   51.57    4.25 
   0   5  -3   42.73    3.25 
   0   5  -3   41.10    3.17 
   0   5  -2   10.71    2.25 
   0   5  -2    8.76    1.58 
   0   5  -2    7.62    1.71 
   0   5  -1   70.27    4.11 
   0   5  -1   76.98    4.43 
   0   5  -1   69.98    4.11 
   0   5   0  556.55   15.68 
   0   5   0  546.67   16.09 
   0   5   0  539.94   16.14 
   0   5   0  537.22   15.82 
   0   5   1  271.77    9.05 
   0   5   1  281.30    9.79 
   0   5   1  272.67    9.64 
   0   5   1  275.87    9.45 
   0   5   2   75.93    3.89 
   0   5   2   76.90    4.41 
   0   5   2   76.81    4.34 
   0   5   2   80.57    4.36 
   0   5   3 1182.74   30.00 
   0   5   3 1196.78   31.06 
   0   5   3 1177.22   30.97 
   0   5   4   58.21    3.38 
   0   5   4   52.11    3.67 
   0   5   5  165.26    6.55 
   0   5   5  165.20    7.32 
   0   5   6  780.32   22.07 
   0   5   6  820.59   19.69 
   0   5   6  798.73   23.17 
   0   5   7  138.08    6.29 
   0   5   8    1.27    1.48 
   0   5   9  505.51   15.00 
   0   5  10  855.72   23.03 
   0   5  11    0.73    1.07 
   0   5  12  378.08   11.23 
   0   6  -8    4.33    2.60 
   0   6  -7   24.19    2.91 
   0   6  -7   23.98    3.71 
   0   6  -6  116.57    6.23 
   0   6  -6  119.11    7.50 
   0   6  -6  108.76    5.49 
   0   6  -5  169.20    9.38 
   0   6  -5  174.97    8.89 
   0   6  -5  163.86    7.20 
   0   6  -5  167.46    7.59 
   0   6  -4  164.14    8.78 
   0   6  -4  150.33    7.16 
   0   6  -4  172.09    8.46 
   0   6  -4  161.97    7.43 
   0   6  -3  317.76   12.35 
   0   6  -3  307.04   11.11 
   0   6  -3  324.45   12.16 
   0   6  -3  290.08   10.97 
   0   6  -2  148.98    7.50 
   0   6  -2  157.68    7.10 
   0   6  -2  147.17    6.85 
   0   6  -1   14.15    2.42 
   0   6  -1   12.51    2.14 
   0   6  -1   14.12    1.99 
   0   6  -1   11.72    2.16 
   0   6   0  175.84    7.17 
   0   6   0  153.50    6.78 
   0   6   0  173.30    7.53 
   0   6   0  177.57    7.34 
   0   6   1  397.70   13.08 
   0   6   1  363.02   11.90 
   0   6   1  379.87   12.55 
   0   6   2    6.39    1.49 
   0   6   2    2.50    1.47 
   0   6   3  435.01   14.07 
   0   6   3  417.50   12.94 
   0   6   3  423.14   13.87 
   0   6   4  549.27   15.83 
   0   6   4  528.09   16.79 
   0   6   5   41.58    3.18 
   0   6   5   37.04    3.50 
   0   6   6  640.17   19.16 
   0   6   6  680.59   16.94 
   0   6   6  682.52   20.51 
   0   6   7  126.36    6.12 
   0   6   7  123.78    3.98 
   0   6   7  113.13    6.62 
   0   6   8    2.99    1.72 
   0   6   9  293.44   11.09 
   0   6  10  472.06   14.94 
   0   6  11  232.24    8.91 
   0   6  12   34.84    2.98 
   0   6  13  163.44    6.53 
   0   7  -6   94.04    7.72 
   0   7  -6   94.64    5.99 
   0   7  -6  104.26    7.35 
   0   7  -5  182.52    8.56 
   0   7  -5  191.26   10.47 
   0   7  -5  192.60    9.85 
   0   7  -5  174.04    8.02 
   0   7  -4   46.81    5.09 
   0   7  -4   59.32    4.59 
   0   7  -4   51.75    4.98 
   0   7  -4   52.40    4.11 
   0   7  -3  147.58    7.45 
   0   7  -3  143.15    8.17 
   0   7  -2  415.84   14.82 
   0   7  -2  431.98   14.45 
   0   7  -1   22.44    2.79 
   0   7  -1   22.49    3.13 
   0   7  -1   18.31    2.68 
   0   7   0  161.66    7.35 
   0   7   0  175.25    8.27 
   0   7   0  182.25    7.97 
   0   7   1   34.41    3.63 
   0   7   1   36.69    3.27 
   0   7   1   40.74    3.58 
   0   7   2    4.30    1.59 
   0   7   2    1.76    1.71 
   0   7   3  111.12    5.49 
   0   7   3  102.87    5.95 
   0   7   4  670.17   19.68 
   0   7   4  715.44   21.14 
   0   7   5  326.83   11.19 
   0   7   5  310.98   12.12 
   0   7   6   30.00    2.95 
   0   7   7   67.93    2.91 
   0   7   7   66.70    4.52 
   0   7   8   68.51    4.73 
   0   7   9   95.79    5.86 
   0   7  10  228.64    9.53 
   0   7  11   76.06    5.01 
   0   7  12   10.25    2.14 
   0   8  -5  131.33    7.49 
   0   8  -5  113.90    8.00 
   0   8  -5  119.74    6.78 
   0   8  -4   14.47    2.82 
   0   8  -4   11.17    2.42 
   0   8  -3   67.08    5.39 
   0   8  -2  307.94   12.58 
   0   8  -2  315.38   13.00 
   0   8  -1  401.41   15.04 
   0   8  -1  428.22   15.30 
   0   8   0   -0.76    1.66 
   0   8   3   47.12    3.74 
   0   8   3   39.86    2.04 
   0   8   4    7.47    1.89 
   0   8   5   48.69    3.91 
   0   8   6    0.28    1.64 
   0   8   7   19.82    2.73 
   0   8   7   21.70    1.73 
   0   8   8  223.41    6.68 
   0   8  10   47.80    4.38 
   0   8  11   80.30    5.61 
   0   8  12   -0.34    1.68 
   0   9  -3    7.83    2.64 
   0   9  -3    1.46    2.67 
   0   9  -3    4.89    2.20 
   0   9  -2   94.00    6.83 
   0   9  -2  108.37    7.45 
   0   9  -2  107.45    6.96 
   0   9  -1   71.85    5.96 
   0   9   0   37.36    4.18 
   0   9   3   85.70    3.29 
   0   9   3   79.50    2.97 
   0   9  10    5.80    2.43 
   0   9  11   30.19    3.79 
   0  10   0   82.04    6.47 
   0  10   1    9.84    1.89 
   0  10   1   11.92    2.94 
   0  10   2   31.10    2.47 
   0  10   2   34.52    3.86 
   0  10   7    3.79    1.60 
   1 -10  -8  157.62    8.55 
   1 -10  -8  155.23    9.90 
   1 -10  -7   29.37    3.84 
   1 -10  -7   28.32    4.55 
   1 -10  -6  311.57   12.89 
   1 -10  -6  311.91   14.21 
   1 -10  -5   31.99    4.64 
   1 -10  -4   16.67    3.57 
   1 -10  -3   97.38    7.26 
   1 -10  -2  223.20   11.44 
   1 -10  -1    0.97    2.18 
   1  -9 -10   11.13    2.83 
   1  -9 -10   20.68    4.40 
   1  -9  -9   61.15    5.09 
   1  -9  -8  171.98    8.69 
   1  -9  -7    1.81    1.92 
   1  -9  -6  154.42    8.00 
   1  -9  -6  138.43    8.60 
   1  -9  -5   83.16    5.66 
   1  -9  -5   76.45    6.20 
   1  -9  -4  207.43   10.38 
   1  -9  -3   48.15    4.84 
   1  -9  -2  296.94   12.84 
   1  -9  -1   66.72    5.72 
   1  -9   0   36.68    4.34 
   1  -8 -11   52.23    4.91 
   1  -8 -11   63.02    6.45 
   1  -8 -10   38.47    4.17 
   1  -8 -10   40.29    5.01 
   1  -8  -9   31.40    4.66 
   1  -8  -8  306.82   11.97 
   1  -8  -7  125.25    6.89 
   1  -8  -6   93.18    5.68 
   1  -8  -5   20.34    2.73 
   1  -8  -5   21.25    3.27 
   1  -8  -4  104.55    6.02 
   1  -8  -4   99.35    6.49 
   1  -8  -3   29.75    3.65 
   1  -8  -2  205.83    9.66 
   1  -8  -1  405.39   14.90 
   1  -8   0    7.25    1.81 
   1  -8   0   12.48    2.66 
   1  -8   1   76.97    4.49 
   1  -8   1   80.74    5.82 
   1  -8   2  294.46    9.98 
   1  -7 -12    0.83    2.33 
   1  -7 -12    0.57    2.60 
   1  -7 -11   13.91    2.97 
   1  -7 -11   19.39    4.04 
   1  -7 -10  147.32    7.77 
   1  -7 -10  128.73    8.54 
   1  -7  -9    2.04    1.97 
   1  -7  -9    5.22    2.91 
   1  -7  -8  307.65   11.83 
   1  -7  -8  309.26   13.16 
   1  -7  -7   14.22    2.48 
   1  -7  -7   14.39    2.93 
   1  -7  -6   31.77    3.21 
   1  -7  -5   43.82    3.71 
   1  -7  -4  865.70   24.05 
   1  -7  -4  804.84   24.61 
   1  -7  -3  221.34    9.11 
   1  -7  -3  231.24    9.80 
   1  -7  -2    3.84    1.71 
   1  -7  -1   23.64    2.95 
   1  -7   0   72.34    5.09 
   1  -7   1   -0.20    1.21 
   1  -7   1   -0.33    1.46 
   1  -7   2  488.27   14.25 
   1  -7   3  265.09    8.74 
   1  -6 -12   28.09    3.90 
   1  -6 -12   16.28    3.61 
   1  -6 -11    7.62    2.44 
   1  -6 -11    7.65    2.91 
   1  -6 -10  267.06   11.07 
   1  -6 -10  261.22   12.29 
   1  -6  -9  209.22    8.50 
   1  -6  -9  241.36    9.78 
   1  -6  -9  224.01   10.85 
   1  -6  -9  217.62    6.48 
   1  -6  -8   35.04    3.54 
   1  -6  -8   33.60    3.10 
   1  -6  -8   37.91    4.15 
   1  -6  -7    6.99    1.67 
   1  -6  -7    9.32    2.04 
   1  -6  -7    5.04    1.78 
   1  -6  -7    9.51    2.51 
   1  -6  -6   21.52    2.40 
   1  -6  -6   20.93    2.64 
   1  -6  -6   27.11    2.87 
   1  -6  -6   17.48    3.05 
   1  -6  -5   -0.26    1.40 
   1  -6  -5    0.75    1.09 
   1  -6  -5   -0.70    1.29 
   1  -6  -4  270.20   10.07 
   1  -6  -4  285.78   10.00 
   1  -6  -4  262.13    9.68 
   1  -6  -3  382.57   12.83 
   1  -6  -3  396.12   12.78 
   1  -6  -3  384.30   13.15 
   1  -6  -3  380.50   12.59 
   1  -6  -2   -0.23    1.17 
   1  -6  -2    0.48    1.41 
   1  -6  -2    0.99    1.15 
   1  -6  -2    2.72    1.59 
   1  -6  -1  299.18   10.82 
   1  -6   0  235.83    8.93 
   1  -6   0  232.80    9.23 
   1  -6   0  225.32    8.67 
   1  -6   1  210.93    8.37 
   1  -6   1  206.13    7.49 
   1  -6   1  220.25    8.93 
   1  -6   1  217.12    8.41 
   1  -6   2   -0.24    1.41 
   1  -6   2    1.43    1.08 
   1  -6   2    0.70    1.24 
   1  -6   3  362.98   12.33 
   1  -6   3  362.37   12.30 
   1  -6   3  370.20   10.91 
   1  -6   4  116.72    5.86 
   1  -6   4  118.55    4.69 
   1  -6   5  248.88    7.73 
   1  -6   5  260.30    9.45 
   1  -6   7  176.59    6.88 
   1  -5 -13    6.39    2.83 
   1  -5 -13    6.69    3.10 
   1  -5 -12  195.08    9.91 
   1  -5 -12  198.22   10.86 
   1  -5 -11   29.89    3.67 
   1  -5 -11   24.24    3.83 
   1  -5 -10  174.01    8.53 
   1  -5 -10  178.66    8.02 
   1  -5 -10  170.86    9.35 
   1  -5  -9   61.62    4.71 
   1  -5  -9   68.84    4.57 
   1  -5  -9   66.29    5.60 
   1  -5  -9   66.26    3.84 
   1  -5  -8    6.32    1.84 
   1  -5  -8    7.18    1.80 
   1  -5  -8    6.81    1.47 
   1  -5  -8    9.98    2.56 
   1  -5  -7    7.81    1.93 
   1  -5  -7   11.21    2.01 
   1  -5  -7   11.69    1.83 
   1  -5  -7   11.95    2.68 
   1  -5  -7   11.14    1.09 
   1  -5  -6  248.17    9.24 
   1  -5  -6  242.50    9.27 
   1  -5  -6  265.85   10.44 
   1  -5  -6  239.92    8.63 
   1  -5  -5  200.55    7.77 
   1  -5  -5  191.20    7.78 
   1  -5  -5  196.78    8.53 
   1  -5  -5  192.52    7.38 
   1  -5  -4    2.18    1.15 
   1  -5  -4    1.10    1.25 
   1  -5  -4    3.35    1.28 
   1  -5  -3   21.02    2.12 
   1  -5  -3   21.45    2.32 
   1  -5  -3   23.76    2.30 
   1  -5  -2   13.48    1.83 
   1  -5  -2   15.47    2.03 
   1  -5  -2   15.79    1.92 
   1  -5  -2   15.40    2.13 
   1  -5  -1   -0.22    0.90 
   1  -5  -1    0.22    1.02 
   1  -5   0  498.49   14.66 
   1  -5   0  460.46   14.15 
   1  -5   1  597.17   17.02 
   1  -5   1  570.37   16.03 
   1  -5   1  596.77   17.27 
   1  -5   1  597.81   16.88 
   1  -5   2    1.17    1.19 
   1  -5   2    1.65    1.23 
   1  -5   2    2.61    1.05 
   1  -5   3  193.62    7.64 
   1  -5   3  214.81    7.94 
   1  -5   3  202.22    6.72 
   1  -5   4  281.82    9.87 
   1  -5   4  309.11   10.37 
   1  -5   4  295.01    8.79 
   1  -5   5    5.82    1.72 
   1  -5   5    7.13    1.15 
   1  -5   5    6.77    1.63 
   1  -5   6  145.94    6.72 
   1  -5   6  147.87    5.99 
   1  -5   7  201.56    6.92 
   1  -5   7  181.62    6.84 
   1  -5   8   23.75    1.96 
   1  -5   8   24.39    2.11 
   1  -4 -13   54.09    5.34 
   1  -4 -13   46.43    4.20 
   1  -4 -13   52.11    5.66 
   1  -4 -12  143.84    8.34 
   1  -4 -12  146.14    7.02 
   1  -4 -12  125.06    8.46 
   1  -4 -11  498.80   17.62 
   1  -4 -11  507.76   15.74 
   1  -4 -11  511.87   18.67 
   1  -4 -10   13.56    1.91 
   1  -4 -10   11.62    2.15 
   1  -4 -10   18.81    3.06 
   1  -4 -10   14.52    2.16 
   1  -4 -10   16.74    3.20 
   1  -4  -9  555.57   17.96 
   1  -4  -9  567.55   15.45 
   1  -4  -9  571.46   16.10 
   1  -4  -9  597.83   19.42 
   1  -4  -9  542.04   16.96 
   1  -4  -9  570.13   15.63 
   1  -4  -8    1.87    1.37 
   1  -4  -8   -0.85    1.52 
   1  -4  -8    1.80    1.09 
   1  -4  -8    0.72    1.71 
   1  -4  -7   66.98    3.62 
   1  -4  -7   76.93    4.56 
   1  -4  -7   60.34    3.93 
   1  -4  -7   69.20    4.89 
   1  -4  -6  146.13    6.35 
   1  -4  -6  132.06    6.02 
   1  -4  -6  140.07    6.92 
   1  -4  -6  143.60    5.60 
   1  -4  -5  815.58   22.24 
   1  -4  -5  800.44   22.14 
   1  -4  -5  831.20   23.27 
   1  -4  -5  810.39   21.55 
   1  -4  -5  827.68   19.87 
   1  -4  -4   83.99    4.20 
   1  -4  -4   76.65    4.14 
   1  -4  -4   81.65    4.65 
   1  -4  -4   78.16    3.87 
   1  -4  -3  110.62    4.88 
   1  -4  -3  108.36    4.95 
   1  -4  -3  111.92    4.80 
   1  -4  -2   29.01    2.38 
   1  -4  -2   25.74    2.16 
   1  -4  -2   26.87    2.24 
   1  -4  -1  250.35    8.38 
   1  -4  -1  265.37    8.57 
   1  -4  -1  239.43    8.22 
   1  -4   0   11.56    1.59 
   1  -4   1  535.13   14.63 
   1  -4   1  555.70   15.54 
   1  -4   1  543.93   15.21 
   1  -4   2  601.52   16.58 
   1  -4   2  577.94   15.57 
   1  -4   2  587.80   16.79 
   1  -4   2  614.57   16.45 
   1  -4   3   85.74    4.19 
   1  -4   3   95.44    4.51 
   1  -4   3   84.53    3.58 
   1  -4   4  320.19   10.12 
   1  -4   4  310.27   10.40 
   1  -4   4  332.84    9.30 
   1  -4   5    0.41    1.23 
   1  -4   5    0.96    0.79 
   1  -4   5    0.78    0.89 
   1  -4   6   10.52    1.94 
   1  -4   6   10.79    1.44 
   1  -4   7  175.46    7.49 
   1  -4   7  188.05    6.27 
   1  -4   8  341.52   11.80 
   1  -4   8  347.68    9.52 
   1  -4   8  331.17    9.44 
   1  -4   8  333.92    9.64 
   1  -3 -13   22.80    3.91 
   1  -3 -13   28.57    3.61 
   1  -3 -13   26.17    4.37 
   1  -3 -12   95.93    5.84 
   1  -3 -12   84.38    6.55 
   1  -3 -12   95.42    5.27 
   1  -3 -12   94.80    5.91 
   1  -3 -12   91.24    6.96 
   1  -3 -11  314.96   11.44 
   1  -3 -11  315.07   13.06 
   1  -3 -11  318.17   11.68 
   1  -3 -11  320.92    9.93 
   1  -3 -11  314.49   13.54 
   1  -3 -10  294.57   10.65 
   1  -3 -10  311.75   12.54 
   1  -3 -10  326.28    8.62 
   1  -3 -10  309.89   10.79 
   1  -3 -10  296.15   10.93 
   1  -3 -10  319.53    9.62 
   1  -3 -10  311.73   12.97 
   1  -3 -10  313.17    8.75 
   1  -3  -9   31.36    2.72 
   1  -3  -9   32.01    3.48 
   1  -3  -9   28.07    2.62 
   1  -3  -9   28.94    2.85 
   1  -3  -9   28.28    2.04 
   1  -3  -9   29.97    1.90 
   1  -3  -9   28.90    3.66 
   1  -3  -8  883.49   23.31 
   1  -3  -8  876.21   25.38 
   1  -3  -8  882.98   24.12 
   1  -3  -8  898.92   23.83 
   1  -3  -8  926.36   22.67 
   1  -3  -8  897.57   26.28 
   1  -3  -8  903.37   22.71 
   1  -3  -7  271.26    8.34 
   1  -3  -7  264.60    9.29 
   1  -3  -7  276.24    8.81 
   1  -3  -7  286.18    8.12 
   1  -3  -7  294.32   10.95 
   1  -3  -7  276.86   10.13 
   1  -3  -7  283.21    8.51 
   1  -3  -6  962.34   24.63 
   1  -3  -6  980.44   23.79 
   1  -3  -6  992.42   26.16 
   1  -3  -6  981.97   25.46 
   1  -3  -6  954.05   24.48 
   1  -3  -6  996.27   27.08 
   1  -3  -5  397.24   11.84 
   1  -3  -5  430.42   12.48 
   1  -3  -5  444.15   13.60 
   1  -3  -5  427.44   12.75 
   1  -3  -4  918.06   23.80 
   1  -3  -4  915.50   23.68 
   1  -3  -4  913.37   22.02 
   1  -3  -4  919.13   24.55 
   1  -3  -4  910.06   23.18 
   1  -3  -3   26.09    2.10 
   1  -3  -3   26.43    2.07 
   1  -3  -3   27.16    2.35 
   1  -3  -3   26.94    1.97 
   1  -3  -2  279.88    8.34 
   1  -3  -2  259.84    8.28 
   1  -3  -2  252.86    8.08 
   1  -3  -1   55.13    2.94 
   1  -3  -1   58.82    2.94 
   1  -3  -1   48.79    2.75 
   1  -3   0  102.27    4.30 
   1  -3   0  107.45    4.44 
   1  -3   1   43.44    2.27 
   1  -3   1   39.76    2.42 
   1  -3   2 1165.94   29.02 
   1  -3   2 1131.38   28.16 
   1  -3   2 1190.77   28.84 
   1  -3   3  164.67    5.94 
   1  -3   3  172.76    6.24 
   1  -3   3  178.29    5.51 
   1  -3   4  120.84    4.94 
   1  -3   4  107.56    4.03 
   1  -3   4  112.59    4.46 
   1  -3   5  317.41   10.06 
   1  -3   5  305.99    9.13 
   1  -3   6   31.14    2.67 
   1  -3   6   31.97    1.99 
   1  -3   7   35.39    2.06 
   1  -3   7   32.47    2.84 
   1  -3   7   33.74    1.91 
   1  -3   8  137.70    4.19 
   1  -3   8  139.35    6.44 
   1  -2 -13   34.93    4.98 
   1  -2 -13   32.35    4.10 
   1  -2 -13   36.42    4.74 
   1  -2 -12   69.45    5.40 
   1  -2 -12   65.21    5.88 
   1  -2 -12   61.02    5.13 
   1  -2 -12   70.70    4.15 
   1  -2 -12   62.77    5.82 
   1  -2 -11  402.30   15.41 
   1  -2 -11  403.68   14.06 
   1  -2 -11  385.59   12.24 
   1  -2 -11  365.75   13.78 
   1  -2 -11  404.15   12.28 
   1  -2 -11  377.94   15.23 
   1  -2 -10  279.10   11.64 
   1  -2 -10  268.53    9.25 
   1  -2 -10  264.89   10.32 
   1  -2 -10  259.01   10.32 
   1  -2 -10  266.34    8.96 
   1  -2 -10  271.68   11.73 
   1  -2  -9   36.11    3.20 
   1  -2  -9   35.54    1.48 
   1  -2  -9   33.08    1.51 
   1  -2  -9   34.92    3.69 
   1  -2  -9   33.71    3.25 
   1  -2  -9   36.36    2.55 
   1  -2  -9   36.21    1.49 
   1  -2  -9   36.30    3.81 
   1  -2  -8  123.57    5.64 
   1  -2  -8  134.24    6.80 
   1  -2  -8  126.73    5.83 
   1  -2  -8  130.56    4.95 
   1  -2  -8  128.11    4.04 
   1  -2  -8  120.37    4.09 
   1  -2  -7 1447.01   35.91 
   1  -2  -7 1432.34   37.53 
   1  -2  -7 1439.67   36.16 
   1  -2  -7 1440.99   35.08 
   1  -2  -7 1436.50   34.39 
   1  -2  -6   15.08    1.58 
   1  -2  -6   14.81    2.02 
   1  -2  -6   15.00    1.72 
   1  -2  -6   14.53    1.26 
   1  -2  -6   14.72    1.32 
   1  -2  -6   15.18    2.19 
   1  -2  -5 2262.87   53.04 
   1  -2  -5 2238.79   54.71 
   1  -2  -5 2196.49   53.80 
   1  -2  -5 2283.72   53.53 
   1  -2  -5 2262.27   52.92 
   1  -2  -5 2221.31   55.26 
   1  -2  -5 2242.84   53.11 
   1  -2  -4 1222.69   30.10 
   1  -2  -4 1254.70   31.11 
   1  -2  -4 1234.06   30.53 
   1  -2  -4 1240.09   29.90 
   1  -2  -4 1259.62   29.69 
   1  -2  -4 1206.73   31.59 
   1  -2  -3  136.27    4.86 
   1  -2  -3  153.02    5.36 
   1  -2  -3  149.45    5.13 
   1  -2  -3  154.38    5.70 
   1  -2  -2    0.84    0.39 
   1  -2  -2    1.93    0.77 
   1  -2  -2    1.40    0.62 
   1  -2  -2    0.94    0.64 
   1  -2  -2    1.87    0.90 
   1  -2  -1 1383.20   33.97 
   1  -2  -1 1465.05   34.08 
   1  -2  -1 1384.36   33.87 
   1  -2   0   12.57    1.19 
   1  -2   0   12.77    1.28 
   1  -2   0   13.44    1.26 
   1  -2   2  179.94    5.76 
   1  -2   2  178.94    5.37 
   1  -2   3   38.21    2.29 
   1  -2   3   33.82    1.81 
   1  -2   3   35.30    1.98 
   1  -2   4   72.94    3.51 
   1  -2   4   78.38    3.06 
   1  -2   4   75.98    3.07 
   1  -2   5  233.49    7.62 
   1  -2   5  218.98    6.51 
   1  -2   6  595.34   15.14 
   1  -2   6  596.03   16.71 
   1  -2   6  603.27   15.01 
   1  -2   7  107.99    5.09 
   1  -1 -13  151.62    9.51 
   1  -1 -13  159.97    9.29 
   1  -1 -13  145.35    8.69 
   1  -1 -13  129.26    8.87 
   1  -1 -12   11.32    3.13 
   1  -1 -12   16.51    3.70 
   1  -1 -12   20.76    3.51 
   1  -1 -12   18.79    2.51 
   1  -1 -11  218.49   10.74 
   1  -1 -11  201.01    9.69 
   1  -1 -11  207.24    7.26 
   1  -1 -11  194.12    9.47 
   1  -1 -11  207.57    8.22 
   1  -1 -10  219.85   10.28 
   1  -1 -10  203.63    9.32 
   1  -1 -10  224.80    9.57 
   1  -1 -10  216.73    8.10 
   1  -1 -10  211.29    7.38 
   1  -1  -9   59.78    4.88 
   1  -1  -9   53.18    4.27 
   1  -1  -9   60.93    3.28 
   1  -1  -9   55.37    4.36 
   1  -1  -9   66.53    3.73 
   1  -1  -8   94.10    5.70 
   1  -1  -8   89.45    5.14 
   1  -1  -8   95.38    4.39 
   1  -1  -8   92.78    4.09 
   1  -1  -8   88.12    5.12 
   1  -1  -7  449.39   14.41 
   1  -1  -7  446.21   13.48 
   1  -1  -7  416.51   10.66 
   1  -1  -7  445.52   13.54 
   1  -1  -7  464.13   12.58 
   1  -1  -7  441.11   10.61 
   1  -1  -6  472.73   14.39 
   1  -1  -6  471.17   13.47 
   1  -1  -6  469.01   13.57 
   1  -1  -6  475.11   12.71 
   1  -1  -6  457.37   11.49 
   1  -1  -6  449.28   11.39 
   1  -1  -5   13.43    1.59 
   1  -1  -5   13.42    1.80 
   1  -1  -5   12.89    0.99 
   1  -1  -5   10.72    1.49 
   1  -1  -5   13.69    1.28 
   1  -1  -5   13.36    0.94 
   1  -1  -4 3282.31   76.78 
   1  -1  -4 3242.16   75.65 
   1  -1  -4 3172.32   75.85 
   1  -1  -4 3247.52   75.39 
   1  -1  -4 3239.49   74.99 
   1  -1  -3 1182.48   28.22 
   1  -1  -3 1182.89   29.24 
   1  -1  -3 1182.86   28.48 
   1  -1  -3 1188.00   28.54 
   1  -1  -3 1209.15   28.29 
   1  -1  -3 1165.12   28.23 
   1  -1  -2 1709.25   40.28 
   1  -1  -2 1713.48   39.81 
   1  -1  -2 1635.44   39.76 
   1  -1  -2 1701.97   39.59 
   1  -1  -1   17.12    1.32 
   1  -1  -1   19.83    1.30 
   1  -1  -1   21.07    1.47 
   1  -1  -1   19.20    1.26 
   1  -1  -1   20.82    1.01 
   1  -1   0   37.17    1.80 
   1  -1   0   38.64    1.78 
   1  -1   0   33.85    1.71 
   1  -1   1 1298.84   31.00 
   1  -1   3    4.82    0.72 
   1  -1   3    5.70    0.70 
   1  -1   4   44.98    2.50 
   1  -1   4   48.93    1.98 
   1  -1   4   44.43    1.85 
   1  -1   5    9.82    1.37 
   1  -1   5    8.77    0.71 
   1  -1   6  373.45   11.20 
   1   0 -12  118.89    7.94 
   1   0 -12  109.36    7.46 
   1   0 -12  114.76    6.27 
   1   0 -12  114.96    8.09 
   1   0 -11   59.85    5.40 
   1   0 -11   54.85    5.41 
   1   0 -11   65.32    5.47 
   1   0 -11   61.65    4.30 
   1   0 -10  304.87   12.25 
   1   0 -10  300.95    8.96 
   1   0 -10  273.16   11.64 
   1   0 -10  281.34   10.43 
   1   0 -10  295.76   12.69 
   1   0  -9  396.35   14.22 
   1   0  -9  391.46   14.61 
   1   0  -9  379.41   10.99 
   1   0  -9  404.77   12.65 
   1   0  -8    1.48    1.73 
   1   0  -8    1.66    1.63 
   1   0  -8   -0.20    1.01 
   1   0  -7   95.04    5.30 
   1   0  -7   99.23    3.77 
   1   0  -7  103.92    4.70 
   1   0  -7   93.47    5.48 
   1   0  -6  515.76   15.31 
   1   0  -6  507.72   13.30 
   1   0  -6  503.89   14.30 
   1   0  -6  549.04   16.02 
   1   0  -5  222.20    7.86 
   1   0  -5  239.14    6.56 
   1   0  -5  225.35    5.70 
   1   0  -5  236.01    7.36 
   1   0  -5  239.12    8.43 
   1   0  -4  155.39    4.25 
   1   0  -4  156.04    5.67 
   1   0  -4  160.12    5.28 
   1   0  -4  160.66    4.21 
   1   0  -4  164.14    6.10 
   1   0  -3  765.30   19.29 
   1   0  -3  768.34   18.19 
   1   0  -3  765.24   19.33 
   1   0  -3  783.56   18.98 
   1   0  -3  747.00   18.09 
   1   0  -3  779.26   19.71 
   1   0  -2  116.90    3.26 
   1   0  -2  123.84    3.96 
   1   0  -2  118.27    3.72 
   1   0  -2  117.33    3.42 
   1   0  -2  120.36    3.38 
   1   0  -2  116.49    4.13 
   1   0  -1  539.17   12.98 
   1   0  -1  550.50   13.59 
   1   0  -1  552.72   13.35 
   1   0  -1  544.91   13.21 
   1   0  -1  558.56   13.29 
   1   0   1  973.92   22.92 
   1   0   1  956.33   23.01 
   1   0   1  967.42   22.81 
   1   0   1  970.56   22.88 
   1   0   2  392.48   10.23 
   1   0   4    5.27    1.00 
   1   1 -12   77.50    6.93 
   1   1 -12   79.22    7.09 
   1   1 -12   73.04    6.42 
   1   1 -12   83.13    5.59 
   1   1 -11   16.73    3.75 
   1   1 -11   22.61    3.91 
   1   1 -11   11.55    2.98 
   1   1 -11   18.93    2.76 
   1   1 -10   50.48    4.90 
   1   1 -10   44.23    2.56 
   1   1 -10   49.63    4.98 
   1   1 -10   56.52    4.15 
   1   1  -9  257.09    7.72 
   1   1  -9  246.15    7.40 
   1   1  -9  254.53    9.70 
   1   1  -9  257.59   11.23 
   1   1  -9  256.01   11.35 
   1   1  -8   44.31    4.31 
   1   1  -8   46.76    2.44 
   1   1  -8   46.35    2.30 
   1   1  -8   48.39    3.53 
   1   1  -7   33.57    1.91 
   1   1  -7   32.52    2.77 
   1   1  -6 1500.02   38.55 
   1   1  -6 1500.02   35.37 
   1   1  -6 1445.11   37.20 
   1   1  -5 1427.63   36.15 
   1   1  -5 1393.59   33.39 
   1   1  -5 1455.79   35.21 
   1   1  -4  292.67    9.69 
   1   1  -4  304.45    7.74 
   1   1  -4  306.32    9.16 
   1   1  -3    2.94    1.00 
   1   1  -3    2.51    0.37 
   1   1  -3    3.16    0.38 
   1   1  -3    1.42    0.69 
   1   1  -2   24.91    1.82 
   1   1  -2   26.49    1.13 
   1   1  -2   25.58    1.62 
   1   1  -1 1569.52   37.28 
   1   1  -1 1643.90   37.85 
   1   1  -1 1624.81   37.75 
   1   1   0 1862.31   43.41 
   1   1   0 1877.77   43.55 
   1   1   1 5171.71  119.00 
   1   1   1 5188.26  118.74 
   1   1   1 5187.87  119.17 
   1   2 -11   10.59    3.17 
   1   2 -11    6.40    2.93 
   1   2 -11    5.32    3.09 
   1   2 -11    5.36    2.07 
   1   2 -10   91.49    7.02 
   1   2 -10   86.78    5.61 
   1   2  -9   13.02    2.98 
   1   2  -9   12.03    1.39 
   1   2  -9   10.93    2.29 
   1   2  -8  184.82    9.28 
   1   2  -8  180.72    5.96 
   1   2  -8  183.62    7.94 
   1   2  -7   74.66    5.52 
   1   2  -7   80.13    4.69 
   1   2  -7   78.25    3.24 
   1   2  -6  641.17   19.79 
   1   2  -6  645.23   16.41 
   1   2  -6  664.26   18.73 
   1   2  -5 1440.02   37.05 
   1   2  -5 1414.13   33.81 
   1   2  -5 1419.75   35.99 
   1   2  -4  334.31    8.90 
   1   2  -4  325.48   10.46 
   1   2  -4  347.39    9.03 
   1   2  -3  102.72    4.82 
   1   2  -3  112.50    3.43 
   1   2  -3  112.07    4.55 
   1   2  -3  108.08    3.66 
   1   2  -2 1258.63   31.26 
   1   2  -2 1271.50   29.63 
   1   2  -2 1272.55   30.84 
   1   2  -2 1224.47   30.04 
   1   2  -1 9812.07  220.65 
   1   2  -1 9725.08  219.55 
   1   2  -1 9557.56  220.27 
   1   2  -1 9326.73  219.95 
   1   2  -1 9439.48  220.47 
   1   2   0    0.94    0.67 
   1   2   0    0.38    0.62 
   1   2   0    1.70    0.79 
   1   2   1 1387.92   32.80 
   1   2   1 1361.91   32.79 
   1   2   2  736.47   18.13 
   1   2   2  727.96   18.22 
   1   2   4  649.29   16.21 
   1   2   5 1939.65   45.66 
   1   2   6   13.96    1.06 
   1   3 -11  132.89    9.46 
   1   3 -11  143.04    9.13 
   1   3 -11  140.07    7.88 
   1   3 -10   21.84    4.29 
   1   3 -10   34.87    3.82 
   1   3  -9    9.68    3.31 
   1   3  -9    6.61    2.18 
   1   3  -8   31.84    4.23 
   1   3  -8   37.91    2.39 
   1   3  -8   39.74    3.75 
   1   3  -7  667.20   21.19 
   1   3  -7  638.51   16.94 
   1   3  -7  651.45   19.68 
   1   3  -6   22.05    3.25 
   1   3  -6   21.98    2.67 
   1   3  -5  671.94   20.74 
   1   3  -5  702.46   17.70 
   1   3  -5  685.07   19.84 
   1   3  -5  690.09   17.60 
   1   3  -4  405.57   13.52 
   1   3  -4  412.92   11.08 
   1   3  -4  412.72   12.83 
   1   3  -4  407.54   11.25 
   1   3  -3  199.33    7.70 
   1   3  -3  193.21    5.96 
   1   3  -3  197.53    7.20 
   1   3  -3  197.76    6.28 
   1   3  -3  184.92    7.10 
   1   3  -2 1095.83   28.17 
   1   3  -2 1096.03   26.59 
   1   3  -2 1097.01   27.71 
   1   3  -2 1099.88   26.95 
   1   3  -2 1058.16   27.70 
   1   3  -1 6102.53  150.16 
   1   3  -1 6681.10  149.32 
   1   3  -1 6455.89  149.96 
   1   3  -1 6458.15  149.60 
   1   3  -1 6505.78  150.03 
   1   3   0   64.90    2.99 
   1   3   0   66.29    3.14 
   1   3   1 1370.63   32.55 
   1   3   1 1437.95   33.94 
   1   3   2 2477.18   59.62 
   1   3   2 2814.76   61.11 
   1   3   3 1094.44   26.27 
   1   3   3 1079.41   27.28 
   1   3   4    0.98    0.72 
   1   3   5 3394.10   78.47 
   1   3   5 3291.69   78.58 
   1   3   6  319.81    9.24 
   1   3   7   23.50    1.68 
   1   3   8   59.61    2.68 
   1   4 -10  126.06    9.11 
   1   4 -10  144.25    8.16 
   1   4  -9   23.52    4.23 
   1   4  -9   24.47    3.44 
   1   4  -8  254.73   12.24 
   1   4  -8  253.98    8.34 
   1   4  -8  256.98   10.94 
   1   4  -7   30.69    4.09 
   1   4  -7   28.24    2.24 
   1   4  -7   30.77    3.55 
   1   4  -7   23.52    3.06 
   1   4  -6   -0.39    2.12 
   1   4  -6    1.03    0.96 
   1   4  -6    2.47    1.62 
   1   4  -6    2.57    0.90 
   1   4  -6    1.41    1.46 
   1   4  -5    7.29    2.35 
   1   4  -5    4.84    1.15 
   1   4  -5    5.89    1.87 
   1   4  -5    3.07    1.37 
   1   4  -5    4.54    1.11 
   1   4  -4  496.43   16.12 
   1   4  -4  482.26   13.54 
   1   4  -4  480.01   15.21 
   1   4  -4  509.49   13.79 
   1   4  -4  472.15   14.89 
   1   4  -3  480.91   15.92 
   1   4  -3  509.46   14.15 
   1   4  -3  519.06   15.62 
   1   4  -3  544.47   14.54 
   1   4  -3  511.60   15.27 
   1   4  -2  322.46    9.78 
   1   4  -2  347.46   10.84 
   1   4  -2  313.70    9.93 
   1   4  -2  339.30   10.63 
   1   4  -1 3311.43   75.04 
   1   4  -1 3059.96   75.42 
   1   4  -1 3111.12   75.48 
   1   4   0  575.42   15.83 
   1   4   0  586.32   16.12 
   1   4   1   33.88    2.01 
   1   4   1   36.85    1.80 
   1   4   1   34.44    2.55 
   1   4   2  596.10   15.60 
   1   4   2  632.60   16.81 
   1   4   3  716.50   18.26 
   1   4   3  732.19   19.49 
   1   4   4   31.86    2.04 
   1   4   4   34.62    1.34 
   1   4   4   36.54    2.69 
   1   4   5 2517.20   61.23 
   1   4   5 2646.42   61.76 
   1   4   6  808.21   20.72 
   1   4   6  755.44   20.59 
   1   4   7  287.41    9.08 
   1   4   8   24.33    2.01 
   1   4   9  113.02    4.58 
   1   4  10  168.03    5.75 
   1   5  -9  122.48    9.06 
   1   5  -9  130.88    8.02 
   1   5  -8   99.83    7.71 
   1   5  -8  109.02    7.09 
   1   5  -7  629.29   21.77 
   1   5  -7  610.44   17.17 
   1   5  -7  581.76   19.81 
   1   5  -6    0.44    2.51 
   1   5  -6    2.07    1.16 
   1   5  -6    2.14    1.92 
   1   5  -6    0.34    1.01 
   1   5  -5   50.44    4.88 
   1   5  -5   52.24    3.28 
   1   5  -5   58.01    4.54 
   1   5  -5   54.88    3.35 
   1   5  -5   47.95    3.99 
   1   5  -4   66.41    3.71 
   1   5  -4   73.22    4.84 
   1   5  -4   64.78    3.70 
   1   5  -4   61.51    4.20 
   1   5  -3  511.52   14.51 
   1   5  -3  507.95   15.86 
   1   5  -3  495.11   14.70 
   1   5  -3  470.32   15.16 
   1   5  -2   20.00    2.08 
   1   5  -2   19.63    2.45 
   1   5  -2   17.25    1.97 
   1   5  -2   16.71    2.24 
   1   5  -1 1706.50   42.31 
   1   5  -1 1700.53   42.70 
   1   5   0  421.77   12.65 
   1   5   0  422.38   12.20 
   1   5   0  396.35   12.65 
   1   5   1  330.99   10.00 
   1   5   1  342.16   10.90 
   1   5   2    3.12    1.00 
   1   5   2    4.87    0.69 
   1   5   3 1403.91   34.20 
   1   5   3 1377.75   35.53 
   1   5   4  226.24    7.50 
   1   5   4  244.28    8.72 
   1   5   5  401.46   12.07 
   1   5   5  421.66   10.38 
   1   5   5  420.41   13.38 
   1   5   6  419.71   12.44 
   1   5   6  414.56   12.84 
   1   5   7  181.55    6.85 
   1   5   7  163.33    6.69 
   1   5   8    4.56    1.27 
   1   5   9  149.73    6.13 
   1   5  10  571.34   16.18 
   1   5  11   74.06    3.78 
   1   6  -8    5.89    3.57 
   1   6  -8   10.20    2.94 
   1   6  -7   83.42    6.25 
   1   6  -6  257.26    9.47 
   1   6  -6  271.89   11.68 
   1   6  -6  261.71    9.30 
   1   6  -5    9.05    1.87 
   1   6  -5   10.84    2.52 
   1   6  -5   10.08    1.78 
   1   6  -4  128.43    6.06 
   1   6  -4  141.32    7.41 
   1   6  -4  135.38    6.24 
   1   6  -4  134.95    6.90 
   1   6  -3  105.43    5.33 
   1   6  -3  106.39    6.13 
   1   6  -3  103.75    5.37 
   1   6  -3   94.06    5.56 
   1   6  -2   22.18    2.44 
   1   6  -2   18.67    2.29 
   1   6  -2   22.01    2.39 
   1   6  -2   20.49    2.58 
   1   6  -1   15.31    2.07 
   1   6  -1   15.56    1.98 
   1   6  -1   16.00    2.20 
   1   6   0  140.88    6.03 
   1   6   0  156.55    6.67 
   1   6   0  149.46    6.67 
   1   6   1  665.55   18.61 
   1   6   1  704.64   19.79 
   1   6   2   14.48    1.72 
   1   6   2   14.64    1.21 
   1   6   2   10.11    1.94 
   1   6   3  569.61   15.78 
   1   6   3  561.85   17.05 
   1   6   4  762.52   20.60 
   1   6   4  794.27   22.14 
   1   6   5  217.26    7.68 
   1   6   5  212.44    8.79 
   1   6   6  104.94    5.00 
   1   6   6  109.12    3.35 
   1   6   7  337.56   11.06 
   1   6   7  338.17   11.61 
   1   6   8   85.93    4.81 
   1   6   8   80.26    4.61 
   1   6   9   90.19    4.97 
   1   6  10  425.63   13.59 
   1   6  11  134.33    6.09 
   1   6  12    1.42    1.20 
   1   7  -7    5.32    2.50 
   1   7  -6   77.11    6.14 
   1   7  -5  203.43    8.69 
   1   7  -5  218.97   10.43 
   1   7  -5  217.59    8.84 
   1   7  -4   48.32    3.92 
   1   7  -4   52.22    4.82 
   1   7  -4   54.03    4.17 
   1   7  -3  422.19   14.28 
   1   7  -3  446.15   14.62 
   1   7  -2   23.62    2.72 
   1   7  -2   21.97    2.84 
   1   7  -2   25.93    3.15 
   1   7  -1   42.85    3.65 
   1   7  -1   34.78    3.22 
   1   7  -1   44.09    3.80 
   1   7  -1   39.01    3.50 
   1   7  -1   36.89    3.59 
   1   7   0   43.35    3.28 
   1   7   0   36.99    3.39 
   1   7   0   37.04    3.50 
   1   7   1   77.20    4.33 
   1   7   1   71.88    4.49 
   1   7   1   73.43    4.83 
   1   7   2  648.68   18.53 
   1   7   2  656.70   16.75 
   1   7   2  654.18   19.70 
   1   7   3  192.41    7.32 
   1   7   3  193.89    8.50 
   1   7   4  698.47   19.41 
   1   7   4  704.50   21.05 
   1   7   5  494.78   14.76 
   1   7   5  503.52   16.43 
   1   7   6   98.83    5.00 
   1   7   6   91.52    3.54 
   1   7   6   93.01    5.85 
   1   7   7  156.25    6.84 
   1   7   7  159.81    4.48 
   1   7   8  480.10   15.23 
   1   7   8  500.58   16.04 
   1   7   9    0.80    1.74 
   1   7   9   -0.29    1.29 
   1   7  10  330.56   12.01 
   1   7  11  268.73   10.35 
   1   7  12    7.73    1.89 
   1   7  13    4.10    1.65 
   1   8  -5   22.21    3.72 
   1   8  -5   24.57    3.10 
   1   8  -4   58.40    4.58 
   1   8  -3   74.91    5.25 
   1   8  -2  280.36   11.79 
   1   8  -2  281.74   11.37 
   1   8  -1  366.19   13.69 
   1   8  -1  366.28   13.60 
   1   8   0   -0.64    1.52 
   1   8   1   26.20    2.89 
   1   8   1   23.23    2.23 
   1   8   1   27.56    3.06 
   1   8   2   11.24    2.03 
   1   8   2    7.24    1.23 
   1   8   2    9.62    1.97 
   1   8   3   27.56    2.77 
   1   8   3   24.08    1.37 
   1   8   3   22.30    2.48 
   1   8   4   93.21    4.98 
   1   8   4   90.37    4.64 
   1   8   5 1169.18   31.64 
   1   8   5 1234.23   30.67 
   1   8   6   62.18    4.19 
   1   8   6   63.57    3.23 
   1   8   7   83.58    3.22 
   1   8   7   79.37    3.01 
   1   8   8  361.54   12.76 
   1   8   8  389.06   13.96 
   1   8   9  303.97   11.62 
   1   8   9  344.17   12.65 
   1   8  10   13.71    2.73 
   1   8  11  326.42   12.41 
   1   8  12   37.75    3.73 
   1   9  -4    7.43    2.77 
   1   9  -4    6.06    2.19 
   1   9  -3    8.45    2.68 
   1   9  -3   10.11    3.06 
   1   9  -3   14.02    2.72 
   1   9  -2   11.93    2.48 
   1   9  -2   13.70    2.86 
   1   9  -2   13.42    2.59 
   1   9  -1  242.84    9.81 
   1   9  -1  272.84   11.52 
   1   9  -1  252.53   11.30 
   1   9   0   80.55    4.66 
   1   9   0   80.59    5.70 
   1   9   0   77.69    5.87 
   1   9   1  135.06    5.75 
   1   9   1  140.25    7.36 
   1   9   1  144.52    8.06 
   1   9   2  323.62    9.59 
   1   9   2  316.53   11.89 
   1   9   3   15.07    2.57 
   1   9   4    1.60    1.58 
   1   9   4   -0.48    1.46 
   1   9   5   76.01    4.86 
   1   9   5   82.02    4.41 
   1   9   6  177.41    8.13 
   1   9   6  203.57    7.20 
   1   9   7    1.73    1.90 
   1   9   7    1.68    0.95 
   1   9   7    2.01    1.76 
   1   9   8  488.39   12.44 
   1   9   8  470.77   17.16 
   1   9   9  151.46    8.32 
   1   9  10    4.36    2.32 
   1   9  11  105.35    6.78 
   1  10  -1   21.02    2.97 
   1  10  -1   23.96    3.70 
   1  10  -1   16.73    3.18 
   1  10   0   34.11    3.27 
   1  10   0   31.33    4.16 
   1  10   0   36.43    4.35 
   1  10   1    2.36    1.53 
   1  10   1    2.66    1.87 
   1  10   1    0.46    1.87 
   1  10   2   96.21    4.26 
   1  10   2  110.64    6.48 
   1  10   2   97.86    7.05 
   1  10   3  155.25    7.60 
   1  10   3  158.53    9.03 
   1  10   4   10.78    2.11 
   1  10   4    6.00    2.43 
   1  10   5  204.50    8.29 
   1  10   5  213.05   10.79 
   1  10   6   15.61    2.02 
   1  10   7   69.97    3.70 
   1  10   7   63.27    5.66 
   1  10   8    0.56    0.87 
   1  10   8    1.83    2.04 
   1  10   9  265.99   12.32 
   1  10  10   57.40    5.46 
   1  11   2    2.74    2.15 
   1  11   2    7.24    2.83 
   1  11   3   91.49    6.03 
   1  11   3   85.07    6.96 
   1  11   4   47.31    4.18 
   1  11   4   49.82    5.41 
   1  11   5    4.55    1.98 
   1  11   5    9.86    3.07 
   1  11   6    2.19    1.49 
   1  11   7    1.58    1.38 
   1  11   8   14.93    3.47 
   2  -9  -8  147.86    8.42 
   2  -9  -8  162.34    9.92 
   2  -9  -7   69.47    5.46 
   2  -9  -7   69.85    6.44 
   2  -9  -6   35.81    4.11 
   2  -9  -6   32.41    4.37 
   2  -9  -5  304.39   12.79 
   2  -9  -5  303.07   13.42 
   2  -9  -4   77.08    6.13 
   2  -9  -3    3.50    2.26 
   2  -9  -2  156.27    8.72 
   2  -9  -1  160.95    8.95 
   2  -9   0   -0.43    2.07 
   2  -8 -10   65.15    5.42 
   2  -8  -9   16.21    3.05 
   2  -8  -8  128.74    7.49 
   2  -8  -7  323.28   12.89 
   2  -8  -7  325.76   14.07 
   2  -8  -6   33.61    3.84 
   2  -8  -6   29.35    4.20 
   2  -8  -5  193.66    9.18 
   2  -8  -5  191.05    9.71 
   2  -8  -4  172.46    8.60 
   2  -8  -4  162.20    8.60 
   2  -8  -3   90.94    6.27 
   2  -8  -2  158.07    8.42 
   2  -8  -1  291.72   11.95 
   2  -8   0    2.64    1.98 
   2  -8   1   44.82    4.41 
   2  -7 -11   14.20    3.09 
   2  -7 -11   18.23    3.94 
   2  -7 -10   20.34    3.41 
   2  -7 -10   15.57    3.46 
   2  -7  -9   79.57    5.91 
   2  -7  -8   19.78    3.12 
   2  -7  -7  660.06   20.82 
   2  -7  -6   42.30    4.04 
   2  -7  -6   41.19    4.54 
   2  -7  -5   41.36    3.88 
   2  -7  -5   56.06    4.82 
   2  -7  -4  464.36   15.77 
   2  -7  -4  477.57   16.35 
   2  -7  -3  359.34   13.29 
   2  -7  -3  380.80   13.68 
   2  -7  -2   -0.33    1.64 
   2  -7  -1  178.72    8.38 
   2  -7   0   50.79    3.75 
   2  -7   0   50.15    4.28 
   2  -7   1   26.88    2.77 
   2  -7   1   27.91    3.28 
   2  -7   2  150.63    6.56 
   2  -7   3  127.07    5.81 
   2  -6 -12   -0.45    2.37 
   2  -6 -12   -0.58    2.53 
   2  -6 -11   -1.68    2.21 
   2  -6 -11    1.63    2.32 
   2  -6 -10  267.00   11.56 
   2  -6 -10  268.87   12.77 
   2  -6  -9  264.44   11.18 
   2  -6  -9  271.90   12.52 
   2  -6  -8    9.93    2.29 
   2  -6  -8    8.83    2.74 
   2  -6  -7   77.38    4.86 
   2  -6  -7   87.49    5.58 
   2  -6  -6   10.42    2.30 
   2  -6  -6   11.04    2.09 
   2  -6  -5   21.47    2.75 
   2  -6  -5   19.83    2.62 
   2  -6  -5   20.76    2.65 
   2  -6  -5   27.23    3.47 
   2  -6  -4  494.98   15.86 
   2  -6  -4  472.59   15.64 
   2  -6  -4  514.94   16.08 
   2  -6  -4  513.37   16.68 
   2  -6  -3 1267.38   34.57 
   2  -6  -3 1258.42   34.45 
   2  -6  -3 1354.85   34.99 
   2  -6  -3 1338.27   35.12 
   2  -6  -2  166.29    7.75 
   2  -6  -2  177.95    7.79 
   2  -6  -2  194.49    8.30 
   2  -6  -2  176.23    7.93 
   2  -6  -1  281.89   10.54 
   2  -6   0  170.50    7.68 
   2  -6   0  166.12    7.01 
   2  -6   0  182.36    7.84 
   2  -6   1  119.59    6.26 
   2  -6   1  122.28    5.59 
   2  -6   1  115.64    6.10 
   2  -6   2    1.38    1.33 
   2  -6   2    0.54    1.36 
   2  -6   3   54.19    3.46 
   2  -6   4   85.89    4.29 
   2  -5 -12    4.99    2.49 
   2  -5 -12    3.89    2.78 
   2  -5 -11    9.62    3.01 
   2  -5 -11    6.23    2.77 
   2  -5 -10  200.57    9.44 
   2  -5 -10  169.94    9.71 
   2  -5  -9  655.61   20.44 
   2  -5  -9  604.47   18.94 
   2  -5  -9  678.63   22.03 
   2  -5  -9  638.85   17.12 
   2  -5  -9  632.70   18.32 
   2  -5  -8   25.98    2.91 
   2  -5  -8   28.02    3.25 
   2  -5  -8   26.68    2.71 
   2  -5  -8   27.37    3.68 
   2  -5  -8   26.41    1.91 
   2  -5  -7  317.29   10.76 
   2  -5  -7  333.88   11.81 
   2  -5  -7  306.88   11.03 
   2  -5  -7  299.62    8.78 
   2  -5  -7  320.56   12.71 
   2  -5  -6    7.40    1.78 
   2  -5  -6    6.17    1.87 
   2  -5  -6    8.47    1.77 
   2  -5  -5  329.57   11.36 
   2  -5  -5  358.33   11.99 
   2  -5  -5  320.07   11.30 
   2  -5  -4   79.92    4.60 
   2  -5  -4   65.52    4.31 
   2  -5  -4   76.12    4.63 
   2  -5  -4   77.11    4.95 
   2  -5  -3  501.30   15.86 
   2  -5  -3  528.59   15.90 
   2  -5  -3  528.63   16.11 
   2  -5  -3  547.34   16.45 
   2  -5  -2  399.38   13.13 
   2  -5  -2  410.00   13.07 
   2  -5  -2  400.58   13.11 
   2  -5  -2  413.44   13.18 
   2  -5  -1  164.50    7.18 
   2  -5  -1  176.16    7.48 
   2  -5  -1  190.68    7.46 
   2  -5   0  605.15   18.25 
   2  -5   0  619.59   17.53 
   2  -5   0  640.62   18.05 
   2  -5   1  827.92   23.97 
   2  -5   1  868.98   24.05 
   2  -5   1  870.24   23.22 
   2  -5   2   83.22    4.80 
   2  -5   2   83.77    4.75 
   2  -5   2   79.36    4.13 
   2  -5   2   86.17    4.72 
   2  -5   3   30.82    2.99 
   2  -5   3   27.46    2.40 
   2  -5   3   29.25    2.83 
   2  -5   4  321.07   10.11 
   2  -5   4  325.77   11.06 
   2  -5   5   56.34    3.30 
   2  -5   5   52.99    3.59 
   2  -5   6   10.26    1.53 
   2  -5   6    6.30    1.59 
   2  -5   7   64.90    4.00 
   2  -4 -12   48.69    5.05 
   2  -4 -12   29.15    4.49 
   2  -4 -11  169.26    9.03 
   2  -4 -11  169.42    9.74 
   2  -4 -10   32.44    3.88 
   2  -4 -10   32.05    2.64 
   2  -4 -10   26.44    3.88 
   2  -4  -9  378.38   14.07 
   2  -4  -9  382.04   12.69 
   2  -4  -9  395.47   15.17 
   2  -4  -9  393.54   11.86 
   2  -4  -8    9.35    1.87 
   2  -4  -8   13.01    2.52 
   2  -4  -8   10.20    1.65 
   2  -4  -8    9.00    2.66 
   2  -4  -7   87.94    5.38 
   2  -4  -7   90.40    4.86 
   2  -4  -7   95.06    6.18 
   2  -4  -7   96.25    4.69 
   2  -4  -7   97.45    4.02 
   2  -4  -6  158.85    6.74 
   2  -4  -6  166.91    7.33 
   2  -4  -6  163.99    7.95 
   2  -4  -6  159.09    5.40 
   2  -4  -6  165.43    6.54 
   2  -4  -5  580.69   16.78 
   2  -4  -5  578.41   17.38 
   2  -4  -5  584.46   16.88 
   2  -4  -5  590.32   15.01 
   2  -4  -4   16.46    2.05 
   2  -4  -4   15.02    2.04 
   2  -4  -4   16.44    1.96 
   2  -4  -3   49.85    3.36 
   2  -4  -3   57.40    3.56 
   2  -4  -3   56.62    3.65 
   2  -4  -2  300.11   10.41 
   2  -4  -2  321.99   10.46 
   2  -4  -2  316.04   10.53 
   2  -4  -1  357.25   11.85 
   2  -4  -1  381.11   11.85 
   2  -4  -1  382.18   12.14 
   2  -4  -1  402.33   11.94 
   2  -4   0   12.78    1.91 
   2  -4   0   14.89    1.94 
   2  -4   0   15.07    1.74 
   2  -4   0   16.30    1.83 
   2  -4   1 1222.94   31.37 
   2  -4   1 1194.61   30.57 
   2  -4   1 1224.53   30.89 
   2  -4   2  603.48   17.57 
   2  -4   2  608.62   16.75 
   2  -4   2  626.17   17.25 
   2  -4   2  621.64   17.45 
   2  -4   3   16.90    2.18 
   2  -4   3   15.76    1.76 
   2  -4   3   18.03    2.12 
   2  -4   4  929.91   25.57 
   2  -4   4  942.34   24.29 
   2  -4   4  956.27   24.94 
   2  -4   5  117.28    4.94 
   2  -4   5  123.22    5.98 
   2  -4   5  124.55    5.31 
   2  -4   6   -0.26    1.56 
   2  -4   6    0.51    0.95 
   2  -4   7   80.01    4.12 
   2  -4   7   81.52    3.92 
   2  -4   8  326.82   10.05 
   2  -3 -13    0.52    2.34 
   2  -3 -13    0.36    2.13 
   2  -3 -13    1.71    2.71 
   2  -3 -12   29.34    4.26 
   2  -3 -12   35.97    3.77 
   2  -3 -12   33.38    4.68 
   2  -3 -11  136.82    8.40 
   2  -3 -11  142.90    7.16 
   2  -3 -11  151.98    6.11 
   2  -3 -11  148.28    8.95 
   2  -3 -10   32.48    3.93 
   2  -3 -10   36.89    3.39 
   2  -3 -10   37.98    2.70 
   2  -3 -10   33.78    2.31 
   2  -3 -10   37.59    4.42 
   2  -3  -9  158.81    8.06 
   2  -3  -9  144.38    5.60 
   2  -3  -9  144.27    6.20 
   2  -3  -9  149.82    6.55 
   2  -3  -9  144.35    5.66 
   2  -3  -9  147.98    8.25 
   2  -3  -9  148.25    5.41 
   2  -3  -8   19.61    2.20 
   2  -3  -8   18.76    2.84 
   2  -3  -8   21.55    1.88 
   2  -3  -8   19.71    3.09 
   2  -3  -7    0.93    1.06 
   2  -3  -7    1.69    1.31 
   2  -3  -7    0.76    0.88 
   2  -3  -7    0.34    1.51 
   2  -3  -6   10.79    1.65 
   2  -3  -6    9.54    1.81 
   2  -3  -6   10.69    1.43 
   2  -3  -6    7.57    2.03 
   2  -3  -5  359.26   11.72 
   2  -3  -5  368.94   11.02 
   2  -3  -5  366.52   12.40 
   2  -3  -5  352.13   10.75 
   2  -3  -5  341.80    9.96 
   2  -3  -4  238.51    8.40 
   2  -3  -4  231.56    7.89 
   2  -3  -4  232.48    6.82 
   2  -3  -4  225.45    7.80 
   2  -3  -3  302.17    9.69 
   2  -3  -3  277.30    9.14 
   2  -3  -3  292.61    9.31 
   2  -3  -2   48.87    3.07 
   2  -3  -2   54.77    3.19 
   2  -3  -2   53.25    3.12 
   2  -3  -1    9.09    1.43 
   2  -3  -1   13.05    1.58 
   2  -3  -1    8.22    1.31 
   2  -3  -1   10.68    1.47 
   2  -3   0  370.10   10.77 
   2  -3   0  351.04   10.92 
   2  -3   0  331.53   10.26 
   2  -3   0  346.52   10.28 
   2  -3   1  521.93   14.44 
   2  -3   1  535.23   14.39 
   2  -3   2 2761.45   65.33 
   2  -3   2 2777.54   65.37 
   2  -3   2 2710.47   65.77 
   2  -3   3  399.29   11.93 
   2  -3   3  386.05   11.09 
   2  -3   3  370.67   11.37 
   2  -3   4  552.40   16.12 
   2  -3   4  557.64   15.18 
   2  -3   4  562.14   15.41 
   2  -3   5  400.21   12.57 
   2  -3   5  392.03   11.48 
   2  -3   5  393.56   11.55 
   2  -3   6   34.15    2.48 
   2  -3   6   35.41    3.17 
   2  -3   6   35.76    2.37 
   2  -3   7  125.39    6.33 
   2  -3   7  140.35    5.05 
   2  -3   7  134.75    5.19 
   2  -3   8  308.92    8.92 
   2  -3   8  289.80    8.58 
   2  -3   9  146.85    4.41 
   2  -2 -12   -0.50    2.28 
   2  -2 -12   -0.73    2.13 
   2  -2 -12   -0.47    1.33 
   2  -2 -12   -0.52    2.30 
   2  -2 -11  239.22   11.16 
   2  -2 -11  221.65    7.97 
   2  -2 -11  214.18    9.60 
   2  -2 -11  228.73    8.47 
   2  -2 -11  217.02   11.08 
   2  -2 -10  152.65    8.32 
   2  -2 -10  149.93    7.23 
   2  -2 -10  150.94    6.25 
   2  -2 -10  142.41    8.44 
   2  -2 -10  147.36    4.62 
   2  -2  -9    6.25    2.16 
   2  -2  -9    5.47    1.30 
   2  -2  -9    8.50    1.01 
   2  -2  -9    6.46    1.77 
   2  -2  -9    9.09    1.09 
   2  -2  -9    9.52    1.48 
   2  -2  -8   69.66    4.97 
   2  -2  -8   57.75    3.33 
   2  -2  -8   69.84    4.18 
   2  -2  -8   57.26    3.28 
   2  -2  -8   63.42    2.87 
   2  -2  -8   65.47    3.04 
   2  -2  -7  179.66    7.90 
   2  -2  -7  172.18    5.95 
   2  -2  -7  172.86    6.28 
   2  -2  -7  176.09    6.81 
   2  -2  -7  171.88    6.18 
   2  -2  -7  166.80    5.72 
   2  -2  -6   56.95    3.83 
   2  -2  -6   46.10    2.81 
   2  -2  -6   52.58    2.79 
   2  -2  -6   53.40    2.75 
   2  -2  -5  436.22   13.91 
   2  -2  -5  450.27   12.79 
   2  -2  -5  477.09   12.66 
   2  -2  -5  459.64   14.53 
   2  -2  -5  463.28   12.70 
   2  -2  -4  593.37   16.44 
   2  -2  -4  577.99   15.41 
   2  -2  -4  556.26   16.69 
   2  -2  -4  572.95   15.38 
   2  -2  -3   31.05    2.35 
   2  -2  -3   27.52    2.03 
   2  -2  -3   32.80    2.13 
   2  -2  -3   30.73    1.75 
   2  -2  -2  122.08    4.78 
   2  -2  -2  111.43    4.41 
   2  -2  -2  111.60    4.50 
   2  -2  -1   61.80    3.01 
   2  -2  -1   62.81    3.14 
   2  -2  -1   53.62    2.90 
   2  -2   0    1.26    0.86 
   2  -2   0    1.36    0.79 
   2  -2   0    0.78    0.76 
   2  -2   0    1.09    0.70 
   2  -2   1   19.94    1.80 
   2  -2   1   16.56    1.31 
   2  -2   2  532.45   14.43 
   2  -2   2  560.49   14.10 
   2  -2   2  533.17   14.62 
   2  -2   3 1047.10   25.67 
   2  -2   3 1008.70   25.69 
   2  -2   4   51.34    3.19 
   2  -2   4   47.57    2.66 
   2  -2   5  743.96   20.13 
   2  -2   5  734.22   19.09 
   2  -2   5  728.12   19.18 
   2  -2   5  728.39   18.81 
   2  -2   6  687.82   19.43 
   2  -2   6  683.67   17.66 
   2  -2   6  692.11   17.90 
   2  -2   7   66.65    4.23 
   2  -2   7   67.80    3.05 
   2  -2   7   66.60    2.87 
   2  -2   8  318.27    8.79 
   2  -2   8  331.39    8.69 
   2  -1 -12  134.33    8.77 
   2  -1 -12  117.42    7.54 
   2  -1 -12  132.08    6.51 
   2  -1 -11   44.24    4.98 
   2  -1 -11   45.45    4.45 
   2  -1 -11   52.49    3.80 
   2  -1 -10  345.44   14.26 
   2  -1 -10  361.52   10.54 
   2  -1 -10  348.75   13.16 
   2  -1 -10  374.95   12.03 
   2  -1  -9   86.72    6.04 
   2  -1  -9   88.09    3.84 
   2  -1  -9   84.11    3.82 
   2  -1  -9   80.83    2.54 
   2  -1  -9   85.01    5.29 
   2  -1  -9   93.29    4.68 
   2  -1  -8   29.31    1.64 
   2  -1  -8   28.47    2.07 
   2  -1  -8   33.18    3.66 
   2  -1  -8   29.19    2.96 
   2  -1  -8   30.29    1.56 
   2  -1  -8   32.63    2.58 
   2  -1  -7  295.31   11.08 
   2  -1  -7  297.55    8.68 
   2  -1  -7  285.49    8.18 
   2  -1  -7  282.24   10.01 
   2  -1  -7  289.76    9.32 
   2  -1  -7  288.38    8.01 
   2  -1  -6  241.44    9.27 
   2  -1  -6  238.48    7.26 
   2  -1  -6  244.25    8.37 
   2  -1  -6  241.23    7.79 
   2  -1  -6  235.13    7.08 
   2  -1  -6  237.86    6.94 
   2  -1  -5   41.03    3.14 
   2  -1  -5   37.50    2.10 
   2  -1  -5   38.53    2.65 
   2  -1  -5   41.18    2.41 
   2  -1  -5   42.35    2.14 
   2  -1  -5   41.82    2.22 
   2  -1  -4  506.19   14.34 
   2  -1  -4  495.22   12.80 
   2  -1  -4  462.99   12.98 
   2  -1  -4  496.85   13.17 
   2  -1  -4  486.56   12.82 
   2  -1  -3  241.36    7.90 
   2  -1  -3  233.83    6.93 
   2  -1  -3  246.61    7.20 
   2  -1  -3  241.64    7.15 
   2  -1  -2   44.62    2.51 
   2  -1  -2   44.03    2.15 
   2  -1  -2   43.82    2.25 
   2  -1  -2   45.53    2.13 
   2  -1  -1  488.11   12.72 
   2  -1  -1  457.67   12.27 
   2  -1  -1  466.20   12.46 
   2  -1   0  589.52   15.39 
   2  -1   0  605.79   15.49 
   2  -1   0  610.65   15.43 
   2  -1   0  590.10   15.43 
   2  -1   1  570.51   14.80 
   2  -1   1  534.85   14.69 
   2  -1   1  577.44   13.79 
   2  -1   2  304.22    8.98 
   2  -1   3    5.61    0.89 
   2  -1   3    3.82    0.93 
   2  -1   3    5.87    0.87 
   2  -1   4    5.68    1.20 
   2  -1   4    6.17    0.92 
   2  -1   4    5.43    1.05 
   2  -1   4    6.63    0.89 
   2  -1   5    1.05    1.08 
   2  -1   5    0.99    0.64 
   2  -1   5    0.71    0.55 
   2  -1   6  879.30   23.65 
   2  -1   6  887.30   21.85 
   2  -1   6  879.50   21.65 
   2  -1   7  651.38   16.30 
   2  -1   7  653.07   18.67 
   2  -1   7  650.48   16.17 
   2   0 -12  129.90    8.87 
   2   0 -12  132.23    8.12 
   2   0 -11   13.40    3.34 
   2   0 -11   12.10    3.07 
   2   0 -11   14.62    2.36 
   2   0 -10   90.89    6.58 
   2   0 -10   91.37    6.17 
   2   0 -10   87.30    6.05 
   2   0 -10   78.87    4.91 
   2   0  -9  577.56   19.68 
   2   0  -9  612.08   18.93 
   2   0  -9  587.69   15.04 
   2   0  -9  580.53   15.30 
   2   0  -9  592.72   18.77 
   2   0  -9  590.35   17.45 
   2   0  -8  291.93   11.51 
   2   0  -8  274.46   10.45 
   2   0  -8  273.21    7.69 
   2   0  -8  263.97    7.85 
   2   0  -8  254.43   10.29 
   2   0  -8  278.47    9.61 
   2   0  -7  509.42   16.40 
   2   0  -7  503.20   15.48 
   2   0  -7  515.27   12.86 
   2   0  -7  492.86   12.90 
   2   0  -7  483.30   12.25 
   2   0  -7  482.50   15.41 
   2   0  -7  517.83   14.69 
   2   0  -6  639.04   18.03 
   2   0  -6  633.60   15.79 
   2   0  -6  629.97   18.94 
   2   0  -6  624.19   18.09 
   2   0  -6  612.03   15.55 
   2   0  -6  673.32   17.48 
   2   0  -6  635.28   15.70 
   2   0  -5   45.92    3.40 
   2   0  -5   46.27    2.09 
   2   0  -5   46.61    1.93 
   2   0  -5   44.25    2.98 
   2   0  -5   42.91    2.64 
   2   0  -5   42.09    1.93 
   2   0  -4  144.95    5.90 
   2   0  -4  140.83    4.11 
   2   0  -4  132.83    4.48 
   2   0  -4  149.49    5.53 
   2   0  -4  147.99    5.16 
   2   0  -4  136.86    4.36 
   2   0  -3   93.01    4.23 
   2   0  -3   98.63    2.99 
   2   0  -3   94.46    3.94 
   2   0  -3   92.29    3.42 
   2   0  -3   91.05    3.66 
   2   0  -3   95.22    3.32 
   2   0  -2 1315.73   31.68 
   2   0  -2 1288.98   30.41 
   2   0  -2 1326.87   31.23 
   2   0  -2 1259.93   30.99 
   2   0  -2 1280.11   30.88 
   2   0  -1  337.28    8.95 
   2   0  -1  317.23    8.34 
   2   0  -1  308.14    8.63 
   2   0  -1  325.31    8.74 
   2   0  -1  307.42    8.63 
   2   0  -1  308.33    8.76 
   2   0  -1  344.63    8.73 
   2   0   0 1334.91   31.66 
   2   0   0 1364.73   31.85 
   2   0   0 1323.37   31.80 
   2   0   0 1300.27   31.96 
   2   0   1 1298.56   30.86 
   2   0   1 1323.25   30.81 
   2   0   1 1234.89   30.65 
   2   0   1 1280.24   30.85 
   2   0   2    3.77    0.87 
   2   0   3    2.11    0.59 
   2   0   3    1.10    0.60 
   2   0   4   34.35    1.81 
   2   0   4   35.74    1.77 
   2   0   5   13.67    1.67 
   2   0   5   10.51    0.94 
   2   0   5   11.52    1.02 
   2   0   6   75.88    4.04 
   2   0   6   75.55    2.71 
   2   0   6   75.92    2.81 
   2   1 -12  250.09   12.88 
   2   1 -12  245.68   11.98 
   2   1 -12  248.07   10.51 
   2   1 -11   22.44    3.90 
   2   1 -11   20.71    3.65 
   2   1 -11   17.05    2.74 
   2   1 -10   35.30    4.23 
   2   1 -10   34.73    4.45 
   2   1 -10   36.35    4.14 
   2   1 -10   37.12    3.56 
   2   1  -9  204.70    5.74 
   2   1  -9  207.45    9.75 
   2   1  -9  217.76    9.75 
   2   1  -9  215.27    8.65 
   2   1  -9  203.35   10.07 
   2   1  -8  587.96   18.86 
   2   1  -8  582.67   14.36 
   2   1  -8  583.64   18.66 
   2   1  -8  586.47   17.46 
   2   1  -8  596.19   19.36 
   2   1  -7   15.51    2.63 
   2   1  -7   12.80    0.90 
   2   1  -7   13.96    2.55 
   2   1  -7    9.84    2.23 
   2   1  -7   11.89    1.86 
   2   1  -6 1500.42   38.03 
   2   1  -6 1482.42   34.03 
   2   1  -6 1454.19   34.16 
   2   1  -6 1425.30   34.20 
   2   1  -6 1481.31   37.79 
   2   1  -6 1455.58   36.90 
   2   1  -6 1508.64   38.63 
   2   1  -5 1095.74   28.52 
   2   1  -5 1056.00   25.69 
   2   1  -5 1066.00   28.27 
   2   1  -5 1095.16   27.74 
   2   1  -5 1159.61   29.14 
   2   1  -4    5.73    0.71 
   2   1  -4    3.74    1.30 
   2   1  -4    5.90    1.44 
   2   1  -4    4.54    1.04 
   2   1  -3   74.74    3.77 
   2   1  -3   79.68    2.74 
   2   1  -3   80.72    2.83 
   2   1  -3   85.79    3.78 
   2   1  -3   80.08    3.53 
   2   1  -3   75.82    2.90 
   2   1  -2   37.11    1.62 
   2   1  -2   38.01    2.19 
   2   1  -2   34.75    1.69 
   2   1  -2   36.25    2.05 
   2   1  -2   33.12    1.75 
   2   1  -2   36.30    2.22 
   2   1  -1  509.87   12.25 
   2   1  -1  485.95   12.57 
   2   1  -1  502.86   12.81 
   2   1  -1  528.29   13.13 
   2   1  -1  510.55   12.95 
   2   1   0  183.64    5.07 
   2   1   0  173.13    5.13 
   2   1   0  174.09    5.22 
   2   1   0  176.87    5.21 
   2   1   0  173.00    5.33 
   2   1   0  178.24    5.20 
   2   1   1 4667.62  105.74 
   2   1   1 4551.92  105.69 
   2   1   1 4516.68  105.55 
   2   1   1 4544.97  105.70 
   2   1   2  224.71    6.72 
   2   1   2  217.31    6.54 
   2   1   3    5.32    1.02 
   2   1   4  193.09    5.55 
   2   1   5  335.56    8.80 
   2   1   6   14.42    0.99 
   2   2 -11  191.85   10.45 
   2   2 -11  202.44    9.34 
   2   2 -11  198.78   11.07 
   2   2 -10  160.17    9.38 
   2   2 -10  152.69    8.87 
   2   2 -10  179.84    8.37 
   2   2 -10  168.32    9.65 
   2   2  -9  107.69    7.15 
   2   2  -9  103.05    6.70 
   2   2  -9  102.58    5.96 
   2   2  -9  109.29    7.18 
   2   2  -8   64.41    5.22 
   2   2  -8   58.61    1.99 
   2   2  -8   53.74    4.77 
   2   2  -8   69.05    4.50 
   2   2  -7    0.68    1.85 
   2   2  -7    1.07    0.41 
   2   2  -7    0.60    0.32 
   2   2  -7    0.58    0.31 
   2   2  -7   -0.31    1.94 
   2   2  -7   -0.50    1.20 
   2   2  -6  125.20    6.51 
   2   2  -6  113.77    3.18 
   2   2  -6  121.78    3.25 
   2   2  -6  116.03    6.11 
   2   2  -6  123.63    5.73 
   2   2  -5 1907.30   46.79 
   2   2  -5 1810.10   42.48 
   2   2  -5 1916.08   46.40 
   2   2  -5 1909.94   45.69 
   2   2  -4  729.72   18.54 
   2   2  -4  772.96   17.87 
   2   2  -4  778.95   20.92 
   2   2  -4  740.00   20.33 
   2   2  -3  659.73   16.32 
   2   2  -3  654.00   15.60 
   2   2  -3  670.10   17.95 
   2   2  -3  663.03   17.64 
   2   2  -2  235.19    6.51 
   2   2  -2  227.25    5.93 
   2   2  -2  224.45    7.36 
   2   2  -2  227.38    7.25 
   2   2  -1    3.72    0.70 
   2   2  -1    3.38    0.54 
   2   2  -1    2.98    0.86 
   2   2  -1    3.96    0.79 
   2   2   0   72.19    2.73 
   2   2   0   71.35    2.77 
   2   2   1    2.40    0.65 
   2   2   1    2.71    0.78 
   2   2   2   55.20    2.34 
   2   2   3   16.55    1.29 
   2   2   4  420.75   10.99 
   2   2   4  429.88   11.51 
   2   2   5  978.10   23.63 
   2   2   6  377.11    9.81 
   2   3 -11   74.29    7.01 
   2   3 -11   72.75    6.59 
   2   3 -11   79.94    5.94 
   2   3 -10   84.30    6.74 
   2   3 -10   93.60    6.16 
   2   3 -10   80.25    6.81 
   2   3  -9    7.13    2.92 
   2   3  -9    4.73    2.46 
   2   3  -9   11.07    2.39 
   2   3  -8  145.54    8.43 
   2   3  -8  135.34    7.78 
   2   3  -8  133.77    7.06 
   2   3  -7  426.87   15.20 
   2   3  -7  386.20    9.95 
   2   3  -7  412.92   14.48 
   2   3  -7  407.54   13.69 
   2   3  -6    6.83    2.21 
   2   3  -6    4.30    0.65 
   2   3  -6    3.97    1.93 
   2   3  -6    3.14    1.48 
   2   3  -5   54.12    4.31 
   2   3  -5   46.02    1.89 
   2   3  -5   53.65    3.94 
   2   3  -5   51.97    3.60 
   2   3  -4  362.05   12.06 
   2   3  -4  337.32    8.77 
   2   3  -4  341.62   11.40 
   2   3  -4  342.76   11.10 
   2   3  -3  238.85    8.20 
   2   3  -3  248.53    7.44 
   2   3  -2  516.49   14.45 
   2   3  -2  517.26   13.94 
   2   3  -1 2149.97   50.63 
   2   3  -1 2184.18   51.38 
   2   3  -1 2182.01   51.25 
   2   3  -1 2052.25   51.61 
   2   3   0   28.46    1.68 
   2   3   0   24.86    1.86 
   2   3   0   27.43    2.02 
   2   3   1  136.41    4.64 
   2   3   1  151.99    5.20 
   2   3   1  140.07    5.04 
   2   3   2    3.44    0.51 
   2   3   2    3.25    0.71 
   2   3   2    3.49    0.56 
   2   3   2    5.33    0.96 
   2   3   3    1.39    0.32 
   2   3   4  679.27   17.86 
   2   3   5  167.61    6.22 
   2   3   5  180.43    5.96 
   2   3   6  745.01   19.18 
   2   4 -10   89.34    7.14 
   2   4 -10   82.11    6.24 
   2   4  -9    4.66    2.89 
   2   4  -9    3.50    1.95 
   2   4  -8    3.36    2.55 
   2   4  -8    1.69    2.38 
   2   4  -8    3.95    1.97 
   2   4  -7  280.35    8.07 
   2   4  -7  296.46   12.13 
   2   4  -7  292.39   11.41 
   2   4  -6  416.53   15.46 
   2   4  -6  419.46   11.18 
   2   4  -6  403.46   14.71 
   2   4  -6  427.35   14.38 
   2   4  -5   32.64    1.91 
   2   4  -5   28.44    2.95 
   2   4  -5   31.13    2.25 
   2   4  -5   25.23    2.96 
   2   4  -4  347.96    9.90 
   2   4  -4  363.80   12.13 
   2   4  -4  368.98   10.77 
   2   4  -4  370.40   12.33 
   2   4  -3  202.71    7.90 
   2   4  -3  211.61    7.13 
   2   4  -3  201.29    7.94 
   2   4  -2 1037.14   27.40 
   2   4  -2 1090.23   26.91 
   2   4  -2 1019.60   27.59 
   2   4  -1 1075.05   26.97 
   2   4  -1 1033.88   27.32 
   2   4   0 3429.60   79.46 
   2   4   0 3392.44   80.26 
   2   4   0 3322.36   80.46 
   2   4   1  137.08    4.48 
   2   4   1  148.01    5.55 
   2   4   1  136.01    5.49 
   2   4   2  361.09    9.86 
   2   4   2  391.55   10.24 
   2   4   2  397.48   11.45 
   2   4   2  371.93   11.32 
   2   4   2  402.28    9.83 
   2   4   3   11.98    0.97 
   2   4   3   12.31    0.91 
   2   4   3   13.64    1.61 
   2   4   4  217.24    6.34 
   2   4   4  224.27    5.53 
   2   4   5  187.54    7.17 
   2   4   5  199.70    6.94 
   2   4   5  197.88    6.08 
   2   4   6  350.94   11.58 
   2   4   6  384.39   11.18 
   2   4   7  637.32   17.26 
   2   4   8   46.06    2.73 
   2   5  -9   64.16    5.62 
   2   5  -8    3.64    2.37 
   2   5  -7  235.94   10.54 
   2   5  -6  217.65    7.25 
   2   5  -6  221.80    9.82 
   2   5  -6  230.17    7.74 
   2   5  -5   85.75    3.95 
   2   5  -5   90.14    5.66 
   2   5  -5  101.30    4.60 
   2   5  -5   89.04    5.58 
   2   5  -4   13.20    2.55 
   2   5  -4   11.99    2.20 
   2   5  -4   13.50    2.31 
   2   5  -4   16.57    1.95 
   2   5  -3  624.38   18.63 
   2   5  -3  667.05   19.03 
   2   5  -3  643.53   17.79 
   2   5  -2  627.56   17.71 
   2   5  -2  604.04   17.97 
   2   5  -2  625.34   17.54 
   2   5  -2  609.92   18.07 
   2   5  -1  698.78   18.65 
   2   5  -1  678.80   19.00 
   2   5  -1  662.72   19.25 
   2   5   0 1405.72   34.34 
   2   5   0 1421.86   35.53 
   2   5   0 1352.52   35.47 
   2   5   1 2329.16   56.70 
   2   5   1 2417.79   56.47 
   2   5   1 2443.02   57.29 
   2   5   1 2382.64   58.22 
   2   5   1 2385.11   58.18 
   2   5   2  128.18    4.52 
   2   5   2  133.28    4.78 
   2   5   2  127.58    5.66 
   2   5   2  132.16    5.75 
   2   5   3  793.70   19.66 
   2   5   3  789.98   19.53 
   2   5   3  764.25   21.33 
   2   5   3  778.76   21.33 
   2   5   4  412.22   11.18 
   2   5   4  413.80   10.45 
   2   5   5  413.75   11.28 
   2   5   5  396.79   12.48 
   2   5   6  193.70    8.04 
   2   5   6  216.84    7.80 
   2   5   6  211.13    6.86 
   2   5   7  115.72    5.90 
   2   5   7  114.44    5.23 
   2   5   8   32.45    2.61 
   2   5   9    0.76    1.02 
   2   5  10  414.74   12.41 
   2   6  -8   33.95    4.77 
   2   6  -8   39.72    4.50 
   2   6  -7  124.99    8.08 
   2   6  -7  136.75    7.98 
   2   6  -6  300.83   12.68 
   2   6  -6  305.79   12.58 
   2   6  -6  305.52   10.22 
   2   6  -5  137.91    7.56 
   2   6  -5  142.50    7.59 
   2   6  -5  138.34    6.18 
   2   6  -4   20.02    2.94 
   2   6  -4   23.19    3.00 
   2   6  -4   20.75    2.35 
   2   6  -4   20.32    3.00 
   2   6  -3  239.52    9.37 
   2   6  -3  230.82    9.60 
   2   6  -3  225.27    8.71 
   2   6  -3  234.34    9.46 
   2   6  -2 1064.49   28.07 
   2   6  -2 1073.80   28.19 
   2   6  -2  993.71   28.30 
   2   6  -1   65.55    3.95 
   2   6  -1   61.84    4.10 
   2   6  -1   67.42    4.37 
   2   6   0  915.42   23.83 
   2   6   0  917.90   23.67 
   2   6   0  923.58   24.52 
   2   6   0  887.57   24.94 
   2   6   0  887.22   24.91 
   2   6   1  477.38   13.88 
   2   6   1  496.60   13.46 
   2   6   1  501.94   14.44 
   2   6   1  506.67   15.35 
   2   6   1  493.00   15.21 
   2   6   2  263.72    8.49 
   2   6   2  280.46    8.82 
   2   6   2  285.25   10.04 
   2   6   2  280.14    9.99 
   2   6   3  113.37    4.58 
   2   6   3  124.14    4.71 
   2   6   3  116.61    5.77 
   2   6   3  120.26    5.90 
   2   6   3  121.50    3.50 
   2   6   4 3495.62   82.40 
   2   6   4 3549.67   81.79 
   2   6   4 3412.69   84.51 
   2   6   5  168.89    5.97 
   2   6   5  169.23    4.85 
   2   6   6  179.94    6.51 
   2   6   6  189.90    7.68 
   2   6   7   47.46    3.92 
   2   6   7   48.57    3.52 
   2   6   7   41.93    2.87 
   2   6   8    5.79    1.53 
   2   6   8    8.12    2.16 
   2   6   9    3.80    1.46 
   2   6  10  131.82    6.08 
   2   6  11  254.84    9.12 
   2   7  -7   10.09    2.98 
   2   7  -7   10.34    2.82 
   2   7  -6   89.83    6.69 
   2   7  -6  115.17    7.38 
   2   7  -5   89.05    6.42 
   2   7  -5   98.09    6.68 
   2   7  -5  107.73    5.65 
   2   7  -4  102.83    6.28 
   2   7  -4  108.31    6.72 
   2   7  -4   96.56    5.53 
   2   7  -3  139.58    7.19 
   2   7  -3  146.12    6.93 
   2   7  -2  725.08   20.91 
   2   7  -2  729.33   21.27 
   2   7  -2  692.77   21.41 
   2   7  -1   12.17    1.95 
   2   7  -1   16.27    2.25 
   2   7  -1   15.71    2.56 
   2   7  -1   19.23    2.51 
   2   7  -1   13.36    2.53 
   2   7   0   40.34    3.06 
   2   7   0   40.33    2.91 
   2   7   0   39.15    3.33 
   2   7   0   40.00    3.53 
   2   7   0   38.02    3.45 
   2   7   1  312.38   10.46 
   2   7   1  349.20   10.08 
   2   7   1  352.89   11.35 
   2   7   1  317.19   11.86 
   2   7   1  325.05   11.82 
   2   7   2  323.05   10.31 
   2   7   2  319.25   10.60 
   2   7   2  341.88    9.31 
   2   7   2  325.84   11.93 
   2   7   2  317.97   11.70 
   2   7   3  113.81    4.86 
   2   7   3  112.35    4.87 
   2   7   3  110.64    6.06 
   2   7   3  113.26    6.02 
   2   7   4  728.30   19.99 
   2   7   4  770.07   19.66 
   2   7   4  765.80   22.30 
   2   7   4  763.87   22.23 
   2   7   5  489.10   14.11 
   2   7   5  498.02   13.05 
   2   7   6  127.80    5.46 
   2   7   6  132.98    3.93 
   2   7   6  132.25    6.65 
   2   7   7  347.44   11.13 
   2   7   7  351.18   13.02 
   2   7   7  366.77   12.61 
   2   7   8  153.13    7.17 
   2   7   8  139.11    6.11 
   2   7   9   12.05    2.06 
   2   7  10   58.37    4.21 
   2   7  11   93.38    5.38 
   2   7  12   49.65    3.75 
   2   8  -6   29.40    4.16 
   2   8  -6   13.68    3.40 
   2   8  -5   19.86    3.58 
   2   8  -5   30.16    4.08 
   2   8  -5   23.26    3.01 
   2   8  -4  161.15    8.44 
   2   8  -4  154.64    7.74 
   2   8  -3   39.79    4.00 
   2   8  -3   42.75    3.88 
   2   8  -2  257.96   10.17 
   2   8  -2  255.30   10.93 
   2   8  -2  261.90   10.72 
   2   8  -1  121.43    6.04 
   2   8  -1  121.05    6.76 
   2   8  -1  128.39    6.89 
   2   8   0   78.63    4.64 
   2   8   0   72.97    4.22 
   2   8   0   71.42    4.85 
   2   8   0   83.58    5.42 
   2   8   1   22.87    2.43 
   2   8   1   20.88    2.06 
   2   8   1   20.39    2.52 
   2   8   1   24.32    3.08 
   2   8   2  339.85   11.01 
   2   8   2  330.84   11.24 
   2   8   2  314.81    9.54 
   2   8   2  338.38   12.61 
   2   8   2  326.05   12.27 
   2   8   3   10.42    1.76 
   2   8   3    6.60    1.53 
   2   8   3    7.43    2.12 
   2   8   3    3.58    2.11 
   2   8   4  356.44   11.46 
   2   8   4  366.90   11.22 
   2   8   4  362.28   13.40 
   2   8   4  379.57   13.54 
   2   8   5  240.46    8.65 
   2   8   5  252.77    7.94 
   2   8   6  127.49    5.81 
   2   8   6  142.04    4.73 
   2   8   7   40.88    3.22 
   2   8   7   45.14    1.62 
   2   8   8  203.23    7.93 
   2   8   8  197.57    9.06 
   2   8   9  426.78   14.83 
   2   8   9  415.90   13.49 
   2   8  10   46.09    4.17 
   2   8  11  130.24    6.98 
   2   8  12   15.65    2.50 
   2   9  -4   21.47    3.59 
   2   9  -4   25.64    3.35 
   2   9  -3   24.15    3.45 
   2   9  -3   24.64    3.87 
   2   9  -3   26.44    3.53 
   2   9  -2   59.94    5.15 
   2   9  -2   48.53    4.25 
   2   9  -2   56.40    4.88 
   2   9  -1  102.34    5.82 
   2   9  -1  113.77    6.89 
   2   9  -1  110.02    6.78 
   2   9   0  191.02    7.50 
   2   9   0  166.25    8.44 
   2   9   0  181.02    9.04 
   2   9   1   55.98    3.39 
   2   9   1   53.93    4.32 
   2   9   1   48.39    4.64 
   2   9   2  253.88    9.60 
   2   9   2  250.91    9.86 
   2   9   2  248.15    7.91 
   2   9   2  273.45   11.48 
   2   9   3  179.91    7.59 
   2   9   3  189.35    7.78 
   2   9   3  182.53    9.21 
   2   9   4    3.21    1.48 
   2   9   4    2.13    1.32 
   2   9   4    2.35    1.92 
   2   9   5   93.62    5.05 
   2   9   5   98.21    4.58 
   2   9   5   96.51    6.55 
   2   9   6  164.24    7.25 
   2   9   6  186.65    6.27 
   2   9   7   27.50    2.87 
   2   9   7   31.48    1.80 
   2   9   7   26.96    3.54 
   2   9   8   46.75    3.69 
   2   9   8   44.96    4.34 
   2   9   9  265.18   10.08 
   2   9  10  167.65    8.72 
   2   9  10  164.42    7.57 
   2   9  11   30.48    3.71 
   2   9  12  102.24    6.47 
   2  10  -2    1.34    1.94 
   2  10  -2   -0.46    2.20 
   2  10  -2    0.43    2.28 
   2  10  -1    0.29    1.83 
   2  10  -1   -0.44    1.84 
   2  10   0   54.96    3.99 
   2  10   0   66.52    5.26 
   2  10   0   59.41    5.22 
   2  10   1   50.60    3.40 
   2  10   1   50.93    4.53 
   2  10   1   52.03    4.98 
   2  10   2   74.79    5.22 
   2  10   2   72.66    6.00 
   2  10   3  186.08    8.23 
   2  10   3  186.44    9.85 
   2  10   4  300.67   10.76 
   2  10   4  286.14   12.83 
   2  10   5   11.38    2.15 
   2  10   5   10.99    1.88 
   2  10   5    8.04    2.56 
   2  10   6  250.26    9.74 
   2  10   6  251.29    8.49 
   2  10   7  214.27    8.98 
   2  10   7  222.17    7.11 
   2  10   7  221.88   10.72 
   2  10   8    0.28    1.66 
   2  10   8   -0.89    1.95 
   2  10   9  149.53    8.57 
   2  10  10  124.61    7.75 
   2  10  11   10.90    2.99 
   2  11   1   37.40    2.96 
   2  11   1   43.56    4.47 
   2  11   2    4.53    2.43 
   2  11   3   28.32    3.37 
   2  11   3   22.70    3.70 
   2  11   4  202.42    8.72 
   2  11   4  210.85   11.08 
   2  11   5   21.78    2.62 
   2  11   5   19.17    3.60 
   2  11   6   62.44    3.90 
   2  11   7  348.61   10.67 
   2  11   8    5.52    2.79 
   2  11   9  158.95    9.46 
   3  -9  -6   -0.45    1.90 
   3  -9  -6    1.50    2.19 
   3  -9  -5   13.22    2.87 
   3  -9  -5   10.52    3.16 
   3  -9  -4    5.05    2.41 
   3  -9  -3   12.90    3.13 
   3  -9  -2   44.06    4.79 
   3  -8  -9   13.08    3.29 
   3  -8  -9   24.57    4.49 
   3  -8  -8  152.79    8.55 
   3  -8  -8  132.74    8.97 
   3  -8  -7  225.93   10.58 
   3  -8  -7  201.70   10.99 
   3  -8  -6    2.47    1.96 
   3  -8  -6    3.25    2.68 
   3  -8  -5  124.60    7.53 
   3  -8  -5  116.88    7.54 
   3  -8  -4   16.50    3.04 
   3  -8  -4   16.59    3.19 
   3  -8  -3  165.55    8.86 
   3  -8  -3  159.47    8.59 
   3  -8  -2   24.32    3.51 
   3  -8  -1   57.67    4.87 
   3  -8   0   58.52    5.01 
   3  -8   1    5.48    2.31 
   3  -7 -10  108.34    7.46 
   3  -7  -8    4.11    2.34 
   3  -7  -8    1.98    2.64 
   3  -7  -7  314.67   12.78 
   3  -7  -7  306.62   13.38 
   3  -7  -6  285.31   11.91 
   3  -7  -6  294.41   12.62 
   3  -7  -5   21.01    3.16 
   3  -7  -5   23.69    3.61 
   3  -7  -4  312.17   12.31 
   3  -7  -4  296.06   12.25 
   3  -7  -3  237.13   10.48 
   3  -7  -3  250.73   10.65 
   3  -7  -2    7.17    2.16 
   3  -7  -2    6.77    2.06 
   3  -7  -1    2.30    1.67 
   3  -7   0  104.40    6.16 
   3  -7   1   86.69    5.64 
   3  -6 -11    8.32    2.78 
   3  -6 -11   11.51    3.61 
   3  -6 -10  136.85    8.12 
   3  -6  -9  110.07    7.04 
   3  -6  -8  115.27    7.08 
   3  -6  -7   66.03    5.14 
   3  -6  -7   62.38    5.54 
   3  -6  -6  291.54   11.74 
   3  -6  -6  302.23   12.52 
   3  -6  -5   42.30    3.97 
   3  -6  -5   40.04    4.17 
   3  -6  -4  185.44    8.49 
   3  -6  -4  157.55    8.12 
   3  -6  -3 1181.16   32.64 
   3  -6  -3 1172.58   32.51 
   3  -6  -2  304.36   11.73 
   3  -6  -2  294.85   11.23 
   3  -6  -1  133.88    6.69 
   3  -6   0   75.65    4.67 
   3  -6   0   77.54    4.91 
   3  -6   1   28.27    2.94 
   3  -6   1   41.26    3.45 
   3  -6   2   47.51    3.60 
   3  -6   3  152.74    6.72 
   3  -6   4  152.55    6.67 
   3  -6   6   99.70    5.90 
   3  -5 -11    2.28    2.16 
   3  -5 -11    2.77    3.08 
   3  -5 -10   55.18    4.95 
   3  -5 -10   49.41    3.92 
   3  -5 -10   52.35    5.58 
   3  -5 -10   51.47    3.28 
   3  -5  -9  397.42   14.94 
   3  -5  -9  404.36   16.01 
   3  -5  -9  385.89   11.68 
   3  -5  -8  454.43   13.03 
   3  -5  -8  477.15   16.45 
   3  -5  -8  467.63   14.75 
   3  -5  -7   26.70    2.93 
   3  -5  -7   29.54    3.45 
   3  -5  -7   29.08    3.00 
   3  -5  -6   53.61    4.33 
   3  -5  -6   56.16    4.07 
   3  -5  -6   55.46    4.76 
   3  -5  -6   47.74    3.73 
   3  -5  -5  272.43   10.27 
   3  -5  -5  290.53   11.09 
   3  -5  -5  289.60   11.55 
   3  -5  -5  277.97   10.40 
   3  -5  -4   83.01    4.89 
   3  -5  -4   81.56    5.09 
   3  -5  -4   67.65    4.87 
   3  -5  -4   75.17    4.72 
   3  -5  -3  488.72   15.40 
   3  -5  -3  497.93   15.91 
   3  -5  -3  492.24   15.74 
   3  -5  -3  485.25   15.49 
   3  -5  -2  734.23   21.31 
   3  -5  -2  765.33   21.87 
   3  -5  -2  727.84   21.43 
   3  -5  -2  743.31   21.33 
   3  -5  -1   10.17    2.00 
   3  -5  -1    9.92    2.06 
   3  -5  -1   11.13    2.10 
   3  -5  -1   11.46    1.99 
   3  -5   0  648.97   19.44 
   3  -5   0  666.43   19.04 
   3  -5   0  686.19   19.11 
   3  -5   0  633.81   19.38 
   3  -5   1  481.50   14.81 
   3  -5   1  506.60   15.01 
   3  -5   1  480.23   15.43 
   3  -5   2    5.16    1.65 
   3  -5   2    4.10    1.67 
   3  -5   2    4.82    1.38 
   3  -5   3    2.75    1.48 
   3  -5   3    1.01    1.38 
   3  -5   4    2.74    1.47 
   3  -5   4    5.19    1.69 
   3  -5   5  119.21    5.59 
   3  -5   6   19.56    2.60 
   3  -5   7  133.14    6.42 
   3  -4 -12    4.47    2.49 
   3  -4 -12    5.19    3.03 
   3  -4 -11   88.37    6.68 
   3  -4 -11   81.77    6.96 
   3  -4 -10   15.59    3.24 
   3  -4 -10   14.21    2.01 
   3  -4 -10   17.97    3.61 
   3  -4  -9   85.74    6.11 
   3  -4  -9   93.26    5.18 
   3  -4  -9  102.54    5.29 
   3  -4  -9  108.90    7.29 
   3  -4  -9   98.54    4.94 
   3  -4  -9   94.18    4.71 
   3  -4  -8  425.61   15.28 
   3  -4  -8  408.54   13.53 
   3  -4  -8  436.79   16.30 
   3  -4  -8  442.16   13.46 
   3  -4  -8  438.94   12.81 
   3  -4  -7   12.69    2.10 
   3  -4  -7    6.85    2.14 
   3  -4  -7   10.00    1.88 
   3  -4  -7   10.20    1.46 
   3  -4  -6  227.38    8.70 
   3  -4  -6  238.40    9.76 
   3  -4  -6  236.97    8.80 
   3  -4  -6  240.72    7.59 
   3  -4  -5  771.71   22.14 
   3  -4  -5  750.83   21.10 
   3  -4  -5  746.23   22.46 
   3  -4  -5  744.74   21.04 
   3  -4  -4  585.29   17.85 
   3  -4  -4  558.63   16.99 
   3  -4  -4  604.70   18.16 
   3  -4  -4  600.09   17.29 
   3  -4  -3   12.10    1.99 
   3  -4  -3   13.37    2.13 
   3  -4  -3   14.24    2.04 
   3  -4  -3   16.86    2.39 
   3  -4  -2  653.59   18.87 
   3  -4  -2  643.04   19.31 
   3  -4  -2  685.33   19.05 
   3  -4  -2  670.00   19.04 
   3  -4  -1  187.85    7.57 
   3  -4  -1  190.42    7.94 
   3  -4  -1  200.76    7.62 
   3  -4  -1  193.38    7.40 
   3  -4  -1  198.29    7.77 
   3  -4   0   43.46    3.33 
   3  -4   0   48.38    3.61 
   3  -4   0   53.15    3.40 
   3  -4   0   48.32    3.16 
   3  -4   1  615.48   17.96 
   3  -4   1  675.02   17.89 
   3  -4   1  631.17   18.44 
   3  -4   2  306.26   10.18 
   3  -4   2  320.04    9.99 
   3  -4   2  300.58   10.49 
   3  -4   3   22.80    2.67 
   3  -4   3   21.93    2.31 
   3  -4   3   18.45    2.28 
   3  -4   4  125.60    5.57 
   3  -4   4  123.45    5.76 
   3  -4   5   15.47    2.02 
   3  -4   5   12.62    1.86 
   3  -4   6   55.50    3.77 
   3  -4   6   50.80    3.41 
   3  -4   6   49.63    3.39 
   3  -4   7    2.17    1.34 
   3  -4   8   86.33    4.50 
   3  -3 -12   34.55    4.56 
   3  -3 -12   30.09    4.75 
   3  -3 -11  170.83    9.54 
   3  -3 -11  164.43    9.93 
   3  -3 -10  272.97   11.95 
   3  -3 -10  264.87    8.88 
   3  -3 -10  260.47   12.34 
   3  -3  -9    8.12    1.62 
   3  -3  -9    9.29    2.65 
   3  -3  -9    8.08    1.46 
   3  -3  -9    7.54    1.54 
   3  -3  -9    7.11    2.82 
   3  -3  -8  468.18   16.35 
   3  -3  -8  470.26   14.29 
   3  -3  -8  474.65   14.19 
   3  -3  -8  484.80   17.17 
   3  -3  -8  485.34   13.95 
   3  -3  -7   17.30    2.07 
   3  -3  -7   19.92    2.82 
   3  -3  -7   13.30    1.79 
   3  -3  -7   16.28    2.95 
   3  -3  -6    5.23    1.19 
   3  -3  -6    7.59    1.53 
   3  -3  -6    8.33    2.09 
   3  -3  -6    8.56    1.52 
   3  -3  -5  644.68   16.56 
   3  -3  -5  631.55   18.64 
   3  -3  -5  591.86   17.18 
   3  -3  -5  596.66   17.28 
   3  -3  -4 1075.75   29.25 
   3  -3  -4 1089.14   28.29 
   3  -3  -4 1094.65   28.45 
   3  -3  -4 1113.22   27.32 
   3  -3  -3    3.78    1.32 
   3  -3  -3    1.80    1.18 
   3  -3  -3    1.53    0.96 
   3  -3  -3    2.29    1.20 
   3  -3  -2  674.03   19.17 
   3  -3  -2  742.15   19.95 
   3  -3  -2  717.42   19.50 
   3  -3  -2  688.69   19.38 
   3  -3  -1  328.19   10.68 
   3  -3  -1  349.14   11.16 
   3  -3  -1  335.50   10.43 
   3  -3  -1  335.69   10.86 
   3  -3   0  560.74   16.10 
   3  -3   0  570.05   16.57 
   3  -3   0  568.09   15.92 
   3  -3   0  558.23   15.46 
   3  -3   1   87.19    4.53 
   3  -3   1   89.26    4.33 
   3  -3   1   87.39    3.88 
   3  -3   1   93.31    4.55 
   3  -3   2  829.25   22.66 
   3  -3   2  877.28   22.08 
   3  -3   2  873.51   23.07 
   3  -3   3  563.00   17.18 
   3  -3   3  607.78   16.63 
   3  -3   3  599.73   16.80 
   3  -3   4   44.64    3.46 
   3  -3   4   36.05    2.81 
   3  -3   4   37.65    2.75 
   3  -3   5  192.01    8.03 
   3  -3   5  186.64    7.29 
   3  -3   5  193.70    7.20 
   3  -3   5  185.11    6.94 
   3  -3   6    3.13    1.27 
   3  -3   6    3.83    1.34 
   3  -3   6    5.44    1.32 
   3  -3   7    0.73    1.03 
   3  -3   7   -1.13    1.04 
   3  -3   8    8.22    1.50 
   3  -3   9  369.14   10.73 
   3  -2 -12   11.03    3.30 
   3  -2 -12   12.38    3.50 
   3  -2 -11  174.70    9.82 
   3  -2 -11  176.57    7.43 
   3  -2 -11  155.68    9.62 
   3  -2 -10  224.01   10.88 
   3  -2 -10  236.88    8.77 
   3  -2 -10  227.23   11.37 
   3  -2  -9   35.10    2.56 
   3  -2  -9   33.56    3.93 
   3  -2  -9   35.83    2.45 
   3  -2  -9   36.18    2.92 
   3  -2  -9   32.93    4.07 
   3  -2  -8  138.88    7.53 
   3  -2  -8  134.22    5.48 
   3  -2  -8  148.48    6.09 
   3  -2  -8  143.20    5.63 
   3  -2  -8  146.45    5.43 
   3  -2  -7   67.20    4.74 
   3  -2  -7   55.28    3.18 
   3  -2  -7   62.21    3.52 
   3  -2  -7   57.09    3.15 
   3  -2  -7   61.75    3.45 
   3  -2  -6  267.93    9.95 
   3  -2  -6  242.67    8.38 
   3  -2  -6  236.91    7.93 
   3  -2  -6  255.07    8.34 
   3  -2  -6  232.36    9.92 
   3  -2  -6  237.64    8.00 
   3  -2  -5  296.23   10.48 
   3  -2  -5  290.06    8.95 
   3  -2  -5  274.33    9.33 
   3  -2  -5  285.89    9.08 
   3  -2  -5  290.58    9.06 
   3  -2  -4 1738.47   43.23 
   3  -2  -4 1691.09   41.74 
   3  -2  -4 1692.42   42.06 
   3  -2  -4 1740.43   41.63 
   3  -2  -3  678.47   18.81 
   3  -2  -3  649.08   17.80 
   3  -2  -3  650.01   18.05 
   3  -2  -3  700.05   17.50 
   3  -2  -2   95.36    4.29 
   3  -2  -2  102.71    4.77 
   3  -2  -2  103.89    4.67 
   3  -2  -2   98.17    4.44 
   3  -2  -1  221.42    7.52 
   3  -2  -1  231.30    7.87 
   3  -2  -1  222.77    7.61 
   3  -2  -1  221.71    7.44 
   3  -2  -1  228.37    7.71 
   3  -2   0  242.02    8.17 
   3  -2   0  242.09    8.31 
   3  -2   0  257.40    7.61 
   3  -2   0  242.52    8.16 
   3  -2   1    1.16    1.05 
   3  -2   1    1.69    0.63 
   3  -2   2  437.13   12.63 
   3  -2   2  436.29   13.03 
   3  -2   2  441.37   12.72 
   3  -2   2  434.98   11.51 
   3  -2   3 2389.23   57.99 
   3  -2   3 2434.49   58.00 
   3  -2   4  103.45    5.11 
   3  -2   4   95.79    4.56 
   3  -2   4  104.47    4.61 
   3  -2   4   93.89    4.30 
   3  -2   5  224.81    8.73 
   3  -2   5  239.97    8.16 
   3  -2   5  226.19    7.66 
   3  -2   5  236.86    8.03 
   3  -2   6  507.06   15.13 
   3  -2   6  488.27   13.92 
   3  -2   6  441.31   13.39 
   3  -2   6  457.04   13.14 
   3  -2   7  167.98    7.64 
   3  -2   7  176.81    6.39 
   3  -2   7  170.74    6.05 
   3  -2   8    2.33    0.95 
   3  -2   8    3.29    0.93 
   3  -2   9   64.26    2.92 
   3  -1 -12   45.30    5.42 
   3  -1 -12   60.07    5.23 
   3  -1 -12   49.48    4.02 
   3  -1 -11  192.09   10.66 
   3  -1 -11  192.19    9.27 
   3  -1 -11  207.64    8.51 
   3  -1 -10  463.79   17.58 
   3  -1 -10  452.15   15.98 
   3  -1 -10  503.83   15.23 
   3  -1  -9   16.70    3.04 
   3  -1  -9   17.43    2.75 
   3  -1  -9   13.49    1.34 
   3  -1  -9   15.01    2.10 
   3  -1  -8   40.81    2.44 
   3  -1  -8   40.60    2.33 
   3  -1  -8   43.36    4.20 
   3  -1  -8   45.66    3.67 
   3  -1  -8   38.73    2.25 
   3  -1  -8   38.58    3.01 
   3  -1  -7    2.21    0.81 
   3  -1  -7    0.32    1.38 
   3  -1  -7    1.93    0.79 
   3  -1  -7    1.65    1.36 
   3  -1  -7    1.66    0.88 
   3  -1  -7    0.39    0.89 
   3  -1  -6   98.43    5.57 
   3  -1  -6   84.09    3.55 
   3  -1  -6   89.32    4.37 
   3  -1  -6   92.68    4.04 
   3  -1  -6   96.11    3.91 
   3  -1  -5    0.96    0.78 
   3  -1  -5    2.22    1.42 
   3  -1  -5    1.95    0.83 
   3  -1  -5    1.63    0.82 
   3  -1  -5    1.30    0.90 
   3  -1  -4  981.60   26.24 
   3  -1  -4  977.33   24.33 
   3  -1  -4 1029.54   25.16 
   3  -1  -4  953.35   24.70 
   3  -1  -4  965.87   25.04 
   3  -1  -3  874.29   22.53 
   3  -1  -3  821.35   21.81 
   3  -1  -3  830.39   21.08 
   3  -1  -3  832.19   21.50 
   3  -1  -3  841.75   21.43 
   3  -1  -2   49.98    3.03 
   3  -1  -2   56.86    2.74 
   3  -1  -2   52.14    2.99 
   3  -1  -2   49.04    2.85 
   3  -1  -2   46.74    2.70 
   3  -1  -2   50.00    2.60 
   3  -1  -1  229.06    7.25 
   3  -1  -1  235.06    7.71 
   3  -1  -1  223.89    7.40 
   3  -1  -1  244.31    7.46 
   3  -1  -1  225.73    7.40 
   3  -1   0 2624.41   63.56 
   3  -1   0 2679.71   63.97 
   3  -1   0 2673.32   63.65 
   3  -1   0 2743.46   62.93 
   3  -1   0 2651.80   63.61 
   3  -1   1 1168.86   29.27 
   3  -1   1 1168.04   27.80 
   3  -1   2   85.20    3.97 
   3  -1   2   76.85    3.62 
   3  -1   2   83.44    2.58 
   3  -1   3 1014.19   26.21 
   3  -1   3 1033.86   26.01 
   3  -1   3 1051.52   26.31 
   3  -1   4  110.90    4.76 
   3  -1   4  113.90    4.48 
   3  -1   4  117.04    4.72 
   3  -1   5   14.64    1.52 
   3  -1   5   10.11    1.81 
   3  -1   5   13.91    1.73 
   3  -1   5   10.42    1.30 
   3  -1   6  916.38   25.54 
   3  -1   6  962.76   24.07 
   3  -1   6  936.37   23.71 
   3  -1   7 1103.46   29.52 
   3  -1   7 1102.25   27.30 
   3  -1   7 1076.71   27.03 
   3  -1   8   94.57    5.43 
   3  -1   8   87.82    3.55 
   3  -1   8   90.95    3.71 
   3   0 -12   71.41    6.66 
   3   0 -12   87.28    6.52 
   3   0 -12   74.86    5.29 
   3   0 -11   17.12    3.79 
   3   0 -11   21.01    3.43 
   3   0 -11   21.65    2.88 
   3   0 -10  346.26   14.45 
   3   0 -10  333.85   13.11 
   3   0 -10  343.19   12.15 
   3   0  -9   30.13    1.46 
   3   0  -9   27.55    3.91 
   3   0  -9   34.32    3.69 
   3   0  -9   29.63    2.98 
   3   0  -8    7.17    0.85 
   3   0  -8    7.45    0.97 
   3   0  -8    6.93    0.84 
   3   0  -8    6.80    2.35 
   3   0  -8    9.43    2.11 
   3   0  -8   11.14    1.82 
   3   0  -7   46.33    4.14 
   3   0  -7   45.47    1.96 
   3   0  -7   39.77    3.55 
   3   0  -7   43.30    2.28 
   3   0  -7   43.20    3.21 
   3   0  -7   46.75    2.44 
   3   0  -6  186.87    8.27 
   3   0  -6  190.04    6.18 
   3   0  -6  189.87    5.40 
   3   0  -6  186.62    7.57 
   3   0  -6  179.72    5.93 
   3   0  -6  193.22    7.21 
   3   0  -5   17.98    1.19 
   3   0  -5   16.57    1.50 
   3   0  -5   19.61    2.37 
   3   0  -5   17.69    2.02 
   3   0  -5   18.17    1.51 
   3   0  -5   18.80    1.90 
   3   0  -4  118.13    5.51 
   3   0  -4  114.16    3.74 
   3   0  -4  113.75    4.47 
   3   0  -4  118.44    4.82 
   3   0  -4  117.13    4.32 
   3   0  -3   41.15    2.82 
   3   0  -3   35.70    1.79 
   3   0  -3   33.39    2.17 
   3   0  -3   35.73    2.25 
   3   0  -3   34.32    2.29 
   3   0  -3   35.41    2.12 
   3   0  -2  221.28    6.33 
   3   0  -2  208.60    6.76 
   3   0  -2  218.74    7.01 
   3   0  -2  209.84    6.93 
   3   0  -2  212.13    6.75 
   3   0  -2  221.96    6.91 
   3   0  -1    2.98    0.77 
   3   0  -1    2.34    0.83 
   3   0  -1    3.36    0.90 
   3   0  -1    3.77    0.87 
   3   0  -1    1.73    0.71 
   3   0   0 2617.98   61.67 
   3   0   0 2591.62   61.87 
   3   0   0 2660.40   62.16 
   3   0   0 2601.22   61.87 
   3   0   1 3956.56   92.88 
   3   0   1 3991.26   92.93 
   3   0   1 4012.71   93.09 
   3   0   1 3869.33   92.78 
   3   0   1 3998.78   91.54 
   3   0   2   46.75    2.74 
   3   0   3 1845.71   45.38 
   3   0   3 1876.48   44.96 
   3   0   3 1864.84   44.63 
   3   0   4  350.56   10.72 
   3   0   4  369.90   10.46 
   3   0   4  361.34   10.18 
   3   0   5   11.22    1.31 
   3   0   5    9.91    1.72 
   3   0   5   10.98    1.22 
   3   0   6  131.00    4.83 
   3   0   6  135.49    6.07 
   3   0   6  138.21    4.75 
   3   0   7 1094.79   29.97 
   3   0   7 1126.34   27.59 
   3   0   7 1147.92   27.83 
   3   0   8  320.42    8.80 
   3   1 -11   21.57    4.06 
   3   1 -11   19.82    3.65 
   3   1 -11   20.24    2.97 
   3   1 -10   -0.49    2.76 
   3   1 -10    1.60    2.20 
   3   1 -10    1.25    1.62 
   3   1  -9    4.41    2.38 
   3   1  -9    1.45    1.88 
   3   1  -9    2.30    1.58 
   3   1  -8  489.98   16.94 
   3   1  -8  461.86   11.62 
   3   1  -8  448.39   12.62 
   3   1  -8  483.57   15.94 
   3   1  -8  483.47   15.06 
   3   1  -7    4.36    0.78 
   3   1  -7    5.22    2.04 
   3   1  -7    4.90    1.97 
   3   1  -7    3.80    1.36 
   3   1  -6  533.83   16.91 
   3   1  -6  511.09   13.40 
   3   1  -6  512.76   13.69 
   3   1  -6  508.45   15.97 
   3   1  -6  525.27   15.42 
   3   1  -5  119.29    5.98 
   3   1  -5  123.40    4.29 
   3   1  -5  112.86    4.11 
   3   1  -5  119.27    5.59 
   3   1  -5  117.54    5.21 
   3   1  -5  107.18    4.19 
   3   1  -4   17.86    2.09 
   3   1  -4   17.11    1.40 
   3   1  -4   18.24    1.41 
   3   1  -4   18.96    2.10 
   3   1  -4   16.28    1.45 
   3   1  -4   13.80    1.68 
   3   1  -3   61.90    1.98 
   3   1  -3   55.48    2.60 
   3   1  -3   53.12    2.63 
   3   1  -3   64.71    3.25 
   3   1  -3   58.68    2.86 
   3   1  -2    1.58    0.48 
   3   1  -2    2.48    0.70 
   3   1  -2    1.68    0.72 
   3   1  -2    1.99    0.76 
   3   1  -2    2.81    0.86 
   3   1  -1    2.37    0.86 
   3   1  -1    2.22    0.63 
   3   1  -1    2.51    0.75 
   3   1  -1    4.22    0.81 
   3   1  -1    2.71    0.73 
   3   1  -1    3.37    0.90 
   3   1   0   11.19    1.28 
   3   1   0    9.79    1.05 
   3   1   0    8.61    1.08 
   3   1   0    8.14    1.08 
   3   1   0    6.48    0.94 
   3   1   0    7.44    1.02 
   3   1   1 3386.06   79.28 
   3   1   1 3421.06   79.48 
   3   1   1 3371.74   78.54 
   3   1   1 3367.46   79.30 
   3   1   1 3385.55   79.22 
   3   1   2  702.00   18.70 
   3   1   2  746.24   17.77 
   3   1   2  693.97   18.58 
   3   1   3  504.92   14.12 
   3   1   3  501.62   13.34 
   3   1   4  615.74   17.23 
   3   1   4  622.64   16.15 
   3   1   4  636.51   16.39 
   3   1   5  400.18   10.93 
   3   1   5  401.82   11.14 
   3   1   6   20.98    1.51 
   3   1   7  863.46   21.37 
   3   1   8  181.73    5.48 
   3   2 -11  106.35    7.77 
   3   2 -11  126.48    7.20 
   3   2 -11  121.39    8.72 
   3   2 -10   53.28    5.73 
   3   2 -10   52.95    5.33 
   3   2 -10   56.40    4.64 
   3   2  -9   36.40    4.42 
   3   2  -9   25.41    3.77 
   3   2  -9   38.19    3.63 
   3   2  -8  133.99    7.51 
   3   2  -8  137.67    6.88 
   3   2  -8  150.78    8.23 
   3   2  -7  187.98    5.49 
   3   2  -7  196.90    8.84 
   3   2  -7  195.15    8.25 
   3   2  -7  203.76    9.35 
   3   2  -6  197.59    5.79 
   3   2  -6  185.07    5.49 
   3   2  -6  184.52    8.13 
   3   2  -6  190.85    7.76 
   3   2  -6  192.04    8.70 
   3   2  -5 1516.82   36.73 
   3   2  -5 1537.59   36.32 
   3   2  -5 1559.70   39.62 
   3   2  -5 1543.06   38.93 
   3   2  -4  140.24    4.80 
   3   2  -4  143.35    4.46 
   3   2  -4  144.91    6.26 
   3   2  -4  153.49    6.10 
   3   2  -3   32.74    1.73 
   3   2  -3   35.88    2.00 
   3   2  -3   36.97    2.70 
   3   2  -3   36.41    2.56 
   3   2  -2   23.10    1.45 
   3   2  -2   20.96    1.57 
   3   2  -2   24.69    1.97 
   3   2  -1   75.82    2.99 
   3   2  -1   75.69    3.17 
   3   2  -1   70.45    3.29 
   3   2   0    0.52    0.59 
   3   2   0    0.08    0.53 
   3   2   0   -0.11    0.55 
   3   2   0    0.21    0.63 
   3   2   1  335.25    8.43 
   3   2   1  323.15    9.39 
   3   2   1  336.46    9.40 
   3   2   1  334.43    9.14 
   3   2   1  322.70    9.17 
   3   2   2   16.72    0.83 
   3   2   2   14.69    1.50 
   3   2   2   17.79    1.48 
   3   2   2   16.17    1.17 
   3   2   3  417.54   10.77 
   3   2   4  395.83   10.82 
   3   2   4  394.05   10.44 
   3   2   5 1466.86   35.34 
   3   2   6  517.85   13.57 
   3   2   7  329.83    9.15 
   3   2   8  187.07    5.68 
   3   3 -10  213.23   11.12 
   3   3 -10  226.88   10.27 
   3   3 -10  224.76   11.79 
   3   3  -9  127.68    7.86 
   3   3  -9  108.46    6.59 
   3   3  -9  110.34    7.56 
   3   3  -8  165.34    8.72 
   3   3  -8  160.73    7.95 
   3   3  -8  187.24    9.56 
   3   3  -7  199.68    9.40 
   3   3  -7  222.73    9.20 
   3   3  -6   30.73    3.31 
   3   3  -6   21.34    2.68 
   3   3  -5  108.55    5.81 
   3   3  -5  101.52    5.35 
   3   3  -4  678.36   17.26 
   3   3  -4  660.45   19.41 
   3   3  -4  675.01   19.09 
   3   3  -3   68.26    3.00 
   3   3  -3   63.48    3.80 
   3   3  -3   67.12    3.80 
   3   3  -2 1670.96   40.06 
   3   3  -2 1645.31   41.15 
   3   3  -2 1681.62   41.12 
   3   3  -1  541.04   14.27 
   3   3  -1  537.23   14.81 
   3   3   0  369.95   10.39 
   3   3   1   97.12    3.90 
   3   3   1  100.31    3.14 
   3   3   2    3.14    0.80 
   3   3   2    2.62    0.69 
   3   3   2    5.11    1.02 
   3   3   3    6.50    1.10 
   3   3   4  212.51    6.80 
   3   3   4  228.90    7.00 
   3   3   5  290.24    8.53 
   3   3   5  295.72    8.90 
   3   3   6 1836.94   43.93 
   3   3   7   36.37    2.06 
   3   4 -10  192.24   10.77 
   3   4 -10  200.02    9.97 
   3   4 -10  184.33   11.00 
   3   4  -9   41.65    4.96 
   3   4  -9   53.13    5.22 
   3   4  -9   49.75    4.68 
   3   4  -8  154.61    8.67 
   3   4  -8  147.68    7.97 
   3   4  -7  355.43   13.81 
   3   4  -7  347.19   13.03 
   3   4  -6  215.65    9.69 
   3   4  -6  225.66    9.36 
   3   4  -5    4.22    1.79 
   3   4  -5    3.59    1.56 
   3   4  -4  199.55    8.08 
   3   4  -3  208.82    7.99 
   3   4  -3  200.47    8.18 
   3   4  -2    1.52    1.16 
   3   4  -2    1.17    0.96 
   3   4  -2    2.56    1.00 
   3   4  -1  768.27   19.47 
   3   4  -1  766.22   20.26 
   3   4  -1  713.62   20.51 
   3   4   0  621.39   16.79 
   3   4   0  673.64   17.74 
   3   4   0  633.02   17.68 
   3   4   1  604.47   16.35 
   3   4   1  639.20   17.19 
   3   4   2   16.75    1.59 
   3   4   2   19.66    1.45 
   3   4   2   16.94    1.85 
   3   4   2   21.79    1.45 
   3   4   3   90.91    3.23 
   3   4   3   89.14    4.10 
   3   4   3   89.56    4.27 
   3   4   4   53.28    3.08 
   3   4   5   10.56    1.29 
   3   4   5   12.36    1.63 
   3   4   5   10.77    1.55 
   3   4   6  557.13   16.07 
   3   4   6  580.11   15.99 
   3   5  -9  129.59    8.60 
   3   5  -9  126.17    7.75 
   3   5  -8    8.47    2.50 
   3   5  -7  148.22    7.95 
   3   5  -6  175.47    8.49 
   3   5  -5   10.67    2.20 
   3   5  -4  115.31    6.10 
   3   5  -4  115.55    5.21 
   3   5  -4  100.85    5.96 
   3   5  -3  116.01    6.02 
   3   5  -3  135.62    6.32 
   3   5  -3  123.37    5.51 
   3   5  -3  121.39    6.29 
   3   5  -2   58.31    3.70 
   3   5  -2   59.55    3.90 
   3   5  -2   51.31    3.41 
   3   5  -2   61.45    4.06 
   3   5  -1   21.35    2.17 
   3   5  -1   20.13    2.16 
   3   5  -1   19.55    2.31 
   3   5   0  687.79   17.78 
   3   5   0  655.44   18.56 
   3   5   0  621.53   18.54 
   3   5   1  443.53   12.36 
   3   5   1  431.75   13.25 
   3   5   1  410.18   12.97 
   3   5   2    0.43    0.47 
   3   5   2    0.48    0.65 
   3   5   2    0.62    1.05 
   3   5   2    0.28    0.56 
   3   5   3    4.96    0.72 
   3   5   3    4.66    0.65 
   3   5   3    4.78    0.80 
   3   5   3    4.78    1.22 
   3   5   4    2.15    0.55 
   3   5   4    2.51    1.13 
   3   5   5   27.78    2.52 
   3   5   5   23.16    2.34 
   3   5   6  420.49   13.34 
   3   5   6  440.55   13.33 
   3   5   7  176.33    7.47 
   3   5   7  196.50    7.33 
   3   5   8  273.44    9.38 
   3   6  -8   99.17    7.00 
   3   6  -7   -0.89    2.58 
   3   6  -7    1.25    2.05 
   3   6  -6  270.06   11.85 
   3   6  -6  275.96   11.65 
   3   6  -5  356.43   13.61 
   3   6  -5  359.59   13.51 
   3   6  -5  363.06   11.81 
   3   6  -4    2.56    1.82 
   3   6  -4    0.98    1.46 
   3   6  -4    0.23    1.08 
   3   6  -3    0.84    1.59 
   3   6  -3    1.48    1.57 
   3   6  -3    2.15    1.41 
   3   6  -3    1.51    1.56 
   3   6  -2  129.03    6.17 
   3   6  -2  134.45    6.19 
   3   6  -2  129.43    6.51 
   3   6  -1   10.77    1.79 
   3   6  -1    9.52    1.76 
   3   6  -1   10.42    1.99 
   3   6   0  285.86    9.18 
   3   6   0  277.41    9.67 
   3   6   0  276.59   10.08 
   3   6   0  282.26   10.18 
   3   6   1  254.02    8.00 
   3   6   1  260.58    8.70 
   3   6   1  261.76    9.60 
   3   6   1  250.33    9.40 
   3   6   2  268.05    8.09 
   3   6   2  283.14    8.80 
   3   6   2  289.73   10.16 
   3   6   2  270.05    9.82 
   3   6   3   12.80    1.23 
   3   6   3   14.51    1.43 
   3   6   3   14.24    1.15 
   3   6   4  751.76   18.94 
   3   6   4  766.83   19.00 
   3   6   5   90.30    3.46 
   3   6   5   92.31    3.00 
   3   6   5   88.02    4.97 
   3   6   6    1.65    0.71 
   3   6   6    0.50    1.11 
   3   6   6    0.51    1.40 
   3   6   7    7.17    1.63 
   3   6   7    3.82    1.56 
   3   6   8   11.41    2.18 
   3   6   8    7.61    1.72 
   3   6   9   61.65    3.94 
   3   6  10  211.06    8.16 
   3   7  -7   49.22    5.38 
   3   7  -7   50.82    5.10 
   3   7  -6   20.41    3.73 
   3   7  -6   22.41    3.51 
   3   7  -5  247.59   11.11 
   3   7  -5  253.23   11.24 
   3   7  -5  255.19    9.68 
   3   7  -4  232.30   10.25 
   3   7  -4  232.59   10.40 
   3   7  -4  250.91    9.55 
   3   7  -3    9.82    2.48 
   3   7  -3   15.96    2.38 
   3   7  -2  725.50   20.70 
   3   7  -2  677.86   20.75 
   3   7  -1  230.54    8.64 
   3   7  -1  229.16    9.24 
   3   7  -1  235.74    9.44 
   3   7  -1  230.64    9.61 
   3   7   0    2.42    1.20 
   3   7   0    3.20    1.44 
   3   7   0    1.45    1.29 
   3   7   0    2.57    1.69 
   3   7   1   28.64    2.27 
   3   7   1   27.94    2.59 
   3   7   1   27.22    2.96 
   3   7   1   23.84    2.86 
   3   7   2   99.36    4.37 
   3   7   2  111.57    4.97 
   3   7   2   95.79    5.65 
   3   7   2  106.47    5.77 
   3   7   3   36.83    2.39 
   3   7   3   33.99    2.43 
   3   7   3   35.71    3.34 
   3   7   3   28.24    3.19 
   3   7   3   36.71    1.89 
   3   7   4  418.64   11.98 
   3   7   4  452.63   12.11 
   3   7   4  426.29   14.54 
   3   7   5  594.25   16.16 
   3   7   5  629.10   15.64 
   3   7   6  147.33    5.27 
   3   7   6  140.18    3.90 
   3   7   6  133.38    6.89 
   3   7   6  141.36    6.93 
   3   7   7   56.42    4.46 
   3   7   7   63.63    4.38 
   3   7   7   57.35    3.10 
   3   7   8   28.72    3.06 
   3   7   8   26.29    3.25 
   3   7   9   16.64    2.43 
   3   7  10   14.34    2.20 
   3   7  11   53.63    4.02 
   3   8  -6   11.13    3.17 
   3   8  -6    3.34    2.39 
   3   8  -5   11.34    3.17 
   3   8  -5   12.93    3.16 
   3   8  -5    6.60    2.02 
   3   8  -4  232.15   10.62 
   3   8  -4  261.86   10.36 
   3   8  -3  183.52    8.73 
   3   8  -3  193.33    8.71 
   3   8  -2  350.17   12.68 
   3   8  -2  373.22   13.63 
   3   8  -2  358.65   13.19 
   3   8  -1  764.43   22.16 
   3   8  -1  793.64   22.31 
   3   8  -1  803.54   23.47 
   3   8  -1  786.04   23.51 
   3   8   0  129.31    5.96 
   3   8   0  136.84    5.99 
   3   8   0  133.21    6.67 
   3   8   0  133.42    7.11 
   3   8   1   56.64    3.60 
   3   8   1   58.99    3.46 
   3   8   1   54.00    3.93 
   3   8   1   62.25    4.74 
   3   8   2  164.03    6.42 
   3   8   2  166.24    6.91 
   3   8   2  165.06    8.05 
   3   8   2  158.64    7.86 
   3   8   3  309.29    9.77 
   3   8   3  318.12   10.11 
   3   8   3  298.27    8.42 
   3   8   3  319.72   12.09 
   3   8   3  278.75   11.41 
   3   8   4   89.56    4.26 
   3   8   4  101.47    4.43 
   3   8   4   93.95    5.92 
   3   8   5  204.71    7.27 
   3   8   5  219.30    6.88 
   3   8   6  149.01    5.88 
   3   8   6  162.36    4.94 
   3   8   7    5.14    1.34 
   3   8   7    2.03    1.67 
   3   8   8   43.23    4.00 
   3   8   8   46.08    3.03 
   3   8   9  160.64    7.94 
   3   8  10    0.33    1.60 
   3   8  11   27.44    3.19 
   3   8  12   75.40    5.07 
   3   9  -4   16.09    3.39 
   3   9  -4   21.22    3.08 
   3   9  -3  183.55    9.17 
   3   9  -3  215.63   10.43 
   3   9  -3  215.56    9.78 
   3   9  -2   40.45    3.97 
   3   9  -2   49.32    4.55 
   3   9  -2   43.50    4.28 
   3   9  -1  415.43   13.72 
   3   9  -1  421.23   15.09 
   3   9  -1  391.39   14.92 
   3   9   0  406.74   13.19 
   3   9   0  438.33   14.89 
   3   9   0  420.57   15.46 
   3   9   1   42.32    3.50 
   3   9   1   48.63    3.25 
   3   9   1   48.16    3.99 
   3   9   1   49.48    4.56 
   3   9   2  324.90   11.08 
   3   9   2  345.55   11.85 
   3   9   2  331.57   13.25 
   3   9   3  389.53   12.49 
   3   9   3  414.82   12.97 
   3   9   3  418.18   15.20 
   3   9   3  394.56   10.72 
   3   9   4   34.58    2.85 
   3   9   4   36.48    2.81 
   3   9   4   41.50    4.17 
   3   9   5   84.53    4.29 
   3   9   5   73.98    3.76 
   3   9   5   76.88    5.71 
   3   9   6  214.42    8.03 
   3   9   6  237.76    7.19 
   3   9   7   31.48    2.66 
   3   9   7   34.96    4.00 
   3   9   8    1.00    1.14 
   3   9   8    1.16    1.84 
   3   9   9  110.03    6.87 
   3   9   9  116.99    5.45 
   3   9  10  107.06    6.71 
   3   9  11   -0.37    1.94 
   3   9  12   76.18    5.54 
   3  10  -2    7.99    2.28 
   3  10  -2   10.55    2.85 
   3  10  -2   10.67    2.71 
   3  10  -1    1.15    1.66 
   3  10  -1    1.22    1.93 
   3  10  -1    3.03    1.98 
   3  10   0  144.39    6.76 
   3  10   0  149.58    8.01 
   3  10   0  156.00    8.63 
   3  10   1  167.05    8.32 
   3  10   1  177.38    9.47 
   3  10   2   81.36    5.34 
   3  10   2   80.94    6.24 
   3  10   3  483.85   15.30 
   3  10   3  509.02   18.18 
   3  10   3  475.08   12.82 
   3  10   4   88.05    5.05 
   3  10   4  108.22    5.37 
   3  10   4  104.10    6.97 
   3  10   5   31.89    2.93 
   3  10   5   32.22    2.67 
   3  10   5   26.03    3.63 
   3  10   6   73.88    4.43 
   3  10   6   82.06    3.85 
   3  10   7   26.04    2.71 
   3  10   7   26.01    3.60 
   3  10   8   26.24    2.73 
   3  10   8   35.20    4.11 
   3  10   9  116.68    7.49 
   3  10  10  123.17    7.56 
   3  10  11   26.57    3.72 
   3  11   0    0.51    1.71 
   3  11   0    2.45    2.36 
   3  11   1   93.99    6.37 
   3  11   1   98.12    7.24 
   3  11   2   33.12    4.28 
   3  11   3   74.26    5.08 
   3  11   3   73.37    6.32 
   3  11   4  139.11    8.74 
   3  11   5   39.48    3.21 
   3  11   5   39.76    4.80 
   3  11   6   29.50    2.51 
   3  11   7  133.92    5.08 
   3  11   8   29.69    4.05 
   3  11   9   23.66    3.88 
   4  -8  -6   -0.46    2.10 
   4  -8  -6    0.48    2.61 
   4  -8  -5   21.11    3.64 
   4  -8  -5   23.05    3.70 
   4  -8  -4   20.25    3.55 
   4  -8  -4   24.36    3.70 
   4  -8  -3   71.23    5.72 
   4  -8  -2    2.74    2.08 
   4  -8  -1  125.91    7.40 
   4  -7  -9  225.11   11.23 
   4  -7  -9  208.65   11.74 
   4  -7  -8   13.64    3.12 
   4  -7  -8   14.61    3.61 
   4  -7  -7  120.38    7.58 
   4  -7  -7  118.53    7.92 
   4  -7  -6   19.56    3.39 
   4  -7  -6   21.26    3.63 
   4  -7  -5  128.06    7.70 
   4  -7  -5  133.51    7.85 
   4  -7  -4   37.59    4.20 
   4  -7  -4   35.56    4.03 
   4  -7  -3   47.07    4.61 
   4  -7  -3   41.75    4.24 
   4  -7  -2  107.91    7.04 
   4  -7  -2  108.07    6.52 
   4  -7  -1   11.66    2.58 
   4  -7   0   90.61    5.73 
   4  -7   1   22.62    2.92 
   4  -6 -10   43.87    4.27 
   4  -6 -10   43.06    4.96 
   4  -6  -9  217.47   10.72 
   4  -6  -9  191.04   10.94 
   4  -6  -8   68.69    5.67 
   4  -6  -8   75.88    6.36 
   4  -6  -7    6.21    2.31 
   4  -6  -7   12.02    3.05 
   4  -6  -6  167.78    8.63 
   4  -6  -6  152.41    8.69 
   4  -6  -5   -0.38    2.00 
   4  -6  -5    0.39    1.95 
   4  -6  -4    2.97    1.66 
   4  -6  -4    2.51    2.02 
   4  -6  -3  153.53    8.05 
   4  -6  -3  152.37    7.71 
   4  -6  -2   44.92    4.23 
   4  -6  -2   40.49    3.94 
   4  -6  -1    1.45    1.71 
   4  -6   0    2.77    1.50 
   4  -6   1   30.47    3.08 
   4  -6   4   52.50    4.61 
   4  -5 -11   54.60    5.58 
   4  -5 -10   30.69    4.35 
   4  -5 -10   31.22    3.37 
   4  -5  -9  316.22   13.28 
   4  -5  -9  302.32   11.77 
   4  -5  -8  226.85   10.64 
   4  -5  -8  222.70   11.18 
   4  -5  -7   63.76    5.27 
   4  -5  -7   57.51    5.27 
   4  -5  -6   27.80    3.54 
   4  -5  -6   27.75    3.62 
   4  -5  -5  131.80    7.25 
   4  -5  -5  134.88    7.46 
   4  -5  -4  114.10    6.56 
   4  -5  -4  105.19    6.32 
   4  -5  -3  158.07    7.85 
   4  -5  -3  160.00    7.58 
   4  -5  -2  231.14    9.90 
   4  -5  -2  233.45    9.28 
   4  -5  -1   30.10    3.42 
   4  -5  -1   33.65    3.14 
   4  -5   0   12.36    1.98 
   4  -5   1   17.10    2.24 
   4  -5   2  355.37   11.53 
   4  -5   4  109.52    6.34 
   4  -5   5   51.07    4.27 
   4  -5   6   11.89    2.38 
   4  -4 -11  175.67    9.90 
   4  -4 -11  163.38   10.27 
   4  -4 -11  163.63    7.42 
   4  -4 -10    2.29    2.13 
   4  -4 -10    5.32    1.77 
   4  -4 -10    4.77    1.63 
   4  -4  -9  152.51    7.13 
   4  -4  -9  148.46    8.47 
   4  -4  -9  143.83    6.38 
   4  -4  -8  382.15   14.36 
   4  -4  -8  371.18   12.40 
   4  -4  -8  363.28   12.81 
   4  -4  -8  363.17   11.59 
   4  -4  -7   92.28    6.13 
   4  -4  -7   87.95    5.00 
   4  -4  -7   79.39    6.04 
   4  -4  -7   88.18    5.02 
   4  -4  -7   86.91    4.28 
   4  -4  -6   64.62    4.99 
   4  -4  -6   65.17    4.26 
   4  -4  -6   60.76    5.05 
   4  -4  -6   58.85    4.10 
   4  -4  -5  363.32   12.94 
   4  -4  -5  327.54   11.42 
   4  -4  -5  334.56   12.90 
   4  -4  -5  332.05   11.68 
   4  -4  -4  757.05   21.53 
   4  -4  -4  801.78   22.78 
   4  -4  -4  766.64   22.54 
   4  -4  -4  718.19   21.47 
   4  -4  -3   56.25    3.94 
   4  -4  -3   48.97    4.04 
   4  -4  -3   50.21    3.96 
   4  -4  -3   53.61    3.89 
   4  -4  -2  263.46    9.84 
   4  -4  -2  272.43   10.45 
   4  -4  -2  267.23    9.81 
   4  -4  -2  277.79   10.12 
   4  -4  -1  135.95    6.50 
   4  -4  -1  147.86    7.03 
   4  -4  -1  135.31    6.41 
   4  -4  -1  147.18    6.26 
   4  -4  -1  144.52    6.68 
   4  -4   0    0.26    1.50 
   4  -4   0    4.14    1.55 
   4  -4   0    1.41    1.27 
   4  -4   0    1.94    1.16 
   4  -4   1  123.47    5.97 
   4  -4   1  133.11    5.47 
   4  -4   1  123.02    6.11 
   4  -4   2  548.70   16.90 
   4  -4   2  564.50   17.23 
   4  -4   2  585.05   15.98 
   4  -4   3   33.82    3.06 
   4  -4   3   34.62    3.11 
   4  -4   4    0.86    1.39 
   4  -4   4    0.96    1.31 
   4  -4   4    1.70    1.26 
   4  -4   5  145.62    7.01 
   4  -4   5  141.77    6.55 
   4  -4   6   98.18    5.31 
   4  -4   6   93.56    5.43 
   4  -4   7   30.39    3.05 
   4  -3 -11   74.74    6.48 
   4  -3 -11   84.16    7.11 
   4  -3 -10  262.63   12.22 
   4  -3 -10  271.80   12.97 
   4  -3  -9  117.87    7.38 
   4  -3  -9  119.41    5.83 
   4  -3  -9  130.66    8.27 
   4  -3  -9  119.54    5.92 
   4  -3  -8  356.25   13.95 
   4  -3  -8  355.98   11.54 
   4  -3  -8  347.53   11.54 
   4  -3  -8  365.53   12.12 
   4  -3  -8  374.01   11.86 
   4  -3  -7  188.66    7.74 
   4  -3  -7  181.24    8.74 
   4  -3  -7  175.28    7.06 
   4  -3  -7  185.18    7.11 
   4  -3  -7  171.10    7.12 
   4  -3  -6    0.40    1.24 
   4  -3  -6    3.58    1.97 
   4  -3  -6    0.22    1.03 
   4  -3  -6    2.19    1.95 
   4  -3  -6    0.77    1.22 
   4  -3  -6    2.72    1.23 
   4  -3  -5  355.01   12.67 
   4  -3  -5  355.11   11.33 
   4  -3  -5  347.71   12.87 
   4  -3  -5  337.08   11.44 
   4  -3  -5  352.36   10.74 
   4  -3  -4  943.17   26.43 
   4  -3  -4  928.38   25.13 
   4  -3  -4  967.42   26.62 
   4  -3  -4  936.27   25.54 
   4  -3  -3  197.28    7.45 
   4  -3  -3  182.73    8.01 
   4  -3  -3  188.15    7.65 
   4  -3  -3  197.40    7.95 
   4  -3  -3  179.63    7.40 
   4  -3  -2  196.56    7.69 
   4  -3  -2  216.47    8.47 
   4  -3  -2  193.07    7.81 
   4  -3  -2  206.50    7.86 
   4  -3  -2  205.83    7.93 
   4  -3  -1  489.61   14.76 
   4  -3  -1  468.46   15.10 
   4  -3  -1  501.96   14.39 
   4  -3  -1  488.77   14.85 
   4  -3   0  256.42    9.28 
   4  -3   0  248.32    9.04 
   4  -3   0  255.62    8.35 
   4  -3   1   42.50    3.26 
   4  -3   1   35.22    3.00 
   4  -3   1   31.55    2.90 
   4  -3   1   39.89    2.52 
   4  -3   2  451.40   14.63 
   4  -3   2  488.10   14.40 
   4  -3   2  453.81   14.25 
   4  -3   2  469.56   12.87 
   4  -3   3  101.40    5.46 
   4  -3   3   92.85    4.95 
   4  -3   3  107.27    5.25 
   4  -3   4   -0.67    1.35 
   4  -3   4    1.71    1.23 
   4  -3   4    0.50    1.28 
   4  -3   5  123.64    5.98 
   4  -3   5  129.69    5.83 
   4  -3   5  135.40    6.26 
   4  -3   6   69.06    4.28 
   4  -3   6   69.35    4.01 
   4  -3   6   62.98    4.17 
   4  -3   7    7.53    1.53 
   4  -3   7    6.85    1.65 
   4  -3   8   80.84    4.48 
   4  -2 -11   51.85    5.36 
   4  -2 -11   54.31    4.05 
   4  -2 -11   48.58    5.57 
   4  -2 -10   82.52    6.49 
   4  -2 -10   90.07    5.10 
   4  -2 -10   83.38    6.79 
   4  -2  -9  161.92    8.82 
   4  -2  -9  163.53    6.63 
   4  -2  -9  169.77    7.22 
   4  -2  -9  158.08    9.21 
   4  -2  -8   18.49    2.05 
   4  -2  -8   22.29    3.25 
   4  -2  -8   21.12    2.13 
   4  -2  -8   23.22    2.42 
   4  -2  -8   23.26    3.53 
   4  -2  -8   17.30    2.08 
   4  -2  -7  357.42   13.75 
   4  -2  -7  379.95   11.41 
   4  -2  -7  389.28   11.80 
   4  -2  -7  384.94   12.19 
   4  -2  -6  656.37   20.19 
   4  -2  -6  655.62   17.81 
   4  -2  -6  636.19   18.12 
   4  -2  -6  659.06   18.67 
   4  -2  -6  661.33   18.40 
   4  -2  -5   59.57    3.77 
   4  -2  -5   55.67    4.19 
   4  -2  -5   56.48    3.32 
   4  -2  -5   54.92    3.44 
   4  -2  -5   61.38    3.50 
   4  -2  -4  851.41   24.08 
   4  -2  -4  848.39   22.52 
   4  -2  -4  823.26   23.41 
   4  -2  -4  872.37   24.34 
   4  -2  -4  851.65   22.95 
   4  -2  -4  890.21   22.62 
   4  -2  -3  743.64   20.78 
   4  -2  -3  713.86   19.46 
   4  -2  -3  706.08   20.36 
   4  -2  -3  707.32   20.01 
   4  -2  -3  763.15   20.82 
   4  -2  -3  714.15   19.87 
   4  -2  -2   42.05    2.90 
   4  -2  -2   39.78    3.15 
   4  -2  -2   35.88    2.89 
   4  -2  -2   46.25    3.22 
   4  -2  -2   48.76    3.19 
   4  -2  -1  293.94    9.80 
   4  -2  -1  296.87   10.40 
   4  -2  -1  294.39    9.93 
   4  -2  -1  315.33    9.70 
   4  -2  -1  315.65   10.12 
   4  -2   0  320.79   10.55 
   4  -2   0  330.74   11.10 
   4  -2   0  344.77    9.80 
   4  -2   0  309.70   10.48 
   4  -2   1    2.82    1.28 
   4  -2   1    4.60    1.32 
   4  -2   1    3.61    0.83 
   4  -2   2  421.72   13.42 
   4  -2   2  440.71   13.60 
   4  -2   2  430.91   13.15 
   4  -2   2  433.97   13.10 
   4  -2   2  436.29   11.37 
   4  -2   3  450.69   14.01 
   4  -2   3  438.99   13.64 
   4  -2   3  469.43   13.64 
   4  -2   4  105.97    5.13 
   4  -2   4   97.54    4.79 
   4  -2   4  112.78    5.31 
   4  -2   5   10.79    2.15 
   4  -2   5   10.32    1.94 
   4  -2   5   13.48    1.95 
   4  -2   5   12.21    1.73 
   4  -2   6   80.56    4.59 
   4  -2   6   76.12    4.27 
   4  -2   6   80.59    4.13 
   4  -2   7   30.28    2.67 
   4  -2   7   29.04    2.43 
   4  -2   8    1.12    1.15 
   4  -2   8    1.65    1.00 
   4  -2   9   23.81    2.14 
   4  -1 -11    4.19    2.95 
   4  -1 -11   11.13    2.22 
   4  -1 -10  209.28   10.68 
   4  -1 -10  193.59    8.40 
   4  -1  -9  235.32    8.07 
   4  -1  -9  234.39   11.19 
   4  -1  -9  262.37    9.64 
   4  -1  -8   14.91    1.77 
   4  -1  -8   14.57    1.48 
   4  -1  -8   13.28    2.83 
   4  -1  -8   15.22    1.71 
   4  -1  -8   15.27    2.15 
   4  -1  -7    0.82    0.93 
   4  -1  -7    0.70    1.81 
   4  -1  -7    1.92    1.04 
   4  -1  -7    1.30    1.06 
   4  -1  -7    3.21    1.40 
   4  -1  -6  354.60   13.03 
   4  -1  -6  361.36   10.39 
   4  -1  -6  368.67   11.40 
   4  -1  -6  366.93   11.70 
   4  -1  -6  359.19   11.03 
   4  -1  -5  454.77   14.80 
   4  -1  -5  442.26   12.45 
   4  -1  -5  450.99   13.59 
   4  -1  -5  458.06   13.52 
   4  -1  -5  449.55   13.12 
   4  -1  -4  783.76   22.26 
   4  -1  -4  798.37   20.34 
   4  -1  -4  742.58   21.14 
   4  -1  -4  785.32   21.02 
   4  -1  -4  773.16   21.36 
   4  -1  -4  835.46   21.23 
   4  -1  -3 2794.72   66.91 
   4  -1  -3 2771.12   67.64 
   4  -1  -3 2824.65   67.57 
   4  -1  -3 2795.68   68.02 
   4  -1  -3 2911.43   67.40 
   4  -1  -2   83.95    3.88 
   4  -1  -2   78.60    4.06 
   4  -1  -2   85.48    3.87 
   4  -1  -2   83.09    4.30 
   4  -1  -2   85.36    4.12 
   4  -1  -2   78.68    4.24 
   4  -1  -1    4.40    1.08 
   4  -1  -1    6.34    1.28 
   4  -1  -1    4.73    1.17 
   4  -1  -1    5.44    1.19 
   4  -1  -1    6.35    1.26 
   4  -1   0  491.50   14.29 
   4  -1   0  521.53   14.61 
   4  -1   0  508.40   13.60 
   4  -1   0  498.51   14.45 
   4  -1   0  511.48   14.92 
   4  -1   1  249.98    8.47 
   4  -1   1  247.66    7.00 
   4  -1   2    0.19    1.03 
   4  -1   2    1.35    0.91 
   4  -1   2    2.56    0.46 
   4  -1   3  173.86    6.95 
   4  -1   3  180.03    6.80 
   4  -1   3  170.51    6.48 
   4  -1   3  171.06    6.77 
   4  -1   4   36.66    2.86 
   4  -1   4   34.22    2.70 
   4  -1   5   26.09    2.81 
   4  -1   5   27.62    2.62 
   4  -1   5   26.52    2.39 
   4  -1   5   27.30    2.27 
   4  -1   6  120.64    6.23 
   4  -1   6  124.86    5.81 
   4  -1   6  128.65    5.49 
   4  -1   6  123.05    5.12 
   4  -1   7  164.85    6.41 
   4  -1   7  166.48    6.16 
   4  -1   8  327.02    9.97 
   4  -1   8  334.68   10.33 
   4  -1   9    1.02    0.86 
   4  -1   9    1.43    1.05 
   4   0 -11   54.02    5.75 
   4   0 -11   42.03    4.62 
   4   0 -11   47.50    4.20 
   4   0 -10  306.44   13.68 
   4   0 -10  295.57   12.44 
   4   0 -10  314.65   11.70 
   4   0  -9  492.31   17.95 
   4   0  -9  476.10   15.55 
   4   0  -8    1.96    0.88 
   4   0  -8    3.62    1.98 
   4   0  -8    1.83    1.17 
   4   0  -8    1.33    0.91 
   4   0  -8   -0.27    1.26 
   4   0  -7    2.74    0.69 
   4   0  -7    2.87    2.02 
   4   0  -7    2.93    0.93 
   4   0  -7    4.24    1.34 
   4   0  -7    2.92    1.34 
   4   0  -7    3.50    1.12 
   4   0  -6  296.33   11.58 
   4   0  -6  301.46    8.25 
   4   0  -6  307.42    9.66 
   4   0  -6  296.23    9.68 
   4   0  -6  298.61    9.28 
   4   0  -6  319.13   10.55 
   4   0  -5  370.04   13.11 
   4   0  -5  388.66   10.38 
   4   0  -5  391.28   11.76 
   4   0  -5  373.27   11.55 
   4   0  -5  419.21   12.46 
   4   0  -5  389.70   11.39 
   4   0  -4  104.81    3.78 
   4   0  -4  100.51    4.63 
   4   0  -4   97.60    4.43 
   4   0  -4  103.08    4.80 
   4   0  -4   97.67    4.30 
   4   0  -3  547.89   14.08 
   4   0  -3  525.66   14.82 
   4   0  -3  531.07   15.23 
   4   0  -3  531.53   15.19 
   4   0  -3  526.95   14.80 
   4   0  -3  531.57   15.09 
   4   0  -2 1060.44   26.19 
   4   0  -2 1033.39   26.79 
   4   0  -2 1050.91   27.30 
   4   0  -2 1062.39   26.92 
   4   0  -2 1069.94   26.91 
   4   0  -1    5.15    1.08 
   4   0  -1    6.33    1.23 
   4   0  -1    3.52    1.03 
   4   0  -1    5.70    1.21 
   4   0  -1    5.78    1.11 
   4   0   0 1897.68   45.47 
   4   0   0 1813.09   45.46 
   4   0   0 1879.15   45.76 
   4   0   0 1907.34   46.18 
   4   0   0 1899.12   45.68 
   4   0   1 1260.30   31.26 
   4   0   1 1241.19   30.88 
   4   0   1 1244.58   31.27 
   4   0   1 1219.04   31.58 
   4   0   1 1166.14   31.00 
   4   0   1 1286.12   29.75 
   4   0   2 1265.75   33.50 
   4   0   2 1394.05   33.14 
   4   0   3   21.74    2.24 
   4   0   3   21.41    1.91 
   4   0   3   20.14    2.03 
   4   0   4  212.11    8.12 
   4   0   4  221.99    7.95 
   4   0   4  224.95    7.84 
   4   0   4  221.01    7.41 
   4   0   5    8.52    1.41 
   4   0   5    8.16    1.32 
   4   0   5   10.06    1.72 
   4   0   6    0.33    0.91 
   4   0   6    1.55    1.49 
   4   0   6    1.02    0.80 
   4   0   7   30.90    3.29 
   4   0   7   30.50    2.22 
   4   0   7   26.65    2.23 
   4   0   8  423.05   12.08 
   4   0   8  443.21   12.47 
   4   0   9    9.57    1.28 
   4   1 -11  118.06    8.54 
   4   1 -11   97.07    7.13 
   4   1 -10   39.89    4.82 
   4   1 -10   48.03    4.86 
   4   1 -10   43.43    3.94 
   4   1  -9  186.61    9.93 
   4   1  -9  187.67    9.15 
   4   1  -9  194.52    8.60 
   4   1  -8   76.29    5.95 
   4   1  -8   79.78    3.83 
   4   1  -8   88.33    5.76 
   4   1  -8   87.94    5.22 
   4   1  -7    0.99    0.78 
   4   1  -7    0.74    1.79 
   4   1  -7    1.14    0.94 
   4   1  -7    0.91    1.62 
   4   1  -7    4.21    1.54 
   4   1  -6  451.12   13.02 
   4   1  -6  473.48   12.97 
   4   1  -6  470.32   14.65 
   4   1  -6  474.07   13.24 
   4   1  -5  788.77   18.62 
   4   1  -5  782.10   20.41 
   4   1  -5  773.39   20.37 
   4   1  -5  823.25   22.00 
   4   1  -5  786.64   20.70 
   4   1  -4   21.82    1.24 
   4   1  -4   24.27    1.92 
   4   1  -4   23.59    1.92 
   4   1  -4   23.65    2.29 
   4   1  -4   23.49    1.99 
   4   1  -3   31.96    2.35 
   4   1  -3   29.71    1.60 
   4   1  -3   30.32    2.12 
   4   1  -3   26.94    2.04 
   4   1  -3   29.88    2.42 
   4   1  -2   35.74    1.95 
   4   1  -2   32.64    2.41 
   4   1  -2   33.26    2.27 
   4   1  -2   36.08    2.36 
   4   1  -2   35.84    2.54 
   4   1  -2   41.25    2.66 
   4   1  -1 1721.78   41.86 
   4   1  -1 1726.99   41.26 
   4   1  -1 1708.50   42.23 
   4   1  -1 1664.18   41.67 
   4   1  -1 1704.48   41.86 
   4   1  -1 1754.10   42.11 
   4   1  -1 1770.30   42.05 
   4   1   0    3.70    1.04 
   4   1   0    4.58    1.18 
   4   1   0    4.61    1.06 
   4   1   0    4.09    0.97 
   4   1   0    3.42    1.04 
   4   1   0    3.59    1.10 
   4   1   1 3301.75   78.72 
   4   1   1 3483.86   78.13 
   4   1   1 3315.95   79.08 
   4   1   1 3260.94   78.80 
   4   1   1 3253.45   78.68 
   4   1   2 1911.97   46.89 
   4   1   2 1955.20   45.81 
   4   1   2 1884.02   46.78 
   4   1   3   53.66    3.35 
   4   1   3   61.87    3.14 
   4   1   4  246.59    8.06 
   4   1   4  225.04    8.45 
   4   1   4  240.40    7.75 
   4   1   5  819.31   21.24 
   4   1   5  821.17   21.55 
   4   1   6  218.54    7.19 
   4   1   6  220.63    7.45 
   4   1   7   57.10    2.96 
   4   1   8  510.31   13.82 
   4   1   9   19.55    1.59 
   4   1  10    1.44    0.68 
   4   2 -11  163.12   10.38 
   4   2 -11  160.58    9.42 
   4   2 -11  169.50    8.69 
   4   2 -10   23.36    3.97 
   4   2 -10   19.00    3.43 
   4   2 -10   20.37    3.03 
   4   2  -9   20.21    3.62 
   4   2  -9   20.97    3.48 
   4   2  -9   18.93    2.98 
   4   2  -8   16.43    3.25 
   4   2  -8   12.81    2.69 
   4   2  -8   13.73    2.41 
   4   2  -7   93.47    3.79 
   4   2  -7   95.28    3.73 
   4   2  -7  102.53    6.10 
   4   2  -7   96.91    5.57 
   4   2  -6  145.68    5.14 
   4   2  -6  135.33    4.83 
   4   2  -6  137.13    6.98 
   4   2  -6  137.54    6.64 
   4   2  -5 1123.60   28.09 
   4   2  -5 1138.92   28.46 
   4   2  -5 1168.76   30.94 
   4   2  -5 1179.31   30.47 
   4   2  -4  147.27    5.06 
   4   2  -4  140.50    5.25 
   4   2  -4  149.29    6.32 
   4   2  -3   -0.13    0.72 
   4   2  -3    0.15    0.78 
   4   2  -3    0.22    0.69 
   4   2  -3    0.78    0.87 
   4   2  -2   48.74    3.06 
   4   2  -2   44.56    2.44 
   4   2  -2   43.84    2.59 
   4   2  -2   43.33    2.93 
   4   2  -2   50.11    2.89 
   4   2  -1  343.73   10.43 
   4   2  -1  355.46    9.74 
   4   2  -1  346.31   10.18 
   4   2  -1  348.98   10.37 
   4   2  -1  372.04   10.78 
   4   2  -1  347.42   10.62 
   4   2  -1  368.63   10.69 
   4   2   0  654.42   17.35 
   4   2   0  702.37   17.29 
   4   2   0  653.52   17.64 
   4   2   0  665.50   17.78 
   4   2   0  658.70   17.77 
   4   2   0  670.81   18.06 
   4   2   0  682.87   17.79 
   4   2   1  218.06    7.33 
   4   2   1  240.44    6.62 
   4   2   1  225.30    7.45 
   4   2   1  221.19    7.35 
   4   2   1  223.27    6.90 
   4   2   1  213.53    7.51 
   4   2   1  233.09    7.33 
   4   2   2 4998.84  119.29 
   4   2   2 5162.75  117.61 
   4   2   2 5038.56  119.22 
   4   2   2 5174.93  117.83 
   4   2   2 4955.63  119.28 
   4   2   3  478.20   13.70 
   4   2   3  474.49   11.96 
   4   2   4  586.14   16.06 
   4   2   4  611.93   16.44 
   4   2   5  768.46   19.99 
   4   2   6  939.92   23.85 
   4   2   7   16.42    1.59 
   4   2   8 1130.84   28.06 
   4   2   9   55.63    2.73 
   4   3 -10    5.55    2.95 
   4   3 -10    1.43    2.78 
   4   3 -10    2.75    2.00 
   4   3  -9   33.10    4.24 
   4   3  -9   33.73    3.64 
   4   3  -8    5.15    2.29 
   4   3  -8    3.74    1.78 
   4   3  -7   40.08    4.12 
   4   3  -7   45.00    3.96 
   4   3  -6    3.94    0.93 
   4   3  -6    3.38    0.70 
   4   3  -6    1.28    1.83 
   4   3  -6    5.14    1.73 
   4   3  -5  186.69    6.27 
   4   3  -5  184.23    5.53 
   4   3  -5  191.04    8.33 
   4   3  -5  179.47    7.72 
   4   3  -4  203.34    6.86 
   4   3  -4  211.85    6.27 
   4   3  -4  211.48    8.45 
   4   3  -4  218.53    8.30 
   4   3  -4  198.22    8.42 
   4   3  -3  109.39    4.48 
   4   3  -3  110.46    4.04 
   4   3  -3  120.81    5.46 
   4   3  -3  112.37    5.46 
   4   3  -2  203.18    6.33 
   4   3  -2  186.72    6.59 
   4   3  -2  199.15    7.28 
   4   3  -2  202.78    7.39 
   4   3  -1  699.92   18.70 
   4   3  -1  718.69   18.24 
   4   3  -1  699.88   18.56 
   4   3  -1  692.33   18.98 
   4   3   0  910.45   22.17 
   4   3   0  888.39   22.51 
   4   3   0  861.77   22.64 
   4   3   0  858.60   22.91 
   4   3   1   32.45    1.68 
   4   3   1   36.60    2.39 
   4   3   1   34.68    2.33 
   4   3   1   34.41    2.31 
   4   3   2  677.50   16.13 
   4   3   2  661.95   17.92 
   4   3   2  672.27   17.52 
   4   3   2  691.12   17.56 
   4   3   3  616.96   15.95 
   4   3   4  128.57    5.00 
   4   3   4  132.15    4.62 
   4   3   5 1298.70   31.93 
   4   3   5 1277.19   31.42 
   4   3   6 2248.91   53.88 
   4   3   7    6.74    1.17 
   4   3   8  319.10    9.43 
   4   3   9  131.43    4.82 
   4   4  -9   71.65    6.13 
   4   4  -9   58.17    5.08 
   4   4  -8   14.98    3.40 
   4   4  -8   13.80    2.68 
   4   4  -7  175.47    8.98 
   4   4  -7  179.16    8.58 
   4   4  -6  163.46    8.13 
   4   4  -6  153.18    7.59 
   4   4  -5    2.32    1.81 
   4   4  -5    0.31    1.70 
   4   4  -5    1.44    1.32 
   4   4  -4    7.50    1.20 
   4   4  -4    5.24    2.02 
   4   4  -4    6.81    1.70 
   4   4  -3   84.19    3.87 
   4   4  -3   97.42    5.05 
   4   4  -2   47.20    2.74 
   4   4  -2   47.50    3.29 
   4   4  -2   39.84    3.30 
   4   4  -1  472.38   13.31 
   4   4   0 1598.31   39.76 
   4   4   0 1644.48   39.34 
   4   4   1    8.31    1.29 
   4   4   1    9.71    1.01 
   4   4   1    9.55    1.54 
   4   4   1    7.52    1.28 
   4   4   2  225.42    5.74 
   4   4   2  219.59    7.48 
   4   4   2  237.28    7.24 
   4   4   2  215.75    7.56 
   4   4   2  225.59    7.12 
   4   4   3  127.68    4.53 
   4   4   3  123.78    4.96 
   4   4   4  183.31    6.64 
   4   4   4  207.47    6.83 
   4   4   5    3.37    0.98 
   4   4   5    4.27    1.18 
   4   4   6 1862.41   44.35 
   4   4   6 1779.00   44.60 
   4   4   7  510.80   14.17 
   4   4   8  176.12    6.18 
   4   5  -9  196.71   10.90 
   4   5  -9  224.68   10.62 
   4   5  -8   19.63    3.79 
   4   5  -8   22.06    4.03 
   4   5  -8   23.80    3.51 
   4   5  -7  178.80    8.86 
   4   5  -6  172.25    8.40 
   4   5  -5    9.98    2.27 
   4   5  -4    4.40    1.68 
   4   5  -4    0.96    1.66 
   4   5  -3  317.19   11.19 
   4   5  -3  294.72   11.32 
   4   5  -2  111.97    5.54 
   4   5  -2   94.88    5.43 
   4   5  -1    2.23    0.93 
   4   5  -1    2.18    1.19 
   4   5   0  597.36   16.66 
   4   5   0  623.09   17.75 
   4   5   1  366.81   11.26 
   4   5   1  381.09   11.31 
   4   5   1  379.24   12.26 
   4   5   1  382.11   10.98 
   4   5   2    1.29    0.94 
   4   5   2    3.23    0.56 
   4   5   2    4.03    0.94 
   4   5   2    4.06    1.27 
   4   5   2    1.55    1.06 
   4   5   2    4.84    0.94 
   4   5   3  126.63    5.21 
   4   5   3  130.84    4.69 
   4   5   3  123.00    5.46 
   4   5   3  123.53    5.81 
   4   5   4  186.41    5.79 
   4   5   4  182.32    6.92 
   4   5   5   38.83    2.60 
   4   5   5   38.46    2.89 
   4   5   5   40.12    3.14 
   4   5   6  719.12   19.08 
   4   5   6  699.62   19.68 
   4   5   7  311.88   10.58 
   4   6  -8  160.49    9.00 
   4   6  -7    0.84    2.14 
   4   6  -6  232.74   10.63 
   4   6  -5  263.13   11.21 
   4   6  -5  271.94   11.23 
   4   6  -4    2.61    1.95 
   4   6  -4    0.33    1.50 
   4   6  -3  121.58    6.38 
   4   6  -3  115.48    6.30 
   4   6  -2   40.73    3.49 
   4   6  -2   48.17    3.54 
   4   6  -2   35.57    3.51 
   4   6  -1    1.02    1.21 
   4   6  -1    1.10    1.39 
   4   6   0  624.34   17.99 
   4   6   0  650.49   18.79 
   4   6   0  608.44   18.53 
   4   6   1  183.26    6.96 
   4   6   1  184.72    7.80 
   4   6   2  356.73    9.83 
   4   6   2  369.06   10.99 
   4   6   2  349.25   12.28 
   4   6   2  380.17   10.60 
   4   6   3   40.41    1.77 
   4   6   3   41.55    2.48 
   4   6   3   36.58    3.08 
   4   6   3   38.68    3.35 
   4   6   3   40.60    2.24 
   4   6   4  487.40   13.02 
   4   6   4  474.86   14.71 
   4   6   5  387.87   10.34 
   4   6   5  400.40   12.72 
   4   6   6  115.85    5.81 
   4   6   6  126.75    6.14 
   4   6   7   23.03    2.67 
   4   6   7   20.20    2.40 
   4   6   8  153.77    7.16 
   4   7  -7   15.31    3.67 
   4   7  -7   12.04    3.15 
   4   7  -6   70.32    5.97 
   4   7  -6   70.71    5.94 
   4   7  -5  337.24   13.81 
   4   7  -5  388.80   14.43 
   4   7  -4  178.04    8.83 
   4   7  -4  201.14    9.28 
   4   7  -3   47.55    4.17 
   4   7  -3   42.04    3.69 
   4   7  -2  220.98    9.25 
   4   7  -2  238.49    9.54 
   4   7  -1   15.35    2.22 
   4   7  -1   11.07    2.08 
   4   7  -1   16.26    2.48 
   4   7  -1   15.41    2.58 
   4   7   0   61.77    4.07 
   4   7   0   59.13    4.28 
   4   7   0   50.32    4.12 
   4   7   1    8.85    1.31 
   4   7   1   12.22    1.85 
   4   7   1   11.33    2.12 
   4   7   1    9.86    2.16 
   4   7   2   19.97    1.70 
   4   7   2   24.25    2.29 
   4   7   2   24.81    2.84 
   4   7   2   20.40    1.84 
   4   7   3    7.47    1.03 
   4   7   3    5.76    1.22 
   4   7   3    6.59    1.86 
   4   7   3    5.40    1.02 
   4   7   4  171.53    5.34 
   4   7   4  177.76    6.01 
   4   7   4  178.51    7.72 
   4   7   4  173.25    7.97 
   4   7   5  900.06   22.38 
   4   7   5  910.06   25.37 
   4   7   6  215.07    8.84 
   4   7   6  211.88    9.07 
   4   7   7    3.53    1.82 
   4   7   7    1.51    1.35 
   4   7   8  190.70    8.59 
   4   7   8  195.59    8.50 
   4   7   9   89.87    5.78 
   4   7   9  103.99    5.75 
   4   8  -6   33.43    4.68 
   4   8  -6   42.22    4.68 
   4   8  -5   51.83    4.98 
   4   8  -5   56.13    5.22 
   4   8  -4   46.96    4.57 
   4   8  -4   44.35    3.92 
   4   8  -3   14.17    2.73 
   4   8  -3   10.11    2.36 
   4   8  -2  133.63    6.98 
   4   8  -2  138.50    7.45 
   4   8  -2  142.93    7.37 
   4   8  -1  428.11   14.14 
   4   8  -1  434.48   14.90 
   4   8  -1  452.14   15.37 
   4   8   0   19.36    2.13 
   4   8   0   16.72    2.46 
   4   8   0   20.05    2.89 
   4   8   1    5.83    1.29 
   4   8   1    7.32    1.75 
   4   8   1    6.83    1.98 
   4   8   2    0.92    0.91 
   4   8   2    0.22    1.14 
   4   8   2    0.69    1.53 
   4   8   3   43.25    2.62 
   4   8   3   41.71    2.97 
   4   8   3   38.11    3.79 
   4   8   3   43.86    2.43 
   4   8   4   32.38    2.15 
   4   8   4   34.31    2.45 
   4   8   4   36.45    3.74 
   4   8   4   31.92    3.54 
   4   8   5  141.70    4.98 
   4   8   5  150.12    5.23 
   4   8   5  133.11    7.16 
   4   8   6   54.55    2.65 
   4   8   6   54.50    2.40 
   4   8   6   52.40    4.31 
   4   8   7   92.93    5.84 
   4   8   7   86.14    3.52 
   4   8   8  228.71    9.94 
   4   8   9  438.88   15.23 
   4   8  10   12.32    2.52 
   4   8  11  104.48    6.10 
   4   9  -4    0.81    2.38 
   4   9  -4    1.07    1.69 
   4   9  -3  139.80    7.67 
   4   9  -3  146.50    8.44 
   4   9  -3  153.72    8.04 
   4   9  -2    1.28    2.10 
   4   9  -2    1.14    1.96 
   4   9  -1  108.22    5.95 
   4   9  -1  103.41    6.41 
   4   9  -1  108.10    6.83 
   4   9   0  174.86    8.08 
   4   9   0  170.31    8.58 
   4   9   1   25.83    2.51 
   4   9   1   27.81    3.06 
   4   9   1   29.91    3.74 
   4   9   2   61.29    3.72 
   4   9   2   68.33    4.47 
   4   9   2   62.81    5.08 
   4   9   3  126.15    5.45 
   4   9   3  131.60    6.01 
   4   9   3  126.94    4.76 
   4   9   4    1.25    1.08 
   4   9   4    2.47    1.26 
   4   9   4   -1.18    1.93 
   4   9   5    7.32    1.41 
   4   9   5    7.79    1.31 
   4   9   5    3.92    1.97 
   4   9   6  115.73    4.74 
   4   9   6  121.25    4.40 
   4   9   7   49.30    2.80 
   4   9   7   47.10    1.82 
   4   9   7   46.57    4.38 
   4   9   8    2.43    1.03 
   4   9   8    4.29    1.82 
   4   9   9   79.22    5.76 
   4   9  10   89.23    6.18 
   4   9  11    7.49    2.45 
   4   9  12  217.33    9.83 
   4  10  -2   60.84    4.86 
   4  10  -1    2.08    1.76 
   4  10  -1    0.40    1.88 
   4  10  -1    3.02    2.08 
   4  10   0  159.64    8.33 
   4  10   0  181.91    9.39 
   4  10   1  156.08    7.67 
   4  10   1  141.18    8.37 
   4  10   2   21.41    2.50 
   4  10   2   17.19    3.28 
   4  10   3  270.29    9.56 
   4  10   3  265.32   10.01 
   4  10   3  262.37   12.02 
   4  10   3  277.60    8.24 
   4  10   4   66.62    3.90 
   4  10   4   67.72    4.16 
   4  10   5    6.75    1.51 
   4  10   5    6.84    1.37 
   4  10   5    7.97    2.56 
   4  10   6   36.21    2.76 
   4  10   6   39.07    2.50 
   4  10   7   33.09    2.57 
   4  10   7   35.36    4.26 
   4  10   8   19.38    3.49 
   4  10   9   45.55    4.89 
   4  10  10   44.78    4.64 
   4  10  11   49.74    5.00 
   4  11   0    4.85    2.31 
   4  11   0    7.28    2.84 
   4  11   1  156.37    8.17 
   4  11   1  162.05    9.36 
   4  11   2   88.75    5.74 
   4  11   2   83.33    6.68 
   4  11   3  127.65    6.54 
   4  11   3  129.11    8.36 
   4  11   3  109.08    4.32 
   4  11   4  154.56    6.97 
   4  11   4  143.84    8.92 
   4  11   5  104.54    5.19 
   4  11   6   30.20    2.44 
   4  11   7   25.98    1.89 
   4  11   8    3.45    2.59 
   4  11   9    1.47    2.49 
   4  12   4   89.16    7.41 
   4  12   5  136.34    6.45 
   4  12   5  133.90    9.00 
   4  12   6    7.70    1.64 
   4  12   6    7.16    3.18 
   5  -7  -6  168.70    9.46 
   5  -7  -6  150.08    9.14 
   5  -7  -5   -0.93    2.03 
   5  -7  -5    1.31    2.33 
   5  -7  -4  174.10    9.61 
   5  -7  -4  177.61    9.23 
   5  -7  -3  125.53    8.05 
   5  -7  -3  134.11    7.58 
   5  -7  -2  223.16    9.96 
   5  -7  -1   -0.33    1.64 
   5  -7   0  127.28    6.82 
   5  -6  -8   40.30    4.79 
   5  -6  -8   39.81    4.52 
   5  -6  -8   45.73    5.36 
   5  -6  -7    3.67    2.51 
   5  -6  -7    0.97    2.48 
   5  -6  -6   56.12    5.34 
   5  -6  -6   58.24    5.43 
   5  -6  -5   19.68    3.35 
   5  -6  -5   26.68    3.80 
   5  -6  -4   21.77    3.46 
   5  -6  -4   23.39    3.48 
   5  -6  -3  245.63   11.22 
   5  -6  -3  238.04   10.30 
   5  -6  -2  301.40   12.75 
   5  -6  -2  288.58   11.38 
   5  -6  -1   -0.29    1.54 
   5  -6   0  229.44    9.23 
   5  -6   1  138.07    6.61 
   5  -6   2    2.08    1.90 
   5  -6   3    2.47    1.76 
   5  -5  -9  314.94   13.54 
   5  -5  -9  288.38   13.74 
   5  -5  -9  270.18   11.63 
   5  -5  -8  184.10    9.02 
   5  -5  -8  185.09    9.95 
   5  -5  -8  201.17   10.73 
   5  -5  -7   15.02    2.84 
   5  -5  -7   20.94    3.52 
   5  -5  -7   19.15    3.64 
   5  -5  -6  108.89    7.03 
   5  -5  -6  112.48    6.92 
   5  -5  -6  117.24    7.44 
   5  -5  -5    3.96    2.05 
   5  -5  -5    1.95    2.20 
   5  -5  -4   18.78    2.91 
   5  -5  -4   16.89    2.95 
   5  -5  -3    3.74    1.74 
   5  -5  -3    3.17    1.72 
   5  -5  -2  398.42   14.75 
   5  -5  -2  409.34   13.79 
   5  -5  -1   63.71    5.04 
   5  -5  -1   56.16    4.17 
   5  -5   0  294.85   10.41 
   5  -5   1   90.00    4.79 
   5  -5   2   42.50    4.23 
   5  -5   3   13.02    2.60 
   5  -5   4  203.07    9.54 
   5  -5   5   94.39    6.12 
   5  -4 -10   11.91    3.16 
   5  -4 -10   15.98    2.49 
   5  -4  -9   51.62    5.21 
   5  -4  -9   44.91    4.05 
   5  -4  -9   46.81    5.50 
   5  -4  -9   49.89    3.64 
   5  -4  -8  183.68    9.70 
   5  -4  -8  192.56   10.36 
   5  -4  -8  189.18    8.75 
   5  -4  -8  188.80    7.54 
   5  -4  -7  143.90    7.45 
   5  -4  -7  137.63    8.07 
   5  -4  -7  149.75    8.72 
   5  -4  -6  160.06    8.45 
   5  -4  -6  165.98    8.16 
   5  -4  -6  159.88    8.73 
   5  -4  -5   42.63    4.22 
   5  -4  -5   37.43    3.85 
   5  -4  -5   41.97    4.20 
   5  -4  -4    6.32    2.01 
   5  -4  -4    8.98    2.24 
   5  -4  -4    8.19    2.30 
   5  -4  -3    6.78    2.03 
   5  -4  -3    4.73    1.82 
   5  -4  -2   10.11    2.05 
   5  -4  -1   68.92    4.24 
   5  -4   0    2.82    1.27 
   5  -4   1   48.87    4.26 
   5  -4   1   46.46    3.04 
   5  -4   2  292.33   11.86 
   5  -4   2  321.23    9.77 
   5  -4   3   58.35    4.62 
   5  -4   4   53.75    4.41 
   5  -4   5   74.31    5.21 
   5  -4   6   13.44    2.49 
   5  -3 -10  367.70   15.20 
   5  -3 -10  342.44   12.46 
   5  -3  -9    4.53    1.82 
   5  -3  -9    1.37    1.96 
   5  -3  -9    1.41    1.57 
   5  -3  -8   37.66    4.19 
   5  -3  -8   36.76    3.48 
   5  -3  -8   36.44    4.59 
   5  -3  -8   37.41    3.22 
   5  -3  -7   17.31    2.32 
   5  -3  -7   20.87    3.27 
   5  -3  -7   21.00    2.75 
   5  -3  -7   19.29    3.21 
   5  -3  -7   22.07    2.39 
   5  -3  -6    5.08    1.48 
   5  -3  -6    6.60    1.88 
   5  -3  -6    5.34    1.77 
   5  -3  -6    4.03    2.06 
   5  -3  -6    7.16    2.36 
   5  -3  -5   29.81    2.92 
   5  -3  -5   36.73    3.80 
   5  -3  -5   23.92    2.87 
   5  -3  -5   32.18    3.71 
   5  -3  -4  666.96   19.30 
   5  -3  -4  638.96   20.34 
   5  -3  -4  710.17   21.02 
   5  -3  -4  675.31   20.63 
   5  -3  -3   17.37    2.37 
   5  -3  -3   14.85    2.32 
   5  -3  -3   12.20    2.24 
   5  -3  -3   15.61    2.37 
   5  -3  -2   27.93    2.84 
   5  -3  -2   21.48    2.71 
   5  -3  -2   24.86    2.68 
   5  -3  -2   21.69    2.89 
   5  -3  -2   26.46    2.74 
   5  -3  -1   42.63    3.45 
   5  -3  -1   45.18    3.86 
   5  -3  -1   44.36    3.20 
   5  -3  -1   43.27    3.47 
   5  -3   0    2.57    1.52 
   5  -3   0    0.76    1.38 
   5  -3   0    2.05    1.19 
   5  -3   1  282.69   10.32 
   5  -3   1  271.38   10.18 
   5  -3   1  282.78    8.75 
   5  -3   2  221.37    9.46 
   5  -3   2  224.29    9.04 
   5  -3   2  243.08    7.34 
   5  -3   3  423.47   14.46 
   5  -3   4    1.76    1.52 
   5  -3   5  120.18    6.40 
   5  -3   6   38.19    3.54 
   5  -3   7   30.97    3.18 
   5  -3   8   70.44    4.55 
   5  -2 -11   55.23    5.86 
   5  -2 -11   44.35    5.69 
   5  -2 -10  276.32   12.73 
   5  -2 -10  245.29   12.84 
   5  -2  -9  226.77   11.19 
   5  -2  -9  234.41    9.00 
   5  -2  -9  242.75    9.68 
   5  -2  -8    1.67    2.22 
   5  -2  -8    1.29    1.45 
   5  -2  -8    1.61    1.45 
   5  -2  -7  225.60   10.33 
   5  -2  -7  216.57    7.87 
   5  -2  -7  241.34    9.18 
   5  -2  -7  242.93    8.73 
   5  -2  -7  206.43   10.37 
   5  -2  -7  223.08    8.72 
   5  -2  -6   90.54    5.89 
   5  -2  -6   94.83    4.61 
   5  -2  -6   89.31    5.25 
   5  -2  -6  105.21    6.60 
   5  -2  -6   87.18    4.82 
   5  -2  -6   85.93    5.05 
   5  -2  -6   94.89    4.94 
   5  -2  -5   88.18    5.68 
   5  -2  -5   87.33    4.43 
   5  -2  -5   81.65    4.88 
   5  -2  -5   88.27    5.88 
   5  -2  -5   78.81    4.66 
   5  -2  -5   91.41    5.17 
   5  -2  -5   89.65    4.65 
   5  -2  -4  123.58    5.59 
   5  -2  -4  135.17    6.35 
   5  -2  -4  119.18    6.55 
   5  -2  -4  131.08    6.08 
   5  -2  -4  140.27    6.61 
   5  -2  -4  130.55    5.69 
   5  -2  -3  682.23   18.84 
   5  -2  -3  630.94   19.21 
   5  -2  -3  686.48   19.86 
   5  -2  -3  684.88   19.31 
   5  -2  -3  663.71   19.85 
   5  -2  -2    0.83    1.50 
   5  -2  -2    1.85    1.46 
   5  -2  -2   -0.92    1.17 
   5  -2  -2   -0.82    1.47 
   5  -2  -2    0.23    1.23 
   5  -2  -1  172.40    7.80 
   5  -2  -1  190.49    7.48 
   5  -2  -1  178.09    7.52 
   5  -2  -1  203.85    7.25 
   5  -2  -1  181.01    7.47 
   5  -2   0    8.81    1.73 
   5  -2   0    9.22    1.93 
   5  -2   0    9.38    1.47 
   5  -2   1  179.65    7.58 
   5  -2   1  191.43    7.85 
   5  -2   1  174.17    7.42 
   5  -2   1  189.07    6.07 
   5  -2   2   15.21    2.31 
   5  -2   2   14.36    2.17 
   5  -2   2   17.07    2.16 
   5  -2   2   14.64    1.17 
   5  -2   2   15.82    2.31 
   5  -2   3  263.92    9.80 
   5  -2   3  273.99    9.69 
   5  -2   3  274.14   10.18 
   5  -2   4  404.09   13.55 
   5  -2   4  429.10   13.34 
   5  -2   4  414.91   13.72 
   5  -2   5    1.56    1.50 
   5  -2   5    0.53    1.54 
   5  -2   5    1.78    1.13 
   5  -2   6  171.52    7.40 
   5  -2   6  161.36    6.88 
   5  -2   7  118.27    5.91 
   5  -2   7  122.29    5.69 
   5  -2   8   17.27    2.32 
   5  -2   9   55.20    3.69 
   5  -1 -11   -2.19    2.74 
   5  -1 -11    0.33    1.63 
   5  -1 -10   40.29    5.01 
   5  -1 -10   46.59    3.97 
   5  -1  -9  217.54    8.34 
   5  -1  -9  241.38   11.41 
   5  -1  -9  239.46    9.59 
   5  -1  -8   45.99    3.39 
   5  -1  -8   49.02    4.76 
   5  -1  -8   41.83    3.47 
   5  -1  -8   42.75    3.63 
   5  -1  -7   29.64    2.18 
   5  -1  -7   25.84    3.46 
   5  -1  -7   27.67    2.56 
   5  -1  -7   29.46    2.80 
   5  -1  -7   25.67    2.80 
   5  -1  -7   31.32    2.96 
   5  -1  -6  449.48   15.80 
   5  -1  -6  467.07   13.04 
   5  -1  -6  463.88   14.40 
   5  -1  -6  472.21   14.51 
   5  -1  -6  440.72   13.84 
   5  -1  -6  466.33   14.57 
   5  -1  -5  288.39    9.05 
   5  -1  -5  282.75   10.03 
   5  -1  -5  293.14   10.30 
   5  -1  -5  280.71    9.75 
   5  -1  -5  285.71    9.98 
   5  -1  -4  213.60    7.34 
   5  -1  -4  199.74    7.96 
   5  -1  -4  220.06    8.44 
   5  -1  -4  207.80    7.92 
   5  -1  -4  207.99    7.86 
   5  -1  -3  643.96   17.74 
   5  -1  -3  677.46   18.64 
   5  -1  -3  611.34   18.27 
   5  -1  -3  660.30   19.04 
   5  -1  -3  656.34   18.24 
   5  -1  -2  494.22   14.56 
   5  -1  -2  500.66   15.14 
   5  -1  -2  520.95   15.35 
   5  -1  -2  512.08   15.20 
   5  -1  -2  516.02   15.70 
   5  -1  -1  123.83    5.38 
   5  -1  -1  115.41    5.65 
   5  -1  -1  113.93    5.45 
   5  -1  -1  123.85    5.28 
   5  -1  -1  120.69    5.56 
   5  -1  -1  118.68    5.88 
   5  -1   0  527.03   15.36 
   5  -1   0  544.64   15.66 
   5  -1   0  510.36   15.47 
   5  -1   0  514.51   15.43 
   5  -1   0  533.36   14.37 
   5  -1   0  489.92   15.79 
   5  -1   1  378.98   11.79 
   5  -1   1  360.74    9.86 
   5  -1   2  209.42    8.05 
   5  -1   2  198.64    7.72 
   5  -1   2  184.00    7.60 
   5  -1   2  209.18    7.73 
   5  -1   2  199.62    5.34 
   5  -1   3    2.16    1.35 
   5  -1   3    1.48    1.46 
   5  -1   3    0.91    1.28 
   5  -1   3    1.84    1.20 
   5  -1   4   75.79    4.75 
   5  -1   4   72.00    4.46 
   5  -1   4   84.53    4.67 
   5  -1   4   69.72    4.10 
   5  -1   5  195.78    8.15 
   5  -1   5  207.44    8.14 
   5  -1   5  207.74    7.74 
   5  -1   6   80.34    4.62 
   5  -1   6   83.76    5.04 
   5  -1   6   87.35    4.47 
   5  -1   7  727.22   20.53 
   5  -1   7  727.00   20.06 
   5  -1   8   70.98    4.18 
   5  -1   8   72.04    3.94 
   5  -1   9   10.64    1.82 
   5   0 -11   23.05    4.21 
   5   0 -11   26.34    3.35 
   5   0 -10   20.67    3.91 
   5   0 -10   14.16    2.62 
   5   0  -9  347.86   14.55 
   5   0  -9  353.61   12.89 
   5   0  -8  195.82    9.89 
   5   0  -8  193.89    8.48 
   5   0  -8  192.99    7.38 
   5   0  -7   73.42    4.10 
   5   0  -7   59.89    3.83 
   5   0  -7   70.59    3.81 
   5   0  -7   72.81    4.66 
   5   0  -6  167.49    5.46 
   5   0  -6  172.01    6.93 
   5   0  -6  166.61    6.80 
   5   0  -6  158.48    6.45 
   5   0  -6  176.49    7.55 
   5   0  -5  530.91   13.95 
   5   0  -5  528.59   15.60 
   5   0  -5  515.23   15.30 
   5   0  -5  509.67   15.06 
   5   0  -5  525.20   15.99 
   5   0  -5  516.66   15.85 
   5   0  -4   49.06    2.68 
   5   0  -4   45.42    3.29 
   5   0  -4   50.18    3.29 
   5   0  -4   40.74    3.20 
   5   0  -4   46.06    3.11 
   5   0  -4   46.94    3.40 
   5   0  -3  733.48   19.31 
   5   0  -3  740.44   20.21 
   5   0  -3  745.56   20.83 
   5   0  -3  746.50   20.30 
   5   0  -3  729.09   20.36 
   5   0  -2  353.43   10.61 
   5   0  -2  366.26   11.71 
   5   0  -2  350.61   11.19 
   5   0  -2  372.57   11.87 
   5   0  -2  356.64   11.28 
   5   0  -2  340.58   11.07 
   5   0  -1   63.47    3.48 
   5   0  -1   59.56    3.70 
   5   0  -1   63.01    3.65 
   5   0  -1   62.83    3.93 
   5   0  -1   65.76    3.75 
   5   0   0  271.84    8.98 
   5   0   0  284.94    9.19 
   5   0   0  263.47    9.10 
   5   0   0  266.57    9.54 
   5   0   0  255.69    9.05 
   5   0   1 1945.90   48.03 
   5   0   1 2042.24   47.84 
   5   0   1 1889.61   48.04 
   5   0   1 1900.89   48.49 
   5   0   1 1949.46   46.21 
   5   0   2  495.48   14.64 
   5   0   2  517.12   14.24 
   5   0   2  475.67   11.64 
   5   0   3  151.48    6.64 
   5   0   3  153.51    6.55 
   5   0   3  148.06    6.11 
   5   0   4   14.74    2.30 
   5   0   4   16.02    1.95 
   5   0   4   15.13    2.13 
   5   0   4   14.78    2.01 
   5   0   5   72.13    4.19 
   5   0   5   75.77    4.56 
   5   0   5   76.60    4.04 
   5   0   6    8.34    1.63 
   5   0   6    7.78    1.48 
   5   0   6    6.31    1.82 
   5   0   7  123.54    5.31 
   5   0   7  112.14    5.37 
   5   0   8  429.08   12.79 
   5   0   8  431.87   13.15 
   5   0   9   32.05    2.44 
   5   1 -10   38.35    5.08 
   5   1 -10   39.22    3.96 
   5   1  -9  110.69    7.77 
   5   1  -9  122.16    6.78 
   5   1  -8  167.67    7.94 
   5   1  -7   91.21    4.52 
   5   1  -7  100.06    4.48 
   5   1  -7  103.05    5.73 
   5   1  -7   95.01    4.62 
   5   1  -6  108.39    3.10 
   5   1  -6  103.97    4.83 
   5   1  -6  114.39    4.95 
   5   1  -6  108.25    5.85 
   5   1  -6  117.69    5.25 
   5   1  -5  974.06   22.84 
   5   1  -5  920.07   24.55 
   5   1  -5  910.24   24.56 
   5   1  -5  936.55   25.94 
   5   1  -5  915.88   24.98 
   5   1  -4  781.15   21.30 
   5   1  -4  782.99   19.42 
   5   1  -4  751.01   20.69 
   5   1  -4  774.82   20.89 
   5   1  -4  787.11   21.85 
   5   1  -3   15.69    1.94 
   5   1  -3   16.32    1.45 
   5   1  -3   10.87    2.01 
   5   1  -3   12.83    1.68 
   5   1  -3   16.53    1.83 
   5   1  -3   16.03    2.00 
   5   1  -3   16.90    2.08 
   5   1  -2  121.22    5.45 
   5   1  -2  118.34    4.57 
   5   1  -2  113.69    5.36 
   5   1  -2  121.25    5.11 
   5   1  -2  110.60    5.02 
   5   1  -2  116.50    5.38 
   5   1  -2  114.07    5.21 
   5   1  -1  274.98    8.66 
   5   1  -1  290.99    9.23 
   5   1  -1  258.66    9.42 
   5   1  -1  276.29    9.11 
   5   1  -1  277.79    9.24 
   5   1  -1  284.39    9.27 
   5   1   0  235.03    7.91 
   5   1   0  242.23    7.87 
   5   1   0  236.67    8.55 
   5   1   0  221.94    8.01 
   5   1   0  232.60    8.18 
   5   1   1  703.88   18.67 
   5   1   1  662.92   17.90 
   5   1   1  680.57   19.05 
   5   1   1  659.80   18.62 
   5   1   1  671.03   18.62 
   5   1   2  546.87   16.18 
   5   1   2  571.77   15.28 
   5   1   2  563.06   16.27 
   5   1   3   81.23    4.44 
   5   1   3   76.30    4.03 
   5   1   4  393.94   12.64 
   5   1   4  378.16   12.07 
   5   1   4  378.22   11.68 
   5   1   5  355.47   11.20 
   5   1   5  344.60   11.94 
   5   1   5  332.32   11.43 
   5   1   5  335.86   10.71 
   5   1   6   57.12    3.37 
   5   1   6   59.43    3.61 
   5   1   7    9.38    1.53 
   5   1   7   10.17    1.61 
   5   1   8    7.04    1.36 
   5   1   9  200.90    6.99 
   5   2 -10  147.08    8.06 
   5   2  -9    9.78    2.30 
   5   2  -8   14.18    2.60 
   5   2  -7  250.79    8.22 
   5   2  -7  251.90   10.23 
   5   2  -6    8.19    1.36 
   5   2  -6   10.41    1.46 
   5   2  -6   11.60    2.15 
   5   2  -5  563.80   18.12 
   5   2  -5  564.52   15.53 
   5   2  -5  567.28   15.82 
   5   2  -5  565.49   17.40 
   5   2  -4 1007.84   27.16 
   5   2  -4  958.60   24.79 
   5   2  -4  945.78   25.08 
   5   2  -4  983.01   26.55 
   5   2  -4  972.00   25.59 
   5   2  -3   65.60    4.19 
   5   2  -3   67.81    3.52 
   5   2  -3   65.24    3.59 
   5   2  -3   71.62    4.21 
   5   2  -3   66.88    3.80 
   5   2  -2   97.59    4.71 
   5   2  -2   87.93    3.59 
   5   2  -2   83.08    4.03 
   5   2  -2   90.49    4.29 
   5   2  -2   93.32    4.71 
   5   2  -2   88.02    4.51 
   5   2  -2   79.44    4.34 
   5   2  -1  870.83   21.90 
   5   2  -1  883.95   22.51 
   5   2  -1  838.33   22.34 
   5   2  -1  835.51   22.53 
   5   2  -1  862.63   22.99 
   5   2  -1  850.68   23.00 
   5   2  -1  823.89   22.69 
   5   2   0  101.85    4.42 
   5   2   0  106.67    4.32 
   5   2   0  107.60    4.73 
   5   2   0   94.50    4.54 
   5   2   0   91.92    4.55 
   5   2   0  100.09    4.85 
   5   2   0  104.73    4.67 
   5   2   1   20.14    1.98 
   5   2   1   17.94    1.87 
   5   2   1   14.49    1.44 
   5   2   1   17.58    1.95 
   5   2   1   17.89    2.05 
   5   2   1   18.53    1.63 
   5   2   2  378.71   11.76 
   5   2   2  378.31   10.32 
   5   2   2  368.61   11.61 
   5   2   2  376.09   10.12 
   5   2   2  358.71   11.69 
   5   2   3   89.71    4.71 
   5   2   3   89.36    4.58 
   5   2   4    0.47    1.28 
   5   2   4    1.74    0.98 
   5   2   4    2.01    1.07 
   5   2   5  152.09    5.97 
   5   2   5  149.96    6.22 
   5   2   6  259.69    8.63 
   5   2   7   11.07    1.58 
   5   2   8  174.77    6.42 
   5   2   9    1.50    0.89 
   5   2  10   33.08    2.25 
   5   3 -10  140.54    8.85 
   5   3 -10  156.89    8.57 
   5   3  -9   10.35    3.01 
   5   3  -9   15.14    2.81 
   5   3  -8   21.06    3.60 
   5   3  -8   17.77    2.90 
   5   3  -7  163.93    9.05 
   5   3  -7  184.88    8.58 
   5   3  -6   67.13    5.29 
   5   3  -6   73.63    3.72 
   5   3  -6   70.24    3.23 
   5   3  -6   76.59    5.01 
   5   3  -5   41.91    4.08 
   5   3  -5   46.75    2.93 
   5   3  -5   46.81    2.63 
   5   3  -5   47.51    3.86 
   5   3  -4  755.57   21.47 
   5   3  -4  703.23   18.66 
   5   3  -4  696.05   19.19 
   5   3  -4  739.65   20.99 
   5   3  -3  480.03   15.15 
   5   3  -3  490.57   13.57 
   5   3  -3  485.76   14.03 
   5   3  -3  489.92   15.09 
   5   3  -2   17.68    1.90 
   5   3  -2   20.53    2.21 
   5   3  -2   23.01    2.00 
   5   3  -2   22.27    2.31 
   5   3  -1  694.98   18.69 
   5   3  -1  686.80   18.45 
   5   3  -1  686.99   18.71 
   5   3  -1  687.31   19.22 
   5   3  -1  680.13   18.99 
   5   3   0  834.30   21.82 
   5   3   0  881.25   22.55 
   5   3   0  853.38   22.59 
   5   3   0  848.52   22.59 
   5   3   1  155.96    5.06 
   5   3   1  147.32    6.01 
   5   3   1  150.17    5.96 
   5   3   1  152.98    5.76 
   5   3   2  416.83   10.85 
   5   3   2  413.28   12.69 
   5   3   2  422.60   12.56 
   5   3   2  427.67   11.79 
   5   3   3  327.39    9.27 
   5   3   4  101.84    4.69 
   5   3   4  108.50    3.90 
   5   3   5    1.37    0.98 
   5   3   5    2.45    0.71 
   5   3   6  165.39    6.31 
   5   3   7  850.22   22.38 
   5   3   8    5.29    1.22 
   5   3   9  189.20    6.68 
   5   3  10    0.71    0.90 
   5   4  -9    3.26    2.89 
   5   4  -9    4.80    2.88 
   5   4  -9    7.95    2.48 
   5   4  -8    0.49    2.21 
   5   4  -8   -1.32    2.38 
   5   4  -8    0.39    1.89 
   5   4  -7  158.73    8.70 
   5   4  -7  165.45    8.38 
   5   4  -7  179.11    9.45 
   5   4  -6  313.81    9.76 
   5   4  -6  311.06   12.43 
   5   4  -6  328.31   12.34 
   5   4  -6  309.35   12.77 
   5   4  -5   11.89    1.59 
   5   4  -5    8.03    2.22 
   5   4  -5   10.21    2.18 
   5   4  -4   55.00    3.24 
   5   4  -4   50.02    2.60 
   5   4  -4   54.52    4.09 
   5   4  -4   53.94    4.29 
   5   4  -3  103.52    4.69 
   5   4  -3  107.72    4.21 
   5   4  -3  102.38    5.59 
   5   4  -3  103.24    5.61 
   5   4  -2  345.13   10.47 
   5   4  -2  359.13   11.08 
   5   4  -2  381.30   12.12 
   5   4  -2  364.36   11.78 
   5   4  -1  169.21    6.41 
   5   4  -1  158.84    5.94 
   5   4  -1  170.09    6.42 
   5   4  -1  163.25    6.96 
   5   4   0 1754.16   42.54 
   5   4   0 1758.36   43.20 
   5   4   0 1733.08   43.72 
   5   4   1 1341.29   31.66 
   5   4   1 1288.46   33.05 
   5   4   1 1285.78   33.00 
   5   4   1 1299.06   33.24 
   5   4   2   77.23    2.56 
   5   4   2   75.94    3.93 
   5   4   2   71.97    3.67 
   5   4   2   70.59    3.76 
   5   4   2   79.80    3.82 
   5   4   3  512.83   14.26 
   5   4   4  264.65    8.88 
   5   4   4  268.48    8.37 
   5   4   5   24.26    2.16 
   5   4   5   25.29    2.01 
   5   4   6  250.49    8.44 
   5   4   6  245.76    8.01 
   5   4   7 1145.03   29.24 
   5   4   8   57.28    3.35 
   5   4   9    1.61    1.00 
   5   5  -8    3.61    2.49 
   5   5  -8   -0.47    2.58 
   5   5  -8    0.42    2.21 
   5   5  -7  160.59    8.96 
   5   5  -7  170.92    8.73 
   5   5  -7  147.97    8.84 
   5   5  -6  173.42    8.71 
   5   5  -6  178.20    9.26 
   5   5  -5   30.63    3.78 
   5   5  -5   29.36    3.36 
   5   5  -4    2.10    1.00 
   5   5  -4    3.23    1.69 
   5   5  -4    4.34    1.79 
   5   5  -3  176.22    6.69 
   5   5  -3  173.70    7.81 
   5   5  -3  174.76    7.77 
   5   5  -2  132.45    5.63 
   5   5  -2  139.14    6.32 
   5   5  -1   98.80    4.70 
   5   5  -1  104.73    4.86 
   5   5   0  301.09    9.94 
   5   5   0  305.22   10.65 
   5   5   0  312.40    9.55 
   5   5   0  309.26   10.07 
   5   5   1 2118.57   49.97 
   5   5   1 2027.75   51.28 
   5   5   1 2155.10   51.50 
   5   5   1 2058.81   51.93 
   5   5   1 2127.79   51.20 
   5   5   2  109.15    3.49 
   5   5   2  110.28    5.00 
   5   5   2  113.86    4.84 
   5   5   2  112.01    5.24 
   5   5   2  118.98    4.84 
   5   5   3  360.15   11.52 
   5   5   3  372.64   10.97 
   5   5   3  387.21   11.69 
   5   5   4  710.58   19.37 
   5   5   5  348.42   11.01 
   5   5   5  350.13   10.96 
   5   5   6  298.07    9.65 
   5   5   6  286.89    9.68 
   5   5   7 1047.65   27.20 
   5   5   7 1048.21   27.49 
   5   5   8   63.88    3.63 
   5   6  -7    0.49    2.43 
   5   6  -7    1.29    2.00 
   5   6  -6  186.60    9.23 
   5   6  -6  161.97    9.11 
   5   6  -5   10.37    2.47 
   5   6  -4    7.20    2.35 
   5   6  -4    5.12    2.05 
   5   6  -3   11.88    2.34 
   5   6  -1  123.57    5.54 
   5   6   0  312.58   10.50 
   5   6   0  336.32   11.14 
   5   6   1  449.21   13.80 
   5   6   1  455.22   13.93 
   5   6   1  451.23   14.60 
   5   6   1  484.72   13.72 
   5   6   2  488.25   15.11 
   5   6   2  530.53   15.08 
   5   6   2  530.60   15.94 
   5   6   2  544.66   14.83 
   5   6   2  519.71   13.47 
   5   6   3  129.56    5.58 
   5   6   3  121.95    5.06 
   5   6   3  118.62    5.77 
   5   6   3  126.90    5.01 
   5   6   4  669.79   17.42 
   5   6   4  635.35   18.71 
   5   6   5 1182.30   30.58 
   5   6   5 1182.31   31.04 
   5   6   6   59.47    3.63 
   5   6   6   64.30    4.15 
   5   6   7  734.85   20.94 
   5   6   8   63.50    4.26 
   5   7  -7   17.90    3.98 
   5   7  -7    8.76    3.09 
   5   7  -7   15.03    3.19 
   5   7  -6   40.10    4.67 
   5   7  -6   48.26    4.83 
   5   7  -5  115.51    7.30 
   5   7  -4  217.70    9.95 
   5   7  -4  226.17   10.23 
   5   7  -3    3.31    1.74 
   5   7  -1  157.02    7.39 
   5   7   0    8.02    1.80 
   5   7   0    3.42    1.59 
   5   7   1  268.92    9.67 
   5   7   1  267.67   10.75 
   5   7   2  106.35    4.01 
   5   7   2  119.13    5.36 
   5   7   2  104.48    5.86 
   5   7   2  109.82    6.30 
   5   7   2  117.35    4.95 
   5   7   3   16.87    1.75 
   5   7   3   16.58    1.88 
   5   7   3   19.22    2.76 
   5   7   3   16.92    2.51 
   5   7   4    5.53    1.17 
   5   7   4    1.58    1.66 
   5   7   4    3.18    1.59 
   5   7   5 1583.53   38.33 
   5   7   5 1573.65   40.85 
   5   7   6  382.61   13.03 
   5   7   6  381.47   13.55 
   5   7   7   71.59    4.72 
   5   7   8   61.28    4.48 
   5   7   9   29.74    3.37 
   5   8  -5   33.18    4.26 
   5   8  -5   27.72    3.89 
   5   8  -4  163.92    8.64 
   5   8  -3   15.50    2.93 
   5   8  -2  111.65    6.69 
   5   8  -1  518.82   17.11 
   5   8  -1  532.24   17.57 
   5   8   0   53.44    4.05 
   5   8   0   46.82    4.22 
   5   8   1   25.15    2.13 
   5   8   1   24.99    2.79 
   5   8   1   31.67    3.53 
   5   8   2   13.20    1.48 
   5   8   2   13.59    2.05 
   5   8   2   16.63    2.82 
   5   8   2   15.37    1.78 
   5   8   3   99.89    3.86 
   5   8   3  109.00    5.04 
   5   8   3   93.74    5.85 
   5   8   3   98.60    6.23 
   5   8   3  101.88    4.40 
   5   8   4   34.83    2.57 
   5   8   4   30.57    3.59 
   5   8   4   30.35    3.34 
   5   8   5  442.39   12.44 
   5   8   5  435.27   14.94 
   5   8   6   64.14    2.87 
   5   8   6   60.86    4.68 
   5   8   7  245.26   10.39 
   5   8   7  273.65   11.01 
   5   8   8   39.19    3.85 
   5   9  -4   32.69    4.05 
   5   9  -3   51.59    4.59 
   5   9  -3   35.57    4.22 
   5   9  -2   15.23    2.87 
   5   9  -2   13.02    2.82 
   5   9  -1  249.75   10.87 
   5   9  -1  279.25   11.59 
   5   9   0   87.97    4.79 
   5   9   0   91.71    5.74 
   5   9   0   97.46    6.41 
   5   9   1    8.70    1.64 
   5   9   1    9.39    2.03 
   5   9   1    9.12    2.49 
   5   9   2   24.35    2.16 
   5   9   2   22.06    2.17 
   5   9   2   36.00    3.23 
   5   9   2   32.36    3.86 
   5   9   3  173.30    6.19 
   5   9   3  176.81    7.27 
   5   9   3  171.75    8.98 
   5   9   3  178.15    6.34 
   5   9   4  176.18    5.94 
   5   9   4  181.09    6.99 
   5   9   4  193.09    9.47 
   5   9   5   91.28    3.56 
   5   9   5  108.40    4.58 
   5   9   5  100.42    6.71 
   5   9   6   51.46    2.72 
   5   9   7   62.47    5.15 
   5   9   8   65.99    5.31 
   5   9   9   87.15    6.12 
   5   9  10  519.70   18.01 
   5  10  -2    9.90    2.81 
   5  10  -2    8.50    2.58 
   5  10  -1   17.45    3.27 
   5  10  -1   22.54    3.41 
   5  10   0   68.82    5.20 
   5  10   0   59.43    5.28 
   5  10   1   35.47    3.09 
   5  10   1   31.85    3.52 
   5  10   1   40.03    4.45 
   5  10   2    0.20    1.19 
   5  10   2    0.59    1.32 
   5  10   2   -0.45    1.73 
   5  10   2    0.37    1.20 
   5  10   3  101.52    4.77 
   5  10   3  111.33    5.72 
   5  10   3   97.21    6.99 
   5  10   3  101.83    4.49 
   5  10   4   65.81    3.59 
   5  10   4   78.99    4.41 
   5  10   4   75.40    6.13 
   5  10   5    2.66    1.05 
   5  10   5    2.06    1.18 
   5  10   5    4.04    2.21 
   5  10   6   14.32    1.48 
   5  10   6   17.34    1.78 
   5  10   7  373.63   10.08 
   5  10   7  363.95   14.75 
   5  10   8   61.79    5.37 
   5  10   9   56.69    5.26 
   5  10  10   84.79    6.38 
   5  10  11  140.52    8.22 
   5  11   0    2.80    2.04 
   5  11   0    3.90    2.23 
   5  11   1   37.97    3.89 
   5  11   1   36.01    4.52 
   5  11   2   51.38    4.32 
   5  11   2   47.63    5.07 
   5  11   2   43.17    3.08 
   5  11   3   51.75    4.07 
   5  11   3   59.77    5.66 
   5  11   4   45.44    5.04 
   5  11   5   29.80    2.68 
   5  11   5   28.49    4.21 
   5  11   6    7.32    1.43 
   5  11   7   75.90    3.34 
   5  11   8  102.52    7.47 
   5  11   9   23.28    3.82 
   5  12   4   30.55    3.23 
   5  12   4   27.55    4.20 
   5  12   5   90.84    5.10 
   5  12   5  114.18    8.12 
   5  12   6   20.48    2.23 
   5  12   6   18.20    3.69 
   6  -6  -5   81.24    6.49 
   6  -6  -5   72.25    6.08 
   6  -6  -5   69.85    5.92 
   6  -6  -4   69.15    5.94 
   6  -6  -4   69.21    6.15 
   6  -6  -4   72.39    5.70 
   6  -6  -3  157.32    8.97 
   6  -6  -3  144.73    8.70 
   6  -6  -3  148.76    7.87 
   6  -6  -2  218.63   10.91 
   6  -6  -2  205.67    9.21 
   6  -6  -1   91.14    5.53 
   6  -6   0   38.35    4.63 
   6  -6   0   40.53    3.62 
   6  -5  -7   25.13    3.52 
   6  -5  -7   26.96    4.10 
   6  -5  -7   34.96    4.61 
   6  -5  -6   29.35    4.14 
   6  -5  -6   28.75    3.90 
   6  -5  -6   31.64    4.24 
   6  -5  -5  198.68   10.21 
   6  -5  -5  230.86   10.85 
   6  -5  -5  222.12   10.55 
   6  -5  -4  119.35    7.57 
   6  -5  -4  127.86    7.79 
   6  -5  -4  122.36    7.13 
   6  -5  -3    3.86    2.25 
   6  -5  -3    4.66    2.15 
   6  -5  -2  189.92    9.85 
   6  -5  -2  202.60    8.77 
   6  -5  -1  128.91    6.43 
   6  -5   0    6.40    2.24 
   6  -5   0    9.60    1.90 
   6  -5   1  321.01   13.45 
   6  -5   1  319.99   10.64 
   6  -5   2  137.83    8.07 
   6  -5   3   12.00    2.81 
   6  -4  -9    3.66    2.17 
   6  -4  -9    4.56    2.58 
   6  -4  -9    6.22    3.23 
   6  -4  -8  268.18   12.30 
   6  -4  -8  252.45   12.52 
   6  -4  -8  243.10   10.83 
   6  -4  -7   90.60    6.71 
   6  -4  -7   86.54    6.78 
   6  -4  -7   85.14    6.01 
   6  -4  -6   51.25    4.68 
   6  -4  -6   57.53    5.28 
   6  -4  -6   61.32    5.43 
   6  -4  -5   20.74    3.24 
   6  -4  -5   25.02    3.36 
   6  -4  -5   28.92    3.77 
   6  -4  -4   93.27    6.28 
   6  -4  -4   95.95    6.17 
   6  -4  -3  342.55   13.73 
   6  -4  -3  364.52   13.02 
   6  -4  -2  139.82    7.93 
   6  -4  -2  152.87    7.17 
   6  -4  -1  671.75   21.90 
   6  -4  -1  692.93   19.78 
   6  -4   0   10.76    2.57 
   6  -4   0    9.81    1.93 
   6  -4   1  152.92    8.37 
   6  -4   1  167.47    6.34 
   6  -4   2  105.55    6.73 
   6  -4   3  214.11   10.01 
   6  -4   4   17.50    3.12 
   6  -4   5  211.23    9.77 
   6  -3  -9   13.86    3.32 
   6  -3  -9   24.88    3.09 
   6  -3  -9   16.76    3.67 
   6  -3  -9   18.30    2.66 
   6  -3  -8   56.16    5.42 
   6  -3  -8   54.59    5.66 
   6  -3  -8   48.68    4.37 
   6  -3  -8   56.42    4.14 
   6  -3  -7  276.68   12.28 
   6  -3  -7  255.50   11.04 
   6  -3  -7  281.46   12.75 
   6  -3  -7  287.48   10.29 
   6  -3  -6    0.41    2.15 
   6  -3  -6   -0.69    1.67 
   6  -3  -5  279.26   11.69 
   6  -3  -5  268.68   11.13 
   6  -3  -4  146.34    7.64 
   6  -3  -4  154.28    7.93 
   6  -3  -3   70.83    4.92 
   6  -3  -3   74.74    5.31 
   6  -3  -2   28.45    3.38 
   6  -3  -2   27.85    2.95 
   6  -3  -1  323.30   12.37 
   6  -3  -1  321.14   10.76 
   6  -3  -1  313.37   12.38 
   6  -3   0  254.45   10.60 
   6  -3   0  256.41    8.69 
   6  -3   1   47.11    4.17 
   6  -3   1   42.43    2.64 
   6  -3   1   37.98    3.89 
   6  -3   2  259.96   10.78 
   6  -3   2  253.17    7.47 
   6  -3   3  458.51   15.94 
   6  -3   4   38.69    3.86 
   6  -3   5  105.27    6.34 
   6  -3   6  121.31    6.81 
   6  -2 -10  182.60   10.47 
   6  -2 -10  176.95    8.60 
   6  -2  -9   96.45    7.28 
   6  -2  -9   96.38    5.68 
   6  -2  -9   94.32    7.57 
   6  -2  -9   96.07    5.87 
   6  -2  -8    0.91    2.15 
   6  -2  -8    0.61    1.54 
   6  -2  -8   -0.51    2.32 
   6  -2  -8    1.18    1.50 
   6  -2  -7  129.77    6.86 
   6  -2  -7  129.93    8.22 
   6  -2  -7  124.63    6.37 
   6  -2  -6    3.87    1.54 
   6  -2  -6    2.95    1.88 
   6  -2  -6    2.52    1.80 
   6  -2  -5   -0.24    1.14 
   6  -2  -5   -0.63    1.61 
   6  -2  -5    1.09    1.51 
   6  -2  -5   -0.76    1.96 
   6  -2  -4  303.57   10.39 
   6  -2  -4  297.09   11.73 
   6  -2  -4  297.55   11.50 
   6  -2  -3  394.06   13.01 
   6  -2  -3  412.99   13.94 
   6  -2  -3  412.56   14.34 
   6  -2  -2   53.63    3.86 
   6  -2  -2   54.26    4.25 
   6  -2  -2   58.63    4.03 
   6  -2  -2   52.39    4.30 
   6  -2  -1  177.48    7.82 
   6  -2  -1  200.31    8.52 
   6  -2  -1  207.34    7.63 
   6  -2  -1  176.70    8.49 
   6  -2   0   14.05    2.24 
   6  -2   0   14.34    2.54 
   6  -2   0   14.95    1.76 
   6  -2   1  250.43   10.03 
   6  -2   1  244.91    7.58 
   6  -2   2    0.95    1.60 
   6  -2   3  922.90   26.45 
   6  -2   4  123.42    6.63 
   6  -2   5   62.35    4.59 
   6  -2   6   96.14    5.73 
   6  -2   7  178.63    8.17 
   6  -2   8   20.56    2.76 
   6  -1 -10  125.35    8.70 
   6  -1 -10  136.87    7.58 
   6  -1  -9   83.39    6.90 
   6  -1  -9   92.69    5.86 
   6  -1  -8   -0.27    1.23 
   6  -1  -8    0.95    1.73 
   6  -1  -7   51.49    4.02 
   6  -1  -7   65.39    4.61 
   6  -1  -6    9.32    1.80 
   6  -1  -6    6.95    1.86 
   6  -1  -6    6.83    1.91 
   6  -1  -5  122.45    5.44 
   6  -1  -5  147.02    6.98 
   6  -1  -5  131.68    6.36 
   6  -1  -5  135.02    6.38 
   6  -1  -4   16.81    2.18 
   6  -1  -4   16.27    2.03 
   6  -1  -4   19.07    2.42 
   6  -1  -4   13.47    2.19 
   6  -1  -4   15.23    2.39 
   6  -1  -4   14.29    2.49 
   6  -1  -3  307.04   10.14 
   6  -1  -3  306.98   11.34 
   6  -1  -3  275.75   10.50 
   6  -1  -3  309.75   11.36 
   6  -1  -3  298.76   10.66 
   6  -1  -3  300.44   11.14 
   6  -1  -2   77.19    4.38 
   6  -1  -2   80.78    4.99 
   6  -1  -2   72.41    4.56 
   6  -1  -2   74.19    4.92 
   6  -1  -2   74.35    4.56 
   6  -1  -2   77.70    4.62 
   6  -1  -1  176.48    7.31 
   6  -1  -1  196.90    7.97 
   6  -1  -1  174.00    7.56 
   6  -1  -1  175.58    8.00 
   6  -1  -1  155.10    7.24 
   6  -1  -1  182.47    7.05 
   6  -1   0    4.09    1.73 
   6  -1   0    2.61    1.57 
   6  -1   0    1.53    1.21 
   6  -1   0    2.77    1.45 
   6  -1   0    0.99    1.13 
   6  -1   0    3.30    1.20 
   6  -1   1   16.68    2.47 
   6  -1   1   16.22    2.23 
   6  -1   1   17.78    1.51 
   6  -1   2   57.07    3.93 
   6  -1   2   49.32    3.87 
   6  -1   2   56.13    4.20 
   6  -1   2   50.85    3.72 
   6  -1   2   51.96    1.83 
   6  -1   3   48.77    3.99 
   6  -1   3   49.48    3.68 
   6  -1   4  524.65   16.70 
   6  -1   4  522.30   16.05 
   6  -1   5   18.30    2.64 
   6  -1   6  126.22    6.45 
   6  -1   7  270.80   10.34 
   6  -1   8  124.98    6.33 
   6  -1   9    2.99    1.61 
   6   0 -10    5.91    2.19 
   6   0  -9  254.34   10.77 
   6   0  -8  106.05    6.23 
   6   0  -8  101.06    5.40 
   6   0  -7   -0.22    1.27 
   6   0  -7    0.73    1.52 
   6   0  -7    0.63    1.41 
   6   0  -7    0.26    1.35 
   6   0  -7   -0.62    1.63 
   6   0  -6    3.95    1.64 
   6   0  -6    4.53    1.51 
   6   0  -6    6.90    1.85 
   6   0  -6    8.34    1.96 
   6   0  -6    2.88    1.73 
   6   0  -5   72.53    5.14 
   6   0  -5   70.32    3.53 
   6   0  -5   70.74    4.52 
   6   0  -5   76.66    4.48 
   6   0  -5   66.99    4.14 
   6   0  -5   66.18    4.44 
   6   0  -4   12.17    1.61 
   6   0  -4   15.03    2.49 
   6   0  -4   14.39    2.19 
   6   0  -4   11.52    1.90 
   6   0  -4   11.10    1.97 
   6   0  -4   12.72    2.12 
   6   0  -3  118.96    5.20 
   6   0  -3  127.62    6.40 
   6   0  -3  118.12    6.13 
   6   0  -3  122.55    5.91 
   6   0  -3  125.93    5.88 
   6   0  -3  125.27    5.95 
   6   0  -2  110.36    5.12 
   6   0  -2  123.47    6.00 
   6   0  -2  113.86    5.63 
   6   0  -2  105.75    5.86 
   6   0  -2  118.09    5.70 
   6   0  -2  115.86    5.55 
   6   0  -1   11.46    1.82 
   6   0  -1   11.63    1.93 
   6   0  -1    9.49    1.77 
   6   0  -1   12.68    2.01 
   6   0  -1    9.37    1.90 
   6   0   0   37.78    3.14 
   6   0   0   35.33    3.02 
   6   0   0   41.82    3.50 
   6   0   0   36.24    3.10 
   6   0   0   32.83    2.95 
   6   0   0   42.65    2.73 
   6   0   1  536.85   16.31 
   6   0   1  558.66   16.12 
   6   0   1  539.86   16.48 
   6   0   1  553.85   17.06 
   6   0   1  536.78   14.38 
   6   0   2  157.77    7.09 
   6   0   2  157.75    6.63 
   6   0   2  157.24    6.85 
   6   0   2  162.28    4.43 
   6   0   3    4.85    1.76 
   6   0   3    6.87    1.57 
   6   0   3    8.54    2.00 
   6   0   3    7.86    1.97 
   6   0   4    3.76    1.55 
   6   0   4    2.28    1.38 
   6   0   4    4.35    1.72 
   6   0   5   27.10    2.80 
   6   0   5   26.39    2.62 
   6   0   6   54.06    3.99 
   6   0   6   61.62    3.91 
   6   0   7  595.15   17.22 
   6   0   7  571.64   17.57 
   6   0   8  357.70   11.82 
   6   0   8  371.56   12.35 
   6   0   9    2.35    1.45 
   6   1 -10   90.20    6.23 
   6   1  -9   26.65    3.43 
   6   1  -8  389.10   14.21 
   6   1  -7  138.19    7.15 
   6   1  -7  129.42    6.12 
   6   1  -6   12.83    2.85 
   6   1  -6   11.38    1.87 
   6   1  -6   10.03    1.83 
   6   1  -6   10.72    1.90 
   6   1  -6   11.42    2.22 
   6   1  -5  409.73   14.56 
   6   1  -5  412.05   11.28 
   6   1  -5  396.39   12.78 
   6   1  -5  398.37   12.81 
   6   1  -5  429.12   14.12 
   6   1  -5  406.96   13.84 
   6   1  -5  423.51   13.46 
   6   1  -4  223.23    8.91 
   6   1  -4  239.54    9.69 
   6   1  -4  228.01    7.37 
   6   1  -4  226.12    8.39 
   6   1  -4  224.19    8.48 
   6   1  -4  236.38    9.30 
   6   1  -4  235.24    9.10 
   6   1  -3   20.44    2.49 
   6   1  -3   19.93    1.88 
   6   1  -3   21.31    2.58 
   6   1  -3   19.22    2.26 
   6   1  -3   20.42    2.33 
   6   1  -3   20.46    2.51 
   6   1  -3   23.02    2.58 
   6   1  -2   43.12    2.88 
   6   1  -2   42.31    3.38 
   6   1  -2   46.06    3.53 
   6   1  -2   45.75    3.30 
   6   1  -2   42.42    3.29 
   6   1  -2   49.75    3.47 
   6   1  -1   34.53    2.67 
   6   1  -1   34.90    2.90 
   6   1  -1   36.67    3.16 
   6   1  -1   31.08    2.80 
   6   1  -1   31.29    2.76 
   6   1  -1   30.04    2.74 
   6   1   0  102.87    5.00 
   6   1   0  101.44    4.93 
   6   1   0  106.70    5.60 
   6   1   0   96.87    5.02 
   6   1   0  104.44    5.22 
   6   1   1  501.96   15.03 
   6   1   1  487.14   15.48 
   6   1   1  505.90   14.44 
   6   1   1  493.13   15.09 
   6   1   1  488.82   14.93 
   6   1   2  694.84   19.60 
   6   1   2  691.85   18.54 
   6   1   2  664.12   19.43 
   6   1   2  666.06   16.76 
   6   1   3  116.33    5.92 
   6   1   3  117.07    5.94 
   6   1   3  118.65    5.60 
   6   1   4   48.94    3.84 
   6   1   4   41.48    3.41 
   6   1   4   40.09    3.14 
   6   1   5   41.45    3.39 
   6   1   5   39.91    3.12 
   6   1   6  136.36    6.07 
   6   1   6  140.36    6.53 
   6   1   7    1.48    1.16 
   6   1   7    1.95    1.32 
   6   1   8  196.20    7.39 
   6   1   8  172.81    7.43 
   6   1   9  176.84    6.98 
   6   2  -9   29.66    3.73 
   6   2  -8   15.22    3.47 
   6   2  -8   21.69    3.14 
   6   2  -7  344.55   14.16 
   6   2  -7  360.19   13.32 
   6   2  -6   91.74    6.30 
   6   2  -6   94.42    4.70 
   6   2  -6  101.89    4.91 
   6   2  -6  100.46    5.97 
   6   2  -5  700.29   21.53 
   6   2  -5  683.44   19.05 
   6   2  -5  660.53   19.18 
   6   2  -5  713.45   21.00 
   6   2  -5  709.66   19.90 
   6   2  -4  858.10   24.42 
   6   2  -4  819.88   22.45 
   6   2  -4  817.40   22.69 
   6   2  -4  864.98   24.13 
   6   2  -4  833.24   23.29 
   6   2  -4  852.56   23.94 
   6   2  -3   29.41    2.07 
   6   2  -3   23.64    2.39 
   6   2  -3   28.73    2.97 
   6   2  -3   27.98    2.54 
   6   2  -3   23.86    2.54 
   6   2  -3   29.87    2.96 
   6   2  -3   28.18    2.93 
   6   2  -2    1.33    1.00 
   6   2  -2    0.85    1.17 
   6   2  -2    0.46    1.23 
   6   2  -2   -0.20    1.18 
   6   2  -2    0.50    1.16 
   6   2  -2    1.72    1.15 
   6   2  -2    1.17    1.22 
   6   2  -1  161.93    6.21 
   6   2  -1  168.53    6.60 
   6   2  -1  159.60    6.61 
   6   2  -1  156.46    6.65 
   6   2  -1  157.64    6.94 
   6   2  -1  161.08    7.08 
   6   2  -1  176.30    6.98 
   6   2   0  483.48   13.96 
   6   2   0  474.08   13.59 
   6   2   0  443.65   14.02 
   6   2   0  464.35   14.23 
   6   2   0  460.54   14.70 
   6   2   0  476.02   14.26 
   6   2   1    5.24    1.49 
   6   2   1    4.50    1.36 
   6   2   1    6.37    1.21 
   6   2   1    3.72    1.39 
   6   2   1    4.00    1.45 
   6   2   2  278.43    9.97 
   6   2   2  278.26    8.68 
   6   2   2  274.50    9.92 
   6   2   2  292.38    8.27 
   6   2   3  135.97    6.49 
   6   2   3  145.43    6.55 
   6   2   3  145.38    6.25 
   6   2   4   -0.27    1.65 
   6   2   4   -1.06    1.18 
   6   2   4    0.49    1.03 
   6   2   5  248.50    9.85 
   6   2   5  234.74    8.72 
   6   2   5  249.90    9.26 
   6   2   6  451.76   14.00 
   6   2   6  472.45   14.57 
   6   2   7    0.20    1.13 
   6   2   8   21.25    2.27 
   6   2   9  133.46    5.69 
   6   3  -9   21.00    4.03 
   6   3  -9   27.36    3.75 
   6   3  -8    0.49    2.46 
   6   3  -8    1.95    1.92 
   6   3  -7   25.80    3.79 
   6   3  -7   24.12    3.32 
   6   3  -6  305.69   12.81 
   6   3  -6  321.00   10.47 
   6   3  -6  330.19   12.46 
   6   3  -5   79.61    5.55 
   6   3  -5   76.27    3.96 
   6   3  -5   78.95    4.25 
   6   3  -5   83.63    5.38 
   6   3  -4  882.44   25.06 
   6   3  -4  843.84   22.66 
   6   3  -4  840.89   23.10 
   6   3  -4  877.97   24.79 
   6   3  -3  430.46   13.94 
   6   3  -3  414.29   12.55 
   6   3  -3  413.25   12.91 
   6   3  -3  411.63   13.91 
   6   3  -3  421.45   13.77 
   6   3  -2   10.27    1.68 
   6   3  -2    9.83    1.84 
   6   3  -2    8.65    1.65 
   6   3  -2    8.68    1.71 
   6   3  -2   11.14    1.98 
   6   3  -1  580.52   16.16 
   6   3  -1  545.14   16.17 
   6   3  -1  550.89   16.36 
   6   3  -1  568.28   16.94 
   6   3  -1  565.34   16.96 
   6   3  -1  566.81   16.72 
   6   3   0  349.98   10.52 
   6   3   0  356.76   11.33 
   6   3   0  342.41   11.26 
   6   3   0  337.17   11.71 
   6   3   0  347.01   11.39 
   6   3   1    2.10    1.09 
   6   3   1    1.02    0.78 
   6   3   1    1.71    1.17 
   6   3   1    1.23    1.17 
   6   3   1    2.35    1.13 
   6   3   2  101.13    3.80 
   6   3   2   97.33    5.04 
   6   3   2   91.62    4.82 
   6   3   2   94.81    5.18 
   6   3   2   93.26    4.09 
   6   3   3  185.90    7.43 
   6   3   3  169.48    5.69 
   6   3   4  129.89    5.79 
   6   3   4  130.35    4.35 
   6   3   5   30.90    2.70 
   6   3   6  224.41    8.26 
   6   3   7   86.21    4.55 
   6   3   8   10.16    1.74 
   6   3   9  178.98    6.93 
   6   3  10   14.99    1.90 
   6   4  -8   46.91    5.27 
   6   4  -8   47.19    4.58 
   6   4  -7  137.65    8.31 
   6   4  -7  126.81    7.49 
   6   4  -6  171.19    9.09 
   6   4  -6  178.36    8.66 
   6   4  -5   28.47    2.53 
   6   4  -5   26.90    3.46 
   6   4  -5   26.92    3.25 
   6   4  -4    0.40    1.19 
   6   4  -4    2.91    1.82 
   6   4  -4    3.10    1.17 
   6   4  -4    1.87    1.73 
   6   4  -3  295.46   11.05 
   6   4  -3  310.24    9.69 
   6   4  -3  288.96    9.98 
   6   4  -3  310.54   11.40 
   6   4  -2  936.50   24.85 
   6   4  -2  891.43   23.69 
   6   4  -2  923.51   24.23 
   6   4  -2  938.06   25.48 
   6   4  -1  443.85   13.16 
   6   4  -1  424.62   13.01 
   6   4  -1  432.59   13.33 
   6   4  -1  431.20   14.02 
   6   4   0  832.91   21.18 
   6   4   0  808.41   22.01 
   6   4   0  799.88   22.08 
   6   4   0  771.55   22.26 
   6   4   1   20.59    2.20 
   6   4   1   15.83    1.51 
   6   4   1   21.36    2.33 
   6   4   1   20.27    2.19 
   6   4   1   19.95    2.26 
   6   4   2   30.75    1.71 
   6   4   2   31.22    2.65 
   6   4   2   27.97    2.49 
   6   4   2   31.24    2.47 
   6   4   3   22.34    1.97 
   6   4   4   42.17    3.13 
   6   4   4   39.22    2.53 
   6   4   5    4.98    1.38 
   6   4   5    3.43    1.06 
   6   4   6   55.48    3.51 
   6   4   6   50.46    2.74 
   6   4   7  277.37    9.54 
   6   4   8   83.90    4.42 
   6   4   9    6.18    1.46 
   6   4  10   25.74    2.41 
   6   5  -8  105.10    7.75 
   6   5  -8   99.58    6.97 
   6   5  -7    3.86    2.65 
   6   5  -7   10.42    2.56 
   6   5  -6  317.32   13.39 
   6   5  -6  319.11   12.92 
   6   5  -5  262.22   11.38 
   6   5  -5  266.01   11.13 
   6   5  -4    6.93    1.48 
   6   5  -4    5.44    2.22 
   6   5  -4    7.36    2.06 
   6   5  -3    3.10    1.27 
   6   5  -3    3.83    1.75 
   6   5  -3    3.71    1.60 
   6   5  -2  188.89    7.73 
   6   5  -2  177.43    7.14 
   6   5  -2  170.33    8.11 
   6   5  -1  279.47    9.36 
   6   5  -1  255.64    9.23 
   6   5  -1  250.62   10.03 
   6   5   0  174.70    6.31 
   6   5   0  169.87    6.93 
   6   5   0  161.72    7.06 
   6   5   0  159.10    7.28 
   6   5   0  162.95    6.95 
   6   5   1 1449.51   35.49 
   6   5   1 1415.10   37.22 
   6   5   1 1489.27   37.44 
   6   5   1 1482.42   37.67 
   6   5   1 1490.56   37.21 
   6   5   2   15.97    1.90 
   6   5   2   16.05    1.17 
   6   5   2   16.59    2.15 
   6   5   2   12.38    1.85 
   6   5   2   15.87    2.06 
   6   5   3   46.48    3.02 
   6   5   3   41.52    3.02 
   6   5   4    1.07    1.12 
   6   5   5    0.86    1.25 
   6   5   5    0.87    1.29 
   6   5   6   26.25    2.50 
   6   5   6   30.74    2.50 
   6   5   7  131.13    5.88 
   6   5   7  132.61    5.55 
   6   5   8  120.22    5.51 
   6   5   9   14.53    1.95 
   6   5  10   13.88    1.92 
   6   6  -7   24.85    4.07 
   6   6  -7   19.66    3.25 
   6   6  -6   85.58    6.26 
   6   6  -6   99.56    6.98 
   6   6  -5  267.82   11.33 
   6   6  -5  250.46   11.41 
   6   6  -4   94.15    6.09 
   6   6  -4   95.50    6.15 
   6   6  -3   21.50    2.38 
   6   6  -3   22.34    2.94 
   6   6  -2  264.99    9.56 
   6   6  -2  286.35   10.39 
   6   6  -1   49.72    3.51 
   6   6  -1   42.45    3.86 
   6   6  -1   52.21    3.58 
   6   6   0  106.76    4.86 
   6   6   0  108.79    5.30 
   6   6   0  114.50    5.72 
   6   6   0   93.51    5.65 
   6   6   0  108.38    5.41 
   6   6   1  199.53    6.88 
   6   6   1  201.64    7.97 
   6   6   1  216.00    8.25 
   6   6   1  202.42    8.47 
   6   6   1  227.82    8.16 
   6   6   2 1294.89   31.42 
   6   6   2 1304.25   34.08 
   6   6   2 1381.12   34.03 
   6   6   2 1267.21   34.41 
   6   6   2 1371.71   33.74 
   6   6   3   76.35    4.37 
   6   6   3   69.23    3.84 
   6   6   3   72.97    4.38 
   6   6   4  338.48   10.53 
   6   6   4  340.48   11.30 
   6   6   5   54.67    3.73 
   6   6   5   66.55    3.99 
   6   6   6  146.48    6.48 
   6   6   6  157.44    6.60 
   6   6   7   13.61    2.02 
   6   6   7   12.19    2.04 
   6   6   8   66.90    3.95 
   6   6   8   56.16    3.85 
   6   7  -6   25.09    4.00 
   6   7  -6   19.83    3.41 
   6   7  -5   78.24    6.13 
   6   7  -5   83.23    6.33 
   6   7  -4  224.52   10.49 
   6   7  -4  235.02   10.55 
   6   7  -3   72.81    5.14 
   6   7  -2   68.83    4.72 
   6   7  -1  279.57   10.93 
   6   7  -1  286.36   10.33 
   6   7   0   54.70    4.03 
   6   7   0   48.83    3.68 
   6   7   0   49.51    3.40 
   6   7   1  161.77    7.16 
   6   7   1  153.92    7.53 
   6   7   1  168.98    6.92 
   6   7   1  165.14    6.09 
   6   7   2  156.42    5.27 
   6   7   2  158.82    6.92 
   6   7   2  154.13    4.97 
   6   7   2  159.85    6.80 
   6   7   2  159.41    7.42 
   6   7   2  170.49    6.65 
   6   7   3  523.61   16.23 
   6   7   3  553.08   15.84 
   6   7   3  512.12   16.63 
   6   7   3  565.81   15.63 
   6   7   4   68.68    3.66 
   6   7   4   58.20    4.25 
   6   7   5 1156.90   28.92 
   6   7   5 1121.60   30.67 
   6   7   6  756.36   21.78 
   6   7   7   75.93    4.78 
   6   7   8    0.56    1.51 
   6   7   9   31.79    3.32 
   6   8  -5   26.02    4.03 
   6   8  -5   16.00    3.37 
   6   8  -2    4.01    1.88 
   6   8  -1  423.59   14.92 
   6   8   0  554.87   17.64 
   6   8   1    0.28    1.31 
   6   8   1    2.95    1.45 
   6   8   2  112.03    4.25 
   6   8   2  116.97    5.83 
   6   8   2  107.04    5.23 
   6   8   2  119.37    4.68 
   6   8   3   60.61    3.81 
   6   8   3   60.84    3.54 
   6   8   3   59.00    2.52 
   6   8   4   47.89    3.18 
   6   8   4   55.26    4.39 
   6   8   5  146.63    5.72 
   6   8   5  144.77    7.31 
   6   8   6 1297.02   35.03 
   6   8   7  172.61    8.15 
   6   8   8  152.93    7.64 
   6   9  -3   14.23    3.07 
   6   9  -1  146.68    7.87 
   6   9   0  347.06   13.01 
   6   9   1  170.90    6.61 
   6   9   1  185.04    8.30 
   6   9   1  186.02    9.33 
   6   9   1  180.87    7.48 
   6   9   2   24.30    1.99 
   6   9   2   27.09    2.85 
   6   9   2   20.94    3.27 
   6   9   2   25.46    2.54 
   6   9   3  248.04    7.57 
   6   9   3  252.01    9.51 
   6   9   3  273.06   11.75 
   6   9   3  267.34    8.83 
   6   9   4  281.98    9.61 
   6   9   4  269.87    7.37 
   6   9   5   94.91    4.53 
   6   9   5  101.84    6.89 
   6   9   6  150.93    5.61 
   6  10  -2   65.71    5.59 
   6  10  -1    4.83    2.32 
   6  10   0   47.93    4.48 
   6  10   0   51.49    4.97 
   6  10   1   39.86    3.02 
   6  10   1   41.90    3.94 
   6  10   1   40.64    4.55 
   6  10   1   39.58    3.35 
   6  10   2   25.74    2.28 
   6  10   2   23.52    3.10 
   6  10   2   22.27    3.54 
   6  10   2   28.07    2.65 
   6  10   3   83.03    3.80 
   6  10   3   85.56    5.00 
   6  10   3   76.73    6.26 
   6  10   3   75.88    4.10 
   6  10   4  510.80   13.88 
   6  10   4  561.41   16.33 
   6  10   4  555.59   19.42 
   6  10   5    6.16    1.51 
   6  10   5    5.96    2.58 
   6  10   6  120.98    5.03 
   6  10   7   53.10    5.07 
   6  10   8   58.35    5.40 
   6  11   0    4.03    2.05 
   6  11   0    2.95    2.58 
   6  11   1   47.17    4.41 
   6  11   1   48.22    5.17 
   6  11   1   49.55    3.74 
   6  11   2   98.19    6.09 
   6  11   2  106.20    7.50 
   6  11   2   96.38    4.97 
   6  11   3    5.34    1.96 
   6  11   3    3.52    2.43 
   6  11   3    3.41    1.36 
   6  11   4  139.80    6.69 
   6  11   4  148.16    9.11 
   6  11   5   42.10    3.29 
   6  11   5   41.52    4.90 
   6  11   6    5.52    1.43 
   6  11   7   58.93    2.99 
   6  11   8  112.72    7.68 
   6  11   9    7.99    2.85 
   7  -5  -4   68.30    5.40 
   7  -5  -4   57.25    5.52 
   7  -5  -3    9.97    2.78 
   7  -5  -3    4.11    2.15 
   7  -5  -2  139.86    8.62 
   7  -5  -2  151.92    7.35 
   7  -5  -2  148.12    8.80 
   7  -5  -1  127.89    8.25 
   7  -5  -1  125.39    6.29 
   7  -4  -6    3.01    2.19 
   7  -4  -6    3.23    2.63 
   7  -4  -5   80.96    6.13 
   7  -4  -5   79.20    6.07 
   7  -4  -4  278.46   11.53 
   7  -4  -4  256.54   11.78 
   7  -4  -3  100.45    6.89 
   7  -4  -3  101.39    6.18 
   7  -4  -3   94.98    6.80 
   7  -4  -2   50.37    4.95 
   7  -4  -2   46.22    4.95 
   7  -4  -2   46.48    3.97 
   7  -4  -1  108.60    7.13 
   7  -4  -1  118.11    5.77 
   7  -4  -1  107.17    7.22 
   7  -4   0  117.58    7.45 
   7  -4   0  120.87    5.46 
   7  -4   1   36.72    4.29 
   7  -4   1   42.45    2.71 
   7  -4   2  172.41    9.23 
   7  -4   3   71.32    5.73 
   7  -3  -7   46.87    4.60 
   7  -3  -7   50.62    5.45 
   7  -3  -6   94.63    6.50 
   7  -3  -6  106.31    7.26 
   7  -3  -5   43.32    4.40 
   7  -3  -5   47.20    4.66 
   7  -3  -4   91.36    6.39 
   7  -3  -4   79.00    5.88 
   7  -3  -4   84.92    5.84 
   7  -3  -3  168.76    8.81 
   7  -3  -3  160.87    8.66 
   7  -3  -3  182.90    8.37 
   7  -3  -2   47.14    4.42 
   7  -3  -2   49.26    4.68 
   7  -3  -2   40.85    3.68 
   7  -3  -1  180.29    8.86 
   7  -3  -1  163.26    8.76 
   7  -3  -1  179.16    7.35 
   7  -3   0  347.27   13.80 
   7  -3   0  353.78   11.04 
   7  -3   1    0.40    1.92 
   7  -3   1    0.78    0.92 
   7  -3   2   37.55    4.14 
   7  -3   3  311.01   12.79 
   7  -3   4   78.61    5.78 
   7  -3   5   62.58    5.27 
   7  -2  -8    7.40    2.25 
   7  -2  -8   14.60    2.81 
   7  -2  -8   13.10    3.60 
   7  -2  -7   22.60    2.91 
   7  -2  -7   17.52    2.96 
   7  -2  -7   18.51    3.71 
   7  -2  -6  107.94    6.73 
   7  -2  -6  111.76    7.45 
   7  -2  -6  111.43    6.08 
   7  -2  -5   16.73    3.28 
   7  -2  -5   19.20    3.01 
   7  -2  -5   20.81    3.34 
   7  -2  -4   47.24    4.58 
   7  -2  -4   41.64    4.12 
   7  -2  -4   42.54    4.19 
   7  -2  -3  513.43   17.18 
   7  -2  -3  478.80   16.93 
   7  -2  -3  479.46   16.26 
   7  -2  -2  236.41   10.10 
   7  -2  -2  211.12    9.91 
   7  -2  -2  227.67    9.10 
   7  -2  -1    1.48    1.75 
   7  -2  -1    2.37    1.75 
   7  -2  -1    2.89    1.58 
   7  -2   0  278.84   11.04 
   7  -2   0  261.88   11.32 
   7  -2   0  274.55    9.00 
   7  -2   1   81.33    5.48 
   7  -2   1   72.94    3.33 
   7  -2   2    3.30    1.87 
   7  -2   3  324.76   12.75 
   7  -2   4  223.51   10.07 
   7  -2   5    9.03    2.41 
   7  -2   6  117.69    6.93 
   7  -1  -9  134.10    9.19 
   7  -1  -9  123.86    7.21 
   7  -1  -8   94.43    5.95 
   7  -1  -8  107.66    7.94 
   7  -1  -8  103.93    6.34 
   7  -1  -7   35.39    3.71 
   7  -1  -7   32.52    4.45 
   7  -1  -7   32.92    3.47 
   7  -1  -6  126.75    7.64 
   7  -1  -6  124.01    6.98 
   7  -1  -6  142.22    8.20 
   7  -1  -6  124.74    6.66 
   7  -1  -5   63.38    5.26 
   7  -1  -5   62.81    4.88 
   7  -1  -5   59.24    5.10 
   7  -1  -5   65.94    4.58 
   7  -1  -4   20.26    2.49 
   7  -1  -4   20.56    3.11 
   7  -1  -4   19.48    2.97 
   7  -1  -4   23.20    3.19 
   7  -1  -3  235.96    9.21 
   7  -1  -3  254.88   10.61 
   7  -1  -3  257.72   10.75 
   7  -1  -3  255.34   10.29 
   7  -1  -2  837.95   23.35 
   7  -1  -2  862.24   24.49 
   7  -1  -2  783.66   24.56 
   7  -1  -2  819.35   23.50 
   7  -1  -1    0.30    1.57 
   7  -1  -1    1.04    1.67 
   7  -1  -1    0.22    1.24 
   7  -1   0  322.80   11.83 
   7  -1   0  313.54   12.40 
   7  -1   0  328.49   10.22 
   7  -1   1  155.00    7.33 
   7  -1   1  145.41    5.14 
   7  -1   2  238.62   10.25 
   7  -1   3   81.25    5.50 
   7  -1   4  402.78   14.40 
   7  -1   5   26.88    3.25 
   7  -1   6   34.13    3.59 
   7  -1   7   81.02    5.41 
   7   0  -9   77.95    5.76 
   7   0  -9   79.09    5.93 
   7   0  -8  112.68    7.88 
   7   0  -8  103.69    6.01 
   7   0  -8  113.79    6.81 
   7   0  -7    5.31    2.56 
   7   0  -7    3.40    1.72 
   7   0  -7    2.04    1.92 
   7   0  -6   82.85    5.29 
   7   0  -6   74.48    5.82 
   7   0  -6   74.35    5.14 
   7   0  -5  126.68    7.35 
   7   0  -5  127.46    6.77 
   7   0  -5  121.41    6.52 
   7   0  -4   27.81    2.95 
   7   0  -4   27.72    3.21 
   7   0  -4   28.43    2.61 
   7   0  -4   30.17    3.50 
   7   0  -3  145.68    6.22 
   7   0  -3  130.88    7.00 
   7   0  -3  133.41    7.09 
   7   0  -3  138.81    6.73 
   7   0  -2  562.25   16.78 
   7   0  -2  586.55   17.93 
   7   0  -2  555.40   18.16 
   7   0  -1   58.02    4.00 
   7   0  -1   60.18    4.36 
   7   0  -1   56.82    4.50 
   7   0  -1   57.61    3.88 
   7   0   0   15.97    2.42 
   7   0   0   12.28    2.06 
   7   0   0   11.75    2.42 
   7   0   0   11.59    1.71 
   7   0   1  465.69   14.81 
   7   0   1  482.82   12.84 
   7   0   2  592.89   16.88 
   7   0   2  531.86   13.01 
   7   0   3    1.28    1.43 
   7   0   4  202.00    8.94 
   7   0   5  146.48    7.32 
   7   0   6    3.44    1.87 
   7   0   7   83.19    5.33 
   7   0   8  245.38    9.94 
   7   1  -9  151.03    9.62 
   7   1  -9  157.68    8.47 
   7   1  -8  295.78   13.47 
   7   1  -8  319.80   12.71 
   7   1  -8  283.11   12.07 
   7   1  -7    7.10    2.70 
   7   1  -7    9.72    2.16 
   7   1  -7    7.30    2.20 
   7   1  -7   14.00    2.81 
   7   1  -6    0.81    2.12 
   7   1  -6   -0.29    1.40 
   7   1  -6    1.04    1.49 
   7   1  -6   -1.00    1.88 
   7   1  -5  113.80    6.75 
   7   1  -5  104.31    6.13 
   7   1  -5   93.78    5.82 
   7   1  -5   93.85    5.70 
   7   1  -4  187.99    8.37 
   7   1  -4  182.02    6.71 
   7   1  -4  175.40    8.43 
   7   1  -4  171.87    7.59 
   7   1  -4  191.19    8.36 
   7   1  -3   42.62    3.75 
   7   1  -3   35.15    2.83 
   7   1  -3   43.06    3.76 
   7   1  -3   30.65    3.10 
   7   1  -3   37.34    3.46 
   7   1  -2  224.81    8.11 
   7   1  -2  206.01    9.04 
   7   1  -2  224.83    8.89 
   7   1  -2  215.75    8.69 
   7   1  -1   29.36    3.17 
   7   1  -1   25.88    2.67 
   7   1  -1   27.98    2.89 
   7   1  -1   26.38    2.89 
   7   1   0   11.14    2.24 
   7   1   0    9.87    2.00 
   7   1   0   12.23    1.99 
   7   1   0    9.69    1.96 
   7   1   1  132.80    6.47 
   7   1   1  132.25    6.92 
   7   1   1  130.91    5.90 
   7   1   2 1167.15   31.39 
   7   1   2 1191.30   30.34 
   7   1   2 1142.03   27.92 
   7   1   3  308.23   11.65 
   7   1   4  167.97    7.90 
   7   1   5  138.04    6.98 
   7   1   6   88.83    5.45 
   7   1   7   -0.29    1.72 
   7   1   8  247.55    9.89 
   7   2  -8   47.62    5.20 
   7   2  -8   48.60    4.78 
   7   2  -7   37.51    4.52 
   7   2  -7   36.88    4.03 
   7   2  -6   15.51    3.04 
   7   2  -6   23.35    3.13 
   7   2  -6   22.77    3.12 
   7   2  -5  216.50   10.09 
   7   2  -5  226.54    8.80 
   7   2  -5  241.87    9.55 
   7   2  -5  240.31   10.06 
   7   2  -4  211.96    9.41 
   7   2  -4  213.25    8.42 
   7   2  -4  207.08    8.47 
   7   2  -4  218.80    9.02 
   7   2  -4  207.78    9.12 
   7   2  -3   69.02    3.67 
   7   2  -3   73.62    4.90 
   7   2  -3   68.57    4.33 
   7   2  -3   69.66    4.43 
   7   2  -3   70.80    4.82 
   7   2  -3   75.24    4.86 
   7   2  -3   60.21    4.42 
   7   2  -2   28.05    2.50 
   7   2  -2   31.74    2.98 
   7   2  -2   27.22    2.80 
   7   2  -2   27.06    2.83 
   7   2  -2   29.87    3.15 
   7   2  -2   29.83    3.04 
   7   2  -1   23.65    2.66 
   7   2  -1   25.07    2.50 
   7   2  -1   22.30    2.60 
   7   2  -1   25.47    2.66 
   7   2  -1   22.23    2.59 
   7   2  -1   24.73    2.94 
   7   2   0   38.33    2.98 
   7   2   0   32.33    2.90 
   7   2   0   33.84    3.11 
   7   2   0   35.25    3.20 
   7   2   0   36.82    3.45 
   7   2   1    1.99    1.52 
   7   2   1   -0.76    1.14 
   7   2   1    0.19    0.93 
   7   2   1    1.04    1.52 
   7   2   1    2.10    1.64 
   7   2   1    1.86    1.07 
   7   2   2  192.34    8.23 
   7   2   2  190.75    7.02 
   7   2   2  195.71    8.27 
   7   2   2  194.51    6.26 
   7   2   3  254.98   10.12 
   7   2   3  262.12    9.79 
   7   2   4    0.25    1.32 
   7   2   4   -0.59    1.50 
   7   2   5  181.75    7.71 
   7   2   5  185.69    8.22 
   7   2   6  676.28   20.33 
   7   3  -8   22.40    3.98 
   7   3  -8   22.67    3.42 
   7   3  -7    3.70    2.35 
   7   3  -7    0.79    1.77 
   7   3  -6  278.83   12.29 
   7   3  -6  295.27   12.01 
   7   3  -5    1.41    1.38 
   7   3  -5    3.75    1.99 
   7   3  -5    3.53    1.76 
   7   3  -5    0.34    1.96 
   7   3  -4  357.50   12.91 
   7   3  -4  321.02   11.09 
   7   3  -4  342.46   11.57 
   7   3  -4  334.78   12.62 
   7   3  -4  345.81   12.61 
   7   3  -3    5.80    1.59 
   7   3  -3    2.90    1.91 
   7   3  -3    4.26    1.60 
   7   3  -3    4.06    1.59 
   7   3  -3    4.14    1.73 
   7   3  -2    8.79    1.76 
   7   3  -2    9.02    1.78 
   7   3  -2    4.02    1.62 
   7   3  -2    5.99    1.73 
   7   3  -2    9.41    2.00 
   7   3  -2    7.45    1.84 
   7   3  -1   19.70    2.48 
   7   3  -1   17.37    2.22 
   7   3  -1   18.29    2.40 
   7   3  -1   22.01    2.83 
   7   3  -1   23.01    2.78 
   7   3  -1   27.06    2.87 
   7   3   0  551.34   15.61 
   7   3   0  535.17   16.48 
   7   3   0  544.91   16.58 
   7   3   0  527.87   17.09 
   7   3   0  549.47   16.59 
   7   3   1   72.93    3.75 
   7   3   1   74.67    4.69 
   7   3   1   69.14    4.41 
   7   3   1   80.45    5.06 
   7   3   1   77.42    4.08 
   7   3   2   48.80    2.76 
   7   3   2   46.44    3.65 
   7   3   2   47.07    3.63 
   7   3   2   45.10    3.87 
   7   3   2   44.42    2.77 
   7   3   3   25.94    1.91 
   7   3   3   23.61    2.87 
   7   3   3   20.52    1.70 
   7   3   4   46.25    3.57 
   7   3   4   47.71    3.86 
   7   3   5   58.37    3.96 
   7   3   6  379.27   12.57 
   7   3   7  327.21   11.31 
   7   4  -8   15.23    3.89 
   7   4  -8   21.27    3.46 
   7   4  -7    0.96    2.09 
   7   4  -7    2.09    2.06 
   7   4  -6  157.23    8.94 
   7   4  -6  183.91    9.12 
   7   4  -5  179.99    9.02 
   7   4  -5  185.26    8.98 
   7   4  -4    2.11    1.35 
   7   4  -4    1.02    1.82 
   7   4  -4    4.49    1.92 
   7   4  -3  170.69    8.03 
   7   4  -3  181.09    7.21 
   7   4  -3  176.03    7.46 
   7   4  -3  178.21    8.29 
   7   4  -3  188.23    8.42 
   7   4  -2  100.46    5.48 
   7   4  -2  116.50    5.54 
   7   4  -2  101.31    5.34 
   7   4  -2  108.53    6.08 
   7   4  -2  104.68    5.89 
   7   4  -1    2.19    1.22 
   7   4  -1    4.01    1.44 
   7   4  -1    2.54    1.40 
   7   4  -1    2.42    1.51 
   7   4   0  158.37    6.13 
   7   4   0  163.43    6.99 
   7   4   0  147.58    6.79 
   7   4   0  153.04    6.89 
   7   4   1  224.98    7.23 
   7   4   1  198.95    8.33 
   7   4   1  222.59    8.59 
   7   4   1  224.59    8.64 
   7   4   1  202.54    8.00 
   7   4   2    2.72    1.41 
   7   4   2    2.84    0.88 
   7   4   2    2.07    1.83 
   7   4   2    1.65    1.07 
   7   4   3  142.14    4.57 
   7   4   3  130.24    5.35 
   7   4   4   72.68    4.46 
   7   4   4   70.70    3.39 
   7   4   5   85.38    4.88 
   7   4   5   79.88    3.44 
   7   4   6   41.56    3.36 
   7   4   7  314.69   10.94 
   7   5  -7    0.50    2.53 
   7   5  -7   10.60    2.83 
   7   5  -6  126.66    8.02 
   7   5  -6  142.12    8.09 
   7   5  -5  196.16    9.51 
   7   5  -4    2.13    1.97 
   7   5  -4    2.92    1.86 
   7   5  -3   -0.31    1.70 
   7   5  -3   -0.34    1.56 
   7   5  -2  384.86   12.94 
   7   5  -1  216.93    8.10 
   7   5  -1  212.27    8.43 
   7   5  -1  201.87    8.87 
   7   5   0  489.31   13.80 
   7   5   0  464.53   14.74 
   7   5   0  456.96   15.08 
   7   5   0  466.54   15.22 
   7   5   1  350.55   10.22 
   7   5   1  354.36   12.00 
   7   5   1  359.26   12.13 
   7   5   1  360.86   12.06 
   7   5   1  336.25   11.83 
   7   5   2   31.80    1.81 
   7   5   2   27.98    2.75 
   7   5   2   32.85    2.87 
   7   5   2   28.51    2.64 
   7   5   3   41.64    3.02 
   7   5   4  125.57    6.13 
   7   5   4  127.87    5.46 
   7   5   5  129.44    6.21 
   7   5   5  129.25    5.34 
   7   5   6  130.18    5.28 
   7   5   7  176.77    6.34 
   7   6  -6   40.77    4.81 
   7   6  -6   45.45    4.73 
   7   6  -5  273.35   12.30 
   7   6  -5  296.78   12.40 
   7   6  -4   69.40    5.45 
   7   6  -4   81.61    5.85 
   7   6  -3   15.67    2.64 
   7   6  -2  205.69    8.67 
   7   6  -2  210.64    9.08 
   7   6  -1  112.85    5.56 
   7   6  -1  111.08    6.23 
   7   6  -1  101.82    5.90 
   7   6   0   16.89    2.00 
   7   6   0   16.90    2.52 
   7   6   0   17.14    2.76 
   7   6   0   16.90    2.45 
   7   6   1  393.77   11.12 
   7   6   1  392.85   13.10 
   7   6   1  365.86   13.08 
   7   6   1  386.92   12.86 
   7   6   2  241.33    6.88 
   7   6   2  255.71    9.32 
   7   6   2  235.82    9.34 
   7   6   2  249.78    9.16 
   7   6   3    0.45    1.10 
   7   6   3   -0.71    1.45 
   7   6   4   57.62    3.86 
   7   6   5   77.06    4.35 
   7   6   6   76.74    4.34 
   7   6   7   71.04    4.16 
   7   6   8  114.49    5.42 
   7   7  -5   80.40    6.19 
   7   7  -5   63.05    5.66 
   7   7  -4  194.33    9.66 
   7   7  -3  110.09    6.54 
   7   7  -2  108.13    6.15 
   7   7  -1  114.59    5.79 
   7   7  -1  102.84    6.24 
   7   7  -1  110.43    6.08 
   7   7   0   11.95    1.84 
   7   7   0    9.16    2.01 
   7   7   0   12.27    2.18 
   7   7   1   38.25    2.57 
   7   7   1   36.98    3.36 
   7   7   1   41.23    3.38 
   7   7   2   71.00    2.87 
   7   7   2   72.07    4.48 
   7   7   2   74.87    4.95 
   7   7   2   73.41    4.43 
   7   7   3  108.33    5.38 
   7   7   3  102.34    5.73 
   7   7   4   72.48    4.16 
   7   7   4   71.02    4.64 
   7   7   5   84.41    4.99 
   7   7   6   54.02    3.99 
   7   7   7   21.64    2.73 
   7   7   8    2.35    1.58 
   7   7   9   66.28    4.49 
   7   8  -4   78.59    6.06 
   7   8  -3  231.67   10.40 
   7   8  -2    1.30    1.96 
   7   8  -2    3.08    2.05 
   7   8  -1  106.44    6.53 
   7   8  -1  101.92    5.98 
   7   8  -1   96.98    5.64 
   7   8   0  191.41    7.75 
   7   8   0  210.24    9.14 
   7   8   0  200.47    8.53 
   7   8   1   23.98    2.24 
   7   8   1   29.36    3.15 
   7   8   1   25.33    2.77 
   7   8   2    6.70    1.09 
   7   8   2    7.45    1.00 
   7   8   2    7.37    1.80 
   7   8   2   10.41    1.94 
   7   8   3   40.13    3.28 
   7   8   3   36.96    3.03 
   7   8   4    1.53    1.13 
   7   8   5    1.35    1.07 
   7   8   5    1.51    1.66 
   7   8   6  248.73   10.02 
   7   8   7   43.07    3.89 
   7   8   8    9.59    2.29 
   7   9  -3  103.32    7.06 
   7   9  -2   13.34    2.73 
   7   9  -2    8.70    2.69 
   7   9  -1    7.56    2.04 
   7   9  -1   12.68    2.79 
   7   9   0  327.35   12.66 
   7   9   0  317.28   11.73 
   7   9   0  324.87   11.35 
   7   9   1  321.94   10.12 
   7   9   1  340.35   12.54 
   7   9   1  338.49   11.72 
   7   9   1  325.77   10.75 
   7   9   2    9.34    1.41 
   7   9   2   13.55    1.39 
   7   9   2   15.84    2.41 
   7   9   2   16.34    2.30 
   7   9   3   45.18    3.63 
   7   9   3   42.64    3.27 
   7   9   4   79.68    4.60 
   7   9   5   61.86    3.78 
   7  10  -1   26.02    3.31 
   7  10  -1   31.04    3.91 
   7  10   0   88.65    6.12 
   7  10   0   74.65    5.11 
   7  10   0   94.20    5.41 
   7  10   1  151.19    7.82 
   7  10   1  148.19    6.96 
   7  10   2   69.96    4.97 
   7  10   2   69.87    4.37 
   7  10   2   65.89    3.74 
   7  10   3   11.50    1.98 
   7  10   3   14.98    1.53 
   7  10   3   12.85    2.32 
   7  10   4  396.57   13.11 
   7  10   5  238.39    8.75 
   7  10   6   40.03    2.84 
   7  11   1  166.25    8.54 
   7  11   1  154.55    7.33 
   7  11   2  107.09    6.42 
   7  11   2   98.48    5.36 
   7  11   3   29.03    2.70 
   7  11   3   30.31    3.28 
   7  11   4  119.97    6.20 
   7  11   5  265.93    9.67 
   7  11   6    2.14    1.12 
   8  -3  -5    2.85    2.37 
   8  -3  -5    0.45    1.89 
   8  -3  -5    0.43    2.26 
   8  -3  -4  128.73    8.06 
   8  -3  -4  126.48    7.91 
   8  -3  -4  123.78    7.33 
   8  -3  -3  253.27   11.50 
   8  -3  -3  226.17   11.20 
   8  -3  -3  246.86   10.33 
   8  -3  -2    7.72    2.79 
   8  -3  -2    9.27    2.19 
   8  -3  -1   61.76    5.34 
   8  -3  -1   67.15    5.78 
   8  -3  -1   64.78    4.15 
   8  -3   0   53.44    5.01 
   8  -3   0   52.75    3.29 
   8  -3   1   44.27    4.68 
   8  -3   2    5.40    2.63 
   8  -2  -6  224.84   11.24 
   8  -2  -6  208.05   10.32 
   8  -2  -6  222.55   11.09 
   8  -2  -5   92.62    6.97 
   8  -2  -5  100.26    6.82 
   8  -2  -5  105.03    7.04 
   8  -2  -4   61.86    5.53 
   8  -2  -4   49.11    4.95 
   8  -2  -3  313.45   13.20 
   8  -2  -3  328.80   13.69 
   8  -2  -3  340.82   12.62 
   8  -2  -2   76.75    5.79 
   8  -2  -2   69.96    5.84 
   8  -2  -2   71.29    4.80 
   8  -2  -1    1.14    1.81 
   8  -2  -1   -1.28    2.10 
   8  -2  -1    1.14    1.52 
   8  -2   0  117.24    6.97 
   8  -2   0  113.02    5.00 
   8  -2   1   45.32    4.34 
   8  -2   1   46.42    2.35 
   8  -2   2    1.70    1.90 
   8  -2   3   35.08    4.07 
   8  -2   4  251.31   11.46 
   8  -1  -7   13.07    2.67 
   8  -1  -7    9.67    2.41 
   8  -1  -7   13.60    3.38 
   8  -1  -7    8.02    2.90 
   8  -1  -6   28.16    3.41 
   8  -1  -6   29.04    3.72 
   8  -1  -6   35.00    4.37 
   8  -1  -6   34.94    4.64 
   8  -1  -5  138.87    8.13 
   8  -1  -5  126.71    7.62 
   8  -1  -5  137.58    8.10 
   8  -1  -4   10.51    2.92 
   8  -1  -4   14.77    2.93 
   8  -1  -4   14.40    2.95 
   8  -1  -3  229.89   10.49 
   8  -1  -3  244.78   10.99 
   8  -1  -3  239.03   10.20 
   8  -1  -2  355.22   13.80 
   8  -1  -2  368.12   14.39 
   8  -1  -2  382.87   13.08 
   8  -1  -1   97.08    6.20 
   8  -1  -1  117.17    7.16 
   8  -1  -1  104.53    5.38 
   8  -1   0   95.86    5.94 
   8  -1   0   93.26    6.53 
   8  -1   0  101.97    4.69 
   8  -1   1  125.69    6.80 
   8  -1   1  111.08    4.21 
   8  -1   2  102.25    6.70 
   8  -1   3   22.12    3.28 
   8  -1   4  113.04    7.04 
   8  -1   5   36.81    4.06 
   8  -1   6    1.53    2.01 
   8   0  -7   32.39    4.27 
   8   0  -7   27.14    3.51 
   8   0  -7   28.91    3.69 
   8   0  -6   31.96    3.60 
   8   0  -6   30.89    4.11 
   8   0  -6   32.45    3.67 
   8   0  -5   38.49    3.92 
   8   0  -5   33.21    3.82 
   8   0  -5   36.44    4.29 
   8   0  -4  137.80    7.72 
   8   0  -4  141.76    7.78 
   8   0  -4  148.61    7.42 
   8   0  -3   12.85    2.71 
   8   0  -3   11.38    2.63 
   8   0  -3   10.12    2.48 
   8   0  -2  247.01   10.41 
   8   0  -2  254.50   11.04 
   8   0  -2  254.69   10.10 
   8   0  -1  387.74   13.82 
   8   0  -1  400.33   14.81 
   8   0  -1  403.76   13.10 
   8   0   0   14.00    2.72 
   8   0   0   14.08    2.46 
   8   0   0   17.37    2.11 
   8   0   1  230.00    9.44 
   8   0   1  223.05    7.19 
   8   0   2  420.40   14.26 
   8   0   3   13.08    2.79 
   8   0   4   63.77    5.06 
   8   0   5   63.26    5.00 
   8   0   6    2.55    1.85 
   8   0   7    3.22    1.99 
   8   1  -7  142.92    8.60 
   8   1  -7  141.65    7.42 
   8   1  -7  134.48    7.84 
   8   1  -6    5.64    2.45 
   8   1  -6    8.66    2.37 
   8   1  -6    6.96    2.39 
   8   1  -5  102.72    6.70 
   8   1  -5   87.24    5.85 
   8   1  -5   95.58    6.12 
   8   1  -4  187.83    9.01 
   8   1  -4  187.43    8.62 
   8   1  -4  168.47    8.61 
   8   1  -3   96.54    6.23 
   8   1  -3  100.49    6.19 
   8   1  -3  107.10    6.18 
   8   1  -2   17.40    2.54 
   8   1  -2   16.97    2.71 
   8   1  -2   13.39    2.75 
   8   1  -1  360.82   12.70 
   8   1  -1  366.28   13.94 
   8   1  -1  398.67   13.27 
   8   1   0   87.70    5.88 
   8   1   0   96.68    5.44 
   8   1   0   86.64    4.69 
   8   1   1   27.77    2.90 
   8   1   1   28.34    2.26 
   8   1   1   26.41    3.49 
   8   1   2  722.09   20.81 
   8   1   3  299.27   12.00 
   8   1   4   12.12    2.58 
   8   1   5  126.17    7.13 
   8   1   6    9.42    2.22 
   8   1   7    3.09    1.83 
   8   1   8   25.55    3.30 
   8   2  -7   99.85    7.27 
   8   2  -7  103.47    6.79 
   8   2  -7  108.35    6.98 
   8   2  -6    5.18    2.53 
   8   2  -6    7.65    2.40 
   8   2  -5   21.61    3.41 
   8   2  -5   16.76    2.80 
   8   2  -5   18.98    3.11 
   8   2  -5   17.26    2.97 
   8   2  -4  517.07   17.21 
   8   2  -4  482.06   16.68 
   8   2  -4  494.91   16.77 
   8   2  -3  603.67   18.52 
   8   2  -3  539.93   18.33 
   8   2  -3  560.48   18.25 
   8   2  -2   17.80    2.71 
   8   2  -2   17.72    2.34 
   8   2  -2   22.21    2.88 
   8   2  -2   17.03    2.85 
   8   2  -1   67.36    4.46 
   8   2  -1   70.89    4.59 
   8   2  -1   69.55    5.13 
   8   2   0   94.40    5.50 
   8   2   0   85.98    5.87 
   8   2   1  115.02    6.26 
   8   2   1  120.55    5.65 
   8   2   1  115.82    5.03 
   8   2   1  110.86    6.66 
   8   2   2  320.96   10.86 
   8   2   2  337.85    9.63 
   8   2   4   44.51    4.11 
   8   2   5  103.05    6.22 
   8   2   6  195.89    8.99 
   8   2   7  107.45    6.37 
   8   3  -7   13.46    3.44 
   8   3  -7   14.71    2.94 
   8   3  -7    9.75    3.01 
   8   3  -6   43.72    4.76 
   8   3  -6   46.53    4.62 
   8   3  -6   39.48    4.48 
   8   3  -5    0.39    2.00 
   8   3  -5    1.50    1.99 
   8   3  -4  254.21   10.87 
   8   3  -4  250.87   10.87 
   8   3  -4  253.27   10.76 
   8   3  -3  414.07   14.25 
   8   3  -3  402.88   14.60 
   8   3  -3  394.10   14.20 
   8   3  -2   -0.55    1.56 
   8   3  -2    1.01    1.66 
   8   3  -2    0.34    1.68 
   8   3  -2   -0.94    1.53 
   8   3  -1  124.18    6.08 
   8   3  -1  129.37    6.98 
   8   3  -1  128.96    6.69 
   8   3   0  372.84   11.74 
   8   3   0  356.53   13.28 
   8   3   0  336.82   11.67 
   8   3   1  240.33    8.36 
   8   3   1  242.64   10.23 
   8   3   1  224.88    8.35 
   8   3   2    0.34    0.99 
   8   3   2    1.37    1.53 
   8   3   2    1.09    1.00 
   8   3   3  290.16    9.25 
   8   3   3  287.75    8.45 
   8   3   4  154.12    4.25 
   8   3   4  205.62    8.75 
   8   4  -7   39.42    4.85 
   8   4  -7   42.81    4.77 
   8   4  -6   73.34    6.02 
   8   4  -6   83.86    6.21 
   8   4  -6   75.37    5.88 
   8   4  -5   55.44    5.04 
   8   4  -5   51.79    4.82 
   8   4  -5   49.45    4.86 
   8   4  -4   14.66    2.80 
   8   4  -4   17.60    2.97 
   8   4  -4   24.40    3.20 
   8   4  -3  184.53    8.29 
   8   4  -3  162.01    7.42 
   8   4  -3  177.59    8.64 
   8   4  -3  173.91    8.40 
   8   4  -2   10.07    2.09 
   8   4  -2   12.22    2.25 
   8   4  -2    9.91    2.28 
   8   4  -2    9.62    2.28 
   8   4  -1    0.47    1.33 
   8   4  -1    0.82    1.78 
   8   4  -1    0.29    1.40 
   8   4  -1    1.81    1.59 
   8   4   0  154.59    6.36 
   8   4   0  152.19    7.09 
   8   4   1  462.96   13.48 
   8   4   1  468.88   14.46 
   8   4   2    0.70    0.84 
   8   4   2    0.58    1.22 
   8   4   3  268.65    8.14 
   8   4   3  269.33    8.73 
   8   4   4   93.97    3.96 
   8   5  -6   90.76    6.89 
   8   5  -6   99.98    6.96 
   8   5  -5   72.50    5.80 
   8   5  -5   72.84    5.78 
   8   5  -5   73.87    5.81 
   8   5  -4   33.83    3.87 
   8   5  -4   44.51    4.43 
   8   5  -4   39.34    4.18 
   8   5  -3   45.68    4.11 
   8   5  -3   50.63    4.57 
   8   5  -2    4.68    1.69 
   8   5  -2    3.77    1.73 
   8   5  -1  153.20    6.67 
   8   5  -1  148.10    6.97 
   8   5   0   12.78    1.85 
   8   5   0    7.48    1.96 
   8   5   0    8.05    1.96 
   8   5   1  223.08    7.34 
   8   5   1  220.69    9.16 
   8   5   1  201.26    8.53 
   8   5   2  115.04    4.35 
   8   5   2  115.02    5.64 
   8   5   3    6.42    0.83 
   8   5   3    7.87    1.64 
   8   5   4   63.56    3.63 
   8   5   5  138.32    5.48 
   8   5   6    2.66    1.05 
   8   6  -5  193.48   10.06 
   8   6  -5  200.89   10.16 
   8   6  -4   11.85    2.74 
   8   6  -4   10.45    2.66 
   8   6  -2    5.44    1.98 
   8   6  -2    9.22    2.44 
   8   6  -1   51.06    3.72 
   8   6  -1   47.84    4.20 
   8   6  -1   51.62    4.34 
   8   6   0    2.82    1.28 
   8   6   0    2.90    1.61 
   8   6   0    2.99    1.39 
   8   6   1  104.11    4.42 
   8   6   1  111.48    6.11 
   8   6   1  102.34    5.97 
   8   6   1  118.82    6.15 
   8   6   2  249.06    9.63 
   8   6   2  233.00    9.35 
   8   6   3   95.90    5.23 
   8   6   4   16.56    2.31 
   8   6   5  275.99    9.58 
   8   6   6   97.42    4.82 
   8   6   7   49.54    3.27 
   8   7  -4  127.94    7.71 
   8   7  -3  117.49    6.94 
   8   7  -3  125.93    7.34 
   8   7  -2    0.30    1.68 
   8   7  -2    0.39    1.84 
   8   7  -2    0.35    1.77 
   8   7  -1  179.79    7.81 
   8   7  -1  195.06    9.21 
   8   7  -1  200.85    9.02 
   8   7   0   12.50    1.95 
   8   7   0   13.08    2.51 
   8   7   0   14.66    2.45 
   8   7   1   24.05    2.01 
   8   7   1   28.69    3.21 
   8   7   1   25.43    2.87 
   8   7   2   13.04    2.20 
   8   7   2   10.48    1.07 
   8   7   3  113.41    5.88 
   8   7   3  106.79    5.99 
   8   7   4   49.41    3.94 
   8   7   5  235.20    9.17 
   8   7   6  355.75   12.12 
   8   7   7   73.62    4.54 
   8   8  -3  264.74   11.35 
   8   8  -3  274.29   12.22 
   8   8  -2   52.61    4.41 
   8   8  -2   46.76    4.77 
   8   8  -2   50.38    4.63 
   8   8  -1  319.72   11.37 
   8   8  -1  315.50   12.71 
   8   8  -1  304.04   12.10 
   8   8   0  188.81    7.59 
   8   8   0  190.27    9.04 
   8   8   0  205.74    8.88 
   8   8   1    2.95    1.16 
   8   8   1    2.29    1.64 
   8   8   1    1.17    1.55 
   8   8   2   16.61    2.37 
   8   8   2   14.80    1.25 
   8   8   2   15.99    2.52 
   8   8   3   50.46    3.91 
   8   8   4   15.50    2.21 
   8   8   6  210.49    9.02 
   8   8   7  143.64    7.11 
   8   9  -2   15.53    2.80 
   8   9  -2   11.33    2.83 
   8   9  -2   16.17    3.03 
   8   9  -1   13.50    2.41 
   8   9  -1    6.91    2.47 
   8   9  -1   14.29    2.73 
   8   9   0  244.71    9.38 
   8   9   0  271.63   11.31 
   8   9   0  257.67   10.50 
   8   9   1  137.99    5.82 
   8   9   1  149.90    7.79 
   8   9   1  155.67    7.36 
   8   9   2    4.11    1.86 
   8   9   2    2.78    0.90 
   8   9   2    2.55    1.57 
   8   9   3  130.71    6.67 
   8   9   4    2.35    1.28 
   8   9   5   17.64    2.29 
   8  10   0   10.56    2.12 
   8  10   0   14.44    3.08 
   8  10   0   16.10    2.83 
   8  10   1   39.08    3.11 
   8  10   1   42.60    4.25 
   8  10   1   43.89    3.99 
   8  10   2   92.51    4.01 
   8  10   2   86.30    5.78 
   8  10   2   97.96    5.56 
   8  10   3   87.99    5.37 
   8  10   3   71.88    4.60 
   8  10   4   83.41    5.04 
   8  10   5    5.81    1.59 
   8  11   3   11.99    2.08 
   8  11   3   14.09    2.55 
   8  11   4    2.92    1.73 
   8  11   5  175.29    7.60 
   8  11   6    0.43    1.22 
   9  -1  -4   67.57    5.82 
   9  -1  -4   67.15    5.97 
   9  -1  -4   65.65    5.59 
   9  -1  -3  101.59    6.88 
   9  -1  -3   96.53    6.98 
   9  -1  -3   87.89    5.91 
   9  -1  -2  308.43   12.67 
   9  -1  -2  278.23   12.82 
   9  -1  -2  303.56   11.34 
   9  -1  -1   11.42    2.93 
   9  -1  -1    8.86    2.29 
   9  -1  -1    9.07    1.97 
   9  -1   0    8.66    2.86 
   9  -1   0   13.32    2.81 
   9  -1   1   14.79    2.59 
   9  -1   2   -1.81    2.30 
   9  -1   3   48.89    5.06 
   9   0  -5   57.75    5.59 
   9   0  -5   50.54    4.88 
   9   0  -4  168.11    9.16 
   9   0  -4  162.66    8.86 
   9   0  -4  155.49    8.71 
   9   0  -3    0.43    1.86 
   9   0  -3    2.36    2.24 
   9   0  -3    1.84    1.99 
   9   0  -2   99.98    6.91 
   9   0  -2   98.60    6.46 
   9   0  -2  100.82    5.95 
   9   0  -1  190.52    9.58 
   9   0  -1  182.03    8.79 
   9   0  -1  169.81    7.55 
   9   0   0    7.82    2.64 
   9   0   0    7.11    2.24 
   9   0   1   92.25    5.81 
   9   0   1   79.45    3.44 
   9   0   2   92.21    6.53 
   9   0   3   52.23    4.89 
   9   0   4   19.99    3.28 
   9   0   5    3.37    1.96 
   9   1  -5  102.92    7.15 
   9   1  -5   97.64    6.62 
   9   1  -4  218.18   10.32 
   9   1  -4  224.94   10.56 
   9   1  -4  222.50   10.10 
   9   1  -3   37.13    4.03 
   9   1  -3   32.42    3.99 
   9   1  -2   -0.69    2.12 
   9   1  -2    1.67    2.16 
   9   1  -1  119.97    7.51 
   9   1  -1  129.25    6.93 
   9   1  -1  117.19    6.25 
   9   1   0   70.18    5.69 
   9   1   0   77.72    5.14 
   9   1   0   73.84    4.37 
   9   1   1    2.05    1.75 
   9   1   1   -0.42    2.05 
   9   1   1    1.23    1.11 
   9   1   2  336.85   11.29 
   9   1   2  264.64    6.80 
   9   1   3  245.18   11.16 
   9   1   4    5.33    2.46 
   9   1   5   12.98    2.93 
   9   1   6   10.82    2.68 
   9   2  -6   56.34    5.59 
   9   2  -6   61.61    5.39 
   9   2  -5   -1.26    2.30 
   9   2  -5    1.94    2.10 
   9   2  -5   -0.39    1.93 
   9   2  -4  242.40   10.94 
   9   2  -4  262.36   11.19 
   9   2  -4  233.75   10.60 
   9   2  -3  198.20    9.30 
   9   2  -3  211.02   10.03 
   9   2  -3  195.15    9.35 
   9   2  -2   34.52    3.64 
   9   2  -2   24.10    3.44 
   9   2  -1   51.27    4.17 
   9   2  -1   46.42    4.56 
   9   2   0   64.70    4.48 
   9   2   0   73.26    5.57 
   9   2   1   97.10    5.32 
   9   2   1   92.04    4.50 
   9   2   1   95.82    6.50 
   9   2   2   96.72    5.22 
   9   2   2   90.34    3.84 
   9   2   2   88.80    3.68 
   9   2   3  332.92   13.40 
   9   2   4   85.82    6.09 
   9   2   5   66.14    5.36 
   9   2   6   75.46    5.62 
   9   3  -5   28.33    4.00 
   9   3  -5   31.85    3.96 
   9   3  -5   24.81    3.64 
   9   3  -4   21.07    3.37 
   9   3  -4   27.65    3.69 
   9   3  -4   22.72    3.36 
   9   3  -3  300.32   11.90 
   9   3  -3  303.31   12.34 
   9   3  -2  308.08   11.66 
   9   3  -2  307.21   12.61 
   9   3  -2  301.91   12.08 
   9   3  -1   34.05    3.36 
   9   3  -1   32.57    3.77 
   9   3   0  154.78    6.83 
   9   3   0  142.72    7.99 
   9   3   0  133.00    6.54 
   9   3   1  197.61    7.69 
   9   3   1  192.57    9.49 
   9   3   1  183.37    7.32 
   9   3   2    3.90    1.32 
   9   3   2    4.34    2.13 
   9   3   2    4.57    1.29 
   9   3   3   88.01    3.46 
   9   3   4  144.34    7.98 
   9   4  -5  129.20    7.94 
   9   4  -5  141.27    8.30 
   9   4  -5  127.41    7.77 
   9   4  -4   86.25    6.08 
   9   4  -4   97.68    6.69 
   9   4  -4   95.40    6.47 
   9   4  -3   84.52    5.76 
   9   4  -3   93.09    6.35 
   9   4  -3   91.39    6.20 
   9   4  -2  250.59    9.84 
   9   4  -2  228.89   10.61 
   9   4  -2  231.30   10.28 
   9   4  -1   25.63    3.24 
   9   4  -1   21.53    2.81 
   9   4   0  102.61    5.25 
   9   4   0   98.76    5.67 
   9   4   1  625.72   17.53 
   9   4   1  607.97   18.24 
   9   4   2   67.92    3.65 
   9   4   2   62.36    3.83 
   9   4   3   49.72    3.06 
   9   4   4   74.05    3.24 
   9   5  -5  148.12    8.57 
   9   5  -5  146.92    8.77 
   9   5  -4   82.51    6.01 
   9   5  -4   95.72    6.63 
   9   5  -4   84.29    6.18 
   9   5  -3   39.07    3.89 
   9   5  -3   36.79    4.13 
   9   5  -3   34.44    3.91 
   9   5  -2  130.59    6.69 
   9   5  -1  221.14    8.72 
   9   5   0   19.65    2.29 
   9   5   1  312.32    9.78 
   9   5   1  288.21   10.98 
   9   5   2  411.85   11.72 
   9   5   2  406.97   13.24 
   9   5   3    1.63    1.43 
   9   5   4  129.23    5.44 
   9   5   5   92.90    4.09 
   9   6  -4   78.08    5.88 
   9   6  -4   80.37    6.42 
   9   6  -2   29.83    3.26 
   9   6  -1   68.04    4.38 
   9   6  -1   73.32    5.56 
   9   6  -1   84.14    5.73 
   9   6   0   64.11    3.84 
   9   6   0   65.67    4.99 
   9   6   0   55.32    4.54 
   9   6   1   91.64    4.23 
   9   6   1   97.82    5.99 
   9   6   2  572.98   14.95 
   9   6   2  570.74   17.65 
   9   6   3  174.39    7.48 
   9   6   4    2.23    1.51 
   9   6   5  167.06    6.77 
   9   7  -3    2.47    2.09 
   9   7  -3    5.76    2.38 
   9   7  -2    0.30    1.61 
   9   7  -2    1.26    1.95 
   9   7  -2    0.39    2.03 
   9   7  -1   29.67    2.95 
   9   7  -1   35.55    3.97 
   9   7  -1   33.61    3.82 
   9   7   0   22.68    2.32 
   9   7   0   24.10    3.33 
   9   7   0   27.56    3.38 
   9   7   1   19.74    2.76 
   9   7   1   19.38    1.88 
   9   7   1   14.94    2.57 
   9   7   2  103.05    3.58 
   9   7   2  103.43    6.22 
   9   7   4   92.82    5.42 
   9   7   5  142.23    6.69 
   9   8  -2   15.76    2.82 
   9   8  -2   14.89    3.09 
   9   8  -2   19.43    3.32 
   9   8  -1   70.47    4.65 
   9   8  -1   76.11    5.82 
   9   8  -1   72.90    5.50 
   9   8   0   94.27    4.92 
   9   8   0  105.06    6.65 
   9   8   0  103.98    6.41 
   9   8   1   20.88    2.95 
   9   8   1   19.55    1.88 
   9   8   1   17.28    2.86 
   9   8   2    2.76    0.68 
   9   8   2    4.68    1.73 
   9   8   3    1.55    1.47 
   9   9   0  170.87    7.08 
   9   9   0  181.90    9.18 
   9   9   0  170.71    8.60 
   9   9   1   51.42    2.99 
   9   9   1   55.28    4.79 
   9   9   1   58.35    4.56 
   9   9   2    4.04    1.75 
   9   9   2    8.34    2.40 
   9   9   3    0.32    1.46 
   9   9   4  127.24    6.61 
   9  10   2  115.47    6.89 
   9  10   2  111.37    6.37 
   9  10   3    1.33    1.52 
   9  10   4  115.32    6.34 
  10   1  -2   11.31    2.87 
  10   1  -2   13.25    3.12 
  10   1  -2    5.55    2.20 
  10   1  -1   24.17    3.33 
  10   1  -1   28.03    3.92 
  10   1  -1   26.73    3.04 
  10   1   0    3.32    2.41 
  10   1   1   36.93    4.51 
  10   2  -3  122.31    7.37 
  10   2  -3  122.36    8.01 
  10   2  -2    6.38    2.36 
  10   2  -2    7.32    2.58 
  10   2  -1    1.96    1.87 
  10   2  -1    1.38    2.18 
  10   2   0    9.76    2.31 
  10   2   0   11.96    3.12 
  10   2   0    9.08    1.97 
  10   2   1   10.13    2.09 
  10   2   1   15.61    3.20 
  10   2   1    9.83    1.76 
  10   2   2    0.28    1.33 
  10   2   3   63.19    5.63 
  10   2   4   13.52    3.20 
  10   3  -3  156.64    8.21 
  10   3  -3  153.04    8.39 
  10   3  -2   82.52    5.65 
  10   3  -2   82.67    6.47 
  10   3  -1    0.45    2.08 
  10   3   0   13.79    2.32 
  10   3   0   17.49    3.14 
  10   3   1   88.25    5.08 
  10   3   1   98.77    6.86 
  10   3   2   37.36    3.20 
  10   3   2   39.40    4.54 
  10   3   4   41.60    4.58 
  10   4  -3   51.06    4.89 
  10   4  -3   48.51    4.53 
  10   4  -2  160.56    7.91 
  10   4  -2  159.38    8.59 
  10   4  -1   11.90    2.18 
  10   4   0    3.50    1.70 
  10   4   1  234.02    8.73 
  10   4   2  102.75    4.98 
  10   5  -3   48.35    5.02 
  10   5  -3   53.97    5.08 
  10   5  -2   89.69    5.57 
  10   5  -2   86.32    6.29 
  10   5  -1  161.19    7.38 
  10   5   0    8.26    1.96 
  10   5   1  161.23    6.51 
  10   5   2  141.17    5.58 
  10   6  -2    5.39    1.90 
  10   6  -1   76.77    4.76 
  10   6  -1   78.91    5.97 
  10   6   0  255.51    9.16 
  10   6   2  285.72    8.57 
  10   7  -1   10.69    2.75 
  10   7  -1   14.18    2.36 
  10   7  -1   13.79    3.11 
  10   7   0   93.68    6.42 
  10   7   0   90.02    6.20 
  10   7   1   19.75    1.94 
  10   7   1   22.74    3.39 
  10   8   1  127.99    7.44 
  10   8   1  116.07    7.06 
  10   8   2    0.37    1.62 
   0   0   0    0.00    0.00 
  
  
TITL 007c-17053 in P1 
REM P1 (#1 in standard setting) 
CELL 0.71073   8.367924   9.311659  10.571539  68.0469  81.9786  65.3762 
ZERR    1.00   0.000236   0.000360   0.000424   0.0037   0.0028   0.0032 
LATT -1 
SFAC C H O Fe 
UNIT 1.00 1.00 1.00 1.00 
TREF 
HKLF 4 
END 
_computing_structure_solution     'SHELXT 2014/5 (Sheldrick, 2014)' 
;
_shelx_hkl_checksum              36110
loop_
_space_group_symop_operation_xyz
'x, y, z'
'-x, -y, -z'
loop_
_atom_site_label
_atom_site_type_symbol
_atom_site_fract_x
_atom_site_fract_y
_atom_site_fract_z
_atom_site_U_iso_or_equiv
_atom_site_adp_type
_atom_site_occupancy
_atom_site_site_symmetry_order
_atom_site_calc_flag
_atom_site_refinement_flags_posn
_atom_site_refinement_flags_adp
Fe1 Fe 0.53185(2) 0.59035(2) 0.84656(2) 0.01200(7) Uani 1 1 d . .
O11 O 0.27816(12) 0.68599(12) 0.78512(10) 0.0168(2) Uani 1 1 d . .
O21 O 0.52589(13) 0.82300(12) 0.74557(10) 0.0190(2) Uani 1 1 d . .
C11 C -0.01234(19) 0.8678(2) 0.70373(16) 0.0240(3) Uani 1 1 d . .
H11A H -0.0176 0.8016 0.6521 0.036 Uiso 1 1 calc R U
H11B H -0.0793 0.9879 0.6545 0.036 Uiso 1 1 calc R U
H11C H -0.0629 0.8338 0.7938 0.036 Uiso 1 1 calc R U
C21 C 0.17691(18) 0.83693(18) 0.72027(13) 0.0167(3) Uani 1 1 d . .
C31 C 0.2301(2) 0.97198(18) 0.66600(15) 0.0224(3) Uani 1 1 d . .
H31 H 0.1457 1.0793 0.6152 0.027 Uiso 1 1 calc R U
C41 C 0.3988(2) 0.95929(18) 0.68168(14) 0.0185(3) Uani 1 1 d . .
C51 C 0.4402(2) 1.11434(19) 0.62257(16) 0.0276(3) Uani 1 1 d . .
H51A H 0.4489 1.1507 0.6962 0.041 Uiso 1 1 calc R U
H51B H 0.3465 1.2050 0.5581 0.041 Uiso 1 1 calc R U
H51C H 0.5522 1.0880 0.5750 0.041 Uiso 1 1 calc R U
O12 O 0.59460(12) 0.51164(13) 0.68664(10) 0.0167(2) Uani 1 1 d . .
O22 O 0.79189(12) 0.51602(13) 0.87393(10) 0.0167(2) Uani 1 1 d . .
C12 C 0.74544(19) 0.40143(19) 0.51530(15) 0.0208(3) Uani 1 1 d . .
H12A H 0.7162 0.3023 0.5457 0.031 Uiso 1 1 calc R U
H12B H 0.8622 0.3746 0.4748 0.031 Uiso 1 1 calc R U
H12C H 0.6580 0.4951 0.4471 0.031 Uiso 1 1 calc R U
C22 C 0.74519(18) 0.45132(16) 0.63573(13) 0.0140(2) Uani 1 1 d . .
C32 C 0.90360(18) 0.42463(18) 0.68666(14) 0.0182(3) Uani 1 1 d . .
H32 H 1.0071 0.3867 0.6375 0.022 Uiso 1 1 calc R U
C42 C 0.92054(17) 0.45018(16) 0.80642(14) 0.0142(3) Uani 1 1 d . .
C52 C 1.10137(18) 0.39277(19) 0.86183(15) 0.0193(3) Uani 1 1 d . .
H52A H 1.1353 0.4890 0.8332 0.029 Uiso 1 1 calc R U
H52B H 1.1855 0.3062 0.8268 0.029 Uiso 1 1 calc R U
H52C H 1.1013 0.3456 0.9617 0.029 Uiso 1 1 calc R U
O13 O 0.52125(12) 0.37557(11) 0.97488(9) 0.01358(19) Uani 1 1 d . .
C13 C 0.53949(18) 0.23347(17) 0.94378(14) 0.0172(3) Uani 1 1 d . .
H13A H 0.4955 0.2721 0.8496 0.021 Uiso 1 1 calc R U
H13B H 0.4668 0.1770 1.0066 0.021 Uiso 1 1 calc R U
C23 C 0.7290(2) 0.10807(18) 0.95638(16) 0.0247(3) Uani 1 1 d . .
H23A H 0.8011 0.1632 0.8935 0.037 Uiso 1 1 calc R U
H23B H 0.7364 0.0127 0.9336 0.037 Uiso 1 1 calc R U
H23C H 0.7720 0.0672 1.0501 0.037 Uiso 1 1 calc R U
loop_
_atom_site_aniso_label
_atom_site_aniso_U_11
_atom_site_aniso_U_22
_atom_site_aniso_U_33
_atom_site_aniso_U_23
_atom_site_aniso_U_13
_atom_site_aniso_U_12
Fe1 0.01050(10) 0.01279(11) 0.01167(10) -0.00486(7) -0.00011(7) -0.00306(7)
O11 0.0131(4) 0.0153(5) 0.0188(5) -0.0040(4) -0.0027(4) -0.0035(4)
O21 0.0204(5) 0.0171(5) 0.0181(5) -0.0031(4) -0.0003(4) -0.0088(4)
C11 0.0151(7) 0.0247(8) 0.0276(8) -0.0119(6) -0.0048(6) 0.0003(6)
C21 0.0159(6) 0.0195(7) 0.0126(6) -0.0086(5) -0.0017(5) -0.0019(5)
C31 0.0248(7) 0.0142(7) 0.0212(7) -0.0037(6) -0.0067(6) -0.0014(6)
C41 0.0284(7) 0.0159(7) 0.0116(6) -0.0059(5) 0.0023(5) -0.0089(6)
C51 0.0404(9) 0.0187(7) 0.0246(8) -0.0056(6) 0.0012(7) -0.0145(7)
O12 0.0137(4) 0.0238(5) 0.0147(5) -0.0098(4) 0.0005(3) -0.0066(4)
O22 0.0123(4) 0.0234(5) 0.0162(5) -0.0103(4) 0.0005(4) -0.0060(4)
C12 0.0209(7) 0.0270(8) 0.0190(7) -0.0136(6) 0.0019(5) -0.0093(6)
C22 0.0180(6) 0.0126(6) 0.0119(6) -0.0039(5) 0.0011(5) -0.0070(5)
C32 0.0137(6) 0.0234(7) 0.0202(7) -0.0126(6) 0.0042(5) -0.0066(5)
C42 0.0132(6) 0.0132(6) 0.0164(6) -0.0040(5) 0.0003(5) -0.0063(5)
C52 0.0122(6) 0.0231(7) 0.0238(7) -0.0105(6) -0.0016(5) -0.0054(5)
O13 0.0151(4) 0.0107(4) 0.0142(4) -0.0065(4) 0.0010(3) -0.0028(4)
C13 0.0211(7) 0.0171(7) 0.0183(6) -0.0097(5) 0.0009(5) -0.0094(6)
C23 0.0300(8) 0.0142(7) 0.0242(8) -0.0092(6) 0.0046(6) -0.0025(6)
loop_
_atom_type_symbol
_atom_type_description
_atom_type_scat_dispersion_real
_atom_type_scat_dispersion_imag
_atom_type_scat_source
C C 0.0033 0.0016 'International Tables Vol C Tables 4.2.6.8 and 6.1.1.4'
H H 0.0000 0.0000 'International Tables Vol C Tables 4.2.6.8 and 6.1.1.4'
Fe Fe 0.3463 0.8444 'International Tables Vol C Tables 4.2.6.8 and 6.1.1.4'
O O 0.0106 0.0060 'International Tables Vol C Tables 4.2.6.8 and 6.1.1.4'
loop_
_geom_angle_atom_site_label_1
_geom_angle_atom_site_label_2
_geom_angle_atom_site_label_3
_geom_angle
_geom_angle_site_symmetry_1
_geom_angle_site_symmetry_3
O13 Fe1 O13 75.83(4) . 2_667
O13 Fe1 O12 93.92(4) . .
O13 Fe1 O12 169.53(4) 2_667 .
O13 Fe1 O21 169.42(4) . .
O13 Fe1 O21 93.71(4) 2_667 .
O12 Fe1 O21 96.59(4) . .
O13 Fe1 O22 95.21(4) . .
O13 Fe1 O22 91.76(4) 2_667 .
O12 Fe1 O22 87.01(4) . .
O21 Fe1 O22 86.51(4) . .
O13 Fe1 O11 92.77(4) . .
O13 Fe1 O11 95.89(4) 2_667 .
O12 Fe1 O11 86.59(4) . .
O21 Fe1 O11 86.71(4) . .
O22 Fe1 O11 170.09(4) . .
C21 O11 Fe1 129.88(9) . .
C41 O21 Fe1 129.92(9) . .
C21 C11 H11A 109.5 . .
C21 C11 H11B 109.5 . .
H11A C11 H11B 109.5 . .
C21 C11 H11C 109.5 . .
H11A C11 H11C 109.5 . .
H11B C11 H11C 109.5 . .
O11 C21 C31 124.26(13) . .
O11 C21 C11 116.07(13) . .
C31 C21 C11 119.67(13) . .
C41 C31 C21 124.34(13) . .
C41 C31 H31 117.8 . .
C21 C31 H31 117.8 . .
O21 C41 C31 124.67(13) . .
O21 C41 C51 115.42(13) . .
C31 C41 C51 119.91(13) . .
C41 C51 H51A 109.5 . .
C41 C51 H51B 109.5 . .
H51A C51 H51B 109.5 . .
C41 C51 H51C 109.5 . .
H51A C51 H51C 109.5 . .
H51B C51 H51C 109.5 . .
C22 O12 Fe1 129.68(9) . .
C42 O22 Fe1 129.87(9) . .
C22 C12 H12A 109.5 . .
C22 C12 H12B 109.5 . .
H12A C12 H12B 109.5 . .
C22 C12 H12C 109.5 . .
H12A C12 H12C 109.5 . .
H12B C12 H12C 109.5 . .
O12 C22 C32 124.61(12) . .
O12 C22 C12 115.81(12) . .
C32 C22 C12 119.54(12) . .
C22 C32 C42 124.26(12) . .
C22 C32 H32 117.9 . .
C42 C32 H32 117.9 . .
O22 C42 C32 124.23(12) . .
O22 C42 C52 116.77(12) . .
C32 C42 C52 118.98(12) . .
C42 C52 H52A 109.5 . .
C42 C52 H52B 109.5 . .
H52A C52 H52B 109.5 . .
C42 C52 H52C 109.5 . .
H52A C52 H52C 109.5 . .
H52B C52 H52C 109.5 . .
C13 O13 Fe1 127.45(8) . .
C13 O13 Fe1 128.32(8) . 2_667
Fe1 O13 Fe1 104.17(4) . 2_667
O13 C13 C23 111.85(11) . .
O13 C13 H13A 109.2 . .
C23 C13 H13A 109.2 . .
O13 C13 H13B 109.2 . .
C23 C13 H13B 109.2 . .
H13A C13 H13B 107.9 . .
C13 C23 H23A 109.5 . .
C13 C23 H23B 109.5 . .
H23A C23 H23B 109.5 . .
C13 C23 H23C 109.5 . .
H23A C23 H23C 109.5 . .
H23B C23 H23C 109.5 . .
loop_
_geom_bond_atom_site_label_1
_geom_bond_atom_site_label_2
_geom_bond_distance
_geom_bond_site_symmetry_2
Fe1 O13 1.9834(9) .
Fe1 O13 1.9893(9) 2_667
Fe1 O12 2.0072(9) .
Fe1 O21 2.0078(10) .
Fe1 O22 2.0171(9) .
Fe1 O11 2.0244(9) .
O11 C21 1.2699(17) .
O21 C41 1.2778(17) .
C11 C21 1.5106(19) .
C11 H11A 0.9800 .
C11 H11B 0.9800 .
C11 H11C 0.9800 .
C21 C31 1.402(2) .
C31 C41 1.395(2) .
C31 H31 0.9500 .
C41 C51 1.5092(19) .
C51 H51A 0.9800 .
C51 H51B 0.9800 .
C51 H51C 0.9800 .
O12 C22 1.2806(16) .
O22 C42 1.2676(16) .
C12 C22 1.5090(18) .
C12 H12A 0.9800 .
C12 H12B 0.9800 .
C12 H12C 0.9800 .
C22 C32 1.3905(19) .
C32 C42 1.4081(19) .
C32 H32 0.9500 .
C42 C52 1.5026(18) .
C52 H52A 0.9800 .
C52 H52B 0.9800 .
C52 H52C 0.9800 .
O13 C13 1.4231(16) .
O13 Fe1 1.9894(9) 2_667
C13 C23 1.515(2) .
C13 H13A 0.9900 .
C13 H13B 0.9900 .
C23 H23A 0.9800 .
C23 H23B 0.9800 .
C23 H23C 0.9800 .
loop_
_geom_torsion_atom_site_label_1
_geom_torsion_atom_site_label_2
_geom_torsion_atom_site_label_3
_geom_torsion_atom_site_label_4
_geom_torsion
_geom_torsion_site_symmetry_1
Fe1 O11 C21 C31 5.8(2) .
Fe1 O11 C21 C11 -173.69(9) .
O11 C21 C31 C41 -3.1(2) .
C11 C21 C31 C41 176.42(13) .
Fe1 O21 C41 C31 -1.9(2) .
Fe1 O21 C41 C51 177.24(9) .
C21 C31 C41 O21 1.0(2) .
C21 C31 C41 C51 -178.06(14) .
Fe1 O12 C22 C32 1.3(2) .
Fe1 O12 C22 C12 178.98(9) .
O12 C22 C32 C42 4.3(2) .
C12 C22 C32 C42 -173.24(13) .
Fe1 O22 C42 C32 4.4(2) .
Fe1 O22 C42 C52 -174.01(9) .
C22 C32 C42 O22 -7.3(2) .
C22 C32 C42 C52 171.07(13) .
Fe1 O13 C13 C23 90.61(13) .
Fe1 O13 C13 C23 -92.64(13) 2_667
