#------------------------------------------------------------------------------
#$Date: 2019-11-03 13:34:43 +0200 (Sun, 03 Nov 2019) $
#$Revision: 221536 $
#$URL: file:///home/coder/svn-repositories/cod/cif/4/12/84/4128427.cif $
#------------------------------------------------------------------------------
#
# This file is available in the Crystallography Open Database (COD),
# http://www.crystallography.net/
#
# All data on this site have been placed in the public domain by the
# contributors.
#
data_4128427
loop_
_publ_author_name
'Zhang, Wu-Bin'
'Yang, Xin-Tuo'
'Ma, Jun-Bao'
'Su, Zhi-Ming'
'Shi, Shi-Liang'
_publ_section_title
;
 Regio- and Enantioselective C-H Cyclization of Pyridines with Alkenes
 Enabled by a Nickel/N-Heterocyclic Carbene Catalysis.
;
_journal_issue                   14
_journal_name_full               'Journal of the American Chemical Society'
_journal_page_first              5628
_journal_page_last               5634
_journal_paper_doi               10.1021/jacs.9b00931
_journal_volume                  141
_journal_year                    2019
_chemical_absolute_configuration ad
_chemical_formula_sum            'C19 H17 N'
_chemical_formula_weight         259.33
_space_group_crystal_system      monoclinic
_space_group_IT_number           4
_space_group_name_Hall           'P 2yb'
_space_group_name_H-M_alt        'P 1 21 1'
_atom_sites_solution_hydrogens   geom
_audit_creation_method           SHELXL-2013
_cell_angle_alpha                90
_cell_angle_beta                 112.865(2)
_cell_angle_gamma                90
_cell_formula_units_Z            2
_cell_length_a                   9.3155(7)
_cell_length_b                   8.4154(6)
_cell_length_c                   9.8563(7)
_cell_measurement_reflns_used    9989
_cell_measurement_temperature    293(2)
_cell_measurement_theta_max      140.489
_cell_measurement_theta_min      10.295
_cell_volume                     711.96(9)
_computing_cell_refinement       'Bruker SAINT'
_computing_data_collection       'Bruker APEX2'
_computing_data_reduction        'Bruker SAINT'
_computing_molecular_graphics    'Bruker SHELXTL'
_computing_publication_material  'Bruker SHELXTL'
_computing_structure_refinement  'SHELXL-2013 (Sheldrick, 2013)'
_computing_structure_solution    'SHELXS-97 (Sheldrick 2008)'
_diffrn_ambient_temperature      293(2)
_diffrn_measured_fraction_theta_full 0.959
_diffrn_measured_fraction_theta_max 0.976
_diffrn_measurement_device_type  'Bruker APEX-II CCD'
_diffrn_measurement_method       '\f and \w scans'
_diffrn_radiation_type           CuK\a
_diffrn_radiation_wavelength     1.54178
_diffrn_reflns_av_R_equivalents  0.0398
_diffrn_reflns_av_unetI/netI     0.0307
_diffrn_reflns_Laue_measured_fraction_full 0.959
_diffrn_reflns_Laue_measured_fraction_max 0.976
_diffrn_reflns_limit_h_max       11
_diffrn_reflns_limit_h_min       -11
_diffrn_reflns_limit_k_max       9
_diffrn_reflns_limit_k_min       -9
_diffrn_reflns_limit_l_max       11
_diffrn_reflns_limit_l_min       -11
_diffrn_reflns_number            11303
_diffrn_reflns_point_group_measured_fraction_full 0.952
_diffrn_reflns_point_group_measured_fraction_max 0.970
_diffrn_reflns_theta_full        67.679
_diffrn_reflns_theta_max         66.951
_diffrn_reflns_theta_min         4.869
_exptl_absorpt_coefficient_mu    0.532
_exptl_absorpt_correction_T_max  0.7533
_exptl_absorpt_correction_T_min  0.5359
_exptl_absorpt_correction_type   multi-scan
_exptl_absorpt_process_details   sadabs
_exptl_crystal_colour            colorless
_exptl_crystal_density_diffrn    1.210
_exptl_crystal_description       prismatic
_exptl_crystal_F_000             276
_exptl_crystal_size_max          0.180
_exptl_crystal_size_mid          0.150
_exptl_crystal_size_min          0.110
_refine_diff_density_max         0.103
_refine_diff_density_min         -0.085
_refine_diff_density_rms         0.019
_refine_ls_abs_structure_details
; 
 Flack x determined using 1065 quotients [(I+)-(I-)]/[(I+)+(I-)] 
 (Parsons and Flack (2004), Acta Cryst. A60, s61). 
;
_refine_ls_abs_structure_Flack   0.0(3)
_refine_ls_extinction_coef       0.072(12)
_refine_ls_extinction_expression Fc^*^=kFc[1+0.001xFc^2^\l^3^/sin(2\q)]^-1/4^
_refine_ls_extinction_method     SHELXL
_refine_ls_goodness_of_fit_ref   1.026
_refine_ls_hydrogen_treatment    constr
_refine_ls_matrix_type           full
_refine_ls_number_parameters     182
_refine_ls_number_reflns         2449
_refine_ls_number_restraints     1
_refine_ls_restrained_S_all      1.026
_refine_ls_R_factor_all          0.0310
_refine_ls_R_factor_gt           0.0301
_refine_ls_shift/su_max          0.000
_refine_ls_shift/su_mean         0.000
_refine_ls_structure_factor_coef Fsqd
_refine_ls_weighting_details
'w=1/[\s^2^(Fo^2^)+(0.0381P)^2^+0.0585P] where P=(Fo^2^+2Fc^2^)/3'
_refine_ls_weighting_scheme      calc
_refine_ls_wR_factor_gt          0.0770
_refine_ls_wR_factor_ref         0.0779
_reflns_Friedel_coverage         0.848
_reflns_Friedel_fraction_full    0.943
_reflns_Friedel_fraction_max     0.962
_reflns_number_gt                2392
_reflns_number_total             2449
_reflns_threshold_expression     'I > 2\s(I)'
_cod_data_source_file            ja9b00931_si_002.cif
_cod_data_source_block           cu_d8v19148_0m
_cod_original_sg_symbol_H-M      'P 21'
_cod_database_code               4128427
_shelx_space_group_comment
; 
The symmetry employed for this shelxl refinement is uniquely defined 
by the following loop, which should always be used as a source of 
symmetry information in preference to the above space-group names. 
They are only intended as comments. 
;
_shelx_estimated_absorpt_t_min   0.910
_shelx_estimated_absorpt_t_max   0.944
_shelxl_version_number           2013-4
_shelx_res_file
; 
TITL cu_d8v19148_0m_a.res in P2(1) 
CELL 1.54178 9.3155 8.4154 9.8563 90 112.865 90 
ZERR 2 0.0007 0.0006 0.0007 0 0.002 0 
LATT -1 
SYMM -X,0.5+Y,-Z 
SFAC C  H  N 
UNIT 38 34 2 
OMIT  -3.00 134.00 
L.S. 10 
ACTA 
BOND $H 
FMAP 2 
PLAN 20 
LIST 4 
size 0.18 0.15 0.11 
wpdb -1 
mpla 
htab 
conf 
TEMP 20.2 
WGHT    0.038100    0.058500 
EXTI    0.072461 
FVAR       3.83768 
N1    3    0.893845    0.202217    1.140157    11.00000    0.06048    0.07701 = 
         0.04529    0.01421    0.01337    0.00097 
C1    1    0.704654    0.580263    0.404884    11.00000    0.04686    0.04436 = 
         0.03507    0.00157    0.01896    0.00784 
C2    1    0.828972    0.675482    0.498943    11.00000    0.05255    0.04899 = 
         0.04108    0.00256    0.01994    0.00235 
AFIX  43 
H2    2    0.886634    0.641195    0.594445    11.00000   -1.20000 
AFIX   0 
C3    1    0.865723    0.816691    0.451989    11.00000    0.06123    0.04892 = 
         0.06387    0.00052    0.02881   -0.00435 
AFIX  43 
H3    2    0.947486    0.877391    0.515884    11.00000   -1.20000 
AFIX   0 
C4    1    0.781193    0.870991    0.308177    11.00000    0.07727    0.05046 = 
         0.07428    0.01804    0.04254    0.00530 
AFIX  43 
H4    2    0.807450    0.966916    0.276926    11.00000   -1.20000 
AFIX   0 
C5    1    0.661146    0.783396    0.214809    11.00000    0.06724    0.05998 = 
         0.04971    0.01931    0.02854    0.01858 
AFIX  43 
H5    2    0.605957    0.820312    0.119711    11.00000   -1.20000 
AFIX   0 
C6    1    0.618114    0.637059    0.259033    11.00000    0.05262    0.05082 = 
         0.03899    0.00584    0.02173    0.01329 
C7    1    0.492407    0.546762    0.162878    11.00000    0.05654    0.06859 = 
         0.03533    0.00319    0.01176    0.01454 
AFIX  43 
H7    2    0.436230    0.583046    0.067750    11.00000   -1.20000 
AFIX   0 
C8    1    0.452754    0.407576    0.207891    11.00000    0.06048    0.07109 = 
         0.04715   -0.00887    0.00863   -0.00445 
AFIX  43 
H8    2    0.368320    0.349884    0.144174    11.00000   -1.20000 
AFIX   0 
C9    1    0.538066    0.350068    0.349687    11.00000    0.06440    0.05342 = 
         0.05255    0.00067    0.01667   -0.00765 
AFIX  43 
H9    2    0.509236    0.253760    0.377973    11.00000   -1.20000 
AFIX   0 
C10   1    0.663011    0.431002    0.448617    11.00000    0.05021    0.04597 = 
         0.03899    0.00179    0.01847    0.00350 
C11   1    0.754137    0.364027    0.600715    11.00000    0.05069    0.04359 = 
         0.04032    0.00726    0.02033    0.00494 
AFIX  13 
H11   2    0.861849    0.401159    0.631216    11.00000   -1.20000 
AFIX   0 
C12   1    0.758614    0.182995    0.607937    11.00000    0.08448    0.04506 = 
         0.05178    0.00320    0.03362    0.01277 
AFIX  23 
H12A  2    0.656302    0.142562    0.593915    11.00000   -1.20000 
H12B  2    0.786559    0.141181    0.529777    11.00000   -1.20000 
AFIX   0 
C13   1    0.876619    0.128611    0.755871    11.00000    0.07700    0.05215 = 
         0.06363    0.01608    0.03738    0.02436 
AFIX  23 
H13A  2    0.868283    0.014464    0.764394    11.00000   -1.20000 
H13B  2    0.980778    0.151996    0.761583    11.00000   -1.20000 
AFIX   0 
C14   1    0.852027    0.209115    0.882209    11.00000    0.04570    0.04976 = 
         0.04800    0.01047    0.02009    0.00518 
C15   1    0.912031    0.142988    1.022238    11.00000    0.05489    0.06413 = 
         0.05670    0.01863    0.01882    0.01321 
AFIX  43 
H15   2    0.969563    0.049871    1.034890    11.00000   -1.20000 
AFIX   0 
C16   1    0.811120    0.335307    1.118799    11.00000    0.06003    0.06703 = 
         0.04188    0.00017    0.01688   -0.00573 
AFIX  43 
H16   2    0.795821    0.379571    1.198604    11.00000   -1.20000 
AFIX   0 
C17   1    0.746890    0.411099    0.984809    11.00000    0.05365    0.04972 = 
         0.04593    0.00058    0.02027    0.00042 
AFIX  43 
H17   2    0.690711    0.504566    0.976046    11.00000   -1.20000 
AFIX   0 
C18   1    0.766059    0.347769    0.862360    11.00000    0.04184    0.04264 = 
         0.04167    0.00473    0.01682   -0.00096 
C19   1    0.692155    0.426408    0.713450    11.00000    0.05325    0.04256 = 
         0.04302    0.00614    0.01981    0.00992 
AFIX  23 
H19A  2    0.710698    0.539970    0.725093    11.00000   -1.20000 
H19B  2    0.580429    0.409570    0.675823    11.00000   -1.20000 
AFIX   0 
HKLF 4 
  
REM  cu_d8v19148_0m_a.res in P2(1) 
REM R1 =  0.0301 for    2392 Fo > 4sig(Fo)  and  0.0310 for all    2449 data 
REM    182 parameters refined using      1 restraints 
  
END 
  
WGHT      0.0355      0.0592 
  
REM No hydrogen bonds found for HTAB generation 
  
REM Highest difference peak  0.103,  deepest hole -0.085,  1-sigma level  0.019 
Q1    1   0.6595  0.6034  0.3330  11.00000  0.05    0.10 
Q2    1   0.7722  0.2495  0.8567  11.00000  0.05    0.10 
Q3    1   0.7142  0.3956  0.5277  11.00000  0.05    0.09 
Q4    1   0.8486  0.1597  0.8280  11.00000  0.05    0.08 
Q5    1   0.7578  0.2808  0.6211  11.00000  0.05    0.08 
Q6    1   0.7250  0.3689  0.7948  11.00000  0.05    0.08 
Q7    1   0.7280  0.6501  0.4588  11.00000  0.05    0.07 
Q8    1   0.8409  0.1400  0.9376  11.00000  0.05    0.07 
Q9    1   1.0061  0.1565  1.2394  11.00000  0.05    0.07 
Q10   1   0.7303  0.3969  0.6495  11.00000  0.05    0.06 
Q11   1   0.8302  0.4288  1.0750  11.00000  0.05    0.06 
Q12   1   0.7381  0.3553  1.0353  11.00000  0.05    0.06 
Q13   1   0.8776  0.7217  0.4602  11.00000  0.05    0.06 
Q14   1   0.6432  0.5406  0.7204  11.00000  0.05    0.06 
Q15   1   0.3635  0.5774 -0.0755  11.00000  0.05    0.06 
Q16   1   0.8533  0.3374  0.9032  11.00000  0.05    0.06 
Q17   1   0.7122  0.1265  0.4839  11.00000  0.05    0.06 
Q18   1   0.8548  0.5237  0.9975  11.00000  0.05    0.06 
Q19   1   0.7315  0.3486  0.9150  11.00000  0.05    0.06 
Q20   1   1.0718  0.7707  0.6354  11.00000  0.05    0.06 
;
_shelx_res_checksum              59994
_shelx_hkl_file
; 
  -1   0   0  157.18    7.70 
  -1   0   0  154.78    7.60 
  -1   0   0  163.08    8.40 
   1   0   0  163.28    7.70 
   1   0   0  156.28    8.50 
   4   0   0   18.30    3.60 
  -4   0   0   19.50    2.50 
   4   0   0   21.30    2.70 
  -4   0   0   17.00    2.30 
  -4   0   0   16.80    4.20 
  -5   0   0 1933.61   95.39 
  -5   0   0 1902.81   89.49 
  -5   0   0 1861.61   89.19 
   5   0   0 1990.20   94.59 
   5   0   0 2061.29   90.19 
  -6   0   0   17.20    5.20 
  -6   0   0   12.80    3.10 
   6   0   0   15.10    5.90 
   7   0   0   13.80    5.40 
   7   0   0   18.50    6.20 
   7   0   0   32.60    7.10 
  -7   0   0   21.20    7.40 
   7   0   0   22.70    7.20 
   8   0   0  255.87   30.00 
  -9   0   0   99.29   12.40 
   9   0   0   82.69   10.00 
 -10   0   0   24.60    4.80 
  10   0   0   32.00    6.40 
  10   0   0   23.20    5.20 
   0  -1   0   20.70    1.90 
   4  -1   0 1124.49   49.50 
  -4  -1   0 1057.79   52.09 
  -4  -1   0 1020.00   49.70 
   4  -1   0 1003.20   49.30 
   4  -1   0 1043.70   51.19 
   4   1   0 1087.89   53.79 
   4   1   0 1046.10   49.30 
  -4   1   0 1008.10   48.00 
  -4   1   0 1035.40   53.99 
  -5  -1   0 1854.01   94.19 
   5  -1   0 1914.11   93.39 
   5  -1   0 2141.39   90.69 
  -5  -1   0 1927.71   89.19 
   5  -1   0 1946.91   90.89 
  -5  -1   0 1932.41   90.69 
  -5   1   0 1899.61   96.89 
  -5   1   0 1966.20   88.59 
   5   1   0 1999.80   96.39 
  -6  -1   0  363.56   21.10 
  -6  -1   0  386.66   20.20 
   6  -1   0  360.46   24.30 
   6  -1   0  310.17   34.90 
   6  -1   0  380.86   21.10 
  -6  -1   0  370.86   21.30 
   6   1   0  369.46   26.50 
   7  -1   0  456.05   30.50 
   7  -1   0  451.75   29.40 
  -7  -1   0  500.65   27.40 
   7  -1   0  449.36   31.20 
  -7   1   0  492.45   29.80 
   7   1   0  462.25   32.90 
   8  -1   0  252.17   21.80 
   8  -1   0  328.67   24.90 
  -8  -1   0  287.37   22.70 
   8  -1   0  294.17   21.60 
   8  -1   0  289.07   20.60 
   8   1   0  255.87   23.20 
  -8   1   0  235.68   23.70 
   8   1   0  219.78   22.50 
   8   1   0  284.37   21.40 
   9  -1   0   35.20    6.50 
   9  -1   0   31.50    6.40 
   9  -1   0   57.99    9.10 
   9  -1   0   20.10    6.50 
  -9  -1   0   44.50    8.10 
   9   1   0   32.00    7.00 
   9   1   0   36.70    7.60 
  -9   1   0   45.40    8.10 
 -10  -1   0   19.30    4.50 
  10  -1   0   24.90    5.00 
 -10   1   0   26.00    4.90 
  10   1   0   24.60    4.70 
  10   1   0   23.50    4.90 
  -3  -2   0 3572.44  165.18 
   3  -2   0 3983.30  163.08 
  -3  -2   0 3549.74  164.08 
   3  -2   0 3481.65  163.98 
   3  -2   0 3366.56  163.58 
   3   2   0 3491.65  162.98 
   3   2   0 3790.72  164.38 
   3   2   0 3718.03  168.08 
  -3   2   0 3765.02  168.18 
  -3   2   0 3662.33  164.18 
   4  -2   0 9538.95  425.26 
  -4  -2   0 9890.51  426.46 
   4  -2   0 9999.00  423.86 
   4   2   0 8963.80  423.06 
  -4   2   0 9226.98  430.26 
  -5  -2   0 1244.18   59.19 
   5  -2   0 1318.77   58.39 
   5  -2   0 1255.17   58.39 
  -5  -2   0 1233.38   56.49 
  -5  -2   0 1297.37   66.19 
   5  -2   0 1027.20   59.19 
  -5   2   0 1190.88   65.79 
  -5   2   0 1162.88   61.19 
   5   2   0 1182.68   64.59 
   6  -2   0   50.49    8.20 
  -6  -2   0   69.19    6.80 
  -6  -2   0   51.89    5.10 
   6  -2   0   35.40    8.30 
   6  -2   0   54.69    9.10 
  -6  -2   0   50.29    6.30 
   6   2   0   52.49    9.70 
  -6   2   0   55.09    8.10 
  -6   2   0   45.50    8.20 
  -7  -2   0   82.29    8.00 
   7  -2   0   92.69   12.50 
   7  -2   0   83.99   12.20 
  -7  -2   0  101.39   11.40 
  -7  -2   0   96.09    8.90 
  -7   2   0  110.79   13.40 
   7   2   0   96.19   13.20 
  -7   2   0   94.79   10.20 
   7   2   0   83.09   12.70 
   7   2   0   84.19    9.30 
  -7   2   0   93.49   11.10 
   7   2   0   83.49   11.50 
   8  -2   0  150.48   15.70 
  -8  -2   0  138.39   10.90 
  -8  -2   0  134.69   14.00 
   8  -2   0  155.68   15.50 
   8  -2   0  151.88   14.60 
   8   2   0  137.19   14.30 
   8   2   0  135.19   15.30 
  -8   2   0  140.49   13.50 
  -8   2   0  141.19   15.70 
   9  -2   0  474.95   29.70 
  -9  -2   0  386.16   26.80 
   9  -2   0  514.45   28.80 
   9  -2   0  460.85   27.50 
   9   2   0  455.75   29.30 
   9   2   0  449.56   28.40 
  -9   2   0  434.56   29.60 
 -10  -2   0  254.37   15.80 
  10  -2   0  288.37   17.70 
  10   2   0  256.87   18.20 
  10   2   0  258.67   16.20 
 -10   2   0  240.88   16.80 
   0  -3   0    1.60    0.70 
   0   3   0   -0.60    0.70 
   0   3   0    0.80    0.90 
   0   3   0    0.90    1.30 
   0   3   0    3.30    1.10 
  -1  -3   0 3415.06  157.68 
   1  -3   0 3447.95  154.58 
   1  -3   0 3080.49  156.58 
  -1  -3   0 3369.86  156.78 
  -1  -3   0 3757.82  156.28 
  -1   3   0 3416.86  157.08 
  -1   3   0 3649.23  154.68 
   1   3   0 3334.47  158.88 
  -1   3   0 3670.53  157.78 
   1   3   0 3643.94  156.28 
  -1   3   0 3603.24  159.08 
   1   3   0 3290.37  156.48 
  -2  -3   0 2708.93  123.89 
  -2  -3   0 2721.03  123.79 
   2  -3   0 2880.81  121.79 
  -2   3   0 2753.52  124.39 
  -2   3   0 2692.33  127.09 
   2   3   0 2686.13  127.39 
   2   3   0 2770.42  123.79 
   2   3   0 2556.34  123.19 
  -3  -3   0 2259.97  102.89 
  -3  -3   0 2323.47   99.79 
   3  -3   0 2121.79  102.39 
   3  -3   0 2291.67  100.99 
  -3  -3   0 1926.81  104.39 
  -3   3   0 2259.37  107.69 
  -3   3   0 2205.58  107.09 
   3   3   0 2326.27  108.19 
  -3   3   0 2426.86  103.49 
   3   3   0 2140.19  101.39 
   4  -3   0 4414.26  198.98 
   4  -3   0 4337.17  200.08 
  -4  -3   0 4372.56  200.78 
  -4  -3   0 4481.15  201.18 
  -4  -3   0 4446.26  197.28 
   4  -3   0 4367.56  200.28 
   4   3   0 4332.67  207.08 
  -4   3   0 4295.87  207.28 
  -4   3   0 4350.06  203.78 
  -4   3   0 4823.62  201.18 
  -5  -3   0  859.91   40.80 
  -5  -3   0  893.41   43.50 
   5  -3   0  968.30   42.80 
   5  -3   0  813.52   41.50 
  -5  -3   0  788.92   42.70 
   5  -3   0  702.43   44.60 
   5  -3   0  786.72   42.70 
   5   3   0  840.22   50.19 
  -5   3   0  806.22   45.80 
   6  -3   0  717.63   38.30 
  -6  -3   0  737.23   35.80 
  -6  -3   0  731.03   39.20 
   6  -3   0  622.74   43.70 
  -6  -3   0  732.23   37.20 
   6  -3   0  773.42   38.20 
   6  -3   0  657.43   41.10 
   6  -3   0  754.52   40.60 
  -6   3   0  700.43   41.60 
   6   3   0  725.83   46.50 
  -6   3   0  753.62   42.00 
   7  -3   0   98.79   14.00 
  -7  -3   0  122.29   13.40 
   7  -3   0  139.09   11.80 
  -7  -3   0  121.69   10.20 
   7  -3   0   93.89   12.50 
  -7  -3   0  121.69    9.40 
   7  -3   0  131.59   16.10 
   7   3   0  116.19   13.20 
  -7   3   0  115.59   12.50 
   7   3   0  114.99   16.00 
  -7   3   0  129.79   15.00 
  -7   3   0  145.59   13.50 
   7   3   0  143.19   15.40 
  -7   3   0  111.09   13.20 
   7   3   0  115.69   11.20 
  -7   3   0  145.29   13.70 
   8  -3   0  129.69   14.40 
  -8  -3   0  118.29    9.90 
  -8  -3   0  124.29   12.30 
   8  -3   0  118.79   13.00 
   8  -3   0  130.69   14.70 
  -8   3   0  130.49   15.00 
   8   3   0  117.29   13.20 
   8   3   0  121.39   14.20 
  -8   3   0  124.19   12.40 
  -9  -3   0   77.69   11.40 
   9  -3   0   68.59    8.80 
   9  -3   0   81.69    9.70 
   9  -3   0   78.19    9.60 
   9   3   0   71.29    9.00 
   9   3   0   67.69   10.40 
  -9   3   0   67.19    9.90 
  10   3   0  102.89    8.90 
  -1  -4   0 1211.78   59.99 
   1  -4   0 1285.37   56.89 
  -1  -4   0 1352.06   58.99 
   1  -4   0 1126.19   59.69 
  -1   4   0 1321.97   61.09 
  -1   4   0 1270.37   62.29 
   1   4   0 1281.37   58.89 
  -1   4   0 1207.58   59.89 
   1   4   0 1189.88   59.29 
   1   4   0 1217.88   62.39 
   2  -4   0 2572.84  127.49 
  -2  -4   0 2929.01  127.99 
  -2  -4   0 2957.50  127.79 
   2   4   0 2788.62  132.39 
   2   4   0 2667.63  126.99 
  -2   4   0 2846.62  128.49 
  -2   4   0 2748.43  131.89 
  -2   4   0 2755.42  131.79 
  -3  -4   0  524.35   24.10 
  -3  -4   0  491.45   27.60 
   3  -4   0  541.45   25.60 
   3  -4   0  476.15   27.20 
   3   4   0  512.75   32.70 
  -3   4   0  554.44   28.60 
  -3   4   0  502.45   30.50 
  -3   4   0  508.85   32.50 
   3   4   0  487.95   26.20 
  -4  -4   0 1319.97   66.59 
  -4  -4   0 1349.36   62.19 
   4  -4   0 1308.17   65.99 
   4  -4   0 1386.46   64.29 
   4  -4   0 1370.96   65.69 
  -4   4   0 1467.95   67.09 
  -4   4   0 1371.56   69.39 
  -4   4   0 1352.46   72.19 
   4   4   0 1309.07   73.39 
   5  -4   0  126.19   10.70 
   5  -4   0  109.49   11.60 
  -5  -4   0  119.09    8.00 
  -5  -4   0   89.29   10.80 
   5  -4   0  130.09   10.60 
  -5  -4   0  133.09    9.20 
   5  -4   0  130.89   10.10 
  -5   4   0  136.99   13.40 
   5   4   0  113.29   15.20 
  -5   4   0  125.79   10.80 
  -5   4   0  124.99   13.60 
   6  -4   0  742.03   46.10 
  -6  -4   0  762.92   36.80 
   6  -4   0  781.42   40.00 
   6  -4   0  764.62   46.10 
   6  -4   0  617.54   45.20 
   6  -4   0  688.93   43.10 
  -6  -4   0  774.82   38.30 
  -6   4   0  783.02   43.60 
  -6   4   0  682.43   40.10 
   6   4   0  771.62   44.30 
   6   4   0  744.23   46.60 
  -6   4   0  730.03   42.50 
  -6   4   0  752.12   46.40 
  -6   4   0  748.13   42.70 
   6   4   0  766.42   49.80 
  -6   4   0  732.03   43.90 
  -7  -4   0   31.00    7.00 
  -7  -4   0   41.40    5.00 
  -7  -4   0   37.60    6.20 
   7  -4   0   39.60   10.10 
   7  -4   0   34.10    7.80 
   7  -4   0   39.90    7.00 
   7  -4   0   29.80   11.10 
   7   4   0   40.90    8.90 
  -7   4   0   30.50    5.80 
  -7   4   0   42.20    8.30 
  -7   4   0   28.20    6.80 
  -7   4   0   33.30    8.30 
   7   4   0   39.80    6.70 
   7   4   0   42.40    9.30 
   7   4   0   43.70   10.70 
  -7   4   0   43.60    9.50 
  -8  -4   0   46.20    5.80 
   8  -4   0   40.30   10.90 
  -8  -4   0   45.00    6.80 
   8  -4   0   52.79    9.30 
   8  -4   0   58.79   10.00 
   8   4   0   54.79   10.30 
  -8   4   0   36.60    9.70 
   9  -4   0   17.30    4.70 
   9  -4   0   19.50    4.90 
   9  -4   0   26.70    5.40 
   9   4   0   37.30    9.60 
   0  -5   0    0.40    2.60 
   0  -5   0   -2.10    1.20 
   0   5   0    2.80    2.20 
   0   5   0   -1.90    1.40 
   0   5   0    0.20    1.90 
   0   5   0   -1.00    1.60 
  -1  -5   0 4902.51  213.68 
   1  -5   0 4368.96  212.98 
  -1  -5   0 4805.32  210.98 
  -1   5   0 5060.89  214.68 
   1   5   0 4759.62  216.48 
   1   5   0 4477.85  211.88 
  -1   5   0 4429.46  214.38 
  -1   5   0 4496.85  215.78 
  -1   5   0 4738.03  212.88 
   2  -5   0  467.05   21.40 
  -2  -5   0  421.46   19.60 
  -2  -5   0  429.16   24.20 
   2  -5   0  409.96   24.70 
   2   5   0  403.86   24.10 
   2   5   0  395.86   23.60 
  -2   5   0  483.85   29.90 
  -2   5   0  438.36   25.30 
  -2   5   0  415.76   27.20 
   2   5   0  437.26   29.00 
   3  -5   0  269.77   17.60 
  -3  -5   0  276.97   13.90 
  -3  -5   0  272.47   18.00 
   3  -5   0  289.67   15.60 
  -3   5   0  265.77   20.20 
  -3   5   0  283.67   18.50 
  -3   5   0  269.77   20.70 
   4  -5   0 1092.29   52.19 
   4  -5   0 1003.00   53.89 
   4  -5   0 1081.69   54.89 
  -4  -5   0 1095.69   49.80 
  -4  -5   0  926.71   54.39 
   4  -5   0 1136.19   55.59 
   4   5   0 1017.40   62.29 
  -4   5   0 1028.10   58.69 
  -4   5   0 1131.69   58.19 
  -4   5   0 1187.88   55.79 
   5  -5   0 1260.17   62.19 
   5  -5   0  988.90   57.39 
   5  -5   0 1078.19   58.29 
  -5  -5   0 1080.69   55.29 
  -5   5   0 1250.27   61.89 
  -5   5   0 1082.39   58.69 
  -5   5   0 1118.09   65.99 
  -5   5   0 1100.79   59.59 
   5   5   0 1047.10   65.39 
   5   5   0 1140.09   56.39 
  -5   5   0  977.80   75.49 
  -5   5   0 1078.79   61.09 
  -5   5   0 1094.59   59.39 
   6  -5   0  198.08   14.90 
  -6  -5   0  176.68   11.70 
   6  -5   0  180.08   14.30 
   6  -5   0  160.78   18.70 
   6  -5   0  205.28   23.60 
   6  -5   0  158.88   16.70 
  -6  -5   0  187.88   12.90 
  -6   5   0  198.48   17.30 
  -6   5   0  181.78   16.50 
   6   5   0  198.78   14.90 
  -6   5   0  189.88   15.20 
   6   5   0  193.38   21.40 
   6   5   0  181.08   17.90 
  -6   5   0  168.88   17.50 
  -6   5   0  187.88   17.40 
  -6   5   0  186.38   19.40 
   6   5   0  223.78   23.50 
  -6   5   0  191.28   17.00 
  -7  -5   0  173.88   12.60 
  -7  -5   0  179.78   11.60 
   7  -5   0  160.38   16.40 
   7  -5   0  146.29   14.00 
   7  -5   0  155.88   17.10 
   7  -5   0  149.88   15.10 
   7   5   0  183.28   16.20 
  -7   5   0  179.98   15.50 
  -7   5   0  186.38   13.30 
   7   5   0  184.18   16.10 
  -7   5   0  181.08   17.60 
  -7   5   0  170.88   16.10 
  -7   5   0  173.88   15.00 
  -8  -5   0  110.69    8.90 
   8  -5   0   96.59   10.90 
  -8  -5   0  112.49   10.10 
   8  -5   0  121.09   13.00 
   8  -5   0  119.19   11.70 
  -8   5   0  116.19   12.50 
   8   5   0  100.19   11.00 
  -8   5   0   97.29   10.30 
   9  -5   0   17.70    5.00 
   9  -5   0   33.40    7.40 
   9  -5   0   32.10    5.20 
   9   5   0   28.50    4.60 
  -9   5   0   33.60    5.40 
   0  -6   0 1240.08   64.59 
   0   6   0 1302.77   65.59 
   0   6   0 1159.78   63.49 
   0   6   0 1296.07   62.99 
  -1  -6   0 1270.37   59.19 
   1  -6   0 1088.69   60.99 
  -1   6   0 1290.57   63.49 
   1   6   0 1247.88   62.19 
  -1   6   0 1125.79   62.59 
  -1   6   0 1207.58   60.99 
   1   6   0 1212.68   64.69 
  -2  -6   0  161.48   12.40 
   2  -6   0  161.58   13.40 
   2  -6   0  165.68    9.60 
  -2  -6   0  139.49    7.90 
  -2   6   0  148.99   15.00 
  -2   6   0  172.38   13.60 
   2   6   0  152.78   11.90 
   2   6   0  149.39   15.40 
  -2   6   0  149.19   14.00 
   2   6   0  155.08   13.50 
   3  -6   0 3222.28  136.99 
  -3  -6   0 2915.61  134.29 
  -3  -6   0 2914.91  140.49 
   3  -6   0 2933.51  141.19 
  -3   6   0 2911.11  145.39 
  -3   6   0 3055.99  142.79 
   3   6   0 2897.31  148.39 
  -3   6   0 3098.79  143.99 
  -3   6   0 2870.61  144.09 
  -3   6   0 3148.49  141.69 
   4  -6   0 1688.53   83.59 
   4  -6   0 1722.83   80.29 
  -4  -6   0 1647.04   77.09 
   4  -6   0 1659.03   83.59 
  -4   6   0 1663.73   85.69 
  -4   6   0 1648.04   85.79 
  -4   6   0 1715.53   88.69 
   4   6   0 1671.93   92.49 
  -4   6   0 1731.83   84.69 
   4   6   0 1654.13   85.59 
  -4   6   0 1785.52   84.09 
  -4   6   0 1642.74   86.59 
  -4   6   0 1577.94   88.39 
   4   6   0 1833.12   90.59 
  -5  -6   0  426.86   23.80 
   5  -6   0  442.76   25.80 
  -5  -6   0  466.45   22.80 
   5  -6   0  431.86   27.40 
   5  -6   0  382.86   27.60 
   5   6   0  488.55   32.20 
  -5   6   0  447.56   29.50 
  -5   6   0  465.05   35.40 
  -5   6   0  448.46   33.40 
   5   6   0  379.76   34.20 
  -5   6   0  461.95   30.60 
  -5   6   0  456.35   29.90 
   5   6   0  410.46   30.10 
  -5   6   0  446.46   28.30 
  -5   6   0  466.45   32.00 
   6  -6   0  127.79   15.20 
   6  -6   0  122.69   13.20 
  -6  -6   0  128.19    8.90 
  -6  -6   0  120.29    9.80 
   6  -6   0  110.29   15.00 
   6  -6   0  136.69   11.60 
  -6   6   0  138.49   14.40 
  -6   6   0  127.49   15.40 
   6   6   0  125.99   10.50 
  -6   6   0  133.49   11.80 
   6   6   0  146.39   14.20 
  -6   6   0  114.29   12.80 
  -6   6   0  140.89   13.10 
  -6   6   0  111.29   12.30 
  -6   6   0  137.69   13.20 
   7  -6   0   88.29   10.10 
   7  -6   0   90.09   10.40 
   7  -6   0   88.49   12.50 
  -7  -6   0   96.59    8.00 
   7   6   0   83.59   10.20 
  -7   6   0  102.89   11.50 
  -7   6   0   77.89    7.80 
  -7   6   0   68.39    8.80 
  -7   6   0   94.19   10.20 
  -7   6   0   75.79   10.90 
  -7   6   0   92.59    9.80 
   8  -6   0   85.89    9.60 
   8  -6   0   69.19    8.10 
  -8  -6   0   73.29    6.20 
   8  -6   0   67.69    7.10 
  -8   6   0   72.49    7.60 
  -8   6   0   65.29    6.50 
  -8   6   0   51.09    7.80 
   8   6   0   58.39    7.20 
   0  -7   0    2.00    1.20 
   0  -7   0   -2.60    4.60 
   0   7   0    5.70    6.50 
   0   7   0   -0.10    5.80 
   0   7   0    4.60    5.10 
   0   7   0   13.60    5.20 
   0   7   0    1.90    4.70 
   1  -7   0   25.50    7.50 
   1   7   0   19.40    5.70 
  -1   7   0   15.30    5.00 
  -1   7   0   20.30    6.40 
  -1   7   0   23.10    6.30 
   2  -7   0  159.58   15.20 
  -2  -7   0  174.98    9.60 
   2  -7   0  189.58   11.60 
   2   7   0  184.48   18.60 
  -2   7   0  199.98   17.20 
  -2   7   0  207.08   15.90 
   2   7   0  174.98   15.50 
  -2   7   0  174.78   16.90 
  -2   7   0  189.58   16.70 
  -2   7   0  193.98   15.50 
  -2   7   0  200.38   17.20 
  -2   7   0  167.98   17.20 
   3  -7   0   68.99    7.00 
   3  -7   0   70.29    9.00 
  -3  -7   0   62.69    4.60 
   3  -7   0   65.69    8.80 
  -3   7   0   66.29   10.80 
  -3   7   0   62.89    9.30 
  -3   7   0   72.79    8.90 
   3   7   0   65.59    9.30 
  -3   7   0   80.39    9.90 
   3   7   0   94.59   13.60 
  -3   7   0   55.79   12.00 
  -3   7   0   63.99   10.00 
  -3   7   0   54.09   10.00 
   4  -7   0  873.41   47.70 
   4  -7   0  957.00   50.89 
   4  -7   0  780.02   47.00 
  -4   7   0  872.91   48.70 
  -4   7   0  861.01   49.80 
  -4   7   0  888.31   48.10 
   4   7   0  918.91   45.50 
  -4   7   0  906.01   47.80 
  -4   7   0  875.31   49.10 
   4   7   0  877.91   56.19 
  -4   7   0  846.72   51.69 
   4   7   0  847.82   48.30 
   5  -7   0  295.57   23.20 
   5  -7   0  303.57   20.00 
  -5  -7   0  299.57   16.90 
  -5  -7   0  327.17   18.30 
  -5   7   0  356.86   26.10 
  -5   7   0  322.07   22.30 
  -5   7   0  292.67   22.60 
   5   7   0  336.47   23.70 
  -5   7   0  327.07   23.20 
  -5   7   0  344.07   25.50 
  -5   7   0  330.27   21.50 
  -6  -7   0   87.29    7.50 
   6  -7   0   86.19   10.40 
   6  -7   0   81.09   11.90 
  -6   7   0   93.09    9.70 
  -6   7   0   82.59   10.10 
  -6   7   0   86.09   11.40 
  -6   7   0  100.59   11.90 
  -6   7   0   80.29    9.60 
   6   7   0  100.39   10.10 
  -6   7   0   88.29    8.70 
   7  -7   0   26.70    5.60 
   7  -7   0   20.20    4.70 
  -7  -7   0   18.10    3.40 
   7  -7   0   23.80    6.70 
   7   7   0   19.90    4.60 
  -7   7   0   22.20    3.80 
  -7   7   0   14.00    3.40 
  -7   7   0   21.30    4.40 
  -7   7   0   21.40    5.20 
   0   8   0  229.98   17.80 
   0   8   0  219.18   18.60 
  -1  -8   0   81.79    5.00 
   1  -8   0   69.89    7.30 
  -1   8   0   89.59   11.90 
   1   8   0   69.89   11.00 
  -1   8   0   84.99   11.00 
   1   8   0   59.79   10.10 
  -1   8   0   75.59    9.50 
  -1   8   0   84.89   11.20 
  -2  -8   0  137.79    7.60 
   2  -8   0  141.69   10.10 
  -2   8   0  144.79   14.40 
  -2   8   0  166.48   14.70 
  -2   8   0  144.59   13.70 
  -2   8   0  143.49   15.50 
   2   8   0  132.59   12.70 
  -2   8   0  146.39   15.00 
  -2   8   0  150.38   13.20 
  -3  -8   0  215.28   11.50 
   3  -8   0  221.28   14.50 
   3  -8   0  204.18   16.40 
  -3   8   0  233.38   18.00 
  -3   8   0  229.78   18.70 
  -3   8   0  240.58   17.20 
  -3   8   0  232.88   20.00 
  -3   8   0  237.88   19.80 
   4  -8   0   55.89   10.40 
  -4  -8   0   49.60    4.70 
   4  -8   0   59.89    6.60 
   4  -8   0   55.69    8.80 
  -4   8   0   54.59    7.50 
  -4   8   0   59.29    7.70 
  -4   8   0   49.10    9.00 
  -4   8   0   60.49    9.30 
  -4   8   0   61.39    8.90 
   5  -8   0  133.09   14.70 
  -5  -8   0  150.58   11.20 
   5  -8   0  118.49   12.70 
  -5   8   0  160.28   14.40 
  -5   8   0  162.58   14.80 
  -5   8   0  156.88   12.00 
  -5   8   0  144.89   12.30 
  -5   8   0  156.08   13.30 
  -5   8   0  163.98   13.50 
   6  -8   0  233.18   17.50 
   6  -8   0  234.98   16.10 
  -6  -8   0  220.08   13.30 
  -6   8   0  241.08   14.50 
  -6   8   0  235.38   16.60 
  -6   8   0  243.18   15.40 
  -6   8   0  232.78   15.20 
   0   9   0    2.30    3.70 
   0   9   0   -3.30    3.50 
   0   9   0  -11.10    7.90 
  -1   9   0  297.57   19.80 
  -1   9   0  280.97   19.10 
  -1   9   0  287.27   20.70 
  -1   9   0  280.67   17.90 
  -2   9   0   75.69   12.20 
  -2   9   0   54.89    9.80 
  -2   9   0   71.39    9.00 
  -2   9   0   65.29    7.50 
   3  -9   0   17.90    4.50 
  -3   9   0    8.10    3.50 
  -3   9   0   11.80    3.90 
  -3   9   0    5.10    3.70 
   4  -9   0   13.10    4.10 
  -4   9   0   20.60    4.40 
  -4   9   0   16.10    5.10 
  -4   9   0   23.50    4.30 
  -4   9   0   19.90    4.20 
   5  -9   0  134.79   10.50 
  -5   9   0  142.39   10.90 
  -2  10   0   59.99    5.50 
  10   0  -1  119.59   12.30 
  10   0  -1  137.39   12.10 
 -10   0   1  107.89   11.40 
   9   0  -1  135.39   13.40 
   9   0  -1  142.99   14.40 
  -9   0   1  139.79   14.60 
  -8   0   1  326.77   24.70 
   8   0  -1  274.37   24.10 
   8   0  -1  344.67   24.00 
   8   0  -1  330.97   24.90 
   7   0  -1  420.06   28.80 
   6   0  -1 3398.46  150.68 
  -6   0   1 3336.47  151.88 
  -6   0   1 3406.56  149.09 
   6   0  -1 3010.70  153.88 
  -6   0   1 3226.98  155.48 
  -5   0   1 1026.80   54.39 
   5   0  -1 1061.99   54.19 
   5   0  -1 1132.79   51.69 
  -5   0   1 1035.40   50.29 
  -4   0   1  284.57   15.50 
  -4   0   1  293.27   17.90 
   4   0  -1  278.57   17.50 
   4   0  -1  323.67   16.40 
   3   0  -1 5075.69  213.58 
   3   0  -1 4111.49  212.48 
  -3   0   1 5040.00  213.28 
   0   0  -1 1156.28   49.40 
   0   0   1 1007.10   48.50 
  -1   0  -1 1924.11   88.89 
   1   0   1 2015.50   86.59 
   1   0   1 1870.81   88.79 
   2   0   1 1203.78   56.59 
   2   0   1 1279.17   58.19 
  -2   0  -1 1247.18   59.59 
  -3   0  -1   28.10    4.30 
   3   0   1   35.40    3.00 
   3   0   1   30.60    4.00 
   3   0   1   30.20    3.10 
   4   0   1   23.30    4.80 
   4   0   1   20.20    2.70 
  -4   0  -1   17.70    2.50 
  -4   0  -1   16.90    2.70 
  -4   0  -1   23.70    4.70 
  -5   0  -1 1223.68   66.99 
  -5   0  -1 1149.98   54.59 
   5   0   1 1147.79   59.99 
  -5   0  -1 1099.19   54.39 
   6   0   1    9.30    3.90 
  -6   0  -1    6.20    3.50 
   6   0   1    9.20    4.60 
   7   0   1   76.19   10.40 
  -7   0  -1   67.79   10.40 
   7   0   1   92.39   11.30 
   7   0   1   52.79    9.70 
   7   0   1   68.89   12.00 
   7   0   1   60.79   10.00 
   8   0   1    8.60    4.80 
   8   0   1   10.90    6.00 
  -8   0  -1   10.50    5.30 
   8   0   1   23.70    5.90 
   8   0   1   15.50    6.50 
   9   0   1   74.39    9.70 
   9   0   1   95.89   11.80 
  -9   0  -1   58.19    8.80 
  10   0   1    8.50    3.10 
  10  -1  -1   13.90    3.60 
  10  -1  -1    6.30    3.60 
 -10   1   1    9.20    3.70 
   9  -1  -1   19.00    5.70 
  -9  -1   1   12.40    5.10 
   9   1  -1    6.00    4.20 
  -9   1   1   13.40    5.10 
   9   1  -1   17.00    5.50 
   8  -1  -1  162.38   16.10 
   8  -1  -1  137.09   16.30 
   8  -1  -1  132.49   14.00 
  -8  -1   1  160.88   15.70 
   8  -1  -1  150.58   15.10 
   8   1  -1  171.28   17.00 
   8   1  -1  150.88   16.30 
  -8   1   1  135.89   13.90 
  -8   1   1  131.59   16.10 
   8   1  -1  143.69   14.20 
   7  -1  -1  206.08   18.50 
   7  -1  -1  242.68   16.40 
   7  -1  -1  239.58   18.90 
   7   1  -1  218.38   19.70 
   7   1  -1  255.77   20.40 
  -7   1   1  209.38   16.90 
  -6  -1   1 1947.61   89.59 
   6  -1  -1 1918.91   94.59 
  -6  -1   1 1925.31   90.79 
   6  -1  -1 2090.09   91.89 
  -6   1   1 1883.31   93.89 
  -6   1   1 1916.01   98.39 
   6   1  -1 1922.11   91.79 
   6   1  -1 1973.70   97.39 
  -5  -1   1 1614.24   81.29 
   5  -1  -1 1705.63   78.89 
   5  -1  -1 1840.42   81.09 
  -5  -1   1 1686.83   79.29 
   5  -1  -1 1587.64   80.99 
  -5  -1   1 1799.82   77.79 
   5   1  -1 1658.33   79.89 
  -5   1   1 1721.83   84.59 
  -5   1   1 1635.54   81.59 
   5   1  -1 1706.03   83.99 
  -5   1   1 1747.33   77.79 
  -4  -1   1 2155.08  108.39 
   4  -1  -1 2619.44  107.99 
   4  -1  -1 2339.47  108.69 
   4  -1  -1 2437.76  107.09 
  -4  -1   1 2336.87  107.59 
  -4  -1   1 2403.56  106.19 
  -4   1   1 2314.87  111.19 
   4   1  -1 2247.18  110.89 
  -4   1   1 2416.46  106.39 
  -2  -1  -1 4029.00  198.28 
   2  -1   1 4721.53  195.88 
  -2   1  -1 4404.16  195.88 
  -3  -1  -1 4039.80  176.28 
  -3  -1  -1 3993.50  171.38 
  -3  -1  -1 3842.42  172.68 
   3  -1   1 4037.40  174.08 
   3  -1   1 3534.95  171.78 
  -3   1  -1 3632.94  170.78 
  -3   1  -1 3547.55  171.98 
  -3   1  -1 3915.21  176.78 
   3   1   1 3943.61  172.78 
   3   1   1 3923.91  175.98 
   4  -1   1  451.05   22.40 
  -4  -1  -1  415.06   23.00 
  -4  -1  -1  485.35   30.60 
  -4  -1  -1  424.96   21.90 
   4  -1   1  415.16   23.20 
   4  -1   1  487.25   27.40 
  -4   1  -1  420.46   21.20 
  -4   1  -1  442.26   27.80 
   4   1   1  440.46   26.90 
  -5  -1  -1  539.15   27.10 
  -5  -1  -1  527.55   28.20 
   5  -1   1  548.35   27.30 
  -5  -1  -1  539.55   32.70 
   5  -1   1  549.85   31.50 
   5   1   1  506.85   32.90 
  -5   1  -1  524.85   34.30 
   6  -1   1   55.19   11.30 
  -6  -1  -1   65.69    7.30 
  -6  -1  -1   73.79    7.50 
   6  -1   1   72.79    9.30 
  -6  -1  -1   57.39    7.40 
   6   1   1   61.19    9.50 
   6   1   1   74.19   10.70 
   7  -1   1  314.17   23.10 
  -7  -1  -1  299.87   18.60 
   7  -1   1  301.87   23.90 
  -7  -1  -1  318.47   23.00 
   7  -1   1  287.47   21.30 
   7  -1   1  304.47   23.20 
   7  -1   1  295.47   23.40 
  -7   1  -1  293.67   23.40 
   7   1   1  292.87   22.50 
   7   1   1  304.87   23.90 
  -7   1  -1  266.77   21.60 
   7   1   1  318.57   23.00 
   7   1   1  281.67   25.20 
   8  -1   1  560.14   34.20 
   8  -1   1  556.74   33.50 
   8  -1   1  545.05   36.60 
  -8  -1  -1  511.05   33.30 
   8  -1   1  537.65   34.90 
   8   1   1  559.44   35.00 
  -8   1  -1  531.75   34.70 
   8   1   1  559.54   33.70 
  -9  -1  -1  111.99   16.00 
   9  -1   1  142.99   13.50 
   9  -1   1  173.18   15.40 
   9   1   1  131.99   11.90 
  -9   1  -1  127.49   12.70 
   9   1   1  161.48   13.70 
  10  -1   1   42.00    8.30 
 -10   1  -1   34.70    5.10 
  10   1   1   33.60    7.40 
 -10  -2   1   24.40    5.00 
  10   2  -1   17.20    4.60 
  10   2  -1   16.10    4.30 
   9  -2  -1  258.47   24.80 
   9  -2  -1  207.98   17.60 
   9  -2  -1  199.78   15.20 
   9  -2  -1  207.98   16.60 
   9   2  -1  243.98   24.70 
  -9   2   1  165.78   14.90 
  -9   2   1  220.88   21.70 
   9   2  -1  207.68   20.70 
  -8  -2   1    0.80    2.40 
   8  -2  -1    0.60    6.70 
   8  -2  -1   -2.40    5.10 
   8   2  -1    2.70    8.00 
  -7  -2   1  221.88   17.90 
   7  -2  -1  183.78   27.60 
   7  -2  -1  213.08   15.10 
   7  -2  -1  160.58   16.70 
   7  -2  -1  216.98   18.40 
   7  -2  -1  208.18   20.40 
  -7  -2   1  201.58   12.90 
   7   2  -1  250.27   19.60 
   7   2  -1  177.08   19.30 
  -7   2   1  195.88   19.00 
  -7   2   1  222.58   17.30 
  -7   2   1  194.78   17.70 
   7   2  -1  205.08   15.60 
   7   2  -1  224.68   18.00 
  -7   2   1  179.48   16.30 
   6  -2  -1  298.57   20.50 
  -6  -2   1  315.47   18.40 
  -6  -2   1  320.57   17.40 
   6  -2  -1  350.96   19.60 
  -6  -2   1  313.87   19.40 
   6  -2  -1  310.87   19.00 
   6   2  -1  302.87   24.00 
   5  -2  -1 3809.22  165.48 
  -5  -2   1 3787.32  163.18 
   5  -2  -1 3804.02  164.68 
   5  -2  -1 3490.85  166.08 
  -5  -2   1 3425.86  165.38 
   5   2  -1 3525.85  165.48 
   5   2  -1 3581.04  171.48 
  -5   2   1 3473.85  168.48 
  -5   2   1 3820.22  172.78 
   4  -2  -1 7214.78  349.27 
  -4  -2   1 7908.31  350.76 
   4  -2  -1 7942.01  350.46 
   4   2  -1 7921.01  351.06 
  -4   2   1 8040.80  347.87 
   4   2  -1 7946.21  350.66 
  -4   2   1 7983.90  355.66 
   3  -2  -1   78.29    5.00 
  -3  -2   1   79.29    5.00 
   3  -2  -1   73.89    5.30 
  -3  -2   1   71.29    5.00 
  -3  -2   1   75.79    5.70 
   3  -2  -1   71.19    5.70 
   3   2  -1   72.19    5.00 
   3   2  -1   63.29    5.80 
  -3   2   1   71.19    7.50 
   3   2  -1   74.49    7.60 
  -3   2   1   80.19    6.00 
  -1  -2   1  967.90   43.40 
  -1  -2   1  998.90   43.70 
  -1   2   1  974.20   43.30 
   1   2  -1  905.31   45.80 
  -1   2   1  964.70   45.90 
   1   2  -1  915.41   44.60 
  -1   2   1  942.71   44.10 
   1   2  -1  919.41   43.40 
   0  -2  -1  524.85   26.60 
   0  -2   1  529.95   24.30 
   0  -2   1  600.04   26.20 
   0  -2  -1  547.45   27.30 
   0   2   1  537.35   25.20 
   0   2  -1  526.55   26.00 
   0   2  -1  515.55   26.70 
   0   2   1  514.25   25.00 
   0   2  -1  508.65   26.00 
   0   2   1  523.45   26.60 
   0   2   1  479.15   25.90 
  -1  -2  -1 2877.21  126.09 
  -1  -2  -1 2846.12  129.09 
   1  -2   1 2530.85  125.39 
   1   2   1 2871.91  124.99 
   1   2   1 2702.63  126.69 
   1   2   1 3057.99  127.39 
  -1   2  -1 2664.13  126.59 
  -1   2  -1 2640.44  125.39 
  -2  -2  -1 1561.14   66.69 
   2  -2   1 1462.45   67.69 
   2  -2   1 1473.55   69.39 
  -2  -2  -1 1369.06   70.49 
   2   2   1 1577.34   69.09 
  -2   2  -1 1573.24   72.19 
  -2   2  -1 1405.16   68.89 
   2   2   1 1485.45   71.69 
   3  -2   1 5032.20  223.58 
  -3  -2  -1 4613.04  225.58 
   3   2   1 5102.39  227.48 
   3   2   1 4934.71  223.98 
  -3   2  -1 5109.49  222.88 
   4  -2   1  643.14   33.10 
  -4  -2  -1  663.53   31.90 
   4  -2   1  703.03   35.40 
   4  -2   1  667.43   33.60 
  -4  -2  -1  699.53   37.40 
  -4  -2  -1  637.04   34.00 
  -4   2  -1  722.03   33.90 
  -4   2  -1  609.14   36.90 
   4   2   1  680.53   39.20 
  -4   2  -1  643.44   39.40 
   4   2   1  651.93   34.10 
   5  -2   1  278.07   23.50 
   5  -2   1  351.36   20.60 
  -5  -2  -1  348.67   20.60 
   5  -2   1  364.16   22.40 
  -5  -2  -1  368.26   18.50 
   5  -2   1  365.36   19.60 
  -5  -2  -1  346.77   19.70 
   5  -2   1  289.27   21.70 
  -5  -2  -1  339.57   23.50 
  -5   2  -1  340.07   22.30 
  -5   2  -1  351.76   22.90 
  -6  -2  -1   40.40    5.70 
   6  -2   1   33.10    6.60 
  -6  -2  -1   38.10    5.50 
  -6  -2  -1   25.10    4.40 
   6  -2   1   17.80    6.20 
   6  -2   1   33.60    8.80 
   6   2   1   26.40    7.60 
  -6   2  -1   34.90    8.30 
  -7  -2  -1  386.26   22.40 
   7  -2   1  343.87   26.30 
   7  -2   1  398.46   27.80 
  -7  -2  -1  340.07   21.10 
   7  -2   1  411.46   28.50 
   7  -2   1  365.26   26.90 
  -7  -2  -1  384.26   25.80 
  -7   2  -1  379.46   25.90 
   7   2   1  357.06   29.50 
  -7   2  -1  371.66   27.90 
   7   2   1  392.06   26.50 
   7   2   1  346.67   27.00 
   8  -2   1  338.47   24.00 
   8  -2   1  349.37   24.60 
  -8  -2  -1  301.27   24.10 
   8  -2   1  322.67   22.80 
  -8  -2  -1  306.27   18.90 
  -8   2  -1  302.27   24.10 
   8   2   1  315.27   22.60 
   8   2   1  312.07   23.70 
   9  -2   1   37.90    7.40 
   9  -2   1   59.19    8.10 
  -9  -2  -1   38.80    6.60 
   9   2   1   59.29    7.90 
   9   2   1   54.99    8.40 
  -9   2  -1   49.50    8.00 
  10  -3  -1  333.27   19.40 
 -10  -3   1  338.97   22.80 
  10  -3  -1  350.26   21.00 
 -10   3   1  335.57   21.40 
  10   3  -1  366.86   20.80 
  10   3  -1  272.27   20.00 
   9  -3  -1   47.00    9.10 
   9  -3  -1   50.59    8.10 
  -9  -3   1   43.70    7.60 
  -9  -3   1   46.40    7.30 
   9  -3  -1   58.49   10.00 
  -9   3   1   46.20    8.40 
   9   3  -1   47.10    8.10 
  -9   3   1   31.20    6.10 
   9   3  -1   62.59    9.40 
  -8  -3   1   71.29    7.30 
   8  -3  -1   50.29   10.60 
   8  -3  -1   48.30    9.90 
  -8  -3   1   67.99    9.90 
  -8  -3   1   48.70    6.90 
   8   3  -1   79.19   11.40 
   8   3  -1   66.69    9.80 
  -8   3   1   72.09   11.40 
   8   3  -1   60.49    8.10 
  -8   3   1   64.99   10.80 
  -8   3   1   63.59    9.20 
  -8   3   1   50.19    8.70 
  -8   3   1   62.59    9.60 
   7  -3  -1  276.37   18.00 
  -7  -3   1  257.67   16.60 
  -7  -3   1  249.97   15.20 
   7  -3  -1  238.98   22.70 
   7  -3  -1  226.28   22.40 
   7  -3  -1  233.78   20.00 
   7   3  -1  237.08   23.60 
  -7   3   1  238.68   20.00 
   7   3  -1  270.87   18.10 
   7   3  -1  261.07   21.00 
  -7   3   1  271.67   20.60 
  -7   3   1  271.67   19.50 
  -7   3   1  260.87   20.60 
  -7   3   1  260.47   21.90 
   7   3  -1  259.47   22.00 
  -6  -3   1  870.31   41.80 
   6  -3  -1  875.21   43.30 
   6  -3  -1  757.12   44.80 
  -6  -3   1  851.51   40.30 
   6  -3  -1  809.32   42.40 
  -6   3   1  844.42   47.50 
   6   3  -1  803.12   50.49 
  -6   3   1  848.62   46.60 
  -5  -3   1 2771.32  129.29 
   5  -3  -1 2888.01  134.19 
   5  -3  -1 3046.70  132.59 
  -5  -3   1 2820.22  132.79 
   5  -3  -1 2990.90  132.89 
   5  -3  -1 2851.91  131.09 
  -5   3   1 2893.61  135.99 
  -5   3   1 2764.72  136.39 
   5   3  -1 2784.02  139.69 
  -4  -3   1  862.61   43.20 
  -4  -3   1  880.71   40.30 
   4  -3  -1  890.31   41.50 
   4  -3  -1  888.01   43.00 
   4  -3  -1  841.62   41.90 
  -4   3   1  858.41   48.30 
   4   3  -1  852.41   48.30 
  -4   3   1  916.31   43.70 
   4   3  -1  822.62   42.80 
  -4   3   1  842.22   46.10 
   3  -3  -1 3731.73  186.28 
  -3  -3   1 4277.67  185.68 
  -3  -3   1 4274.17  187.88 
   3  -3  -1 3996.70  187.58 
  -3  -3   1 4373.66  185.18 
   3   3  -1 4241.58  192.78 
   3   3  -1 4000.00  188.08 
  -3   3   1 4167.88  192.28 
  -3   3   1 4378.56  188.38 
  -2  -3   1  742.53   34.60 
  -2  -3   1  712.23   32.20 
   2  -3  -1  673.33   33.90 
  -2  -3   1  706.53   33.30 
  -2  -3   1  707.83   33.40 
   2   3  -1  680.23   35.30 
  -2   3   1  742.43   33.10 
  -2   3   1  734.23   35.10 
  -2   3   1  691.83   37.60 
   2   3  -1  701.93   37.90 
  -1  -3   1  218.48   12.10 
  -1  -3   1  217.88   11.50 
  -1   3   1  203.38   13.80 
   1   3  -1  191.98   13.70 
  -1   3   1  227.48   12.30 
   1   3  -1  196.08   12.60 
  -1   3   1  214.48   12.40 
  -1   3   1  214.28   11.30 
   1   3  -1  193.08   11.70 
   0  -3  -1 3425.26  154.18 
   0  -3   1 3428.36  150.58 
   0   3   1 3376.76  151.78 
   0   3   1 3409.76  154.08 
   0   3  -1 3400.76  154.18 
   0   3  -1 3355.46  153.18 
   0   3   1 3449.46  151.78 
   0   3  -1 3342.97  153.28 
   0   3   1 3190.48  153.28 
   1  -3   1  763.82   34.60 
   1  -3   1  738.83   38.40 
   1  -3   1  800.92   34.80 
  -1  -3  -1  811.12   38.80 
  -1   3  -1  766.02   38.40 
   1   3   1  753.82   36.40 
   1   3   1  738.43   39.70 
   1   3   1  822.02   37.70 
  -1   3  -1  772.12   39.70 
   2  -3   1 2293.87  107.89 
  -2  -3  -1 2436.76  109.19 
  -2  -3  -1 2377.16  103.99 
   2   3   1 2248.58  110.79 
  -2   3  -1 2304.57  110.99 
  -2   3  -1 2423.36  107.99 
   2   3   1 2269.27  105.19 
  -3  -3  -1 2566.04  121.39 
  -3  -3  -1 2764.22  117.99 
   3  -3   1 2711.43  119.79 
   3  -3   1 2515.05  121.49 
   3   3   1 2647.04  121.39 
  -3   3  -1 2488.55  123.39 
  -3   3  -1 2654.33  127.09 
  -3   3  -1 2785.32  121.79 
   3   3   1 2577.44  126.49 
   4  -3   1  433.06   24.50 
   4  -3   1  469.35   25.90 
   4  -3   1  461.35   24.50 
  -4  -3  -1  442.56   22.30 
  -4  -3  -1  476.95   28.20 
  -4   3  -1  440.66   27.40 
  -4   3  -1  472.35   25.30 
   4   3   1  423.86   30.20 
  -4   3  -1  444.66   31.20 
   5  -3   1  231.08   19.20 
  -5  -3  -1  240.78   17.10 
   5  -3   1  274.07   18.40 
  -5  -3  -1  257.57   15.70 
   5  -3   1  220.28   20.80 
  -5  -3  -1  275.27   14.70 
  -5   3  -1  271.67   19.60 
  -5   3  -1  249.38   19.40 
   5   3   1  274.07   23.10 
  -6  -3  -1   10.60    2.80 
   6  -3   1    8.80    5.80 
  -6  -3  -1   13.10    5.40 
   6  -3   1   16.50    6.40 
   6  -3   1   14.80    6.20 
   6  -3   1   10.70    3.70 
  -6  -3  -1   17.20    4.10 
   6   3   1   20.20    7.80 
  -6   3  -1   14.20    5.10 
  -6   3  -1   14.00    5.70 
   6   3   1   12.70    8.50 
  -6   3  -1   25.40    6.10 
   6   3   1   11.30    4.60 
  -7  -3  -1  172.58   22.80 
  -7  -3  -1  177.68   17.40 
  -7  -3  -1  173.78   12.40 
   7  -3   1  226.58   27.50 
   7   3   1  180.08   20.40 
  -8  -3  -1   67.69    9.10 
   8  -3   1   74.99   11.60 
   8   3   1   54.59   14.70 
   9  -3   1  188.18   13.80 
   9  -3   1  168.08   13.20 
   9  -3   1  163.68   13.40 
   9   3   1  172.78   13.50 
   9   3   1  181.58   14.30 
  -9   3  -1  166.08   14.20 
   9  -4  -1   66.19    9.60 
   9  -4  -1   84.29   10.40 
   9  -4  -1   80.49    9.30 
   9   4  -1   81.49    9.40 
  -9   4   1   84.29    9.00 
  -9   4   1   71.09    9.80 
   8  -4  -1  197.58   19.60 
  -8  -4   1  205.98   13.80 
   8  -4  -1  233.58   20.30 
  -8  -4   1  227.38   17.50 
  -8  -4   1  216.88   14.80 
   8  -4  -1  214.18   17.70 
  -8   4   1  230.18   17.40 
  -8   4   1  221.68   19.90 
  -8   4   1  232.08   17.80 
  -8   4   1  228.88   18.10 
   8   4  -1  232.48   19.10 
  -8   4   1  194.08   17.40 
   8   4  -1  203.98   15.20 
   8   4  -1  261.27   30.00 
   7  -4  -1 1310.17   81.79 
  -7  -4   1 1640.44   74.59 
   7  -4  -1 1620.14   83.39 
   7  -4  -1 1730.13   76.89 
  -7  -4   1 1578.64   72.69 
   7  -4  -1 1365.86   78.59 
  -7   4   1 1582.04   78.59 
   7   4  -1 1622.34   80.89 
   7   4  -1 1611.74   81.49 
  -7   4   1 1573.04   79.19 
  -7   4   1 1302.87   78.89 
  -7   4   1 1480.05   78.39 
  -7   4   1 1527.95   78.49 
   7   4  -1 1520.25   85.99 
  -7   4   1 1537.05   75.59 
   7   4  -1 1687.13   76.19 
  -7   4   1 1542.15   82.89 
   6  -4  -1 2298.27  103.09 
   6  -4  -1 2007.40  104.59 
  -6  -4   1 2250.17  101.69 
   6  -4  -1 2184.08  101.69 
  -6  -4   1 2150.18   98.79 
  -6   4   1 2171.98  106.59 
   6   4  -1 2198.78  107.69 
   6   4  -1 2095.79  112.59 
   6   4  -1 2309.47  103.29 
  -6   4   1 2127.29  103.69 
  -6   4   1 2124.29  106.09 
  -6   4   1 1995.10  105.79 
  -6   4   1 2119.09  106.29 
  -6   4   1 2135.09  111.29 
   5  -4  -1  830.52   43.10 
  -5  -4   1  850.71   43.70 
   5  -4  -1  833.72   41.50 
  -5  -4   1  853.21   43.90 
  -5  -4   1  822.22   39.50 
   5  -4  -1  805.32   44.30 
   5   4  -1  813.92   50.79 
  -5   4   1  835.42   46.60 
  -5   4   1  846.52   48.10 
  -4  -4   1  644.74   35.50 
   4  -4  -1  690.93   33.40 
   4  -4  -1  646.24   35.20 
  -4  -4   1  706.83   32.10 
   4   4  -1  643.64   34.80 
   4   4  -1  669.33   41.60 
  -4   4   1  647.94   41.40 
  -4   4   1  668.23   39.30 
  -4   4   1  739.03   36.40 
   3  -4  -1  282.47   17.00 
  -3  -4   1  322.17   15.30 
   3  -4  -1  321.17   18.60 
  -3  -4   1  313.17   18.30 
   3  -4  -1  292.27   16.00 
   3   4  -1  294.47   18.50 
  -3   4   1  341.57   19.10 
   3   4  -1  318.67   22.80 
  -3   4   1  316.87   22.40 
  -3   4   1  293.97   20.80 
   2  -4  -1  419.56   19.50 
  -2  -4   1  397.56   19.10 
  -2  -4   1  404.46   22.00 
   2  -4  -1  464.45   22.30 
  -2  -4   1  428.36   21.10 
  -2   4   1  419.16   26.00 
   2   4  -1  383.76   22.90 
  -2   4   1  407.26   22.70 
  -2   4   1  413.86   20.20 
   2   4  -1  399.86   25.90 
  -2   4   1  370.96   24.20 
   1  -4  -1 5810.32  262.77 
  -1  -4   1 5495.75  259.17 
  -1  -4   1 6160.78  257.77 
   1  -4  -1 5307.67  258.67 
  -1   4   1 6060.09  257.57 
   1   4  -1 5608.04  259.77 
   1   4  -1 5803.12  262.47 
  -1   4   1 5723.13  259.47 
  -1   4   1 5989.60  262.47 
  -1   4   1 5672.03  258.77 
   0  -4   1 1066.39   47.40 
   0  -4  -1 1020.50   51.89 
   0   4   1 1026.60   48.80 
   0   4  -1 1051.69   51.99 
   0   4  -1 1000.50   50.39 
   0   4   1 1005.90   48.90 
   0   4   1 1017.00   51.19 
   0   4  -1  985.40   50.79 
  -1  -4  -1  263.67   17.00 
  -1  -4  -1  267.27   15.60 
   1  -4   1  253.37   12.50 
   1  -4   1  281.37   13.20 
   1  -4   1  263.77   16.70 
  -1   4  -1  261.67   17.90 
  -1   4  -1  284.47   17.70 
   1   4   1  283.87   15.80 
   1   4   1  249.18   14.60 
   1   4   1  236.08   17.50 
  -1   4  -1  265.37   16.70 
  -1   4  -1  249.68   17.10 
  -2  -4  -1 1002.10   49.99 
   2  -4   1 1050.79   47.60 
  -2  -4  -1 1015.00   45.70 
  -2  -4  -1 1049.20   51.89 
  -2   4  -1 1011.20   54.39 
  -2   4  -1 1037.10   50.89 
   2   4   1  970.40   53.99 
  -2   4  -1  989.50   52.39 
   2   4   1 1047.80   50.19 
   2   4   1 1000.10   47.70 
  -3  -4  -1    4.40    1.20 
   3  -4   1    3.90    2.40 
   3  -4   1    2.50    1.70 
  -3  -4  -1    4.40    3.70 
  -3   4  -1    8.80    4.00 
  -3   4  -1   -2.10    2.40 
  -3   4  -1    5.20    2.20 
   3   4   1    1.00    3.50 
   4  -4   1  295.77   19.10 
   4  -4   1  306.17   17.90 
  -4  -4  -1  294.57   19.30 
   4  -4   1  279.97   18.30 
   4  -4   1  262.47   19.50 
  -4  -4  -1  304.47   15.50 
  -4   4  -1  319.27   19.30 
  -4   4  -1  309.77   21.30 
   4   4   1  271.37   23.80 
  -4   4  -1  289.37   21.40 
   5  -4   1  568.84   32.20 
   5  -4   1  472.35   35.90 
   5  -4   1  535.25   30.50 
   5  -4   1  577.64   31.00 
  -5  -4  -1  545.85   29.00 
  -5  -4  -1  560.44   27.80 
   5  -4   1  492.25   33.60 
  -5   4  -1  535.25   36.30 
  -5   4  -1  557.54   34.50 
   5   4   1  566.54   34.60 
  -5   4  -1  578.64   31.30 
  -5   4  -1  532.15   33.30 
   5   4   1  545.95   39.40 
  -5   4  -1  572.04   34.30 
   6  -4   1    5.10    3.50 
  -6  -4  -1    8.50    2.20 
   6  -4   1    9.40    4.40 
   6  -4   1   16.90    6.50 
   6  -4   1    6.10    5.40 
  -6  -4  -1    9.10    3.20 
  -6  -4  -1   15.50    5.10 
   6  -4   1   12.00    5.60 
   6   4   1    6.00    4.50 
  -6   4  -1    2.70    5.10 
  -6   4  -1   11.20    4.30 
  -6   4  -1    1.50    5.00 
   6   4   1   14.30    5.30 
  -6   4  -1    8.50    4.30 
  -6   4  -1    9.90    5.00 
  -6   4  -1   21.60    5.10 
   6   4   1   14.20    6.10 
   6   4   1    3.50    4.30 
  -6   4  -1    9.00    4.80 
   7  -4   1    9.30    5.40 
   7  -4   1   -1.60    4.20 
  -7  -4  -1    8.80    4.20 
  -7  -4  -1    1.10    2.10 
   7  -4   1    4.10    3.30 
  -7  -4  -1    4.20    2.20 
  -7   4  -1    3.00    4.30 
   7   4   1    2.00    5.20 
  -7   4  -1    5.10    3.40 
  -7   4  -1    3.50    3.30 
   7   4   1    8.40    3.80 
   8  -4   1    3.20    3.70 
   8  -4   1   13.70    4.50 
   8  -4   1    6.10    4.10 
  -8  -4  -1    9.70    3.00 
  -8   4  -1   14.90    4.90 
   8   4   1   10.90    4.30 
   8   4   1   13.00    5.10 
  -8   4  -1    6.70    3.50 
   9  -4   1   11.50    3.40 
   9  -4   1   21.00    6.30 
   9  -4   1   11.20    3.10 
  -9   4  -1   12.10    3.70 
   9   4   1    9.70    3.30 
   9   4   1   10.30    2.90 
   9  -5  -1  164.48   13.00 
   9  -5  -1  180.28   14.10 
  -9  -5   1  161.78   11.90 
  -9  -5   1  180.28   15.30 
   9  -5  -1  176.18   13.00 
  -9   5   1  158.78   12.10 
  -9   5   1  167.98   13.70 
   9   5  -1  183.88   13.50 
   8  -5  -1  398.86   29.20 
   8  -5  -1  449.66   28.00 
   8  -5  -1  380.66   24.70 
  -8  -5   1  424.36   23.10 
  -8  -5   1  349.67   24.20 
   8   5  -1  433.56   26.80 
  -8   5   1  418.36   28.10 
  -8   5   1  410.76   25.90 
  -8   5   1  417.86   22.90 
  -8   5   1  409.56   25.40 
  -8   5   1  417.26   25.30 
   8   5  -1  392.96   22.90 
  -8   5   1  385.36   26.30 
  -7  -5   1  121.19    9.90 
   7  -5  -1  105.99   11.20 
  -7  -5   1  116.59    8.80 
   7  -5  -1  116.39   14.90 
   7  -5  -1  107.69   12.80 
   7  -5  -1  116.59   14.80 
  -7   5   1  118.59   13.00 
  -7   5   1  121.49   12.40 
   7   5  -1  128.19   13.50 
   7   5  -1  102.59   10.10 
  -7   5   1   87.39   12.60 
  -7   5   1  119.89   12.20 
  -7   5   1  105.29   10.50 
  -7   5   1  112.29   12.60 
  -7   5   1  136.09   15.20 
  -6  -5   1 1156.98   57.79 
   6  -5  -1 1229.58   60.99 
   6  -5  -1 1101.79   62.39 
  -6  -5   1 1187.98   56.49 
   6  -5  -1 1211.38   59.59 
  -6   5   1 1212.38   64.19 
   6   5  -1 1195.68   71.39 
   6   5  -1 1291.47   60.69 
  -6   5   1 1191.68   61.69 
  -6   5   1 1142.29   63.99 
  -6   5   1 1157.18   62.59 
  -6   5   1 1191.98   67.59 
  -6   5   1 1209.08   66.49 
   6   5  -1 1248.98   65.39 
  -6   5   1 1207.08   63.69 
   5  -5  -1 1864.91   88.79 
  -5  -5   1 1835.72   85.29 
  -5  -5   1 1851.11   83.79 
   5  -5  -1 1877.51   86.29 
  -5   5   1 1836.92   90.49 
  -5   5   1 1812.72   91.69 
  -5   5   1 1771.32   94.89 
   5   5  -1 1844.92   98.89 
   5   5  -1 1906.11   88.99 
   5   5  -1 1768.42   92.09 
  -5   5   1 1776.02   92.49 
  -5   5   1 1757.42   90.59 
  -4  -5   1 1057.79   48.70 
   4  -5  -1 1050.89   53.49 
   4  -5  -1 1046.00   50.29 
  -4  -5   1 1021.00   53.29 
  -4   5   1  999.20   57.59 
  -4   5   1 1032.90   56.59 
  -4   5   1 1147.59   54.39 
   4   5  -1 1003.00   60.69 
  -3  -5   1  299.57   14.70 
  -3  -5   1  289.27   18.20 
   3   5  -1  254.17   31.40 
  -3   5   1  294.77   21.80 
   3   5  -1  289.87   18.10 
  -3   5   1  286.47   20.90 
   3   5  -1  283.67   18.40 
  -2  -5   1 4505.85  204.18 
   2  -5  -1 4764.42  208.88 
  -2  -5   1 4884.51  208.38 
   2  -5  -1 4789.82  204.68 
   2   5  -1 4351.76  209.08 
   2   5  -1 4372.16  209.58 
  -2   5   1 4552.44  214.48 
  -2   5   1 4740.63  209.48 
   2   5  -1 4533.15  214.58 
  -2   5   1 4443.86  212.28 
   1  -5  -1  411.36   27.80 
   1  -5  -1  457.75   22.70 
  -1  -5   1  404.86   19.70 
   1  -5  -1  389.76   24.40 
  -1  -5   1  435.76   24.80 
  -1  -5   1  471.05   23.20 
  -1   5   1  450.95   28.10 
  -1   5   1  453.75   25.50 
  -1   5   1  433.16   24.40 
  -1   5   1  391.76   25.70 
  -1   5   1  450.95   22.80 
   1   5  -1  464.85   28.30 
   1   5  -1  417.26   25.20 
   1   5  -1  435.66   25.40 
   0  -5   1  388.46   26.00 
   0  -5  -1  432.86   27.30 
   0  -5   1  501.55   22.20 
   0  -5   1  430.26   26.30 
   0  -5  -1  456.55   23.60 
   0  -5   1  427.56   20.30 
   0   5  -1  372.96   25.20 
   0   5   1  476.45   24.30 
   0   5  -1  444.66   27.20 
   0   5   1  459.85   23.90 
   0   5  -1  388.76   25.60 
   0   5   1  430.36   26.30 
   0   5  -1  423.26   25.50 
  -1  -5  -1 1526.65   72.09 
   1  -5   1 1508.95   74.19 
   1  -5   1 1589.14   68.79 
  -1  -5  -1 1572.44   74.99 
  -1   5  -1 1536.45   73.79 
   1   5   1 1374.86   72.69 
  -1   5  -1 1417.16   74.69 
   1   5   1 1626.24   72.59 
   1   5   1 1479.25   72.09 
  -1   5  -1 1469.85   76.09 
   1   5   1 1465.95   75.89 
   2  -5   1   14.60    2.70 
  -2  -5  -1   14.80    3.70 
  -2  -5  -1   13.30    1.40 
  -2  -5  -1   11.60    4.70 
   2  -5   1   15.10    4.40 
  -2   5  -1   13.10    5.10 
   2   5   1   22.80    6.30 
   2   5   1   10.70    3.00 
   3  -5   1  304.37   20.00 
  -3  -5  -1  267.27   18.50 
   3  -5   1  269.37   18.90 
  -3  -5  -1  283.27   14.10 
   3  -5   1  291.27   16.60 
  -3   5  -1  264.87   20.10 
  -3   5  -1  280.17   18.80 
   3   5   1  249.48   22.40 
  -3   5  -1  278.47   21.30 
   4  -5   1  101.89   11.00 
   4  -5   1   89.59    9.40 
   4  -5   1   94.79    8.80 
  -4  -5  -1   96.09    6.60 
   4  -5   1  106.49   10.00 
   4   5   1   93.19   14.00 
  -4   5  -1   97.19   23.90 
  -4   5  -1   91.39   11.00 
  -4   5  -1   87.69   11.60 
  -4   5  -1  103.39   12.00 
  -4   5  -1  103.49   10.10 
  -5  -5  -1  106.69    9.00 
   5  -5   1   72.09   13.60 
   5  -5   1  111.89   13.30 
   5  -5   1  133.89   15.30 
  -5  -5  -1  112.49    8.00 
   5  -5   1  124.69   11.00 
   5  -5   1  106.69   10.30 
   5   5   1  112.99   16.10 
  -5   5  -1   81.59   12.50 
  -5   5  -1  101.79   12.70 
  -5   5  -1  105.79   14.90 
  -5   5  -1  113.99   13.60 
  -5   5  -1  104.89   11.60 
  -5   5  -1  113.29   11.10 
  -5   5  -1  111.69   12.50 
  -5   5  -1  106.39   10.40 
   5   5   1   89.29   12.70 
   6  -5   1  105.19   12.90 
  -6  -5  -1  118.49   10.00 
   6  -5   1   99.49   14.80 
   6  -5   1  145.39   15.00 
  -6   5  -1  116.39   15.20 
   6   5   1  123.49   17.20 
  -6   5  -1  106.89   13.80 
  -6   5  -1  129.99   12.40 
  -6   5  -1  110.69   12.30 
  -6   5  -1  108.19   10.90 
  -6   5  -1  129.39   13.00 
   6   5   1  122.09   13.70 
   6   5   1  156.58   17.40 
   7  -5   1   17.80    4.60 
   7  -5   1   19.10    6.10 
   7  -5   1    8.90    4.60 
  -7  -5  -1   11.70    3.20 
  -7  -5  -1   13.10    3.20 
  -7   5  -1   14.30    5.40 
  -7   5  -1   18.20    4.00 
   7   5   1    5.30    5.20 
   7   5   1   25.00    6.70 
   8  -5   1   47.50    6.70 
  -8  -5  -1   46.50    7.60 
  -8   5  -1   53.19   12.10 
   8   5   1   51.59   10.40 
   8   5   1   45.20    9.50 
   8  -6  -1  133.09   11.60 
   8  -6  -1  143.09   17.30 
  -8  -6   1  129.09   10.40 
   8  -6  -1  131.39   11.30 
  -8  -6   1  127.99    9.40 
   8   6  -1  116.69    8.90 
  -8   6   1  111.49    8.70 
  -8   6   1  140.89   17.30 
  -8   6   1  160.18   15.10 
  -8   6   1  146.89   14.20 
  -8   6   1  130.59    9.80 
   8   6  -1  148.09   11.80 
  -7  -6   1  319.07   18.30 
   7  -6  -1  286.97   23.40 
   7   6  -1  369.16   23.90 
  -7   6   1  351.26   25.60 
   7   6  -1  347.97   20.00 
  -7   6   1  325.57   20.60 
  -7   6   1  354.16   23.00 
  -7   6   1  335.97   22.10 
  -7   6   1  328.17   22.40 
   6  -6  -1  386.16   28.40 
   6  -6  -1  460.25   27.00 
  -6  -6   1  471.25   25.20 
  -6  -6   1  443.06   23.70 
   6  -6  -1  474.35   32.40 
  -6   6   1  490.15   30.90 
   6   6  -1  494.45   27.00 
  -6   6   1  478.45   30.10 
  -6   6   1  447.16   31.90 
  -6   6   1  438.16   32.10 
  -6   6   1  459.35   28.40 
  -6   6   1  456.25   28.80 
  -6   6   1  460.55   30.10 
   6   6  -1  474.85   31.00 
  -5  -6   1  105.09    8.70 
  -5  -6   1  118.09    7.80 
   5  -6  -1  117.09    9.60 
   5  -6  -1  120.19   11.40 
   5  -6  -1  116.09   11.70 
  -5   6   1  108.09   12.90 
  -5   6   1  111.09   12.80 
   5   6  -1  126.89   16.70 
  -5   6   1  101.09   14.50 
   5   6  -1  114.39   14.20 
   5   6  -1  110.69   11.00 
  -5   6   1  107.89   12.50 
  -5   6   1  117.09   13.50 
  -5   6   1   95.69   12.20 
  -5   6   1  111.89   13.60 
   4  -6  -1  225.58   18.40 
   4  -6  -1  224.68   17.10 
   4   6  -1  193.68   19.20 
   4   6  -1  239.08   23.10 
  -4   6   1  233.88   19.50 
  -4   6   1  220.58   19.30 
  -4   6   1  228.98   17.20 
  -4   6   1  238.18   18.60 
  -4   6   1  220.18   23.30 
  -4   6   1  204.18   19.70 
  -4   6   1  245.88   19.40 
  -3  -6   1  121.79    7.20 
   3  -6  -1  113.79    8.00 
  -3  -6   1  111.89   10.40 
   3  -6  -1  109.79   10.90 
   3   6  -1  104.79   10.30 
  -3   6   1  119.29   13.30 
   3   6  -1  115.89   10.80 
  -3   6   1  107.69   10.70 
   3   6  -1  132.49   15.80 
  -3   6   1  109.79   12.80 
  -2  -6   1  330.27   17.10 
  -2  -6   1  373.36   21.20 
   2  -6  -1  332.17   22.00 
   2  -6  -1  373.46   17.80 
   2   6  -1  321.57   21.60 
  -2   6   1  355.66   22.10 
  -2   6   1  348.17   24.60 
   2   6  -1  330.67   22.00 
  -2   6   1  339.47   24.70 
   2   6  -1  382.46   27.50 
   1  -6  -1  196.78   15.60 
   1  -6  -1  212.68    9.80 
   1   6  -1  191.08   15.50 
   1   6  -1  233.08   18.60 
  -1   6   1  192.38   16.40 
  -1   6   1  217.78   15.00 
  -1   6   1  221.98   16.40 
   1   6  -1  193.48   15.70 
   0  -6   1   72.39    9.00 
   0  -6   1   55.19    4.80 
   0   6   1   75.29    7.20 
   0   6  -1   71.09    8.30 
   0   6   1   73.59   10.60 
   0   6  -1   69.49    9.20 
   0   6  -1   63.79    8.40 
   0   6   1   71.99    9.20 
  -1  -6  -1  124.99   10.30 
   1  -6   1  112.59    7.80 
   1  -6   1  116.39   11.80 
  -1   6  -1  113.99   12.10 
   1   6   1  118.79    9.40 
  -1   6  -1  109.99   12.20 
   1   6   1  105.99   12.40 
  -1   6  -1  124.59   11.60 
   1   6   1  116.69   10.90 
   2  -6   1  658.83   33.10 
  -2  -6  -1  791.92   46.50 
   2  -6   1  657.23   37.60 
  -2  -6  -1  554.84   29.90 
  -2   6  -1  666.93   39.80 
  -2   6  -1  669.13   38.30 
  -2   6  -1  679.23   37.50 
   2   6   1  649.43   41.40 
  -3  -6  -1 1346.37   63.09 
   3  -6   1 1554.34   67.39 
   3  -6   1 1378.86   71.09 
  -3   6  -1 1456.05   71.79 
  -3   6  -1 1432.36   74.49 
  -3   6  -1 1207.68   82.99 
  -3   6  -1 1168.38   78.79 
  -3   6  -1 1324.97   87.79 
   3   6   1 1454.75   77.89 
   3   6   1 1450.35   72.39 
   4  -6   1  339.97   20.70 
  -4  -6  -1  316.37   17.20 
   4  -6   1  325.77   22.30 
  -4   6  -1  328.87   24.00 
  -4   6  -1  349.77   22.50 
  -4   6  -1  346.57   27.20 
  -4   6  -1  322.17   25.30 
   4   6   1  342.77   25.10 
   4   6   1  313.67   28.90 
  -4   6  -1  319.37   23.30 
  -4   6  -1  323.57   22.70 
  -4   6  -1  329.37   24.40 
  -5  -6  -1  119.19    9.90 
   5  -6   1  118.29   11.00 
  -5  -6  -1  103.09    8.80 
   5  -6   1  140.59   16.50 
   5  -6   1  107.89   14.90 
   5  -6   1   98.89   12.40 
   5   6   1  111.09   16.80 
  -5   6  -1  103.19   12.30 
   5   6   1  115.79   18.20 
  -5   6  -1  106.69   10.40 
  -5   6  -1  100.19   11.10 
  -5   6  -1  120.79   15.10 
   5   6   1  111.09   13.40 
  -5   6  -1  120.69   12.50 
  -5   6  -1  130.59   13.20 
   6  -6   1   12.10    4.70 
  -6  -6  -1    7.30    2.50 
   6  -6   1    1.70    4.70 
   6  -6   1    6.00    5.10 
  -6   6  -1   19.60    6.40 
  -6   6  -1    4.70    3.60 
   6   6   1   10.20    7.20 
   6   6   1    5.30    5.70 
  -6   6  -1    6.50    3.90 
  -6   6  -1    5.10    4.70 
   7  -6   1   43.30    7.30 
   7  -6   1   43.90    8.30 
   7  -6   1   32.20    7.60 
  -7  -6  -1   37.60    5.00 
  -7   6  -1   27.20    6.10 
  -7   6  -1   31.30    7.70 
  -7   6  -1   30.30    5.20 
  -7   6  -1   37.80    6.30 
   7   6   1   37.20    6.70 
  -8  -6  -1   73.19    6.00 
   8  -6   1   77.29    7.70 
   8   6   1   62.59    8.10 
  -8   6  -1   78.09    8.80 
   7  -7  -1  168.08   13.90 
   7  -7  -1  134.29   12.80 
  -7  -7   1  161.68   10.70 
  -7  -7   1  160.68   11.60 
   7  -7  -1  139.19   15.40 
  -7   7   1  175.68   14.70 
  -7   7   1  173.08   13.80 
  -7   7   1  146.59   14.00 
  -7   7   1  159.68   12.50 
  -7   7   1  162.18   13.50 
   7   7  -1  148.09   10.00 
   7   7  -1  150.98   12.40 
  -7   7   1  157.28   12.70 
  -6  -7   1   28.10    4.30 
  -6  -7   1   20.10    3.20 
   6  -7  -1   23.00    5.20 
   6  -7  -1   13.50    6.20 
   6  -7  -1   15.30    6.90 
  -6   7   1   10.60    5.60 
  -6   7   1   25.50    8.60 
  -6   7   1   25.30    5.40 
  -6   7   1   20.80    5.30 
  -6   7   1   19.70    4.20 
  -6   7   1   23.40    5.90 
   6   7  -1   14.70    5.20 
   6   7  -1   34.70    5.30 
  -5  -7   1  633.94   32.20 
  -5  -7   1  585.04   30.60 
   5  -7  -1  665.63   34.20 
   5  -7  -1  594.04   36.40 
  -5   7   1  633.24   39.90 
  -5   7   1  631.24   36.60 
  -5   7   1  656.03   40.70 
   5   7  -1  684.53   34.60 
  -5   7   1  622.74   37.70 
  -5   7   1  571.34   35.10 
   5   7  -1  632.24   39.10 
  -5   7   1  624.54   38.60 
  -5   7   1  666.23   38.00 
  -4  -7   1  642.14   31.80 
   4  -7  -1  669.33   38.40 
   4  -7  -1  698.03   39.90 
   4  -7  -1  723.53   34.70 
  -4   7   1  621.44   38.70 
  -4   7   1  694.53   40.10 
  -4   7   1  638.44   42.10 
  -4   7   1  685.73   41.20 
  -4   7   1  635.54   46.50 
  -4   7   1  705.53   40.70 
   4   7  -1  556.44   37.00 
  -3  -7   1  365.96   18.70 
   3  -7  -1  370.26   20.20 
   3  -7  -1  364.46   24.50 
  -3   7   1  368.36   27.10 
  -3   7   1  399.46   27.10 
  -3   7   1  394.06   26.30 
  -3   7   1  362.56   27.80 
   3   7  -1  370.76   29.70 
  -3   7   1  355.26   26.90 
  -3   7   1  390.96   26.50 
   3   7  -1  343.77   24.30 
  -3   7   1  381.26   24.60 
   2  -7  -1  131.39   12.40 
   2  -7  -1  132.99    8.30 
  -2  -7   1  128.59   15.10 
  -2  -7   1  120.59    7.70 
  -2   7   1  128.59   14.20 
  -2   7   1  150.58   13.80 
   2   7  -1  140.49   12.20 
   2   7  -1  129.29   12.40 
  -2   7   1  144.29   12.50 
   2   7  -1  122.39   13.00 
  -2   7   1  105.69   13.40 
  -2   7   1  133.39   14.30 
  -2   7   1  128.29   14.50 
   2   7  -1  125.39   15.50 
  -2   7   1  145.19   14.80 
  -1   7   1  261.77   21.30 
  -1   7   1  211.98   18.00 
   1   7  -1  265.77   22.90 
   1   7  -1  224.88   17.30 
  -1   7   1  187.68   25.70 
  -1   7   1  244.08   20.30 
   1   7  -1  259.07   24.80 
   1   7  -1  191.58   18.70 
   0  -7   1   37.70   12.40 
   0  -7  -1   64.39    7.60 
   0   7  -1   70.39   10.70 
   0   7  -1   39.20    9.90 
   0   7   1   46.60    9.30 
   0   7  -1   50.09    8.70 
   0   7   1   56.59    8.20 
   0   7  -1   49.70    8.10 
   1  -7   1  365.86   26.20 
   1  -7   1  296.07   17.50 
  -1   7  -1  298.87   22.60 
  -1   7  -1  341.07   22.60 
  -1   7  -1  313.37   21.20 
  -1   7  -1  293.97   23.00 
  -1   7  -1  283.77   23.70 
   2  -7   1  882.01   45.00 
  -2  -7  -1  881.81   41.20 
  -2   7  -1  855.51   50.39 
   2   7   1  906.41   49.70 
  -2   7  -1  913.41   49.60 
  -2   7  -1  917.41   52.39 
  -2   7  -1  899.51   49.40 
  -2   7  -1  941.31   49.30 
  -2   7  -1  962.00   49.99 
   2   7   1  912.51   53.89 
  -2   7  -1  877.31   52.69 
   3  -7   1  331.07   19.40 
  -3  -7  -1  279.97   15.30 
  -3   7  -1  322.47   22.50 
  -3   7  -1  303.57   24.40 
  -3   7  -1  293.07   26.20 
   4  -7   1  505.35   37.50 
   4  -7   1  591.14   32.20 
   4  -7   1  532.05   35.50 
  -4  -7  -1  571.14   28.40 
  -4   7  -1  582.24   35.10 
   4   7   1  608.74   36.00 
  -4   7  -1  595.54   34.80 
  -4   7  -1  594.44   39.10 
  -4   7  -1  598.94   37.80 
  -4   7  -1  594.04   36.10 
  -4   7  -1  629.14   34.60 
   5  -7   1  288.87   22.20 
  -5  -7  -1  292.77   17.70 
   5  -7   1  343.07   25.70 
  -5   7  -1  266.97   23.70 
  -5   7  -1  330.57   23.90 
   5   7   1  333.17   22.60 
  -5   7  -1  316.87   21.20 
  -6  -7  -1   38.80    4.80 
   6  -7   1   51.69    9.70 
   6  -7   1   35.60    6.70 
   6  -7   1   40.50    7.20 
  -6   7  -1   28.50    6.50 
  -6   7  -1   35.40    7.40 
  -6   7  -1   38.10    6.00 
  -6   7  -1   41.90    6.50 
   6   7   1   43.60    8.30 
   7  -7   1   95.09   12.60 
  -7  -7  -1  101.59    7.50 
   7  -7   1  109.29    9.30 
  -7   7  -1   99.19    8.40 
  -7   7  -1   81.49    7.60 
  -7   7  -1   98.79    9.50 
  -7   7  -1  101.59    7.40 
   6  -8  -1  271.37   21.70 
  -6  -8   1  284.07   16.60 
   6  -8  -1  283.47   19.90 
  -6   8   1  314.07   19.70 
  -6   8   1  328.47   19.50 
  -6   8   1  311.17   19.80 
  -6   8   1  333.07   18.70 
  -6   8   1  332.77   20.00 
  -5  -8   1   78.99    6.40 
   5  -8  -1   67.79    9.60 
  -5   8   1   87.09    9.60 
  -5   8   1   73.49    9.60 
  -5   8   1   86.49    8.70 
  -5   8   1   72.99   10.60 
  -5   8   1   74.89    9.20 
  -5   8   1   72.99   10.90 
  -4  -8   1   72.39    6.00 
   4  -8  -1   79.79   10.90 
   4  -8  -1   79.09    9.20 
  -4   8   1   61.09   11.00 
  -4   8   1   96.79   11.70 
   4   8  -1   76.59    8.30 
  -4   8   1   66.09   10.60 
  -4   8   1   68.89    9.70 
   3  -8  -1  174.28   12.50 
  -3  -8   1  182.18   10.80 
  -3   8   1  216.68   17.00 
  -3   8   1  214.98   17.60 
   3   8  -1  224.18   15.90 
  -3   8   1  205.98   19.00 
  -3   8   1  204.98   18.30 
  -3   8   1  208.18   16.50 
  -3   8   1  221.88   18.00 
   2  -8  -1   31.80    4.60 
  -2  -8   1   33.10    3.10 
  -2   8   1   31.60    6.90 
  -2   8   1   25.00    7.50 
   2   8  -1   48.00    7.60 
  -2   8   1   31.30    7.70 
  -2   8   1   25.70    6.90 
  -2   8   1   48.50    8.90 
  -2   8   1   31.10    7.10 
   1  -8  -1   40.00    4.00 
  -1  -8   1   37.80    4.00 
  -1   8   1   48.60    9.40 
  -1   8   1   39.30    7.30 
   1   8  -1   45.30    8.30 
   1   8  -1   50.29    8.50 
  -1   8   1   36.90    7.70 
  -1   8   1   54.89    9.00 
  -1   8   1   26.20    7.20 
   1   8  -1   61.69    8.40 
   0  -8   1  125.59   10.30 
   0   8   1  127.69   14.50 
   0   8  -1  124.49   12.50 
   0   8  -1  129.29   13.60 
   0   8  -1  123.39   14.20 
   0   8  -1  130.89   11.30 
   1  -8   1   62.49    6.30 
  -1   8  -1   75.49   10.80 
  -1   8  -1   86.49   10.60 
  -1   8  -1   81.79   10.70 
  -1   8  -1   81.99    9.60 
   2  -8   1  290.17   18.20 
  -2  -8  -1  296.07   15.00 
   2  -8   1  287.17   22.10 
  -2   8  -1  340.87   25.00 
  -2   8  -1  299.07   20.50 
  -2   8  -1  338.07   23.20 
  -2   8  -1  379.16   25.40 
   3  -8   1    4.90    4.70 
   3  -8   1    1.20    2.60 
   3  -8   1   -1.60    5.60 
  -3   8  -1    5.50    4.20 
  -3   8  -1    1.80    2.60 
  -3   8  -1    7.00    4.20 
  -3   8  -1   -7.50    3.80 
   4  -8   1  247.48   19.60 
   4  -8   1  224.38   20.80 
   4   8   1  254.07   24.70 
  -4   8  -1  292.17   19.00 
  -4   8  -1  278.87   19.30 
  -4   8  -1  331.97   22.70 
  -4   8  -1  300.97   22.70 
  -4   8  -1  301.77   20.30 
  -4   8  -1  289.57   18.70 
  -5  -8  -1  263.27   16.00 
   5  -8   1  324.07   21.80 
   5  -8   1  274.67   19.40 
   5  -8   1  253.57   19.00 
  -5   8  -1  322.77   20.10 
  -5   8  -1  311.77   20.90 
   5   8   1  327.67   18.90 
  -5   8  -1  283.77   18.30 
   6  -8   1  130.69    9.40 
   6  -8   1  123.69    9.80 
  -6  -8  -1  118.39    8.40 
  -6   8  -1  126.09    8.90 
  -6   8  -1  125.89    9.20 
  -6   8  -1  124.99   10.60 
  -5   9   1   38.20    4.70 
  -5   9   1   50.29    5.90 
  -5   9   1   49.10    5.50 
   4  -9  -1   14.10    7.10 
   4  -9  -1   20.80    4.80 
  -4  -9   1   21.30    3.50 
   4   9  -1   20.80    3.70 
  -4   9   1   22.40    4.40 
  -4   9   1   16.30    5.30 
  -4   9   1   20.90    4.80 
  -4   9   1   21.50    7.50 
  -4   9   1   21.20    4.30 
   3  -9  -1   60.19    8.50 
  -3   9   1   39.00    7.20 
  -3   9   1   53.09    6.60 
   3   9  -1   63.59    6.60 
  -3   9   1   63.59    8.10 
  -3   9   1   48.80    7.40 
   2   9  -1   88.59    9.30 
  -2   9   1   78.79   11.40 
  -2   9   1   83.29    8.80 
  -2   9   1  107.49   10.40 
   1   9  -1   53.99    7.70 
  -1   9   1   70.29   13.30 
  -1   9   1   46.10    7.50 
   0   9  -1   41.50    7.00 
   0   9  -1   45.20    7.50 
   0   9  -1   39.40    7.20 
  -1   9  -1   69.19    8.40 
  -1   9  -1   79.19    9.30 
  -1   9  -1   82.09    9.70 
  -1   9  -1   65.69    8.00 
  -2   9  -1   36.20    5.70 
  -2   9  -1   43.00    8.00 
  -2   9  -1   49.70    7.40 
  -2   9  -1   45.00    7.90 
   3  -9   1   15.80    4.00 
  -3   9  -1   13.50    5.30 
  -3   9  -1    9.60    3.30 
  -3   9  -1   18.80    4.80 
  -3   9  -1   10.50    4.40 
   4  -9   1   40.20    5.90 
  -4   9  -1   34.10    4.70 
  -4   9  -1   43.70    5.60 
  -4   9  -1   34.70    6.50 
  -1  10  -1    2.90    2.70 
  11   0  -2   19.80    3.60 
  11   0  -2   19.30    3.90 
 -11   0   2   18.60    5.60 
  10   0  -2   34.50    6.90 
  10   0  -2   41.20    7.00 
 -10   0   2   37.80    7.20 
   9   0  -2   30.80    7.80 
  -9   0   2   29.20    7.30 
   9   0  -2   45.90    9.40 
   8   0  -2    5.40    4.10 
  -8   0   2   -2.90    3.70 
   8   0  -2    0.50    4.60 
   7   0  -2  933.01   51.09 
  -7   0   2  931.71   48.90 
  -7   0   2  891.11   45.60 
   7   0  -2  905.31   47.90 
  -6   0   2 1395.16   67.09 
  -6   0   2 1329.47   68.69 
   6   0  -2 1412.06   66.49 
   6   0  -2 1211.28   67.69 
  -6   0   2 1427.06   64.49 
  -5   0   2   30.10    4.00 
  -5   0   2   27.40    3.00 
   5   0  -2   20.40    4.20 
  -5   0   2   19.10    3.90 
   5   0  -2   23.00    3.60 
  -4   0   2  772.42   36.20 
   4   0  -2  666.53   37.70 
   4   0  -2  840.02   37.80 
  -3   0   2    0.50    0.80 
   3   0  -2    0.80    1.10 
   3   0  -2    0.60    0.70 
  -3   0   2    1.20    0.70 
   3   0  -2    0.50    1.10 
   0   0  -2 1112.49   51.69 
   0   0   2 1073.79   50.39 
   0   0   2 1099.99   49.60 
   2   0   2   18.00    3.00 
   2   0   2   18.50    2.20 
  -2   0  -2   17.40    4.20 
  -3   0  -2  207.08   12.10 
  -3   0  -2  221.48   12.40 
   3   0   2  225.68   14.80 
  -4   0  -2  775.82   39.80 
  -4   0  -2  847.22   46.30 
   4   0   2  868.41   44.80 
   5   0   2   32.70   11.20 
   5   0   2   28.40    5.90 
  -5   0  -2   38.50    5.60 
   6   0   2  129.19   13.00 
   6   0   2  134.79   15.00 
   6   0   2  130.69   14.10 
  -6   0  -2  103.89   14.10 
   6   0   2  105.09   13.90 
   7   0   2  112.29   15.60 
   7   0   2  127.19   14.00 
   7   0   2  179.78   21.90 
   8   0   2   11.30    4.70 
  -8   0  -2    2.70    4.20 
   8   0   2    8.00    4.80 
   8   0   2   -5.00    4.80 
   9   0   2  259.27   23.60 
  11  -1  -2   58.49    7.00 
  11   1  -2   52.39    6.00 
  10  -1  -2   80.09    9.60 
  10  -1  -2   69.99    8.70 
 -10  -1   2   84.49    9.90 
  10   1  -2   75.79    9.00 
  10   1  -2   92.99    9.90 
 -10   1   2   78.09    9.90 
   9  -1  -2   24.80    7.20 
   9  -1  -2   21.60    5.20 
  -9  -1   2   33.70    7.80 
  -9   1   2   40.90    8.80 
   9   1  -2   33.60    8.10 
   9   1  -2   25.60    6.60 
   8  -1  -2  371.96   26.50 
  -8  -1   2  431.46   28.30 
   8  -1  -2  385.36   27.80 
   8  -1  -2  398.26   29.40 
  -8   1   2  368.16   25.50 
   8   1  -2  375.26   27.90 
  -8   1   2  374.16   27.30 
   8   1  -2  385.46   28.80 
  -8   1   2  432.46   28.90 
   8   1  -2  398.06   25.20 
   8   1  -2  408.96   27.90 
  -7  -1   2  201.78   13.90 
   7  -1  -2  197.38   14.70 
  -7  -1   2  190.38   13.30 
  -7   1   2  200.48   15.60 
   7   1  -2  203.38   18.20 
  -7   1   2  200.88   16.30 
   6  -1  -2   37.40    5.00 
   6  -1  -2   44.40    6.30 
  -6  -1   2   40.70    5.90 
  -6  -1   2   40.90    4.40 
  -6  -1   2   43.40    5.80 
  -6   1   2   37.30    4.40 
   6   1  -2   30.80    6.30 
   6   1  -2   31.80    5.40 
  -6   1   2   28.80    6.10 
  -6   1   2   41.60    6.30 
   5  -1  -2  854.41   47.10 
  -5  -1   2  989.30   44.60 
   5  -1  -2 1041.00   47.20 
  -5  -1   2  944.61   46.20 
  -5   1   2  961.90   45.10 
   5   1  -2  970.50   48.00 
   5   1  -2  932.71   49.99 
  -5   1   2  962.40   48.70 
  -5   1   2  933.71   50.19 
   4  -1  -2  686.63   34.30 
  -4  -1   2  686.83   33.80 
  -4  -1   2  677.33   33.70 
  -4  -1   2  722.83   32.60 
   4  -1  -2  786.82   34.70 
  -4   1   2  684.33   36.70 
  -4   1   2  717.93   33.00 
   4   1  -2  629.14   34.30 
   4   1  -2  673.13   36.60 
   4   1  -2  681.63   35.20 
   0  -1   2 4573.04  205.48 
  -1  -1  -2 3712.83  166.08 
   1  -1   2 3469.65  162.08 
   1  -1   2 3603.64  164.28 
  -1   1  -2 3594.24  163.48 
   1   1   2 3855.91  163.38 
  -2  -1  -2  509.95   24.20 
   2  -1   2  546.65   26.80 
   2  -1   2  487.95   24.10 
  -2  -1  -2  447.26   28.40 
   2   1   2  548.25   27.90 
  -2   1  -2  493.05   25.10 
   2   1   2  517.05   25.60 
  -2   1  -2  545.05   29.00 
  -3  -1  -2  607.44   30.90 
   3  -1   2  625.44   32.20 
   3  -1   2  716.33   34.40 
   3  -1   2  628.14   30.70 
   3  -1   2  602.04   31.10 
   3   1   2  729.53   36.40 
  -3   1  -2  685.63   37.00 
   3   1   2  652.63   32.40 
  -3   1  -2  635.04   30.50 
  -3   1  -2  634.74   31.40 
  -4  -1  -2  754.52   42.50 
   4  -1   2  776.02   40.30 
  -4  -1  -2  733.63   37.30 
  -4  -1  -2  749.23   36.20 
   4  -1   2  733.43   35.80 
   4   1   2  746.73   42.10 
   4   1   2  702.43   37.20 
  -4   1  -2  773.92   43.60 
   5  -1   2  378.86   25.60 
  -5  -1  -2  352.76   19.80 
   5  -1   2  350.66   24.20 
  -5  -1  -2  330.47   20.60 
  -5  -1  -2  375.56   21.30 
   5   1   2  360.76   26.00 
   5   1   2  361.26   25.30 
   6  -1   2 1460.85   77.29 
  -6  -1  -2 1213.48   73.09 
   6  -1   2 1522.05   74.89 
   6  -1   2 1483.05   75.89 
  -6   1  -2 1428.66   74.69 
   6   1   2 1446.56   73.79 
   6   1   2 1445.16   73.49 
   6   1   2 1444.76   76.39 
  -6   1  -2 1464.55   73.79 
   6   1   2 1305.07   85.79 
   7   1   2   40.90   10.90 
   8  -1   2  118.49   11.80 
  -8  -1  -2  104.69   11.50 
   8   1   2  118.49   12.70 
  -8   1  -2  113.29   12.20 
   8   1   2   79.89   12.90 
   8   1   2   90.19   10.60 
   9  -1   2  112.79   10.80 
   9  -1   2  110.69   11.20 
  -9   1  -2   84.39    8.80 
   9   1   2   96.29   10.90 
   9   1   2  119.79   10.40 
 -10  -2   2   37.70    6.40 
  10  -2  -2   24.40    5.00 
  10  -2  -2   40.00    6.80 
  10   2  -2   23.90    5.50 
  10   2  -2   36.50    6.50 
 -10   2   2   33.60    6.60 
   9  -2  -2   30.00   12.30 
   9  -2  -2   19.80    6.70 
   9  -2  -2   28.40    6.50 
  -9  -2   2   29.40    6.80 
   9   2  -2   23.70    6.10 
  -9   2   2   34.30    7.70 
   9   2  -2   33.40    7.90 
  -8  -2   2  142.19   15.00 
   8  -2  -2  144.29   13.10 
   8  -2  -2  142.09   14.00 
   8  -2  -2  118.49   15.60 
   8  -2  -2  139.69   17.10 
  -8  -2   2  148.59   11.20 
  -8   2   2  174.28   14.20 
  -8   2   2  147.79   13.60 
  -8   2   2  156.48   15.60 
   8   2  -2  149.59   15.00 
  -8   2   2  165.98   15.80 
  -8   2   2  119.89   13.00 
   8   2  -2  155.08   17.00 
   8   2  -2  138.69   12.90 
   8   2  -2  164.48   16.50 
   7  -2  -2  318.27   19.70 
   7  -2  -2  286.77   24.10 
  -7  -2   2  285.47   17.70 
   7  -2  -2  256.27   21.00 
  -7  -2   2  300.77   16.80 
  -7  -2   2  275.87   18.50 
   7   2  -2  273.67   23.20 
  -7   2   2  289.97   21.40 
  -7   2   2  279.87   21.30 
   7   2  -2  328.87   20.10 
   7   2  -2  302.27   22.10 
  -7   2   2  260.57   20.20 
  -7   2   2  312.67   25.60 
  -6  -2   2   17.90    3.10 
   6  -2  -2   12.10    3.90 
   6  -2  -2   27.20    4.20 
  -6  -2   2   17.30    3.70 
  -6   2   2   18.90    5.00 
   6   2  -2   16.20    5.80 
   6   2  -2   17.80    4.60 
  -5  -2   2 1112.29   53.69 
  -5  -2   2 1074.99   52.99 
  -5  -2   2 1112.49   50.69 
   5  -2  -2 1113.69   53.19 
   5  -2  -2 1158.78   52.19 
   5   2  -2 1048.00   57.59 
  -5   2   2 1095.09   50.59 
   5   2  -2 1078.29   54.49 
  -5   2   2 1046.30   57.89 
  -5   2   2 1061.59   55.99 
  -4  -2   2 2342.07  105.69 
  -4  -2   2 2282.97  107.39 
   4  -2  -2 2340.27  106.49 
   4  -2  -2 2485.85  107.89 
   4  -2  -2 2321.17  106.69 
   4   2  -2 2288.37  109.09 
  -4   2   2 2536.05  105.89 
   4   2  -2 2172.38  111.29 
  -3  -2   2 5802.12  258.87 
  -3   2   2 6149.69  262.97 
   3   2  -2 5589.64  260.37 
   3   2  -2 5644.13  262.47 
   2  -2  -2 1494.85   68.69 
  -2  -2   2 1561.34   68.89 
  -2  -2   2 1584.94   69.89 
   2  -2  -2 1595.54   70.89 
  -2   2   2 1538.35   72.89 
   2   2  -2 1509.45   71.29 
  -2   2   2 1605.94   69.49 
  -2   2   2 1509.55   70.79 
   2   2  -2 1348.67   73.19 
  -1  -2   2 1354.46   57.79 
   1  -2  -2 1268.87   60.69 
   1  -2  -2 1155.78   57.89 
  -1   2   2 1305.27   58.69 
   1   2  -2 1272.57   60.59 
   1   2  -2 1258.67   57.79 
   1   2  -2 1240.28   59.49 
  -1   2   2 1297.27   60.79 
   0  -2  -2  685.03   31.20 
   0  -2  -2  658.43   33.90 
   0  -2   2  639.04   30.80 
   0  -2   2  728.23   33.80 
   0   2  -2  716.13   34.40 
   0   2   2  675.03   32.30 
   0   2  -2  702.53   33.40 
   0   2  -2  654.73   33.10 
   0   2   2  610.34   32.70 
   1  -2   2 3334.57  150.58 
  -1  -2  -2 3329.27  147.09 
   1  -2   2 3245.78  148.69 
  -1  -2  -2 3534.45  151.88 
   1  -2   2 2998.40  147.69 
   1   2   2 3372.06  149.59 
   1   2   2 3239.78  151.28 
  -1   2  -2 3462.05  152.18 
   2  -2   2   46.20    5.10 
  -2  -2  -2   41.70    5.90 
   2  -2   2   44.30    4.30 
  -2   2  -2   48.90    6.20 
   2   2   2   44.40    4.50 
  -2   2  -2   41.80    4.50 
   2   2   2   44.20    6.00 
  -3  -2  -2 2960.10  127.19 
   3  -2   2 3001.30  131.09 
  -3  -2  -2 2530.05  133.59 
   3  -2   2 2675.63  128.89 
  -3   2  -2 2912.51  135.49 
   3   2   2 2912.11  129.79 
  -3   2  -2 2709.63  128.89 
   3   2   2 2926.21  134.69 
   4  -2   2  479.85   26.20 
  -4  -2  -2  501.35   31.10 
   4  -2   2  459.65   25.00 
  -4  -2  -2  503.65   26.80 
   4  -2   2  514.85   28.30 
  -4  -2  -2  489.95   24.30 
  -4   2  -2  448.26   27.40 
   4   2   2  500.85   31.90 
   4   2   2  465.95   26.30 
  -4   2  -2  472.55   32.00 
  -4   2  -2  453.45   25.20 
  -5  -2  -2  278.77   16.30 
  -5  -2  -2  295.47   17.90 
   5  -2   2  260.07   22.20 
  -5  -2  -2  277.77   18.00 
   5  -2   2  298.07   20.60 
   5   2   2  268.57   23.20 
   6  -2   2   22.10    6.50 
  -6  -2  -2   20.80    3.90 
   6  -2   2   22.50    7.40 
  -6  -2  -2   18.50    4.50 
   6  -2   2   28.60    6.60 
  -6   2  -2   29.30    6.70 
   6   2   2   21.30    7.90 
   6   2   2   33.80    8.20 
   6   2   2    9.90    6.40 
  -6   2  -2   22.90    7.30 
   6   2   2   27.80    8.20 
   6   2   2   38.70    9.00 
   7  -2   2  110.99   13.70 
   7  -2   2  127.39   13.50 
   7  -2   2  126.49   14.40 
   7  -2   2  131.39   14.00 
  -7  -2  -2  113.49   10.30 
  -7  -2  -2  109.69   13.10 
   7   2   2  108.49   14.60 
  -7   2  -2  127.79   12.90 
   7   2   2  116.29   12.80 
  -7   2  -2  149.99   15.40 
   7   2   2  111.09   15.60 
   7   2   2  117.49   14.00 
   8  -2   2 1586.44   81.39 
   8  -2   2 1778.52   82.69 
   8  -2   2 1678.53   81.09 
  -8   2  -2 1478.65   80.89 
   8   2   2 1602.84   79.99 
   8   2   2 1569.44   82.09 
   9  -2   2  161.88   18.20 
   9  -2   2  202.88   13.70 
   9  -2   2  178.68   13.60 
  -9   2  -2  158.68   13.40 
   9   2   2  181.08   13.20 
   9   2   2  197.28   14.40 
  10  -3  -2   10.60    3.90 
 -10  -3   2    4.30    3.20 
  10  -3  -2    7.60    5.30 
  10   3  -2    6.00    3.70 
 -10   3   2   11.00    3.70 
   9  -3  -2  106.99   13.20 
   9  -3  -2  100.09   11.70 
  -9  -3   2  106.99    8.60 
   9  -3  -2  102.79   10.90 
   9   3  -2   96.19   13.00 
   8  -3  -2  266.47   23.00 
  -8  -3   2  366.06   25.20 
   8  -3  -2  309.67   25.70 
   8  -3  -2  330.37   22.20 
   8  -3  -2  325.77   21.60 
  -8  -3   2  308.97   18.70 
   8   3  -2  294.57   26.20 
   8   3  -2  320.67   23.90 
  -8   3   2  313.47   22.90 
   8   3  -2  361.46   22.90 
   8   3  -2  274.37   24.40 
  -8   3   2  294.67   26.90 
  -8   3   2  320.87   22.10 
   7  -3  -2  575.64   34.40 
  -7  -3   2  629.74   31.50 
  -7  -3   2  597.04   29.90 
   7  -3  -2  499.55   33.50 
   7   3  -2  541.55   47.80 
  -7   3   2  597.74   40.90 
  -7   3   2  626.14   38.10 
  -7   3   2  568.54   36.70 
  -7   3   2  475.55   35.60 
   7   3  -2  692.23   35.10 
  -7   3   2  574.34   35.50 
  -7   3   2  576.44   35.10 
   7   3  -2  597.54   36.50 
   6  -3  -2  604.04   31.80 
   6  -3  -2  578.44   33.40 
  -6  -3   2  561.24   31.80 
  -6  -3   2  610.84   28.80 
   6  -3  -2  537.75   30.10 
  -6  -3   2  571.44   29.90 
  -6   3   2  565.64   35.60 
   6   3  -2  557.64   37.70 
  -6   3   2  563.24   34.40 
  -5  -3   2 1234.28   54.79 
  -5  -3   2 1117.19   57.49 
   5  -3  -2 1241.58   57.79 
   5  -3  -2 1218.98   56.19 
  -5   3   2 1165.08   61.59 
  -5   3   2 1093.19   63.39 
   5   3  -2 1133.29   58.59 
   5   3  -2 1198.08   64.09 
  -4  -3   2 1888.61   87.59 
  -4  -3   2 1933.61   85.09 
   4  -3  -2 1785.82   85.89 
   4  -3  -2 1997.30   87.89 
   4   3  -2 1811.22   92.89 
  -4   3   2 1833.62   85.59 
  -4   3   2 1880.71   91.39 
   4   3  -2 1865.11   89.19 
  -4   3   2 1885.81   93.09 
  -3  -3   2 2312.17  114.89 
   3  -3  -2 2442.16  115.39 
   3  -3  -2 2646.04  117.49 
  -3  -3   2 2646.14  117.19 
  -3   3   2 2752.52  115.89 
   3   3  -2 2636.24  122.19 
  -3   3   2 2592.24  121.89 
  -3   3   2 2589.94  117.69 
   3   3  -2 2474.35  118.79 
   2  -3  -2 2303.97  105.69 
   2  -3  -2 2284.97  103.29 
  -2  -3   2 2332.57  103.89 
  -2  -3   2 2448.75  105.49 
   2   3  -2 2245.48  109.29 
  -2   3   2 2327.47  105.89 
  -2   3   2 2379.86  109.69 
  -2   3   2 2378.86  105.09 
   2   3  -2 2152.08  107.09 
  -1  -3   2 2656.23  132.59 
  -1  -3   2 2682.13  131.09 
   1  -3  -2 3010.40  136.39 
   1  -3  -2 2820.52  132.29 
  -1  -3   2 3160.18  131.99 
  -1   3   2 3087.19  136.29 
  -1   3   2 3191.68  132.69 
  -1   3   2 2859.61  132.59 
  -1   3   2 3098.79  132.69 
   1   3  -2 2823.32  132.39 
   1   3  -2 2961.30  135.89 
   1   3  -2 2873.91  134.29 
   0  -3  -2 1502.25   70.49 
   0  -3   2 1452.35   69.59 
   0  -3   2 1391.46   66.39 
   0  -3   2 1457.55   65.89 
   0  -3  -2 1441.36   66.69 
   0   3   2 1369.96   68.89 
   0   3   2 1561.04   66.89 
   0   3  -2 1388.96   69.09 
   0   3  -2 1467.25   69.29 
   0   3  -2 1544.65   70.69 
   0   3   2 1491.45   68.09 
   1  -3   2 1486.05   70.89 
  -1  -3  -2 1494.65   67.09 
  -1  -3  -2 1497.25   71.69 
   1   3   2 1582.74   67.09 
  -1   3  -2 1469.65   70.49 
   1   3   2 1441.96   71.89 
   1   3   2 1447.96   69.59 
  -1   3  -2 1448.26   72.19 
  -2  -3  -2 3362.46  141.99 
  -2  -3  -2 3098.89  148.69 
  -2   3  -2 3148.39  145.79 
  -2   3  -2 3300.37  150.68 
   2   3   2 3060.29  149.29 
   2   3   2 3301.57  145.69 
  -2   3  -2 3020.90  147.09 
   3  -3   2  529.05   29.10 
  -3  -3  -2  422.96   30.90 
   3  -3   2  564.84   27.60 
  -3  -3  -2  563.94   25.20 
  -3  -3  -2  523.15   28.40 
  -3   3  -2  523.75   27.90 
   3   3   2  512.75   32.80 
  -3   3  -2  523.85   33.60 
  -3   3  -2  479.35   29.50 
   3   3   2  506.85   28.10 
   4  -3   2  532.45   29.30 
  -4  -3  -2  502.25   27.90 
   4  -3   2  590.34   31.40 
  -4  -3  -2  554.34   30.40 
   4  -3   2  519.05   28.60 
  -4  -3  -2  546.55   34.00 
  -4  -3  -2  553.54   26.90 
   4   3   2  571.94   38.90 
  -4   3  -2  485.35   28.60 
   4   3   2  524.05   29.90 
  -4   3  -2  528.55   31.50 
  -5  -3  -2  490.95   27.90 
  -5  -3  -2  554.74   26.80 
  -5  -3  -2  511.45   29.60 
   5  -3   2  484.15   28.60 
   5  -3   2  543.05   28.00 
   5  -3   2  557.14   31.80 
   5  -3   2  488.05   34.70 
   5  -3   2  438.66   30.60 
   5   3   2  486.25   36.00 
  -5   3  -2  520.45   32.10 
   5   3   2  501.45   34.10 
  -5   3  -2  483.25   30.40 
   6  -3   2  287.57   22.00 
  -6  -3  -2  262.07   16.30 
   6  -3   2  270.67   21.50 
   6  -3   2  255.67   23.00 
   6  -3   2  253.17   19.10 
   6  -3   2  262.97   22.00 
  -6  -3  -2  272.47   17.80 
  -6   3  -2  288.87   21.10 
  -6   3  -2  260.97   22.90 
   6   3   2  288.27   21.50 
   6   3   2  286.67   23.20 
   6   3   2  243.28   24.20 
  -6   3  -2  254.17   17.70 
  -7  -3  -2  476.85   27.30 
  -7  -3  -2  510.95   28.50 
   7  -3   2  506.15   33.30 
   7  -3   2  486.95   32.50 
   7  -3   2  563.64   34.60 
   7   3   2  534.15   34.70 
  -7   3  -2  530.95   32.40 
   7   3   2  494.55   31.70 
  -7   3  -2  483.15   33.40 
   8  -3   2   71.19    9.20 
   8  -3   2   85.39   10.60 
  -8  -3  -2   54.29    9.50 
   8  -3   2   78.99    9.50 
   8   3   2   78.59   10.00 
  -8   3  -2   65.09    9.80 
   8   3   2   77.29    9.40 
   9  -3   2   42.30    5.80 
   9  -3   2   47.30    6.40 
   9   3   2   37.50    5.60 
  -9   3  -2   47.10    6.20 
  10  -4  -2   99.19    8.80 
  10  -4  -2   90.69    7.60 
 -10   4   2   82.39    8.60 
  10   4  -2   84.19    8.00 
   9  -4  -2    5.70    3.60 
  -9  -4   2    3.10    3.00 
   9  -4  -2    2.30    3.40 
   9  -4  -2    0.20    4.30 
   9   4  -2    3.70    3.30 
   9   4  -2    6.80    2.80 
  -9   4   2    5.10    4.10 
  -9   4   2   12.50    7.10 
  -9   4   2    4.90    3.10 
   8  -4  -2  116.49   15.70 
  -8  -4   2  156.88   11.50 
  -8  -4   2  170.88   15.00 
   8  -4  -2  153.58   16.90 
  -8  -4   2  143.89   10.60 
   8  -4  -2  112.69   13.40 
  -8   4   2  157.88   14.50 
  -8   4   2  162.88   13.90 
   8   4  -2  148.19   12.40 
  -8   4   2  139.89   14.90 
   8   4  -2  152.98   15.40 
  -8   4   2  151.48   16.40 
  -8   4   2  149.49   13.80 
  -8   4   2  148.39   14.50 
   7  -4  -2    9.70    4.20 
  -7  -4   2   12.40    3.40 
  -7  -4   2    6.50    2.70 
   7  -4  -2   15.50    4.20 
   7  -4  -2   12.10    3.80 
  -7   4   2   11.20    4.80 
  -7   4   2    9.50    5.60 
   7   4  -2   19.00    7.50 
   7   4  -2   11.20    5.40 
  -7   4   2    8.10    4.90 
   7   4  -2   15.40    3.90 
  -7   4   2   12.70    4.70 
  -7   4   2   10.40    4.80 
  -7   4   2    5.30    5.60 
  -7   4   2   15.30    5.20 
   6  -4  -2  664.63   33.80 
  -6  -4   2  636.44   33.10 
   6  -4  -2  659.93   35.40 
  -6  -4   2  598.44   31.40 
   6   4  -2  568.64   41.50 
  -6   4   2  618.34   37.60 
  -6   4   2  657.03   43.00 
   6   4  -2  661.93   36.00 
  -6   4   2  626.94   38.60 
  -6   4   2  589.14   39.10 
  -6   4   2  640.84   38.10 
   6   4  -2  724.43   41.50 
   5  -4  -2  358.46   21.60 
   5  -4  -2  347.57   20.90 
  -5  -4   2  336.47   17.60 
  -5  -4   2  319.37   20.70 
   5  -4  -2  321.77   18.80 
   5   4  -2  319.47   21.10 
   5   4  -2  327.37   26.40 
  -5   4   2  331.47   24.40 
  -5   4   2  329.37   23.40 
   4  -4  -2  118.99    8.10 
  -4  -4   2  122.19    7.40 
   4  -4  -2  110.89    9.30 
  -4  -4   2  112.99    9.30 
  -4  -4   2  113.39    9.40 
  -4   4   2  108.79    9.60 
   4   4  -2  113.19   10.30 
   4   4  -2  116.19   13.20 
  -4   4   2  119.19   12.90 
  -4   4   2  119.49   12.10 
   4   4  -2  123.29    9.90 
  -3  -4   2  174.98   11.80 
  -3  -4   2  179.38    9.90 
   3  -4  -2  173.08   12.10 
   3  -4  -2  194.38   10.30 
  -3   4   2  194.58   12.60 
  -3   4   2  180.28   15.50 
  -3   4   2  179.18   14.60 
   3   4  -2  171.88   12.50 
   3   4  -2  165.78   13.20 
   3   4  -2  176.58   15.60 
  -3   4   2  171.68   10.40 
  -2  -4   2 2361.76  104.79 
   2  -4  -2 2264.17  110.89 
   2  -4  -2 2290.97  106.69 
   2  -4  -2 2277.87  101.99 
  -2   4   2 2004.30  107.69 
  -2   4   2 2359.66  110.49 
   2   4  -2 2398.76  109.69 
   2   4  -2 2207.48  106.59 
   2   4  -2 2289.87  110.29 
  -2   4   2 2358.76  104.59 
  -2   4   2 2322.37  105.69 
   1  -4  -2 1647.34   76.59 
  -1  -4   2 1473.65   75.29 
   1  -4  -2 1722.43   81.69 
  -1  -4   2 1585.44   74.69 
   1   4  -2 1708.03   81.19 
  -1   4   2 1731.93   76.79 
  -1   4   2 1698.03   77.39 
  -1   4   2 1734.73   81.49 
  -1   4   2 1714.63   76.99 
   1   4  -2 1626.04   76.79 
   1   4  -2 1565.54   78.59 
   1   4  -2 1563.84   80.29 
   0  -4   2  405.76   24.10 
   0  -4  -2  418.16   25.10 
   0  -4   2  433.06   20.20 
   0  -4  -2  351.16   20.70 
   0  -4   2  390.96   20.20 
   0   4  -2  409.06   23.70 
   0   4  -2  460.05   25.50 
   0   4   2  388.66   23.50 
   0   4  -2  422.86   24.00 
   0   4   2  429.06   22.40 
   0   4   2  415.26   21.20 
   0   4  -2  385.26   23.70 
   1  -4   2  651.03   33.30 
  -1  -4  -2  725.63   38.20 
   1  -4   2  696.13   37.00 
  -1  -4  -2  701.13   33.20 
  -1   4  -2  685.33   38.60 
   1   4   2  679.43   38.10 
  -1   4  -2  652.73   37.20 
   1   4   2  698.73   35.60 
  -1   4  -2  707.43   36.70 
   1   4   2  708.53   33.00 
   2  -4   2  166.48   12.70 
  -2  -4  -2  151.78   13.80 
   2  -4   2  155.98   10.40 
  -2  -4  -2  157.58   11.80 
  -2  -4  -2  167.08    8.30 
  -2   4  -2  161.68   12.30 
   2   4   2  164.88   12.00 
  -2   4  -2  151.48   14.70 
   2   4   2  151.08   14.50 
  -2   4  -2  145.19   13.00 
  -3  -4  -2   69.89    9.80 
   3  -4   2   69.79    7.00 
  -3  -4  -2   61.99    5.70 
  -3  -4  -2   68.69    7.80 
   3  -4   2   77.19    8.30 
  -3   4  -2   64.79    8.80 
   3   4   2   69.39   10.70 
  -3   4  -2   78.19    9.60 
  -3   4  -2   76.99    7.80 
   3   4   2   65.79    7.40 
   4  -4   2  422.26   32.70 
  -4  -4  -2  503.45   29.20 
   4  -4   2  499.05   28.20 
   4  -4   2  512.65   28.20 
   4  -4   2  536.65   30.30 
  -4  -4  -2  507.05   25.20 
   4  -4   2  445.06   30.90 
  -4  -4  -2  483.85   26.20 
   4   4   2  495.05   29.10 
  -4   4  -2  497.95   31.30 
  -4   4  -2  513.75   31.30 
   4   4   2  488.25   35.50 
  -4   4  -2  526.75   28.70 
   5  -4   2  804.02   50.69 
  -5  -4  -2  946.11   43.70 
  -5  -4  -2  865.51   45.00 
   5  -4   2  925.71   46.80 
   5  -4   2  804.62   49.10 
   5  -4   2  822.92   52.59 
  -5   4  -2  909.51   49.60 
  -5   4  -2  858.41   49.20 
   5   4   2  883.01   56.39 
   5   4   2  963.30   53.39 
  -5   4  -2  922.91   46.90 
   5   4   2  906.81   50.49 
  -5   4  -2  949.40   50.39 
  -5   4  -2  866.41   52.29 
   6  -4   2   56.49   10.00 
   6  -4   2   47.40    9.50 
  -6  -4  -2   57.49    6.10 
   6   4   2   53.69   12.60 
   6   4   2   60.39   11.70 
   6   4   2   62.99    9.90 
  -6   4  -2   48.80    7.30 
  -6   4  -2   68.19   13.90 
  -6   4  -2   54.69    9.40 
   7  -4   2  383.96   26.80 
   7  -4   2  475.45   30.40 
  -7  -4  -2  442.16   24.90 
  -7  -4  -2  433.66   24.00 
   7  -4   2  417.36   30.90 
  -7   4  -2  441.46   30.20 
   8  -4   2   19.70    6.90 
   8  -4   2   24.00    5.00 
   8  -4   2   12.20    6.20 
  -8  -4  -2   33.10    4.70 
   8   4   2   26.30    7.40 
   8   4   2   24.10    6.00 
   9  -5  -2  488.55   30.10 
  -9  -5   2  521.65   26.20 
   9  -5  -2  552.14   33.30 
  -9  -5   2  539.35   29.00 
   9  -5  -2  498.75   29.80 
   9   5  -2  462.05   26.40 
  -9   5   2  495.45   27.90 
   9   5  -2  499.55   29.10 
  -9   5   2  522.05   30.50 
   8  -5  -2   66.49    9.70 
  -8  -5   2   77.49    7.00 
  -8  -5   2   84.69    9.40 
   8  -5  -2   72.39   11.20 
  -8  -5   2   72.49    7.70 
  -8   5   2   66.49    9.50 
  -8   5   2   65.79   10.50 
   8   5  -2   74.19    9.60 
  -8   5   2   53.09    9.00 
  -8   5   2   75.29    7.70 
  -8   5   2   71.49    9.20 
   8   5  -2   66.29    7.60 
  -7  -5   2  932.61   44.20 
   7  -5  -2  726.83   46.80 
   7  -5  -2  882.41   45.50 
  -7  -5   2  913.51   44.20 
  -7   5   2  820.52   47.80 
   7   5  -2  912.81   50.19 
   7   5  -2  942.61   46.20 
  -7   5   2  880.61   49.20 
  -7   5   2  865.51   48.30 
  -7   5   2  888.71   51.79 
  -7   5   2  879.21   51.29 
  -7   5   2  829.72   48.80 
  -7   5   2  802.72   45.80 
  -6  -5   2  981.00   47.30 
   6  -5  -2 1001.40   49.80 
  -6  -5   2  987.60   48.90 
   6  -5  -2 1026.50   53.69 
   6  -5  -2  978.00   51.59 
   6   5  -2 1045.70   51.99 
  -6   5   2  984.80   54.19 
  -6   5   2 1008.70   57.99 
   6   5  -2  966.60   60.29 
  -6   5   2  962.10   54.59 
  -6   5   2 1000.80   54.69 
   6   5  -2  935.01   54.79 
  -6   5   2 1001.10   57.59 
  -6   5   2  963.80   55.39 
  -6   5   2  971.10   52.79 
   5  -5  -2  823.82   39.90 
  -5  -5   2  809.62   38.10 
   5  -5  -2  778.12   42.70 
   5  -5  -2  802.82   42.40 
  -5  -5   2  790.22   39.70 
  -5   5   2  788.32   44.70 
   5   5  -2  791.62   43.00 
  -5   5   2  776.12   47.30 
  -5   5   2  762.12   45.20 
   5   5  -2  731.43   49.50 
  -5   5   2  782.42   44.30 
  -5   5   2  795.22   46.80 
  -4  -5   2   73.49    8.00 
   4  -5  -2   66.79    7.80 
   4  -5  -2   71.49    7.90 
  -4  -5   2   82.59    5.90 
  -4   5   2   71.79    9.90 
  -4   5   2   86.59    8.50 
   4   5  -2   74.89   11.20 
   4   5  -2   75.49    8.90 
  -4   5   2   71.59    9.90 
   3  -5  -2  455.25   22.50 
  -3  -5   2  441.16   24.30 
   3  -5  -2  386.76   25.70 
  -3  -5   2  410.66   23.90 
  -3   5   2  441.96   28.30 
   3   5  -2  405.96   25.90 
   3   5  -2  442.56   25.10 
  -3   5   2  395.86   29.30 
   2  -5  -2  999.70   56.79 
   2  -5  -2 1057.09   50.79 
   2  -5  -2 1070.29   46.50 
  -2  -5   2 1052.09   49.60 
  -2  -5   2 1011.40   47.20 
  -2   5   2 1019.40   56.19 
   2   5  -2  966.30   51.59 
  -2   5   2  938.41   53.29 
   2   5  -2  998.90   55.79 
  -2   5   2 1048.20   50.69 
   2   5  -2 1005.10   52.69 
   1  -5  -2   50.29    6.20 
   1  -5  -2   51.39    5.60 
  -1  -5   2   56.79    4.50 
  -1  -5   2   52.69    7.50 
  -1  -5   2   58.09    5.10 
   1   5  -2   47.80    6.60 
   1   5  -2   53.39    7.90 
  -1   5   2   41.90    6.60 
  -1   5   2   65.49    6.20 
  -1   5   2   60.99    6.10 
  -1   5   2   47.20    6.40 
   1   5  -2   57.69    7.00 
   0  -5   2  890.91   42.50 
   0  -5   2  963.90   48.50 
   0  -5  -2  942.91   49.60 
   0  -5  -2  788.72   43.30 
   0   5  -2  881.41   47.40 
   0   5   2  912.61   43.70 
   0   5   2  815.82   45.30 
   0   5   2  864.51   48.90 
   0   5   2  957.60   45.60 
   0   5  -2  979.90   49.50 
   0   5  -2  901.01   47.10 
   0   5  -2  835.92   46.80 
  -1  -5  -2  216.98   17.60 
   1  -5   2  220.38   16.30 
   1  -5   2  211.88   12.60 
  -1  -5  -2  203.58   14.50 
   1   5   2  188.28   16.20 
  -1   5  -2  200.18   15.20 
  -1   5  -2  204.78   17.20 
  -1   5  -2  181.18   16.50 
   1   5   2  212.18   14.70 
  -2  -5  -2   63.99    7.60 
   2  -5   2   74.79    6.80 
  -2  -5  -2   68.89    9.90 
   2  -5   2   66.29    8.30 
  -2   5  -2   92.19   10.20 
   2   5   2   71.99   10.80 
   2   5   2   66.79    7.70 
  -2   5  -2   79.09    9.50 
  -2   5  -2   80.79    8.60 
   3  -5   2  111.49    9.40 
  -3  -5  -2  110.29   10.70 
   3  -5   2  108.89   12.50 
   3  -5   2  112.09   11.20 
  -3  -5  -2  100.39    6.80 
   3   5   2  128.89   15.50 
  -3   5  -2   88.49   11.30 
  -3   5  -2  110.19   11.40 
  -3   5  -2  109.99   10.50 
   3   5   2   96.99    9.70 
   4  -5   2  359.56   26.50 
   4  -5   2  397.46   28.20 
   4  -5   2  409.86   28.10 
  -4  -5  -2  441.66   24.80 
   4  -5   2  408.96   31.20 
  -4   5  -2  385.66   32.50 
  -4   5  -2  458.55   28.60 
  -4   5  -2  403.26   25.80 
  -4   5  -2  358.66   28.00 
  -4   5  -2  426.76   28.50 
   4   5   2  383.46   32.70 
  -4   5  -2  422.46   30.50 
   4   5   2  447.66   28.90 
   5  -5   2  172.48   13.60 
   5  -5   2  170.28   14.30 
  -5  -5  -2  175.88   11.00 
   5  -5   2  133.59   14.60 
   5  -5   2  132.39   16.70 
  -5  -5  -2  145.69   11.60 
   5  -5   2  167.18   13.10 
  -5   5  -2  153.98   14.90 
   5   5   2  167.18   19.50 
  -5   5  -2  155.88   13.10 
   5   5   2  149.99   14.90 
  -5   5  -2  121.69   14.20 
   5   5   2  159.88   18.70 
  -5   5  -2  161.48   15.20 
  -5   5  -2  154.58   17.80 
  -5   5  -2  151.48   14.60 
  -5   5  -2  164.98   13.50 
   6  -5   2   55.49    9.90 
  -6  -5  -2   56.69    6.10 
   6  -5   2   68.89    9.20 
   6  -5   2   67.29   11.10 
  -6  -5  -2   63.59    7.00 
   6   5   2   62.79    9.10 
  -6   5  -2   54.19   10.00 
  -6   5  -2   62.29   13.30 
  -6   5  -2   55.99    9.40 
   6   5   2   46.10   10.20 
  -6   5  -2   56.09    8.70 
  -6   5  -2   61.49    7.50 
   7  -5   2    6.40    5.60 
   7  -5   2    9.70    4.30 
   7  -5   2    0.90    3.30 
  -7   5  -2   10.10    3.60 
   7   5   2   14.90    5.60 
  -7   5  -2    4.80    3.50 
   7   5   2    5.50    3.10 
   8  -5   2   29.90    5.20 
  -8  -5  -2   40.50    6.80 
   8  -5   2   41.80    6.10 
   8   5   2   30.50    5.20 
   8   5   2   33.70    5.00 
  -8   5  -2   22.50    4.50 
   9  -6  -2   17.20    3.40 
   9  -6  -2   19.00    4.60 
  -9   6   2   15.00    3.90 
  -9   6   2   16.30    3.50 
   9   6  -2   13.70    3.20 
  -8  -6   2  128.89   14.00 
   8  -6  -2  135.09   14.20 
   8  -6  -2  122.49   13.20 
  -8  -6   2  130.49    9.60 
  -8   6   2  128.19   10.90 
  -8   6   2  123.19   11.80 
  -8   6   2  135.29    9.70 
  -8   6   2  135.09   11.50 
   8   6  -2  161.18   12.80 
   7  -6  -2  341.57   31.00 
  -7  -6   2  362.96   21.40 
  -7  -6   2  401.66   21.30 
   7  -6  -2  327.47   22.90 
  -7   6   2  352.86   24.60 
  -7   6   2  361.96   26.60 
  -7   6   2  320.47   29.90 
  -7   6   2  347.77   30.60 
  -7   6   2  395.96   24.50 
   7   6  -2  392.46   25.20 
  -6  -6   2  100.59   10.30 
  -6  -6   2   90.29    7.80 
   6  -6  -2   66.49   10.60 
   6  -6  -2   91.49   10.70 
  -6   6   2   94.69   10.50 
  -6   6   2   87.99   11.20 
  -6   6   2   71.59   12.40 
  -6   6   2   89.29   11.30 
   6   6  -2   81.19   12.20 
  -6   6   2   76.89   12.70 
  -6   6   2   71.39   10.30 
   6   6  -2   78.59    9.30 
  -6   6   2   86.19   12.00 
  -5  -6   2   26.30    4.50 
  -5  -6   2   30.20    3.70 
   5  -6  -2   25.90    5.90 
   5  -6  -2   16.00    3.90 
   5  -6  -2   29.00    6.50 
  -5   6   2   29.40    7.00 
  -5   6   2   17.30    6.90 
  -5   6   2   14.70    6.30 
   5   6  -2   30.00    8.70 
   5   6  -2   33.60    6.10 
  -5   6   2   22.20    6.10 
  -5   6   2   19.70    7.00 
  -5   6   2   29.40    7.00 
  -5   6   2   14.70    6.60 
  -4  -6   2  661.83   37.00 
   4  -6  -2  692.73   38.80 
  -4   6   2  692.03   43.70 
   4   6  -2  646.04   38.70 
  -4   6   2  747.03   41.50 
  -4   6   2  709.23   42.40 
   4   6  -2  732.63   46.80 
  -4   6   2  629.54   41.40 
  -4   6   2  726.13   43.60 
  -4   6   2  745.73   43.10 
   4   6  -2  732.23   37.90 
   3  -6  -2  317.57   21.20 
   3  -6  -2  337.37   17.90 
  -3  -6   2  341.47   17.50 
  -3  -6   2  355.46   21.00 
  -3   6   2  342.57   21.60 
  -3   6   2  309.17   24.50 
   3   6  -2  318.17   22.40 
   3   6  -2  320.57   26.40 
  -3   6   2  334.37   24.70 
   3   6  -2  319.27   21.00 
  -2  -6   2  311.47   18.30 
   2  -6  -2  268.67   15.00 
  -2  -6   2  299.17   15.70 
   2  -6  -2  297.87   19.20 
  -2   6   2  312.17   19.30 
   2   6  -2  303.07   24.00 
   2   6  -2  298.27   20.10 
   2   6  -2  295.87   21.00 
  -2   6   2  296.07   23.10 
  -2   6   2  275.87   21.80 
  -1  -6   2   70.79    9.50 
  -1  -6   2   70.29    5.60 
   1  -6  -2   67.09    7.00 
   1   6  -2   64.99    8.30 
  -1   6   2   54.69    8.70 
   1   6  -2   75.59    9.90 
   1   6  -2   62.09    8.40 
  -1   6   2   61.59    7.00 
   0  -6   2  141.79   13.30 
   0  -6  -2  138.99   10.50 
   0  -6  -2  149.09   11.90 
   0  -6   2  135.29    9.30 
   0   6  -2  147.29   13.00 
   0   6   2  130.19   10.20 
   0   6   2  135.19   14.50 
   0   6   2  123.49   12.40 
   0   6  -2  134.89   13.00 
   0   6   2  136.59   11.40 
   0   6   2  126.99   12.60 
  -1  -6  -2  510.75   22.80 
   1  -6   2  494.05   26.70 
  -1  -6  -2  444.06   30.20 
   1  -6   2  534.15   32.10 
   1   6   2  498.55   33.40 
  -1   6  -2  498.55   31.90 
   1   6   2  489.65   32.10 
  -1   6  -2  531.75   31.00 
  -2  -6  -2   48.30    3.90 
   2  -6   2   63.99    9.40 
   2  -6   2   67.69    7.10 
  -2   6  -2   61.19    9.40 
  -2   6  -2   78.39    8.60 
  -2   6  -2   60.29   10.10 
  -2   6  -2   69.09    8.70 
   2   6   2   73.59    9.50 
   2   6   2   64.49   10.60 
  -2   6  -2   58.49    9.70 
   3  -6   2  670.93   36.00 
  -3  -6  -2  668.33   32.20 
   3  -6   2  608.24   39.50 
   3  -6   2  693.13   39.20 
   3  -6   2  572.74   41.30 
  -3   6  -2  690.53   39.40 
  -3   6  -2  685.23   41.70 
  -3   6  -2  688.83   43.40 
   3   6   2  690.83   41.00 
  -3   6  -2  710.73   38.70 
   3   6   2  646.54   44.40 
  -3   6  -2  689.63   38.20 
  -3   6  -2  678.63   39.90 
  -3   6  -2  672.63   38.50 
   4  -6   2    2.10    3.90 
   4  -6   2   -4.80    4.70 
  -4  -6  -2    2.60    1.50 
  -4  -6  -2    1.20    2.10 
   4   6   2  -10.80   10.40 
  -4   6  -2   -0.90    3.90 
  -4   6  -2    9.70    7.00 
  -4   6  -2   12.50    4.50 
  -4   6  -2    4.60    7.90 
  -4   6  -2    7.50    4.30 
  -4   6  -2    0.50    4.10 
   4   6   2    5.40    6.50 
  -4   6  -2    3.20    3.60 
   5  -6   2   44.10    7.00 
  -5  -6  -2   41.00    5.50 
   5  -6   2   52.09   10.90 
   5  -6   2   63.09    9.20 
  -5  -6  -2   58.29    5.40 
   5   6   2   51.09    9.10 
  -5   6  -2   71.29   10.10 
  -5   6  -2   41.10    9.40 
  -5   6  -2   46.10    7.80 
  -5   6  -2   52.99    8.80 
   5   6   2   46.50    9.60 
  -5   6  -2   61.49    9.20 
  -5   6  -2   62.79    7.70 
   6  -6   2   58.09    8.10 
   6  -6   2   50.79    9.30 
   6  -6   2   53.19    8.60 
  -6  -6  -2   55.39    6.30 
  -6   6  -2   60.69    9.00 
  -6   6  -2   48.70    6.30 
  -6   6  -2   66.39    7.20 
   6   6   2   61.19   11.10 
  -6   6  -2   43.70    7.60 
   6   6   2   62.69    8.50 
  -6   6  -2   52.59    7.80 
   7  -6   2   52.59    6.80 
  -7  -6  -2   34.90    4.70 
  -7   6  -2   41.20    5.80 
   7   6   2   47.50    6.90 
  -7   6  -2   50.09    5.90 
   7   6   2   44.70    6.00 
  -7   6  -2   45.30    6.90 
  -8  -7   2    8.80    3.20 
   8  -7  -2    7.40    3.10 
   8  -7  -2   -1.60    3.50 
  -8  -7   2    6.20    1.80 
   8   7  -2    4.10    2.10 
  -8   7   2    2.20    3.00 
  -8   7   2    3.80    3.20 
  -8   7   2    5.90    2.10 
  -8   7   2    7.40    2.50 
  -8   7   2    5.30    2.30 
  -7  -7   2   17.00    3.40 
   7  -7  -2   10.60    4.60 
   7  -7  -2   20.30    5.30 
  -7   7   2   14.20    5.00 
  -7   7   2    6.60    3.70 
   7   7  -2   10.90    4.10 
  -7   7   2   14.90    4.70 
  -7   7   2   12.90    4.50 
  -7   7   2   14.30    4.20 
  -7   7   2   21.60    4.90 
  -7   7   2   10.90    3.50 
   7   7  -2    7.10    8.10 
  -6  -7   2   75.39    7.30 
   6  -7  -2   68.19    7.80 
  -6  -7   2   79.09    7.10 
   6  -7  -2   77.89   13.30 
  -6   7   2   54.19    8.10 
  -6   7   2   63.59   11.60 
  -6   7   2   60.69   11.80 
  -6   7   2   82.19   10.80 
  -6   7   2   76.69    9.40 
  -6   7   2   91.99    9.40 
   6   7  -2   64.39    7.40 
  -6   7   2   64.09   10.00 
  -5  -7   2    3.70    1.50 
  -5  -7   2    6.00    2.30 
   5  -7  -2    1.10    3.00 
   5  -7  -2    0.60    2.30 
  -5   7   2    0.00    3.30 
  -5   7   2    1.20    3.90 
  -5   7   2    3.30    3.40 
  -5   7   2    1.30    5.30 
  -5   7   2    6.50    4.40 
  -5   7   2   12.50    5.00 
   5   7  -2    5.80    3.70 
  -4  -7   2   59.89    8.00 
   4  -7  -2   86.99   11.00 
  -4  -7   2   72.09    5.60 
   4  -7  -2   66.09    6.50 
   4  -7  -2   49.10    8.30 
  -4   7   2   60.99   11.30 
  -4   7   2   78.29   15.90 
  -4   7   2   57.79   12.10 
   4   7  -2   80.29   12.20 
  -4   7   2   81.99   11.30 
   4   7  -2   71.19   11.00 
  -4   7   2   77.09   12.00 
   3  -7  -2   26.60    6.10 
  -3  -7   2   33.60    6.00 
  -3  -7   2   24.40    7.50 
  -3  -7   2   29.60    3.50 
   3  -7  -2   30.80    4.00 
   3   7  -2   25.60    6.70 
  -3   7   2   42.00    8.90 
  -3   7   2   41.70    9.00 
  -3   7   2   28.60    7.70 
   3   7  -2   15.40    6.40 
  -3   7   2   21.30    6.70 
   3   7  -2   29.90    6.10 
  -3   7   2   32.40    8.40 
  -3   7   2   32.80    7.80 
   3   7  -2   44.70    7.40 
   2  -7  -2  112.29   11.70 
   2  -7  -2  116.19    7.30 
  -2  -7   2   98.39   14.00 
  -2  -7   2  115.49    7.70 
  -2   7   2   94.99   12.40 
  -2   7   2  126.99   12.60 
  -2   7   2  132.69   14.60 
   2   7  -2   93.69   12.00 
   2   7  -2  114.49   11.30 
   2   7  -2  106.09   12.30 
  -2   7   2  105.49   14.00 
  -2   7   2  108.19   10.80 
  -2   7   2   92.59   12.90 
  -2   7   2  125.59   14.20 
   2   7  -2  125.49   15.00 
   2   7  -2  121.69   11.90 
   1  -7  -2    3.60    3.90 
  -1  -7   2    0.80    1.50 
  -1  -7   2   12.30    5.70 
   1   7  -2    6.60    4.40 
   1   7  -2   10.20    4.60 
  -1   7   2   -0.10    5.00 
  -1   7   2    3.80    3.30 
   1   7  -2    2.10    4.30 
  -1   7   2    3.90    4.60 
  -1   7   2   10.40    5.70 
  -1   7   2   -6.40    4.70 
  -1   7   2   -3.00    5.10 
   1   7  -2    6.50    4.40 
   0  -7   2   25.00    4.10 
   0  -7   2   12.40    5.80 
   0   7  -2   27.50    6.30 
   0   7   2   12.40    8.20 
   0   7   2   28.30    8.90 
   0   7   2   23.60    7.70 
   0   7  -2   21.20    6.00 
   0   7  -2   24.10    5.00 
   0   7  -2   19.70    6.50 
   0   7  -2   21.80    5.50 
   1  -7   2  854.21   42.60 
   1  -7   2  887.21   49.00 
  -1  -7  -2  827.02   38.40 
  -1   7  -2  904.41   49.60 
  -1   7  -2  767.82   48.90 
   1   7   2  827.62   46.90 
  -1   7  -2  841.72   45.30 
   1   7   2  844.12   49.60 
  -1   7  -2  861.01   47.70 
  -1   7  -2  864.81   47.20 
   2  -7   2 1194.18   55.29 
   2  -7   2 1155.08   59.89 
   2  -7   2  970.50   58.39 
  -2  -7  -2  997.30   50.59 
   2   7   2 1142.99   62.09 
  -2   7  -2 1098.49   59.69 
  -2   7  -2 1188.88   62.39 
   2   7   2 1144.79   59.79 
  -2   7  -2 1093.49   57.19 
  -2   7  -2 1064.19   57.39 
  -2   7  -2 1158.08   58.99 
  -2   7  -2 1144.99   61.59 
  -2   7  -2 1079.79   62.39 
  -3  -7  -2  457.85   25.40 
   3  -7   2  531.45   37.30 
   3  -7   2  460.15   31.80 
  -3   7  -2  450.35   33.80 
   3   7   2  552.04   33.20 
  -3   7  -2  503.05   34.00 
  -3   7  -2  526.95   31.40 
   3   7   2  583.14   35.20 
  -3   7  -2  525.15   35.60 
  -3   7  -2  525.65   30.50 
  -3   7  -2  534.95   33.10 
  -3   7  -2  490.75   30.40 
  -4  -7  -2  389.06   21.30 
   4  -7   2  405.86   28.00 
   4  -7   2  342.97   28.30 
   4  -7   2  428.36   24.70 
  -4   7  -2  449.66   27.20 
  -4   7  -2  440.66   29.00 
  -4   7  -2  438.36   25.80 
   4   7   2  452.35   28.50 
  -4   7  -2  400.36   29.80 
  -4   7  -2  440.86   28.80 
   4   7   2  385.66   32.40 
   5  -7   2   11.60    4.50 
   5  -7   2   13.70    6.00 
   5  -7   2   19.90    4.70 
  -5  -7  -2   10.70    2.90 
  -5   7  -2   15.70    4.90 
  -5   7  -2    5.70    3.80 
  -5   7  -2   17.70    4.20 
   5   7   2    9.50    4.60 
  -5   7  -2   19.80    4.60 
  -5   7  -2   11.20    4.50 
   6  -7   2    8.30    4.10 
   6  -7   2   11.50    3.50 
   6  -7   2   18.30    4.80 
  -6  -7  -2   17.80    3.60 
  -6   7  -2   16.90    4.30 
   6   7   2   20.20    4.70 
  -6   7  -2   15.10    3.50 
  -6   7  -2   13.10    4.10 
   7  -8  -2    5.00    2.60 
   7  -8  -2   11.50    4.00 
  -7  -8   2    6.40    1.80 
  -7   8   2    2.60    2.60 
  -7   8   2    7.20    2.70 
  -7   8   2   11.20    2.90 
  -7   8   2    9.70    3.00 
   6  -8  -2   -1.30    6.40 
  -6   8   2    3.90    6.30 
  -6   8   2   -0.80    2.60 
   6   8  -2   -1.50    1.90 
  -6   8   2   11.30    4.00 
  -6   8   2    2.60    4.00 
  -6   8   2   -3.00    2.40 
  -6   8   2    1.60    3.30 
  -6   8   2    5.30    5.70 
  -5  -8   2   12.00    2.80 
   5  -8  -2    5.20    3.30 
  -5   8   2    8.30    3.40 
  -5   8   2   10.20    3.90 
  -5   8   2    8.90    6.10 
  -5   8   2   12.30    5.70 
  -5   8   2    6.30    3.50 
  -5   8   2   13.00    5.60 
   5   8  -2   19.90    4.40 
  -5   8   2   13.10    4.90 
   4  -8  -2   36.70    7.30 
  -4  -8   2   58.39    5.90 
  -4  -8   2   48.40    5.70 
  -4   8   2   47.60    8.00 
   4   8  -2   60.29    7.80 
  -4   8   2   43.50    8.00 
  -4   8   2   62.99   10.70 
   3  -8  -2   47.70    5.00 
  -3  -8   2   43.20    4.20 
   3   8  -2   56.29    7.60 
  -3   8   2   57.69   10.20 
  -3   8   2   45.60    8.70 
  -3   8   2   53.29    8.90 
  -3   8   2   60.59    9.30 
  -3   8   2   40.40    9.00 
   2  -8  -2  101.19    7.00 
  -2  -8   2   96.09    6.90 
   2   8  -2  111.29   11.10 
   2   8  -2  123.79   10.90 
  -2   8   2   83.09   10.60 
   2   8  -2  107.89   11.90 
  -2   8   2  104.09   12.40 
  -2   8   2   94.89   12.00 
  -2   8   2   95.69   12.60 
  -2   8   2   98.39   12.50 
   1  -8  -2   17.20    2.30 
  -1  -8   2   14.30    2.80 
  -1   8   2   15.10    6.20 
   1   8  -2   17.90    4.90 
  -1   8   2   10.70    6.60 
  -1   8   2   14.10    5.70 
  -1   8   2    8.10    5.40 
  -1   8   2   11.70    6.50 
   1   8  -2   13.90    5.40 
   1   8  -2    5.20    4.30 
   0  -8   2  282.07   17.50 
   0   8  -2  331.07   19.90 
   0   8  -2  336.07   24.50 
   0   8  -2  319.57   23.30 
   0   8  -2  345.27   22.40 
   1  -8   2  352.46   25.10 
   1  -8   2  400.16   21.60 
  -1   8  -2  365.36   23.30 
  -1   8  -2  427.96   28.00 
  -1   8  -2  373.56   27.30 
  -1   8  -2  418.66   26.10 
   2  -8   2   43.20    8.00 
   2  -8   2   52.39    5.80 
   2   8   2   52.09    8.70 
  -2   8  -2   30.20    7.60 
  -2   8  -2   31.20    6.70 
  -2   8  -2   53.29    9.30 
  -2   8  -2   48.80    7.10 
   3  -8   2  187.58   16.00 
   3  -8   2  208.98   13.60 
  -3   8  -2  208.68   18.20 
  -3   8  -2  207.38   16.40 
  -3   8  -2  186.78   14.80 
  -3   8  -2  210.98   15.00 
   3   8   2  200.98   16.30 
  -4  -8  -2  236.68   14.70 
   4  -8   2  264.37   18.60 
   4  -8   2  254.17   17.80 
   4  -8   2  274.87   19.20 
  -4   8  -2  259.07   20.20 
  -4   8  -2  271.17   17.00 
   4   8   2  280.77   18.60 
  -4   8  -2  260.17   18.00 
  -4   8  -2  266.57   19.50 
  -4   8  -2  252.07   17.00 
   5  -8   2  173.78   12.20 
  -5  -8  -2  155.28   11.30 
   5  -8   2  162.08   13.30 
  -5   8  -2  166.08   11.70 
  -5   8  -2  186.18   11.60 
  -5   8  -2  174.38   13.40 
   5   8   2  146.69   13.50 
  -5   8  -2  160.78   13.60 
   5   9  -2   32.90    4.50 
  -5   9   2   34.40    5.00 
  -5   9   2   26.40    4.50 
  -5   9   2   35.70    5.70 
  -4  -9   2   38.20    5.60 
   4   9  -2   61.29    6.00 
  -4   9   2   45.80    7.00 
  -4   9   2   55.89    6.30 
  -4   9   2   51.89    7.40 
  -4   9   2   42.80    6.50 
  -3   9   2   11.90    3.90 
  -3   9   2   10.30    6.50 
  -3   9   2   10.60    7.60 
  -3   9   2   13.20    5.00 
  -3   9   2    4.50    4.40 
   2   9  -2   40.50    6.60 
  -2   9   2   42.60    9.10 
  -2   9   2   43.60    9.30 
  -2   9   2   34.70    7.30 
   1   9  -2  124.69   11.90 
   1   9  -2  123.19   11.90 
   0   9  -2  165.58   14.40 
   0   9  -2  160.58   14.00 
   0   9  -2  167.68   12.90 
  -1   9  -2   48.20    7.10 
  -1   9  -2   69.89   10.80 
  -1   9  -2   40.50    7.60 
  -1   9  -2   48.00    8.10 
   2  -9   2   42.60    6.50 
  -2   9  -2   57.99    7.30 
  -2   9  -2   53.79   12.50 
  -2   9  -2   41.50    6.00 
   3  -9   2    4.20    2.40 
  -3   9  -2    2.70    2.60 
  -3   9  -2   -0.70    2.40 
  -3   9  -2    0.00    2.10 
   1  10  -2   18.90    3.50 
   0  10  -2   18.90    3.60 
  11   0  -3   55.39    6.70 
 -11   0   3   51.79    7.10 
  11   0  -3   55.39    6.10 
 -10   0   3    6.90    3.60 
  10   0  -3    6.40    3.90 
  10   0  -3    8.70    3.70 
   9   0  -3  506.55   33.60 
  -9   0   3  538.35   34.10 
   9   0  -3  544.65   34.00 
   8   0  -3   16.30    6.60 
   8   0  -3   13.50    5.50 
  -8   0   3   21.10    6.80 
   8   0  -3   20.20    6.40 
  -7   0   3 1165.58   60.89 
  -7   0   3 1178.68   57.69 
   7   0  -3 1216.58   61.09 
  -6   0   3   94.09    7.60 
  -6   0   3   88.39    8.90 
   6   0  -3   87.59    8.90 
   6   0  -3   92.99    9.40 
   5   0  -3  701.53   36.00 
  -5   0   3  700.73   34.00 
   5   0  -3  623.94   35.70 
  -5   0   3  717.53   35.90 
  -5   0   3  682.43   35.90 
   4   0  -3  602.64   30.50 
  -4   0   3  607.64   30.30 
  -4   0   3  584.24   28.70 
   4   0  -3  546.65   29.90 
  -3   0   3   28.50    3.40 
   3   0  -3   24.60    3.20 
   3   0  -3   27.80    3.50 
   3   0  -3   30.80    3.60 
   3   0  -3   27.40    3.20 
  -3   0   3   31.10    2.90 
   2   0  -3 4004.00  171.08 
  -2   0   3 3584.04  170.38 
   2   0  -3 3870.41  172.38 
  -1   0   3  264.77   13.20 
  -1   0   3  240.88   14.70 
   1   0  -3  287.77   15.10 
   1   0  -3  243.18   13.90 
   0   0  -3 3359.16  149.99 
   0   0  -3 3005.50  152.68 
   0   0   3 3536.55  150.88 
   0   0   3 3471.45  149.69 
  -1   0  -3  493.15   30.70 
   1   0   3  627.84   28.80 
   1   0   3  566.34   27.00 
  -1   0  -3  532.75   26.40 
   2   0   3   27.60    3.20 
  -2   0  -3   22.00    2.90 
  -2   0  -3   25.20    5.20 
   2   0   3   30.40    4.20 
  -3   0  -3 9462.65  406.66 
   3   0   3 8449.05  398.86 
  -4   0  -3 3336.57  150.98 
   4   0   3 3444.76  157.18 
  -4   0  -3 3195.18  150.58 
   4   0   3 3304.37  156.68 
  -5   0  -3  262.77   16.90 
   5   0   3  243.68   20.90 
   5   0   3  260.67   20.30 
   6   0   3 3903.81  177.78 
   6   0   3 3735.63  177.58 
   6   0   3 3826.22  177.08 
  -6   0  -3 3633.64  175.68 
   6   0   3 3563.94  179.88 
   7   0   3  579.04   34.90 
   7   0   3  560.34   33.90 
   7   0   3  549.85   35.10 
  -7   0  -3  491.45   32.90 
   8   0   3   28.10    6.30 
   8   0   3   21.40    5.90 
 -11  -1   3    6.70    2.90 
  11  -1  -3    7.90    2.70 
 -11   1   3   -1.70    2.40 
  11   1  -3   -1.30    1.90 
 -10  -1   3   39.80    7.70 
  10  -1  -3   60.49    8.30 
  10  -1  -3   42.50    7.90 
  10   1  -3   42.30    7.70 
  10   1  -3   38.10    6.80 
 -10   1   3   39.60    7.60 
  -9  -1   3  149.99   14.50 
   9  -1  -3  150.58   14.40 
   9  -1  -3  128.39   15.40 
  -9   1   3  126.59   15.30 
  -9   1   3  159.18   15.40 
   9   1  -3  138.89   14.40 
   9   1  -3  134.39   14.90 
   8  -1  -3  482.85   28.90 
   8  -1  -3  447.76   32.70 
   8  -1  -3  447.26   30.10 
  -8  -1   3  499.75   31.20 
   8   1  -3  474.95   28.40 
  -8   1   3  491.45   31.50 
  -8   1   3  370.96   28.10 
  -8   1   3  460.75   30.30 
   8   1  -3  446.16   30.30 
   8   1  -3  441.86   30.50 
  -7  -1   3  105.99    8.60 
  -7  -1   3  105.99    9.40 
  -7  -1   3   97.89   10.50 
   7  -1  -3  111.59   10.80 
   7   1  -3  100.99   12.00 
   7   1  -3  113.69   11.60 
  -7   1   3  108.39   11.80 
  -6  -1   3   56.49    6.10 
  -6  -1   3   69.49    5.50 
   6  -1  -3   52.69    6.60 
  -6  -1   3   68.79    7.30 
   6   1  -3   47.50    7.70 
  -6   1   3   69.99    6.00 
  -6   1   3   59.19    8.40 
   6   1  -3   65.79    7.90 
  -6   1   3   59.69    7.70 
  -5  -1   3   49.80    4.00 
   5  -1  -3   45.30    4.70 
  -5  -1   3   44.60    4.90 
  -5  -1   3   52.39    5.50 
   5  -1  -3   54.69    5.70 
  -5   1   3   48.60    6.40 
  -5   1   3   47.70    4.60 
   5   1  -3   46.90    4.50 
   5   1  -3   45.30    6.40 
  -5   1   3   36.00    7.00 
   5   1  -3   47.70    6.10 
   4  -1  -3 4137.59  183.28 
   4  -1  -3 4398.86  184.98 
  -4  -1   3 4234.08  185.28 
  -4  -1   3 4179.18  182.38 
  -4   1   3 4225.68  183.08 
   4   1  -3 3559.74  182.48 
  -4   1   3 4194.98  186.98 
   4   1  -3 3930.11  186.48 
   4   1  -3 3977.50  185.98 
   4   1  -3 4009.70  182.08 
   1  -1  -3  677.53   33.70 
  -1  -1   3  657.33   32.40 
   1  -1  -3  718.93   31.80 
  -1  -1   3  642.14   32.50 
  -1  -1   3  681.43   31.20 
   1   1  -3  589.24   33.10 
  -1   1   3  668.13   31.60 
   1   1  -3  664.93   32.70 
   1   1  -3  695.03   33.50 
   0  -1   3  202.98   10.70 
   0  -1  -3  216.88   13.80 
   0  -1   3  211.88   12.50 
   0  -1  -3  197.38   10.80 
   0  -1  -3  204.48   10.50 
   0   1  -3  205.38   13.80 
   0   1  -3  191.68   11.80 
   0   1   3  234.18   12.40 
   0   1   3  206.08   11.50 
  -1  -1  -3 1978.20  103.79 
   1  -1   3 2177.78  101.49 
  -1  -1  -3 2186.98   98.89 
   1  -1   3 2131.59   98.99 
  -1   1  -3 2436.76  104.79 
  -1   1  -3 2075.39  100.09 
   1   1   3 2419.46  102.29 
   1   1   3 2190.88  100.19 
  -2  -1  -3 3806.02  196.88 
   2  -1   3 4421.36  193.78 
   2  -1   3 4333.07  196.58 
   2  -1   3 4009.00  190.38 
  -2   1  -3 4653.33  197.58 
  -2   1  -3 4156.98  191.08 
   2   1   3 4329.27  192.08 
   2   1   3 4375.36  194.98 
  -3  -1  -3  500.25   26.10 
  -3  -1  -3  513.95   32.70 
   3  -1   3  553.44   29.80 
   3  -1   3  525.05   26.00 
   3   1   3  547.05   31.40 
   3   1   3  523.55   27.60 
  -3   1  -3  502.65   25.50 
  -3   1  -3  530.15   32.60 
  -4  -1  -3 1370.66   64.59 
  -4  -1  -3 1326.07   62.79 
  -4  -1  -3 1276.17   63.89 
   4  -1   3 1402.26   69.59 
   4   1   3 1273.27   64.09 
   4   1   3 1338.97   68.89 
   5  -1   3  729.83   42.00 
  -5  -1  -3  699.03   35.60 
  -5  -1  -3  711.03   37.00 
   5  -1   3  678.43   41.30 
   5   1   3  652.63   42.70 
   5   1   3  694.33   41.30 
   6  -1   3 2405.66  114.99 
  -6  -1  -3 2358.76  109.09 
   6  -1   3 2483.45  116.09 
   6  -1   3 2322.67  115.09 
   6  -1   3 2321.87  116.99 
   6   1   3 2327.67  114.59 
   6   1   3 2313.27  115.49 
   6   1   3 2264.37  112.89 
   6   1   3 2157.08  118.09 
  -6   1  -3 2199.68  114.09 
   6   1   3 2427.06  115.69 
   7  -1   3  507.35   31.00 
   7  -1   3  450.15   30.00 
   7  -1   3  467.55   30.00 
   7   1   3  447.26   30.50 
   7   1   3  427.96   27.90 
   7   1   3  459.05   29.70 
  -7   1  -3  408.36   28.60 
   7   1   3  454.75   30.10 
   8  -1   3  364.16   22.80 
   8  -1   3  312.07   21.30 
   8  -1   3  314.67   22.10 
  -8   1  -3  290.07   20.30 
   8   1   3  336.37   21.30 
   8   1   3  346.37   20.00 
   8   1   3  309.67   21.60 
   8   1   3  300.47   22.30 
  11   2  -3   16.50    4.10 
  10  -2  -3   54.59    8.20 
  10  -2  -3   57.69    8.70 
 -10  -2   3   61.39    8.60 
  10   2  -3   41.20    7.20 
 -10   2   3   50.29    8.20 
  10   2  -3   44.60    7.30 
   9  -2  -3   85.09   12.40 
  -9  -2   3   97.09   11.20 
   9  -2  -3   81.79   10.70 
  -9   2   3   76.39   11.40 
   9   2  -3   74.89   13.00 
   9   2  -3   81.79    9.40 
   9   2  -3   72.59   10.60 
  -9   2   3   84.09   11.10 
  -9   2   3  103.09   11.80 
   8  -2  -3   -6.10    3.30 
   8  -2  -3   -5.40    2.80 
   8  -2  -3   -2.50    5.60 
  -8  -2   3   -2.50    2.90 
   8  -2  -3   11.60    4.90 
  -8  -2   3   -3.10    2.30 
  -8   2   3    4.10    4.60 
  -8   2   3   11.50    5.20 
   8   2  -3    5.70    3.30 
  -8   2   3    2.80    5.00 
   8   2  -3    2.10    5.50 
   8   2  -3   -4.70    7.20 
  -8   2   3   -6.80    3.90 
  -8   2   3    0.80    4.10 
  -7  -2   3  227.98   16.50 
  -7  -2   3  207.78   15.40 
  -7  -2   3  243.58   15.00 
   7  -2  -3  203.18   16.90 
   7  -2  -3  228.58   16.60 
  -7  -2   3  222.98   13.80 
  -7   2   3  218.18   17.60 
  -7   2   3  233.78   19.10 
   7   2  -3  229.38   18.00 
   7   2  -3  221.68   20.10 
   7   2  -3  286.67   21.60 
   7   2  -3  278.87   18.90 
  -6  -2   3   43.30    5.70 
  -6  -2   3   47.70    4.70 
   6  -2  -3   48.70    5.60 
   6  -2  -3   68.79    8.50 
  -6  -2   3   67.69    7.20 
   6   2  -3   54.99    7.50 
   6   2  -3   59.49    8.50 
  -6   2   3   50.49    7.80 
  -6   2   3   52.59    8.80 
  -6   2   3   47.40    8.50 
  -5  -2   3  873.51   41.50 
  -5  -2   3  780.22   40.90 
   5  -2  -3  893.51   42.00 
  -5  -2   3  830.22   39.00 
  -5   2   3  834.62   39.60 
   5   2  -3  714.03   44.50 
  -5   2   3  797.22   44.10 
  -5   2   3  838.42   45.90 
   5   2  -3  833.32   43.90 
   4  -2  -3 8731.63  367.26 
  -4  -2   3 8380.96  368.06 
  -4   2   3 8297.97  371.26 
   4   2  -3 7906.91  370.46 
   4   2  -3 7905.61  372.06 
   3   2  -3 8514.25  382.76 
   2  -2  -3 2600.94  117.09 
   2  -2  -3 2614.84  120.59 
  -2  -2   3 2668.13  116.19 
  -2  -2   3 2669.23  116.69 
  -2   2   3 2498.85  116.79 
   2   2  -3 2523.35  118.79 
  -2   2   3 2642.24  120.49 
   2   2  -3 2461.45  119.69 
  -1  -2   3   42.20    4.20 
   1  -2  -3   53.29    5.70 
  -1  -2   3   41.30    4.80 
  -1  -2   3   43.70    3.50 
   1  -2  -3   46.60    4.00 
   1  -2  -3   48.00    3.80 
   1   2  -3   49.30    5.00 
  -1   2   3   59.79    4.60 
   1   2  -3   54.89    5.70 
   0  -2  -3 4228.38  186.78 
   0  -2   3 3884.81  187.58 
   0  -2   3 4204.58  186.68 
   0  -2  -3 4482.15  191.58 
   0  -2  -3 4185.18  186.28 
   0  -2   3 4153.98  189.88 
   0   2  -3 3987.90  189.28 
   0   2   3 4021.60  189.18 
   0   2   3 4273.07  188.68 
   0   2  -3 4522.95  190.98 
  -2  -2  -3 7731.73  393.66 
   2  -2   3 8693.03  388.16 
   2   2   3 9392.26  389.46 
  -2   2  -3 8993.20  388.86 
   3  -2   3  450.85   25.00 
  -3  -2  -3  469.55   23.60 
   3  -2   3  510.85   27.70 
  -3  -2  -3  457.55   31.00 
  -3   2  -3  418.96   24.40 
   3   2   3  458.05   25.70 
   3   2   3  485.45   30.40 
  -3   2  -3  478.35   31.10 
  -4  -2  -3  162.88   12.30 
   4  -2   3  166.78   12.90 
   4  -2   3  155.88   15.20 
   4  -2   3  160.38   13.60 
  -4  -2  -3  147.49   10.20 
  -4  -2  -3  149.29   11.40 
   4   2   3  149.59   15.40 
   4   2   3  135.49   11.80 
  -5  -2  -3  588.34   35.80 
   5  -2   3  550.54   34.10 
   5  -2   3  532.55   33.50 
  -5  -2  -3  540.45   28.20 
   5  -2   3  490.15   34.60 
   5  -2   3  563.74   47.20 
   5   2   3  484.05   32.10 
   5   2   3  541.95   34.70 
  -5   2  -3  518.75   33.00 
  -5   2  -3  454.75   33.10 
   5   2   3  608.44   36.10 
   5   2   3  495.45   36.20 
   6  -2   3  128.59   15.10 
   6  -2   3  155.78   15.50 
  -6  -2  -3  145.99   10.90 
  -6  -2  -3  130.59   11.30 
   6  -2   3  144.69   14.80 
   6  -2   3  143.29   14.30 
   6   2   3  105.29   14.40 
  -6   2  -3  125.69   14.70 
   6   2   3  136.39   14.70 
   6   2   3  131.79   16.00 
   6   2   3  143.99   14.80 
   6   2   3  135.09   16.20 
   7  -2   3  696.43   41.20 
   7  -2   3  716.13   41.30 
   7   2   3  671.83   40.50 
   7   2   3  640.34   40.70 
   7   2   3  676.73   41.40 
   8  -2   3   26.50    6.50 
   8  -2   3   41.40    7.40 
  -8   2  -3   23.80    5.50 
   8   2   3   32.30    5.70 
   8   2   3   19.20    5.10 
  10  -3  -3   15.80    5.00 
  10  -3  -3   13.30    3.90 
 -10  -3   3   13.40    4.60 
  10   3  -3   14.10    4.10 
  -9  -3   3   59.39    9.70 
   9  -3  -3   59.69    8.50 
   9  -3  -3   61.29   10.40 
  -9  -3   3   66.09    8.20 
  -9   3   3   42.90   12.20 
  -9   3   3   64.79   11.10 
  -9   3   3   54.49    8.00 
   9   3  -3   60.59    7.90 
  -9   3   3   50.19    8.90 
   9   3  -3   64.59   10.00 
  -8  -3   3  280.07   17.30 
  -8  -3   3  296.07   18.60 
   8  -3  -3  365.96   30.40 
   8  -3  -3  279.17   27.90 
  -8   3   3  261.87   22.50 
   7  -3  -3   96.69   10.10 
  -7  -3   3  130.49    9.10 
   7  -3  -3  163.78   14.10 
   7  -3  -3  123.69   12.40 
  -7  -3   3  131.69   10.00 
   7   3  -3  132.79   12.20 
  -7   3   3  121.49   13.50 
  -7   3   3   94.49   14.50 
   7   3  -3  161.18   20.40 
   7   3  -3  121.19   16.40 
  -7   3   3  114.39   14.10 
  -7   3   3  147.49   16.70 
  -7   3   3   99.69   13.70 
   6  -3  -3  152.28   11.00 
  -6  -3   3  156.98    9.80 
   6  -3  -3  152.88   13.20 
  -6  -3   3  158.78   12.00 
  -6  -3   3  147.79   10.80 
  -6  -3   3  159.78   11.90 
   6  -3  -3  152.28   12.20 
   6   3  -3  154.28   16.40 
  -6   3   3  151.48   14.00 
  -6   3   3  148.89   14.70 
   5  -3  -3  976.20   46.90 
  -5  -3   3  909.31   46.30 
  -5  -3   3  935.91   43.80 
   5  -3  -3  918.71   45.00 
   5  -3  -3  913.21   54.69 
  -5  -3   3  971.20   46.30 
  -5   3   3  917.51   50.49 
  -5   3   3  889.61   51.99 
   5   3  -3  901.31   48.90 
   5   3  -3  896.71   51.79 
  -4  -3   3 3779.72  173.08 
  -4  -3   3 3866.01  170.98 
  -4  -3   3 3708.43  173.38 
   4  -3  -3 3986.10  173.58 
   4  -3  -3 4093.49  171.98 
   4   3  -3 3825.22  176.18 
  -4   3   3 3883.21  171.98 
   4   3  -3 3852.01  175.48 
  -4   3   3 3590.94  176.98 
   4   3  -3 3656.33  178.48 
  -4   3   3 3691.13  178.68 
  -3  -3   3 2519.05  115.19 
  -3  -3   3 2202.28  114.49 
  -3  -3   3 2497.55  113.99 
   3  -3  -3 2561.14  120.09 
  -3   3   3 2530.55  113.69 
  -3   3   3 2562.24  119.39 
   3   3  -3 2618.64  115.89 
  -3   3   3 2460.55  117.69 
   2  -3  -3 1910.81   84.79 
  -2  -3   3 1875.51   84.19 
   2  -3  -3 1810.22   89.39 
   2  -3  -3 1712.13   82.49 
   2   3  -3 1800.22   88.49 
   2   3  -3 1825.62   87.09 
  -2   3   3 1865.51   84.89 
  -2   3   3 1900.81   89.39 
  -1  -3   3 2186.58  110.89 
  -1  -3   3 2357.86  112.99 
   1  -3  -3 2537.65  118.09 
  -1  -3   3 2451.35  114.89 
   1  -3  -3 2420.66  109.79 
   1  -3  -3 2687.93  111.99 
   1   3  -3 2382.46  112.49 
  -1   3   3 2637.04  113.09 
  -1   3   3 2289.67  112.29 
   1   3  -3 2509.45  114.69 
   1   3  -3 2673.33  116.49 
   0  -3  -3 1343.17   62.19 
   0  -3   3 1377.56   67.29 
   0  -3  -3 1452.95   63.39 
   0  -3  -3 1444.56   68.69 
   0  -3   3 1301.07   64.09 
   0   3   3 1297.87   66.09 
   0   3  -3 1411.76   66.89 
   0   3  -3 1444.86   67.59 
   0   3   3 1412.26   65.69 
   1  -3   3  220.58   14.20 
   1  -3   3  230.88   15.70 
  -1  -3  -3  248.58   17.40 
  -1   3  -3  281.27   21.00 
   1   3   3  223.28   16.20 
   1   3   3  232.78   14.80 
  -1   3  -3  219.08   15.50 
   2  -3   3  244.68   15.10 
  -2  -3  -3  249.78   13.20 
  -2  -3  -3  221.08   18.90 
   2  -3   3  251.67   17.10 
   2   3   3  252.87   16.10 
  -2   3  -3  257.77   19.90 
  -2   3  -3  254.07   17.10 
   2   3   3  246.38   19.10 
  -2   3  -3  272.57   16.30 
   3  -3   3 1972.10   88.09 
   3  -3   3 1628.24   90.09 
  -3  -3  -3 1596.24   94.09 
   3  -3   3 2125.39   91.29 
   3  -3   3 1815.82   93.89 
  -3  -3  -3 1905.71   85.69 
  -3  -3  -3 2031.10   89.69 
  -3   3  -3 1628.34   87.39 
  -3   3  -3 1911.91   90.59 
  -3   3  -3 1864.21   90.99 
   3   3   3 1859.71   88.99 
   3   3   3 2017.00   96.29 
   4  -3   3  783.22   41.20 
   4  -3   3  700.93   40.50 
   4  -3   3  726.33   44.00 
   4  -3   3  691.73   37.70 
   4  -3   3  682.63   37.00 
  -4  -3  -3  745.73   35.90 
  -4  -3  -3  708.53   37.40 
   4   3   3  718.63   45.70 
  -4   3  -3  690.53   39.70 
   4   3   3  737.23   43.70 
   5  -3   3  564.14   39.80 
  -5  -3  -3  536.65   30.90 
   5  -3   3  540.95   35.90 
   5  -3   3  626.44   37.90 
   5  -3   3  559.54   32.30 
   5  -3   3  577.24   35.10 
  -5  -3  -3  571.24   29.40 
   5   3   3  547.75   34.50 
  -5   3  -3  548.85   31.20 
   5   3   3  510.05   38.90 
  -5   3  -3  521.85   35.90 
   5   3   3  549.35   36.70 
   5   3   3  572.04   37.60 
  -5   3  -3  573.84   35.00 
   6  -3   3 1649.54   80.79 
   6  -3   3 1786.02   82.89 
   6  -3   3 1471.25   79.79 
   6  -3   3 1462.55   78.09 
  -6  -3  -3 1578.94   74.79 
  -6   3  -3 1486.25   73.59 
   6   3   3 1411.66   84.29 
  -6   3  -3 1433.76   79.89 
  -6   3  -3 1550.14   78.99 
   6   3   3 1493.35   78.39 
   6   3   3 1488.85   79.69 
   6   3   3 1570.14   81.49 
   7  -3   3   43.80    7.60 
   7  -3   3   30.60    6.70 
  -7  -3  -3   35.20    5.60 
  -7   3  -3   29.40    6.90 
   7   3   3   35.00    6.80 
   7   3   3   27.80    6.50 
   8  -3   3  120.09   10.60 
   8  -3   3  120.49   10.50 
   8  -3   3  119.29   11.20 
  -8   3  -3  113.19   10.50 
   8   3   3  131.59   11.40 
   8   3   3  103.99    9.60 
  10  -4  -3    3.10    2.70 
  10  -4  -3    4.60    2.90 
 -10  -4   3    1.80    2.90 
 -10   4   3    3.80    2.80 
  10   4  -3    0.50    2.70 
 -10   4   3    9.50    2.60 
   9  -4  -3   72.69   12.80 
   9  -4  -3   71.49   10.60 
  -9  -4   3   75.39    6.80 
  -9  -4   3   70.89    9.40 
   9  -4  -3   54.39    9.60 
  -9   4   3   73.19    8.90 
  -9   4   3   67.29    9.40 
  -9   4   3   71.29    8.60 
   9   4  -3   63.59    7.30 
  -9   4   3   54.79    8.00 
   9   4  -3   65.89    9.00 
  -9   4   3   59.89    9.70 
  -8  -4   3  884.51   45.00 
  -8  -4   3  857.41   43.90 
   8  -4  -3  837.72   47.90 
   8  -4  -3  920.61   53.79 
   8   4  -3  953.70   47.40 
  -8   4   3  917.11   48.80 
  -8   4   3  875.51   49.20 
  -8   4   3  901.41   49.70 
  -8   4   3  893.01   49.00 
  -8   4   3  815.72   50.69 
   8   4  -3  979.70   51.69 
  -8   4   3  890.11   51.79 
  -7  -4   3 1098.59   51.89 
   7  -4  -3 1009.10   55.69 
   7  -4  -3 1041.50   52.49 
  -7  -4   3 1033.90   50.29 
   7  -4  -3 1101.59   54.89 
   7  -4  -3 1018.10   55.89 
   7   4  -3 1039.20   57.89 
  -7   4   3 1019.60   59.09 
  -7   4   3 1044.20   57.09 
  -7   4   3 1029.50   59.19 
  -7   4   3 1025.60   54.59 
  -7   4   3 1071.89   57.99 
   7   4  -3 1041.50   61.99 
  -7   4   3 1043.80   56.69 
   7   4  -3 1101.59   54.59 
  -7   4   3 1008.60   55.29 
  -7   4   3 1031.10   56.79 
  -6  -4   3  460.55   23.60 
   6  -4  -3  445.46   25.20 
   6  -4  -3  475.05   27.30 
  -6  -4   3  474.15   26.10 
  -6  -4   3  450.55   25.70 
   6  -4  -3  469.45   36.00 
   6   4  -3  433.06   33.10 
  -6   4   3  422.76   30.10 
  -6   4   3  454.45   29.60 
  -6   4   3  446.06   29.30 
   6   4  -3  439.66   28.60 
   6   4  -3  488.05   28.30 
  -6   4   3  438.16   31.30 
  -6   4   3  438.96   28.50 
  -5  -4   3   80.89    8.50 
  -5  -4   3   84.89    6.50 
   5  -4  -3   80.29    8.40 
   5  -4  -3  102.79    9.40 
  -5  -4   3   83.59    7.60 
  -5  -4   3   88.99    8.30 
   5   4  -3   84.89   11.90 
  -5   4   3  113.39   12.90 
  -5   4   3  101.49   11.10 
  -4  -4   3   70.29    7.10 
  -4  -4   3   72.09    7.40 
  -4  -4   3   69.39    5.60 
   4  -4  -3   76.99    6.20 
   4  -4  -3   80.79    7.70 
  -4   4   3   72.29    9.40 
  -4   4   3   72.79    9.60 
   4   4  -3   86.09   10.80 
   4   4  -3   78.69    7.90 
   4   4  -3   96.89    9.60 
  -3  -4   3 1005.00   47.40 
   3  -4  -3  990.40   45.40 
   3  -4  -3  937.01   53.89 
   3  -4  -3  994.70   47.80 
  -3  -4   3  977.80   45.40 
   3   4  -3  961.90   48.90 
  -3   4   3  893.71   51.09 
   3   4  -3  932.01   52.69 
   3   4  -3  972.90   50.59 
  -3   4   3  987.80   53.69 
   2  -4  -3  332.27   23.40 
   2  -4  -3  328.17   16.20 
  -2  -4   3  332.57   17.20 
   2  -4  -3  342.17   18.80 
  -2  -4   3  335.07   18.10 
   2   4  -3  316.17   20.90 
  -2   4   3  308.17   21.10 
  -2   4   3  333.17   23.10 
   2   4  -3  341.97   22.80 
   2   4  -3  311.77   20.10 
  -2   4   3  355.46   19.20 
   1  -4  -3    7.00    2.10 
  -1  -4   3   10.40    2.30 
  -1  -4   3    6.00    3.10 
   1  -4  -3    5.90    3.80 
  -1  -4   3    7.60    1.70 
   1  -4  -3    6.30    1.00 
   1   4  -3    5.90    3.10 
   1   4  -3    9.50    3.00 
  -1   4   3   10.70    2.70 
   1   4  -3    3.30    2.30 
   0  -4  -3 2023.10   83.89 
   0  -4   3 1738.63   83.99 
   0  -4  -3 1839.22   89.79 
   0  -4   3 1863.71   82.39 
   0  -4   3 1798.72   88.19 
   0   4  -3 1792.32   87.99 
   0   4   3 1671.53   86.59 
   0   4  -3 1765.52   87.69 
   0   4   3 1907.51   86.59 
   0   4  -3 1849.81   87.79 
  -1  -4  -3  503.55   24.40 
  -1  -4  -3  559.94   32.50 
   1  -4   3  539.75   30.50 
   1  -4   3  519.15   27.20 
  -1   4  -3  489.85   30.10 
  -1   4  -3  525.35   29.70 
  -1   4  -3  520.35   32.60 
   1   4   3  560.74   29.20 
   1   4   3  479.55   30.60 
   2  -4   3 1679.93   94.89 
  -2  -4  -3 2031.80   89.29 
   2  -4   3 2069.49   92.49 
   2  -4   3 2119.59   95.99 
  -2  -4  -3 1812.62   98.89 
  -2   4  -3 1977.90   95.99 
   2   4   3 1997.40   94.19 
  -2   4  -3 2122.69   94.69 
   2   4   3 1902.51   98.49 
   3  -4   3  711.63   37.80 
  -3  -4  -3  682.83   31.90 
   3  -4   3  654.33   34.70 
  -3  -4  -3  688.63   36.90 
   3  -4   3  569.54   39.30 
   3  -4   3  560.54   37.20 
  -3   4  -3  636.94   37.60 
   3   4   3  644.04   41.90 
   3   4   3  678.93   36.30 
  -3   4  -3  648.84   37.30 
  -3   4  -3  623.34   35.20 
   3   4   3  668.83   40.70 
   4  -4   3 1633.44   77.39 
   4  -4   3 1510.45   80.49 
  -4  -4  -3 1651.53   74.69 
   4  -4   3 1542.65   76.99 
   4  -4   3 1771.72   81.19 
   4  -4   3 1513.05   83.89 
  -4   4  -3 1542.45   77.99 
   4   4   3 1578.34   87.69 
  -4   4  -3 1606.84   80.99 
   4   4   3 1649.83   84.89 
  -4   4  -3 1599.74   77.39 
  -4   4  -3 1621.14   81.29 
  -4   4  -3 1391.86   83.89 
  -4   4  -3 1561.34   80.09 
   4   4   3 1688.23   98.29 
  -4   4  -3 1575.34   79.09 
   5  -4   3  720.93   44.40 
   5  -4   3  758.62   42.90 
   5  -4   3  754.72   41.20 
  -5  -4  -3  783.42   37.20 
  -5  -4  -3  714.63   38.60 
   5  -4   3  770.92   45.80 
   5   4   3  692.43   44.20 
   5   4   3  721.13   45.50 
  -5   4  -3  733.23   39.60 
   5   4   3  653.93   47.40 
  -5   4  -3  717.83   42.60 
  -5   4  -3  652.13   43.90 
   5   4   3  735.43   42.80 
  -6  -4  -3  455.55   25.80 
  -6  -4  -3  448.56   24.30 
   6  -4   3  460.55   31.10 
   6  -4   3  461.25   30.40 
  -6   4  -3  416.86   24.90 
  -6   4  -3  439.56   28.60 
   6   4   3  439.06   30.90 
  -6   4  -3  412.96   29.80 
   6   4   3  412.36   28.30 
  -7  -4  -3  150.68   11.00 
   7  -4   3  153.98   12.70 
   7  -4   3  166.28   14.80 
   7  -4   3  167.18   14.10 
   7   4   3  135.09   12.70 
   7   4   3  141.39   14.00 
  -7   4  -3  121.89   13.10 
   8  -4   3   26.30    5.70 
   8  -4   3   20.90    4.10 
   8   4   3   16.00    4.20 
   8   4   3   25.60    5.80 
  -8   4  -3   27.30    4.90 
   9  -5  -3   11.40    6.50 
  -9  -5   3   13.00    2.90 
   9  -5  -3    9.60    5.90 
  -9   5   3    8.90    3.50 
  -9   5   3   12.40    3.70 
  -9   5   3   12.60    4.40 
   9   5  -3   11.30    3.70 
  -9   5   3   17.10    5.70 
  -9   5   3   10.50    3.90 
  -8  -5   3    7.00    2.60 
  -8  -5   3    4.50    2.60 
   8  -5  -3    7.10    5.10 
   8   5  -3    5.80    4.30 
  -8   5   3   16.10    4.30 
  -8   5   3    6.90    5.80 
  -8   5   3   16.80    4.90 
  -8   5   3    3.40    4.30 
  -8   5   3   12.60    4.70 
   7  -5  -3  124.79   13.40 
  -7  -5   3  141.89   10.60 
   7  -5  -3  128.69   13.30 
   7  -5  -3  151.58   12.80 
   7   5  -3  131.19   15.00 
  -7   5   3  133.19   14.00 
  -7   5   3  142.09   13.70 
  -7   5   3  125.99   19.90 
  -7   5   3  115.39   15.70 
   7   5  -3  144.89   12.20 
  -7   5   3  140.49   13.30 
   7   5  -3  147.99   17.20 
  -7   5   3  131.89   14.40 
  -7   5   3  133.09   14.20 
   6  -5  -3  373.66   22.20 
   6  -5  -3  363.76   25.40 
  -6  -5   3  390.26   22.10 
   6  -5  -3  372.96   24.20 
   6  -5  -3  388.76   25.50 
  -6  -5   3  401.96   20.70 
  -6   5   3  389.36   28.90 
  -6   5   3  366.06   26.30 
  -6   5   3  354.66   25.20 
  -6   5   3  382.36   27.60 
   6   5  -3  394.56   31.20 
  -6   5   3  372.06   27.00 
  -6   5   3  344.27   27.80 
   6   5  -3  354.66   27.00 
  -6   5   3  415.36   27.10 
  -6   5   3  398.56   26.10 
   6   5  -3  426.76   25.20 
  -5  -5   3   19.00    4.20 
   5  -5  -3   20.60    4.90 
  -5  -5   3   14.10    2.60 
   5  -5  -3   17.70    3.90 
   5  -5  -3   14.90    4.50 
  -5  -5   3   21.90    4.20 
   5   5  -3   11.70    4.60 
  -5   5   3   17.10    5.90 
  -5   5   3   11.40    5.60 
   5   5  -3   11.10    5.60 
  -5   5   3   17.70    5.50 
  -5   5   3   11.60    5.70 
   5   5  -3   14.70    6.00 
  -5   5   3   15.90    8.90 
   4  -5  -3  490.35   28.10 
   4  -5  -3  526.05   25.90 
  -4  -5   3  460.15   27.80 
  -4  -5   3  493.05   27.70 
  -4  -5   3  485.85   24.90 
  -4  -5   3  478.55   26.60 
   4   5  -3  470.95   30.30 
  -4   5   3  475.25   32.50 
   4   5  -3  471.65   33.90 
   4   5  -3  512.45   28.70 
  -4   5   3  529.05   32.90 
  -3  -5   3  250.17   15.80 
  -3  -5   3  251.77   13.70 
   3  -5  -3  249.18   13.70 
   3   5  -3  246.28   20.70 
   3   5  -3  244.68   17.10 
  -3   5   3  229.18   19.30 
  -3   5   3  226.88   19.30 
   3   5  -3  219.28   19.00 
   2  -5  -3 1138.19   50.19 
   2  -5  -3 1099.49   53.69 
  -2  -5   3 1073.99   52.49 
  -2   5   3 1069.29   53.89 
  -2   5   3 1161.38   59.89 
  -2   5   3 1015.90   56.79 
   2   5  -3 1077.09   57.09 
  -1  -5   3   54.49    5.30 
  -1  -5   3   60.19    8.30 
   1  -5  -3   51.59    5.90 
   1  -5  -3   57.49    3.50 
  -1   5   3   51.79    7.90 
   1   5  -3   59.99    7.80 
  -1   5   3   66.39    7.10 
  -1   5   3   60.09    9.90 
   1   5  -3   59.19    8.40 
   0  -5  -3  272.47   13.20 
   0  -5   3  270.97   18.00 
   0   5  -3  290.27   19.90 
   0   5   3  283.87   18.30 
   0   5   3  248.78   18.50 
   0   5   3  306.47   22.70 
   1  -5   3  116.59   12.80 
  -1  -5  -3  141.29    8.30 
   1  -5   3  142.69   10.30 
   1  -5   3  144.19   13.10 
   1   5   3  147.49   12.00 
   1   5   3  135.29   14.30 
   1   5   3  130.99   13.50 
  -1   5  -3  131.89   14.70 
  -1   5  -3  149.09   13.40 
  -1   5  -3  146.59   12.60 
   2  -5   3  370.76   26.80 
   2  -5   3  415.86   23.80 
   2  -5   3  444.66   27.40 
   2  -5   3  367.66   28.00 
  -2  -5  -3  397.86   25.60 
  -2  -5  -3  432.86   20.60 
   2   5   3  414.06   25.50 
  -2   5  -3  436.56   26.20 
   2   5   3  438.76   29.60 
   2   5   3  388.36   28.90 
  -2   5  -3  402.76   26.00 
  -2   5  -3  415.96   27.50 
  -3  -5  -3 2096.69  115.89 
   3  -5   3 2095.69  116.19 
  -3  -5  -3 2378.06  109.29 
   3  -5   3 2484.55  113.09 
   3  -5   3 2551.14  116.79 
   3   5   3 2370.66  119.99 
   3   5   3 2385.96  122.69 
  -3   5  -3 2451.55  115.89 
  -3   5  -3 2510.15  114.79 
   3   5   3 2620.84  122.89 
  -3   5  -3 2448.16  116.69 
   4  -5   3  318.87   20.20 
   4  -5   3  274.87   23.60 
   4  -5   3  301.57   20.50 
   4  -5   3  354.86   23.10 
   4  -5   3  291.77   22.40 
   4  -5   3  301.57   25.30 
  -4  -5  -3  328.87   17.60 
  -4  -5  -3  301.17   18.80 
   4   5   3  305.67   23.20 
   4   5   3  306.87   25.60 
  -4   5  -3  327.37   20.60 
  -4   5  -3  266.17   21.70 
  -4   5  -3  295.67   22.20 
  -4   5  -3  271.27   24.30 
  -4   5  -3  314.27   22.80 
   4   5   3  288.97   26.70 
  -4   5  -3  320.37   21.00 
   5  -5   3  726.83   41.00 
   5  -5   3  678.03   38.80 
  -5  -5  -3  759.42   36.70 
  -5  -5  -3  713.73   38.30 
   5  -5   3  778.62   45.40 
   5  -5   3  705.63   43.50 
  -5   5  -3  712.33   39.50 
  -5   5  -3  704.73   44.50 
   5   5   3  791.32   46.00 
  -5   5  -3  732.13   41.90 
  -5   5  -3  680.03   40.90 
   5   5   3  729.43   42.50 
  -5   5  -3  701.53   39.00 
   6  -5   3  133.59   13.20 
  -6  -5  -3  127.79   13.50 
   6  -5   3  107.19   10.30 
  -6  -5  -3  117.79   10.00 
   6  -5   3   89.09   13.30 
  -6   5  -3  112.99   11.70 
  -6   5  -3  109.69   13.00 
   6   5   3  118.19   11.90 
   6   5   3  114.09   13.00 
  -6   5  -3  114.59    9.50 
   7  -5   3   20.20    3.50 
   7  -5   3   23.50    7.00 
  -7  -5  -3   32.50    4.40 
   7  -5   3   32.10    5.90 
  -7   5  -3   25.30    4.00 
  -7   5  -3   34.30    6.00 
   7   5   3   26.50    5.10 
   7   5   3   31.70    5.90 
   9  -6  -3  128.79   13.20 
   9  -6  -3  129.79   12.40 
  -9   6   3  138.99   13.00 
   9   6  -3  165.68   12.90 
  -9   6   3  186.58   14.00 
   8  -6  -3    6.00    4.10 
   8  -6  -3    0.20    4.30 
   8  -6  -3    0.50    3.70 
  -8  -6   3    3.30    1.80 
  -8   6   3    1.10    3.80 
  -8   6   3    7.60    4.80 
  -8   6   3    3.20    4.60 
   8   6  -3    2.90    2.30 
   8   6  -3    5.90    4.40 
  -8   6   3   -3.70    2.70 
  -8   6   3    6.00    3.20 
  -8   6   3    2.90    3.00 
  -8   6   3    4.60    2.90 
   7  -6  -3  129.29   12.70 
  -7  -6   3  135.19   10.10 
  -7  -6   3  125.59    9.20 
  -7   6   3  126.79   14.50 
   7   6  -3  150.28   16.50 
  -7   6   3  134.09   12.90 
  -7   6   3  157.68   20.00 
  -7   6   3  132.59   15.10 
  -7   6   3  129.89   13.10 
   7   6  -3  130.29   13.40 
   6  -6  -3  106.09   11.10 
  -6  -6   3   97.39    8.30 
   6  -6  -3   77.89    8.70 
  -6  -6   3  121.69   10.30 
  -6   6   3   77.09   13.40 
  -6   6   3   84.59   11.20 
  -6   6   3  104.29   12.20 
   6   6  -3  110.39   10.70 
  -6   6   3   95.59   10.90 
  -6   6   3  100.19   12.50 
   6   6  -3  103.39   21.20 
  -6   6   3   96.19   11.80 
  -6   6   3   88.69   13.00 
  -5  -6   3  234.58   16.10 
  -5  -6   3  213.88   13.20 
   5  -6  -3  215.98   16.50 
   5  -6  -3  229.08   17.10 
   5  -6  -3  225.88   14.60 
  -5  -6   3  218.48   14.60 
  -5   6   3  233.38   18.80 
  -5   6   3  219.98   19.20 
  -5   6   3  223.08   20.60 
  -5   6   3  247.58   21.80 
   5   6  -3  220.28   17.40 
  -5   6   3  231.58   19.20 
  -5   6   3  210.78   19.20 
   5   6  -3  204.08   21.70 
  -4  -6   3  167.78   10.90 
  -4  -6   3  157.18   13.50 
   4  -6  -3  167.78   14.10 
   4  -6  -3  171.98   13.90 
   4  -6  -3  186.78   11.80 
  -4  -6   3  181.18   12.80 
  -4   6   3  166.18   17.80 
   4   6  -3  171.58   18.80 
  -4   6   3  169.58   17.90 
  -4   6   3  196.48   16.90 
   4   6  -3  180.08   14.10 
  -4   6   3  193.18   17.90 
  -4   6   3  186.58   16.10 
   4   6  -3  159.28   14.50 
  -4   6   3  176.38   17.00 
  -3  -6   3  189.18   13.30 
   3  -6  -3  184.38   14.30 
   3  -6  -3  200.18   11.70 
  -3  -6   3  183.78   11.40 
  -3   6   3  180.68   18.10 
  -3   6   3  200.98   16.70 
   3   6  -3  157.78   15.50 
   3   6  -3  187.38   18.80 
  -3   6   3  181.58   17.40 
   3   6  -3  181.38   16.50 
   3   6  -3  188.58   15.10 
  -3   6   3  190.98   17.40 
  -3   6   3  183.88   16.60 
  -2  -6   3  179.38   11.10 
   2  -6  -3  184.88   13.30 
  -2  -6   3  181.58   16.90 
   2  -6  -3  158.28   10.00 
   2   6  -3  196.98   18.10 
   2   6  -3  166.98   15.50 
   2   6  -3  181.78   15.00 
  -2   6   3  200.18   17.60 
  -2   6   3  165.58   15.50 
  -1  -6   3  202.78   18.00 
  -1  -6   3  197.78   12.70 
   1  -6  -3  210.78   14.10 
   1  -6  -3  195.58   10.40 
   1   6  -3  239.68   20.00 
  -1   6   3  182.08   16.10 
  -1   6   3  220.48   19.10 
   1   6  -3  206.98   16.70 
   1   6  -3  189.38   16.90 
   0  -6   3  312.37   22.80 
   0  -6   3  297.07   17.40 
   0  -6  -3  282.37   14.30 
   0  -6  -3  269.37   19.70 
   0   6  -3  296.07   21.30 
   0   6  -3  291.77   21.70 
   0   6   3  306.57   24.60 
   0   6   3  296.77   20.20 
   1  -6   3 2132.79  117.89 
   1  -6   3 2717.13  121.19 
   1  -6   3 2579.74  114.59 
  -1  -6  -3 2076.49  110.19 
   1   6   3 2616.64  123.59 
   1   6   3 2598.34  122.69 
  -1   6  -3 2667.33  119.59 
  -1   6  -3 2186.08  122.69 
  -1   6  -3 2442.76  116.49 
   1   6   3 2489.65  119.99 
  -1   6  -3 2588.44  119.49 
   2  -6   3 3836.72  203.98 
   2  -6   3 4542.75  205.48 
  -2  -6  -3 4551.64  196.38 
   2  -6   3 3781.42  205.28 
   2  -6   3 4581.54  200.48 
   2   6   3 4754.72  209.78 
   2   6   3 4783.52  213.18 
  -2   6  -3 4100.89  207.38 
  -2   6  -3 4505.05  206.48 
   2   6   3 4365.26  205.78 
   2   6   3 4548.25  208.88 
  -2   6  -3 4242.58  202.48 
  -2   6  -3 4241.98  201.88 
  -2   6  -3 4609.54  204.08 
  -2   6  -3 4336.57  204.38 
   3  -6   3 1219.78   69.99 
   3  -6   3 1196.98   68.09 
  -3  -6  -3 1271.77   60.59 
   3  -6   3 1408.96   68.59 
   3  -6   3 1386.06   64.59 
  -3   6  -3 1251.87   66.49 
  -3   6  -3 1309.77   65.79 
  -3   6  -3 1278.17   67.39 
  -3   6  -3 1262.27   66.29 
   3   6   3 1219.78   72.69 
  -3   6  -3 1395.86   66.89 
  -3   6  -3 1313.97   69.29 
   3   6   3 1326.37   69.29 
   3   6   3 1340.57   72.09 
  -3   6  -3 1246.78   70.99 
  -4  -6  -3  263.17   15.20 
   4  -6   3  283.57   22.90 
  -4  -6  -3  243.98   16.30 
   4  -6   3  258.17   21.20 
   4  -6   3  264.37   17.70 
   4  -6   3  253.77   20.10 
  -4   6  -3  252.77   20.60 
  -4   6  -3  280.67   18.60 
  -4   6  -3  250.57   19.30 
  -4   6  -3  258.07   22.30 
  -4   6  -3  250.27   19.50 
   4   6   3  270.97   23.70 
   4   6   3  256.87   20.80 
   5  -6   3  119.59   12.20 
   5  -6   3  115.49   20.60 
  -5  -6  -3  144.89   11.50 
   5   6   3  108.89   13.70 
  -5   6  -3  108.99   16.20 
  -5   6  -3  106.99   10.00 
  -5   6  -3  108.19   11.50 
  -5   6  -3   91.29   11.30 
   5   6   3  104.49   13.90 
  -5   6  -3  103.89   10.40 
  -6  -6  -3   42.80    5.20 
   6  -6   3   35.40    6.10 
   6  -6   3   25.50    7.00 
   6  -6   3   33.60    8.90 
   6   6   3   41.80    6.40 
  -6   6  -3   37.70    5.40 
  -6   6  -3   27.40    6.50 
   6   6   3   48.80    8.70 
   8  -7  -3   13.60    5.00 
  -8  -7   3   19.70    3.00 
   8  -7  -3   25.70    6.00 
   8  -7  -3   10.20    5.70 
  -8   7   3   18.60    4.50 
  -8   7   3   18.00    3.20 
   8   7  -3   28.90    6.10 
  -8   7   3   22.50    4.60 
  -8   7   3   17.00    3.50 
  -7  -7   3   23.60    3.60 
  -7   7   3   17.20    4.80 
  -7   7   3   27.00    5.20 
   7   7  -3   23.80    4.60 
  -7   7   3   16.10    4.80 
  -7   7   3   16.40    6.50 
  -7   7   3   18.20    4.50 
  -7   7   3   18.30    7.20 
  -6  -7   3    9.70    2.60 
   6  -7  -3    3.50    2.70 
  -6  -7   3    4.40    3.20 
   6   7  -3    0.90    2.70 
  -6   7   3    3.80    5.10 
  -6   7   3   10.90    3.80 
  -6   7   3    7.00    3.60 
  -6   7   3   12.00    4.20 
  -6   7   3    4.90    5.20 
  -6   7   3    3.30    3.90 
  -5  -7   3  164.78   12.00 
   5  -7  -3  167.78   14.20 
  -5  -7   3  186.78   11.10 
   5  -7  -3  185.08   12.50 
  -5   7   3  179.48   16.20 
  -5   7   3  188.08   17.50 
  -5   7   3  163.48   16.10 
  -5   7   3  185.48   17.60 
  -5   7   3  179.08   16.60 
   5   7  -3  193.58   15.10 
  -5   7   3  190.98   16.30 
   4  -7  -3   47.20    7.10 
  -4  -7   3   40.40   10.70 
  -4  -7   3   44.30    5.70 
  -4  -7   3   51.09   11.30 
  -4  -7   3   45.10    4.70 
   4  -7  -3   56.79    5.50 
   4  -7  -3   51.89    7.40 
  -4   7   3   58.19    9.80 
  -4   7   3   51.19    8.90 
  -4   7   3   59.19   11.20 
  -4   7   3   34.80    7.60 
   4   7  -3   45.40    8.10 
   4   7  -3   59.09   11.20 
   3  -7  -3  119.69    8.40 
  -3  -7   3   91.59   10.70 
  -3  -7   3  122.09   10.60 
  -3  -7   3  116.99   14.10 
   3  -7  -3  104.89   11.00 
  -3  -7   3  116.09    8.30 
  -3   7   3  110.19   14.20 
  -3   7   3  133.19   14.40 
   3   7  -3  136.99   12.40 
   3   7  -3  125.59   13.30 
  -3   7   3  130.99   15.50 
   3   7  -3  128.39   11.90 
   3   7  -3  113.09   13.20 
  -3   7   3  116.59   13.60 
   3   7  -3  127.39   14.80 
  -3   7   3  136.49   14.40 
  -3   7   3  125.79   14.70 
   2  -7  -3  141.89    9.20 
  -2  -7   3  167.48   16.70 
   2  -7  -3  167.58   13.20 
  -2  -7   3  151.38   10.10 
  -2   7   3  156.78   16.80 
  -2   7   3  142.89   14.90 
   2   7  -3  137.39   14.20 
   2   7  -3  160.28   17.30 
   2   7  -3  137.09   12.70 
  -2   7   3  154.98   16.20 
  -2   7   3  172.18   16.10 
  -2   7   3  151.68   15.70 
  -2   7   3  129.09   14.90 
   2   7  -3  145.19   14.60 
  -2   7   3  154.68   15.80 
   2   7  -3  153.98   14.10 
  -1  -7   3  531.45   34.40 
   1  -7  -3  489.35   24.30 
  -1  -7   3  501.85   26.50 
  -1   7   3  523.85   34.80 
  -1   7   3  500.05   31.40 
  -1   7   3  515.15   33.60 
   1   7  -3  458.75   32.30 
   1   7  -3  520.35   30.80 
   1   7  -3  519.15   32.10 
   1   7  -3  502.25   32.50 
  -1   7   3  484.85   33.70 
  -1   7   3  524.75   32.50 
   0  -7  -3 1381.16   67.09 
   0  -7   3 1600.64   70.99 
   0  -7   3 1595.44   78.89 
   0  -7   3 1341.77   74.29 
   0   7   3 1537.25   78.49 
   0   7   3 1494.65   76.09 
   0   7  -3 1349.56   77.29 
   0   7   3 1562.34   79.49 
   0   7  -3 1497.85   76.39 
   0   7  -3 1504.15   75.59 
   0   7  -3 1431.76   72.39 
   0   7  -3 1530.25   77.29 
   1  -7   3  591.24   39.00 
   1  -7   3  700.63   41.80 
   1  -7   3  714.03   36.00 
  -1  -7  -3  617.94   32.20 
   1   7   3  753.12   42.50 
  -1   7  -3  670.33   37.40 
   1   7   3  692.23   43.70 
  -1   7  -3  725.03   40.40 
  -1   7  -3  682.43   43.80 
  -1   7  -3  709.63   41.80 
  -1   7  -3  707.33   40.40 
   1   7   3  725.73   48.20 
   1   7   3  664.93   42.10 
   2  -7   3  905.81   52.29 
  -2   7  -3  918.01   54.99 
   2   7   3  953.00   53.19 
  -2   7  -3  970.40   51.79 
  -2   7  -3  954.90   49.99 
   2   7   3  993.50   55.19 
  -2   7  -3  990.50   52.59 
  -3  -7  -3  407.86   22.70 
   3  -7   3  422.66   28.80 
   3  -7   3  494.75   26.30 
   3   7   3  438.76   30.50 
   3   7   3  473.25   29.90 
  -3   7  -3  446.26   28.50 
  -3   7  -3  432.96   33.30 
  -3   7  -3  462.75   27.10 
  -3   7  -3  484.65   30.60 
  -3   7  -3  436.06   31.30 
   4  -7   3  212.98   17.40 
  -4  -7  -3  182.98   11.60 
  -4  -7  -3  182.28   12.70 
   4  -7   3  210.98   18.90 
   4  -7   3  194.98   16.00 
  -4   7  -3  201.78   14.60 
   4   7   3  209.08   16.80 
  -4   7  -3  200.58   17.90 
  -4   7  -3  189.98   15.00 
   4   7   3  199.98   17.90 
  -4   7  -3  190.08   16.30 
  -4   7  -3  191.48   15.00 
   5  -7   3  104.59   11.40 
   5  -7   3  107.29   10.30 
   5   7   3  104.89   13.50 
  -5   7  -3  108.79    9.10 
  -5   7  -3  106.99   11.90 
  -5   7  -3  120.39    9.80 
  -6  -7  -3   23.30    4.60 
   6  -7   3   17.10    3.70 
   6   7   3   34.10    5.90 
  -6   7  -3   24.00    3.50 
   7  -8  -3    9.40    5.10 
  -7  -8   3   15.20    3.70 
  -7   8   3   11.80    3.10 
  -7   8   3   16.20    4.60 
  -7   8   3    5.90    3.00 
   7   8  -3   14.60    2.70 
  -7   8   3   13.80    3.50 
  -6  -8   3  147.79    9.40 
   6  -8  -3  145.59   12.20 
   6  -8  -3  115.19   12.20 
  -6   8   3  141.49   15.30 
  -6   8   3  103.69   13.20 
  -6   8   3  170.48   18.20 
  -6   8   3  137.39   10.90 
  -6   8   3  153.58   13.80 
   6   8  -3  157.28   10.50 
  -5  -8   3   21.20    3.60 
   5  -8  -3   22.50    4.90 
  -5   8   3   15.40    4.70 
  -5   8   3   19.10    6.60 
  -5   8   3   13.30    5.00 
   5   8  -3   30.20    5.20 
  -5   8   3   24.70    6.90 
  -5   8   3   19.20    5.30 
  -5   8   3   20.70    5.20 
  -4  -8   3    5.90    2.50 
   4  -8  -3   12.60    2.60 
  -4  -8   3    7.40    2.00 
  -4   8   3    2.90    5.10 
  -4   8   3    6.20    4.10 
  -4   8   3   10.70    4.50 
  -4   8   3   -1.00    3.10 
  -4   8   3   15.40    4.90 
   4   8  -3    9.10    3.80 
  -3  -8   3  319.77   17.70 
  -3  -8   3  272.97   21.10 
   3  -8  -3  316.07   17.70 
  -3   8   3  324.07   24.60 
   3   8  -3  355.66   22.00 
  -3   8   3  369.96   23.90 
  -3   8   3  347.07   24.50 
  -3   8   3  362.36   24.90 
   3   8  -3  349.77   23.10 
  -3   8   3  343.87   25.40 
  -2  -8   3  541.55   29.20 
  -2  -8   3  622.84   32.60 
   2   8  -3  559.24   32.20 
  -2   8   3  558.04   34.60 
   2   8  -3  562.04   35.00 
  -2   8   3  587.44   35.00 
  -2   8   3  628.14   36.50 
  -2   8   3  618.54   37.10 
   2   8  -3  577.14   34.10 
  -2   8   3  618.64   36.80 
   1  -8  -3  600.64   28.90 
  -1  -8   3  577.04   30.70 
  -1  -8   3  628.24   34.20 
   1   8  -3  614.24   36.30 
  -1   8   3  649.34   38.00 
  -1   8   3  612.84   38.10 
  -1   8   3  660.03   37.40 
   1   8  -3  628.34   35.00 
  -1   8   3  597.34   35.00 
   1   8  -3  560.64   36.70 
   0  -8   3  357.16   20.80 
   0  -8   3  372.36   24.20 
   0   8   3  384.76   30.10 
   0   8  -3  369.06   24.40 
   0   8  -3  426.56   26.70 
   0   8  -3  356.96   22.30 
   0   8  -3  397.36   27.30 
   1  -8   3  288.67   16.00 
   1  -8   3  216.78   17.90 
   1   8   3  254.87   19.90 
  -1   8  -3  284.27   19.70 
   1   8   3  246.48   20.70 
  -1   8  -3  270.97   20.60 
  -1   8  -3  228.48   20.20 
   2  -8   3  169.18   14.50 
   2  -8   3  180.78   12.30 
   2   8   3  179.88   15.30 
   2   8   3  172.98   16.90 
  -2   8  -3  170.98   16.30 
  -2   8  -3  167.98   14.50 
  -2   8  -3  181.48   13.50 
   3  -8   3  143.69   12.60 
   3   8   3  150.78   13.40 
  -3   8  -3  159.58   12.50 
   3   8   3  130.29   18.20 
  -3   8  -3  127.89   12.90 
  -3   8  -3  141.19   11.30 
  -3   8  -3  139.59   14.20 
   4  -8   3  135.19   10.70 
  -4  -8  -3  119.19    8.60 
  -4   8  -3  118.79    9.80 
   4   8   3  124.29   10.80 
  -4   8  -3  127.49   12.00 
  -4   8  -3  116.39    9.30 
  -5  -9   3   30.40    3.50 
  -5   9   3   22.90    5.50 
  -5   9   3   30.60    5.30 
   5   9  -3   24.20    4.30 
  -5   9   3   43.40    7.60 
  -5   9   3   27.20    4.00 
  -4  -9   3   22.40    3.40 
  -4   9   3   37.30    5.20 
  -4   9   3   31.20    5.80 
   4   9  -3   34.90    4.90 
  -4   9   3   32.80    5.60 
  -4   9   3   27.90    5.20 
  -3  -9   3   31.60    4.10 
  -3   9   3   24.50    5.70 
   3   9  -3   16.30    5.80 
  -3   9   3   34.10    6.00 
  -3   9   3   26.90    5.20 
  -3   9   3   23.40    4.90 
  -2  -9   3   55.59    5.90 
  -2   9   3   63.09    7.40 
  -2   9   3   45.50    8.40 
  -2   9   3   54.39    7.90 
   2   9  -3   43.90    6.40 
  -2   9   3   71.29    9.90 
   2   9  -3   62.89    7.80 
  -1  -9   3  244.88   21.00 
  -1  -9   3  251.17   17.80 
   1   9  -3  218.98   19.10 
   1   9  -3  257.97   18.60 
   1   9  -3  275.47   18.60 
   0   9  -3  153.38   12.20 
   0   9  -3  143.69   13.30 
   0   9  -3  151.18   13.00 
   1  -9   3  142.59   11.10 
  -1   9  -3  105.29   14.50 
  -1   9  -3  176.78   19.10 
  -1   9  -3  147.49   10.20 
   2  -9   3    7.70    2.80 
  -2   9  -3    7.90    2.70 
  -2   9  -3    2.40    2.90 
  -2   9  -3    2.90    2.50 
  -3   9  -3  253.97   15.20 
  -3   9  -3  237.08   15.70 
  -3   9  -3  228.98   17.10 
  11   0  -4   38.90    6.10 
 -11   0   4   35.10    5.70 
  10   0  -4   79.89    9.70 
 -10   0   4   79.99   10.00 
  10   0  -4   60.69    9.20 
   9   0  -4  117.69   13.50 
  -9   0   4  145.39   13.90 
  -9   0   4   98.89   12.20 
   8   0  -4   62.59   12.10 
   8   0  -4   69.69   10.60 
   8   0  -4   56.39    8.60 
  -8   0   4   52.89    8.90 
  -8   0   4   64.29    9.90 
  -8   0   4   76.89   10.40 
   8   0  -4   64.29   10.00 
   7   0  -4  341.37   23.30 
  -7   0   4  342.57   23.00 
  -7   0   4  341.67   20.50 
   6   0  -4  236.58   17.40 
  -6   0   4  244.78   15.30 
  -6   0   4  256.57   17.50 
  -5   0   4 5518.25  251.97 
  -5   0   4 5803.62  254.27 
  -5   0   4 5736.23  253.87 
   5   0  -4 5456.85  254.87 
   5   0  -4 5559.04  253.67 
   4   0  -4  113.19    8.70 
   4   0  -4  101.09    9.90 
   4   0  -4  116.39    7.70 
   3   0  -4 5584.24  237.48 
  -3   0   4 5343.56  235.08 
   3   0  -4 5416.16  237.38 
  -3   0   4 4828.62  234.48 
   3   0  -4 5133.29  235.28 
  -2   0   4  232.28   12.40 
   2   0  -4  220.98   13.60 
  -2   0   4  222.18   12.30 
   1   0  -4 1200.48   55.29 
  -1   0   4 1206.88   56.19 
   1   0  -4 1061.39   56.19 
   1   0  -4 1293.27   59.49 
  -1   0   4 1241.98   55.69 
   0   0   4  247.58   13.80 
   0   0  -4  226.98   12.20 
   0   0  -4  210.58   12.60 
   0   0   4  231.28   12.70 
   0   0  -4  199.18   15.80 
   1   0   4  315.57   17.80 
  -1   0  -4  261.37   20.20 
   1   0   4  290.27   16.10 
  -1   0  -4  289.97   15.40 
  -1   0  -4  290.07   15.30 
  -2   0  -4 1142.59   53.89 
  -2   0  -4 1151.98   61.39 
   2   0   4 1044.00   54.29 
   2   0   4 1231.58   57.69 
  -3   0  -4 1822.42   87.79 
   3   0   4 1955.50   94.09 
   3   0   4 1890.51   88.59 
   3   0   4 1919.91   92.99 
   4   0   4 5436.96  243.18 
  -4   0  -4 5065.09  236.88 
   4   0   4 5186.98  242.98 
   5   0   4 1288.77   71.09 
   5   0   4 1431.86   72.59 
   5   0   4 1357.26   71.39 
   5   0   4 1325.67   73.39 
   6   0   4  198.68   24.50 
   6   0   4  177.68   17.90 
   6   0   4  199.68   18.00 
   6   0   4  193.28   17.20 
   7   0   4    7.10    4.20 
   7   0   4   12.40    4.90 
   7   0   4   10.90    4.50 
   8   0   4  157.28   12.60 
   8   0   4  167.68   14.30 
  11  -1  -4   17.90    3.80 
 -11  -1   4   10.90    3.50 
 -11   1   4   14.90    4.20 
  11   1  -4   17.90    4.20 
  10  -1  -4  125.09   12.50 
  10  -1  -4  137.29   13.30 
 -10  -1   4  141.69   13.60 
  10   1  -4  142.89   13.20 
 -10   1   4  126.49   12.90 
  -9  -1   4  324.87   22.90 
   9  -1  -4  298.57   22.50 
   9  -1  -4  288.27   23.10 
  -9   1   4  293.37   22.40 
   9   1  -4  296.47   20.50 
   9   1  -4  279.47   22.60 
   9   1  -4  292.47   22.30 
  -9   1   4  263.07   21.40 
   8  -1  -4  605.94   40.20 
   8  -1  -4  638.54   38.40 
  -8  -1   4  701.33   38.80 
   8  -1  -4  605.14   36.60 
   8   1  -4  591.74   38.10 
  -8   1   4  621.64   37.90 
   8   1  -4  586.14   37.40 
   8   1  -4  663.83   35.90 
  -8   1   4  654.13   38.70 
   8   1  -4  588.34   38.50 
  -8   1   4  602.54   37.30 
   7  -1  -4   18.70    5.30 
  -7  -1   4    9.50    3.10 
  -7  -1   4    6.50    3.00 
  -7  -1   4   17.10    4.60 
   7   1  -4    8.60    4.30 
  -7   1   4   11.60    4.80 
  -7   1   4   15.60    3.80 
   6  -1  -4  124.89   12.50 
   6  -1  -4  117.69   12.00 
  -6  -1   4  139.39   10.30 
  -6  -1   4  125.29    8.70 
  -6  -1   4  145.69   12.20 
   6   1  -4  124.69   11.90 
  -6   1   4  136.89    9.60 
  -6   1   4  130.49   12.40 
   6   1  -4  122.19   12.20 
   5  -1  -4   86.49    7.10 
  -5  -1   4   82.99    6.10 
   5  -1  -4  106.49    8.90 
  -5  -1   4   89.99    7.90 
   5  -1  -4   76.49    8.90 
  -5  -1   4   85.89    7.20 
  -5   1   4   87.89    6.80 
  -5   1   4   86.89    9.10 
   5   1  -4   77.89    8.50 
  -5   1   4   93.39    8.80 
  -4  -1   4 5665.83  244.18 
  -4  -1   4 5438.06  242.88 
   4  -1  -4 5823.82  245.08 
   4  -1  -4 5365.26  246.28 
  -4   1   4 5386.46  242.48 
   4   1  -4 5135.79  245.68 
  -4   1   4 5619.54  245.28 
   4   1  -4 5273.77  240.88 
  -4   1   4 5729.43  246.58 
   4   1  -4 4736.43  244.68 
   3  -1  -4 1146.19   55.59 
   3  -1  -4 1133.59   52.39 
   3  -1  -4 1197.08   54.19 
  -3  -1   4 1147.09   53.59 
  -3  -1   4 1114.19   51.79 
  -3   1   4 1142.29   52.49 
   3   1  -4 1103.79   55.09 
   3   1  -4 1059.29   52.19 
   3   1  -4 1050.29   52.69 
   2  -1  -4 2126.59  101.59 
  -2  -1   4 2289.97  100.59 
  -2  -1   4 1972.10  101.49 
   2  -1  -4 2365.66  104.09 
  -2  -1   4 2261.37  100.29 
   2  -1  -4 2197.18  100.19 
   2   1  -4 2356.96  104.29 
   2   1  -4 2199.88  101.99 
   2   1  -4 2128.59  102.69 
  -2   1   4 2283.27  100.99 
   0  -1  -4 7192.48  326.47 
   0  -1  -4 7906.11  332.97 
   0   1  -4 6936.21  328.07 
   1  -1   4 7585.84  380.56 
   1  -1   4 9726.53  382.36 
  -1  -1  -4 7576.94  387.56 
  -1   1  -4 8770.52  381.96 
   1   1   4 9151.58  382.46 
  -2  -1  -4 1574.94   70.69 
   2  -1   4 1647.14   74.59 
   2  -1   4 1510.45   70.79 
  -2  -1  -4 1370.96   78.49 
   2   1   4 1450.55   72.19 
   2   1   4 1539.35   75.49 
  -2   1  -4 1464.55   70.79 
  -2   1  -4 1640.54   78.79 
  -3  -1  -4   76.19    7.70 
   3  -1   4   90.59   10.20 
   3  -1   4   83.49    9.30 
  -3  -1  -4   80.79    6.80 
   3   1   4   71.99    7.50 
   3   1   4   91.59   10.10 
   3   1   4   84.69   10.00 
  -4  -1  -4 1304.87   64.49 
  -4  -1  -4 1332.17   62.99 
   4  -1   4 1370.36   69.19 
   4  -1   4 1345.47   69.59 
  -4  -1  -4 1260.37   63.89 
   4   1   4 1309.57   70.79 
   4   1   4 1186.38   63.89 
   4   1   4 1398.36   70.39 
  -5  -1  -4  922.71   46.90 
   5  -1   4  963.40   52.59 
   5  -1   4  872.01   50.79 
   5  -1   4  916.41   52.79 
   5  -1   4  952.20   51.89 
   5   1   4  917.21   52.19 
   5   1   4  905.81   52.29 
   5   1   4  845.42   53.89 
   5   1   4  918.81   52.49 
   5   1   4  888.01   49.30 
   6  -1   4  213.38   18.10 
   6  -1   4  185.68   17.00 
   6  -1   4  199.28   18.20 
   6   1   4  205.58   18.20 
   6   1   4  186.48   18.30 
   6   1   4  202.18   16.50 
   6   1   4  183.48   17.10 
   7  -1   4   11.10    4.80 
   7  -1   4    2.90    3.10 
   7  -1   4   16.10    5.10 
   7   1   4    8.20    4.50 
   7   1   4   14.20    5.30 
   7   1   4    1.80    3.60 
   8  -1   4    1.80    2.60 
   8  -1   4    5.50    2.50 
   8  -1   4   -4.30    3.10 
   8   1   4    4.50    3.50 
   8   1   4    4.60    2.60 
  11  -2  -4   67.99    6.40 
  11  -2  -4   84.79   11.20 
 -11  -2   4   63.99    7.30 
  11   2  -4   62.89    6.80 
 -11   2   4   53.89    9.50 
  10  -2  -4   32.90    6.30 
 -10  -2   4   50.19    7.80 
  10  -2  -4   44.00    7.90 
  10   2  -4   44.80    7.50 
 -10   2   4   28.70    6.20 
   9  -2  -4   -3.40    3.80 
   9  -2  -4   -2.20    4.80 
  -9  -2   4    8.50    4.90 
   9   2  -4   -0.20    3.90 
  -9   2   4   -2.30    4.00 
  -9   2   4    5.30    4.20 
  -9   2   4   -4.00    3.50 
   8  -2  -4   51.09   11.30 
   8  -2  -4   68.59   10.80 
  -8  -2   4   85.99   11.00 
  -8  -2   4   67.39    7.40 
   8  -2  -4   64.49    9.00 
  -8  -2   4   69.09    9.10 
  -8   2   4   87.79   11.50 
  -8   2   4   84.49   11.80 
   8   2  -4   77.79    9.30 
  -8   2   4   88.59   11.60 
   8   2  -4   84.69   12.10 
   8   2  -4   66.19   10.90 
  -8   2   4   73.99   10.70 
   7  -2  -4  314.97   21.40 
  -7  -2   4  304.07   18.50 
  -7  -2   4  334.67   21.20 
   7  -2  -4  324.27   23.20 
  -7  -2   4  306.77   17.70 
   7  -2  -4  304.67   21.50 
  -7   2   4  326.67   22.90 
   7   2  -4  339.17   23.60 
  -7   2   4  295.77   22.80 
  -7   2   4  313.07   23.10 
   7   2  -4  298.37   23.80 
  -7   2   4  330.27   22.30 
   7   2  -4  355.56   21.70 
   7   2  -4  283.37   23.30 
  -6  -2   4  250.57   16.50 
   6  -2  -4  245.58   17.30 
   6  -2  -4  247.28   15.40 
  -6  -2   4  230.08   13.70 
  -6  -2   4  258.17   14.90 
   6  -2  -4  246.68   17.00 
  -6  -2   4  238.98   15.80 
  -6   2   4  218.08   17.60 
   6   2  -4  282.47   21.80 
  -6   2   4  240.68   15.10 
  -6   2   4  232.78   18.50 
  -5  -2   4 8176.18  373.06 
   5  -2  -4 8625.64  376.66 
  -5  -2   4 8755.62  376.16 
   5  -2  -4 8254.47  381.26 
   5  -2  -4 8618.94  374.56 
  -5   2   4 8467.25  381.16 
  -5   2   4 8471.45  374.46 
  -5   2   4 8115.49  378.86 
   5   2  -4 7969.60  379.06 
  -4  -2   4 4977.70  222.28 
  -4  -2   4 4933.01  221.28 
   4  -2  -4 5105.99  220.68 
   4  -2  -4 4800.42  226.38 
   4  -2  -4 5331.27  222.68 
  -4   2   4 4705.93  224.28 
  -4   2   4 4968.10  220.88 
   4   2  -4 4613.14  224.88 
  -4   2   4 4998.10  226.28 
   4   2  -4 4713.53  224.58 
  -3  -2   4 6039.50  317.97 
   3  -2  -4 7670.93  320.47 
   3  -2  -4 7294.67  318.67 
  -3  -2   4 7477.95  319.37 
   3  -2  -4 7528.65  324.67 
  -3   2   4 7501.25  319.57 
   3   2  -4 6633.14  321.17 
   3   2  -4 7093.59  323.07 
   2  -2  -4 3491.75  157.18 
  -2  -2   4 3486.55  152.38 
   2  -2  -4 3401.66  153.18 
  -2  -2   4 3131.89  152.28 
  -2  -2   4 3223.48  154.78 
   2   2  -4 3306.57  152.28 
   2   2  -4 3457.85  156.28 
   2   2  -4 3579.44  152.48 
   2   2  -4 3401.26  155.38 
  -1  -2   4 1666.33   76.69 
  -1  -2   4 1630.14   79.59 
   1  -2  -4 1601.04   77.19 
   1   2  -4 1827.12   80.09 
   1   2  -4 1716.33   79.79 
  -1   2   4 1657.93   78.19 
   0  -2  -4 3743.23  164.58 
   0  -2   4 3481.05  161.38 
   0   2  -4 3767.82  163.68 
   0   2  -4 3357.26  160.58 
   0   2   4 3375.56  160.88 
   0   2   4 3425.46  159.98 
   1  -2   4  414.26   20.30 
   1  -2   4  392.26   21.50 
  -1  -2  -4  420.86   20.40 
   1  -2   4  406.56   23.80 
  -1  -2  -4  375.96   26.60 
   1   2   4  395.96   22.50 
  -1   2  -4  380.16   22.40 
  -1   2  -4  440.06   26.70 
   1   2   4  419.96   24.90 
   2  -2   4   14.30    4.00 
  -2  -2  -4   14.60    2.60 
  -2  -2  -4   15.90    5.70 
  -2   2  -4   12.50    2.80 
   2   2   4   14.10    3.20 
  -2   2  -4   19.20    6.50 
   2   2   4   12.60    4.30 
  -3  -2  -4  206.28   12.90 
   3  -2   4  217.38   17.50 
   3  -2   4  195.68   15.00 
  -3  -2  -4  209.08   14.30 
   3  -2   4  223.98   16.60 
   3   2   4  263.37   20.20 
   3   2   4  197.68   14.90 
   3   2   4  201.48   19.60 
  -4  -2  -4  343.37   21.50 
   4  -2   4  337.07   24.20 
   4  -2   4  363.96   25.40 
  -4  -2  -4  349.47   21.30 
   4  -2   4  348.27   24.30 
  -4  -2  -4  347.97   19.60 
   4   2   4  318.37   21.20 
   4   2   4  289.27   26.00 
   4   2   4  335.87   26.40 
  -4   2  -4  314.87   23.50 
   4   2   4  343.77   25.90 
   5  -2   4   17.30    5.90 
   5  -2   4   30.70    7.40 
   5  -2   4   30.60    8.00 
   5  -2   4   32.60    6.30 
  -5  -2  -4   32.80    5.60 
   5  -2   4   36.20    8.10 
  -5  -2  -4   35.80    5.90 
  -5   2  -4   47.90    7.90 
   5   2   4   32.00    7.90 
   5   2   4   25.80    7.90 
   5   2   4   30.70    8.60 
   5   2   4   19.30    7.70 
  -5   2  -4   37.50    8.20 
   5   2   4   24.60    6.60 
   6  -2   4  151.88   15.60 
  -6  -2  -4  158.78   12.50 
   6  -2   4  173.88   16.30 
   6  -2   4  172.08   16.30 
   6   2   4  155.68   16.00 
  -6   2  -4  156.08   16.00 
   6   2   4  167.68   16.80 
   6   2   4  192.58   17.10 
   6   2   4  155.58   14.50 
   7  -2   4  143.09   13.40 
   7  -2   4  168.28   14.90 
   7   2   4  151.58   20.30 
  -7   2  -4  137.69   15.70 
   7   2   4  163.48   14.60 
   7   2   4  159.98   16.90 
   7   2   4  169.58   15.20 
   8  -2   4   11.50    3.20 
   8  -2   4    5.90    3.00 
   8   2   4   15.40    3.70 
 -10  -3   4  290.37   19.00 
  10  -3  -4  248.98   17.20 
  10  -3  -4  261.77   18.90 
  10   3  -4  263.77   18.40 
  -9  -3   4  245.88   18.90 
  -9  -3   4  210.18   17.40 
   9  -3  -4  224.88   20.60 
   9   3  -4  246.28   17.00 
   9   3  -4  248.68   19.30 
  -9   3   4  207.98   18.80 
  -9   3   4  241.98   17.00 
  -9   3   4  237.48   17.20 
  -9   3   4  214.68   18.50 
  -9   3   4  236.68   16.10 
   8  -3  -4 1004.30   61.69 
  -8  -3   4  907.51   49.70 
  -8   3   4  961.70   58.09 
  -8   3   4 1032.90   59.59 
   8   3  -4  821.42   61.19 
  -8   3   4  929.11   53.69 
   7  -3  -4   59.49    6.90 
   7  -3  -4   45.20    7.50 
  -7  -3   4   39.40    4.90 
  -7  -3   4   48.10    5.90 
  -7  -3   4   37.20    7.70 
   7  -3  -4   54.59    7.40 
   7   3  -4   48.40    7.20 
  -7   3   4   43.50    8.70 
  -7   3   4   63.59    9.50 
  -7   3   4   39.00    7.60 
  -7   3   4   54.89    9.30 
   7   3  -4   38.70    9.00 
  -7   3   4   40.90    9.60 
  -7   3   4   60.39   10.50 
   6  -3  -4 1788.82   82.69 
   6  -3  -4 1819.22   85.69 
  -6  -3   4 1689.93   80.69 
  -6  -3   4 1671.03   83.69 
  -6  -3   4 1845.82   84.29 
   6  -3  -4 1795.12   84.99 
  -6  -3   4 1847.62   82.39 
   6   3  -4 1779.52   88.29 
  -6   3   4 1642.64   86.89 
  -6   3   4 1703.43   88.79 
   6   3  -4 1601.94   89.29 
  -5  -3   4 3639.24  168.88 
  -5  -3   4 3652.83  165.68 
   5  -3  -4 3535.35  167.58 
  -5  -3   4 3547.75  166.68 
  -5  -3   4 3821.62  164.38 
   5  -3  -4 3886.41  165.78 
  -5   3   4 3666.13  165.88 
   5   3  -4 3624.64  172.98 
   5   3  -4 3663.83  171.28 
  -5   3   4 3531.45  170.88 
  -5   3   4 3498.15  171.48 
  -4  -3   4 2762.02  123.99 
  -4  -3   4 2675.53  126.79 
   4  -3  -4 2756.72  124.59 
  -4  -3   4 2595.54  125.49 
   4  -3  -4 2898.61  126.69 
   4   3  -4 3034.60  128.19 
  -4   3   4 2561.94  129.79 
   4   3  -4 2707.03  131.19 
  -4   3   4 2784.82  125.69 
   4   3  -4 2570.74  129.29 
   3  -3  -4 1081.99   50.79 
   3  -3  -4 1128.69   52.69 
  -3  -3   4 1067.19   50.89 
  -3  -3   4 1106.09   51.99 
   3  -3  -4 1101.49   57.99 
  -3  -3   4  991.50   53.19 
   3   3  -4 1133.29   54.39 
   3   3  -4 1082.89   56.69 
   3   3  -4 1049.30   55.29 
  -3   3   4 1105.09   52.59 
  -2  -3   4 3030.50  137.89 
  -2  -3   4 2856.61  141.39 
   2  -3  -4 3060.79  138.69 
   2  -3  -4 3087.09  136.89 
  -2  -3   4 2968.00  137.59 
   2  -3  -4 3137.79  144.39 
   2   3  -4 3177.08  143.49 
   2   3  -4 2995.60  141.69 
   2   3  -4 3077.99  141.19 
  -2   3   4 3105.79  139.59 
  -1  -3   4 6863.71  307.87 
  -1  -3   4 6242.88  303.07 
   1  -3  -4 6533.15  303.77 
  -1  -3   4 6824.52  304.07 
   1  -3  -4 7173.48  310.37 
   1  -3  -4 6934.91  302.57 
  -1   3   4 7169.18  306.17 
   1   3  -4 6758.62  307.47 
   0  -3   4 2453.65  112.59 
   0  -3   4 2451.95  117.49 
   0  -3  -4 2482.55  112.49 
   0  -3  -4 2641.04  120.59 
   0  -3   4 2500.05  114.39 
   0   3  -4 2609.44  119.19 
   0   3  -4 2552.14  117.49 
   0   3  -4 2476.45  117.09 
   0   3   4 2316.37  116.19 
   0   3   4 2546.15  116.19 
  -1  -3  -4  918.71   41.80 
   1  -3   4  855.21   43.50 
   1  -3   4  893.41   46.70 
  -1   3  -4  899.41   49.90 
  -1   3  -4  897.01   46.30 
   1   3   4  938.31   45.80 
   1   3   4  838.72   47.30 
  -1   3  -4  873.41   45.50 
   2  -3   4   32.50    6.60 
   2  -3   4   50.39    5.70 
   2  -3   4   60.29    8.80 
  -2   3  -4   38.10    5.50 
   2   3   4   57.69    8.10 
  -2   3  -4   38.00    6.70 
   2   3   4   51.59    6.40 
   2   3   4   52.59    8.90 
  -3  -3  -4  358.76   21.20 
   3  -3   4  354.16   23.30 
   3  -3   4  311.57   22.30 
   3  -3   4  394.26   24.50 
   3  -3   4  393.86   26.60 
  -3  -3  -4  391.76   19.90 
   3   3   4  321.37   22.00 
  -3   3  -4  359.26   23.20 
  -3   3  -4  327.77   22.10 
   3   3   4  359.96   27.20 
   3   3   4  336.07   27.00 
  -4  -3  -4  184.78   14.20 
   4  -3   4  215.38   18.50 
   4  -3   4  208.48   17.10 
   4  -3   4  186.78   16.80 
   4  -3   4  171.08   17.20 
  -4   3  -4  188.38   17.10 
   4   3   4  165.28   16.40 
   4   3   4  196.08   18.90 
   4   3   4  196.08   18.30 
   4   3   4  216.18   27.00 
   5  -3   4  182.08   19.40 
  -5  -3  -4  209.08   15.20 
  -5  -3  -4  199.78   13.70 
   5  -3   4  254.67   30.00 
   5   3   4  155.08   29.00 
   5   3   4  210.48   21.40 
   6  -3   4  104.49   11.70 
   6  -3   4  110.69    9.30 
   6  -3   4  100.69   12.50 
  -6  -3  -4  103.89    9.70 
   6  -3   4  106.89   12.00 
   6   3   4  100.89   15.30 
   6   3   4  100.89   13.10 
   6   3   4   91.99   11.70 
   7  -3   4   12.20    5.00 
   7  -3   4   13.60    4.10 
   7  -3   4   18.40    4.70 
  -7   3  -4    7.60    4.10 
   7   3   4    2.10    4.10 
   7   3   4    5.20    3.80 
 -10  -4   4   31.50    5.90 
  10  -4  -4   36.10    6.40 
  10   4  -4   32.30    5.60 
   9  -4  -4  141.69   11.90 
  -9  -4   4  122.89    9.10 
   9  -4  -4  100.39   12.70 
   9  -4  -4  119.99   13.80 
  -9   4   4  127.29   13.80 
   9   4  -4  129.79   10.60 
  -9   4   4  106.79   12.40 
  -9   4   4  108.69   10.40 
  -9   4   4  137.19   12.40 
  -9   4   4  102.79   10.80 
   9   4  -4  130.29   12.60 
  -9   4   4  124.39   11.60 
   8  -4  -4  558.54   36.50 
  -8  -4   4  688.63   34.40 
   8  -4  -4  670.23   38.40 
  -8  -4   4  668.93   33.30 
  -8   4   4  626.84   35.50 
  -8   4   4  661.93   39.80 
  -8   4   4  689.23   39.30 
  -8   4   4  660.93   39.20 
  -8   4   4  691.53   41.30 
   8   4  -4  695.73   36.60 
  -8   4   4  656.63   37.80 
  -8   4   4  576.64   37.30 
   8   4  -4  648.54   39.30 
  -7  -4   4  168.68   14.10 
   7  -4  -4  178.58   16.70 
  -7  -4   4  193.98   13.00 
   7  -4  -4  186.88   14.90 
   7  -4  -4  200.58   16.00 
  -7  -4   4  180.28   11.90 
   7  -4  -4  168.98   13.10 
  -7   4   4  180.08   17.00 
  -7   4   4  168.98   17.20 
  -7   4   4  176.58   15.70 
  -7   4   4  172.78   15.90 
  -7   4   4  209.08   19.30 
  -7   4   4  181.28   16.30 
   7   4  -4  168.38   17.50 
  -7   4   4  205.98   16.80 
   7   4  -4  189.28   14.80 
   7   4  -4  172.38   19.00 
  -7   4   4  188.38   18.50 
   6  -4  -4  176.58   12.90 
  -6  -4   4  200.28   11.90 
  -6  -4   4  191.88   14.20 
  -6  -4   4  193.08   13.00 
   6  -4  -4  184.68   15.20 
  -6   4   4  196.98   17.80 
  -6   4   4  168.98   15.10 
  -6   4   4  162.28   15.70 
   6   4  -4  185.28   18.80 
  -6   4   4  153.18   18.00 
  -6   4   4  169.28   16.40 
  -6   4   4  204.68   16.00 
   6   4  -4  169.18   16.40 
   6   4  -4  222.98   25.60 
  -5  -4   4  467.55   23.40 
  -5  -4   4  469.95   26.50 
  -5  -4   4  448.76   24.70 
   5  -4  -4  422.66   26.00 
   5  -4  -4  429.46   24.30 
  -5  -4   4  484.45   28.50 
   5  -4  -4  445.06   26.50 
  -5   4   4  409.06   30.00 
   5   4  -4  428.86   31.00 
  -5   4   4  442.86   29.60 
   5   4  -4  463.65   29.90 
  -4  -4   4 2212.48  100.59 
   4  -4  -4 2142.99   99.29 
  -4  -4   4 2192.78  100.89 
  -4  -4   4 2145.39   98.59 
  -4  -4   4 2122.59  102.09 
   4   4  -4 2353.16  103.19 
  -4   4   4 2088.79  100.69 
  -4   4   4 1957.40  105.69 
  -3  -4   4  320.17   17.30 
   3  -4  -4  328.27   17.20 
  -3  -4   4  321.17   18.60 
  -3  -4   4  274.47   19.50 
   3  -4  -4  317.07   18.90 
  -3   4   4  320.17   19.50 
   3   4  -4  327.17   20.60 
  -3   4   4  325.17   23.30 
   3   4  -4  320.67   21.90 
   3   4  -4  330.77   23.70 
  -3   4   4  325.77   22.50 
  -2  -4   4 1153.58   61.59 
  -2  -4   4 1263.67   56.89 
   2  -4  -4 1214.18   64.59 
  -2  -4   4 1244.18   57.09 
   2  -4  -4 1059.19   57.19 
   2  -4  -4 1260.27   55.59 
  -2   4   4 1132.59   60.69 
   2   4  -4 1214.38   60.49 
   2   4  -4 1231.08   61.79 
  -2   4   4 1224.08   59.29 
   2   4  -4 1242.58   63.49 
   1  -4  -4  844.62   47.30 
  -1  -4   4  792.62   44.80 
  -1  -4   4  824.72   39.70 
   1  -4  -4  822.32   38.90 
   1  -4  -4  854.01   40.80 
  -1  -4   4  829.02   40.70 
   1   4  -4  907.31   47.20 
  -1   4   4  847.42   43.30 
   1   4  -4  814.62   44.60 
   1   4  -4  827.62   44.30 
   0  -4   4 1637.24   82.99 
   0  -4  -4 1807.52   76.79 
   0  -4   4 1661.03   78.99 
   0  -4  -4 1712.33   85.99 
   0   4  -4 1667.73   82.59 
   0   4  -4 1676.63   82.59 
   0   4  -4 1587.64   83.49 
   0   4   4 1747.03   81.89 
   1  -4   4 2256.67  104.39 
  -1  -4  -4 2204.48   97.39 
   1   4   4 2177.38  102.49 
   1   4   4 2323.47  108.49 
  -1   4  -4 1809.52  103.89 
  -1   4  -4 2233.98  108.59 
  -1   4  -4 2156.18  102.99 
   1   4   4 1998.90  104.09 
  -2  -4  -4  655.73   30.70 
   2  -4   4  650.53   38.20 
   2  -4   4  562.84   35.60 
   2  -4   4  625.44   33.00 
   2  -4   4  621.54   36.20 
   2   4   4  616.24   39.80 
   2   4   4  582.94   38.50 
   2   4   4  638.84   37.40 
  -2   4  -4  596.94   35.60 
  -2   4  -4  624.54   34.60 
   3  -4   4   73.49   11.00 
   3  -4   4   78.49   12.00 
  -3  -4  -4   79.49    6.90 
   3  -4   4   79.99   10.10 
   3  -4   4   80.89    8.40 
  -3  -4  -4   79.79    9.90 
   3   4   4   85.29   13.00 
  -3   4  -4   93.79    9.40 
   3   4   4   82.69   14.30 
  -3   4  -4   90.19   10.10 
  -3   4  -4   70.59    8.20 
   3   4   4   70.79   12.60 
   3   4   4   82.19   12.50 
  -3   4  -4   75.99   10.00 
  -3   4  -4   68.59   10.70 
   3   4   4   84.49   11.40 
  -3   4  -4  103.59   11.70 
   4  -4   4 1196.38   65.79 
  -4  -4  -4 1206.68   60.69 
   4  -4   4 1319.17   65.49 
   4  -4   4 1248.98   62.79 
   4  -4   4 1311.47   67.79 
   4  -4   4 1239.68   61.29 
  -4  -4  -4 1231.08   58.79 
   4   4   4 1152.28   64.39 
  -4   4  -4 1261.77   64.99 
  -4   4  -4 1085.79   65.49 
  -4   4  -4 1249.68   61.99 
   4   4   4 1210.28   68.09 
   4   4   4 1262.77   68.89 
  -4   4  -4 1187.28   61.99 
   4   4   4 1213.48   68.39 
   4   4   4 1120.79   69.89 
  -5  -4  -4   10.30    3.30 
  -5  -4  -4   15.40    3.60 
   5  -4   4   17.20    5.00 
   5  -4   4   14.60    5.30 
  -5   4  -4   15.50    5.60 
  -5   4  -4    3.70    3.60 
   5   4   4    5.80    4.40 
   5   4   4   12.10    5.70 
   5   4   4   14.30    7.80 
  -5   4  -4   12.30    4.40 
   6  -4   4   10.20    4.00 
   6  -4   4    6.80    4.30 
   6  -4   4    3.70    2.70 
  -6  -4  -4    3.80    2.40 
   6   4   4    5.40    3.90 
  -6   4  -4    4.60    2.80 
   6   4   4    4.20    3.20 
   7  -4   4   31.70    6.00 
  -7  -4  -4   31.60    5.60 
   7  -4   4   27.60    5.20 
   7   4   4   17.60    4.10 
   7   4   4   23.50    4.70 
  -9  -5   4  135.59   11.90 
   9  -5  -4   90.69   11.60 
   9  -5  -4  125.59   13.00 
  -9  -5   4  112.89    8.50 
  -9   5   4  113.29   10.10 
  -9   5   4  116.59    9.90 
  -9   5   4   98.69   10.90 
  -9   5   4  117.59   10.20 
  -9   5   4  124.49   11.10 
   9   5  -4  124.99    9.90 
   9   5  -4  125.39   10.80 
  -9   5   4   96.29   12.20 
  -8  -5   4    9.30    3.10 
  -8  -5   4   10.90    2.80 
   8  -5  -4    5.80    4.20 
  -8   5   4   10.70    4.60 
  -8   5   4   22.90    6.10 
  -8   5   4   16.20    4.60 
  -8   5   4    9.30    4.60 
  -8   5   4    5.50    5.10 
   8   5  -4   19.80    5.40 
  -7  -5   4   42.50    5.30 
   7  -5  -4   47.20    6.00 
  -7  -5   4   37.80    4.70 
   7  -5  -4   28.80    6.40 
   7  -5  -4   48.30    7.60 
  -7   5   4   33.80    7.80 
   7   5  -4   44.10    8.90 
  -7   5   4   36.60    7.10 
  -7   5   4   31.20    8.10 
  -7   5   4   37.40    8.10 
  -7   5   4   33.40    7.90 
  -7   5   4   42.40   10.50 
   7   5  -4   28.20    5.90 
  -7   5   4   31.90    7.20 
   6  -5  -4  402.46   25.40 
   6  -5  -4  367.06   22.10 
   6  -5  -4  363.06   24.20 
  -6  -5   4  393.66   22.20 
  -6  -5   4  382.56   20.70 
  -6  -5   4  352.76   22.60 
  -6   5   4  374.56   26.50 
  -6   5   4  363.16   27.50 
  -6   5   4  383.36   27.00 
   6   5  -4  363.06   30.00 
   6   5  -4  419.16   25.20 
   6   5  -4  335.37   26.10 
  -6   5   4  373.76   28.70 
  -6   5   4  389.96   25.40 
  -6   5   4  398.16   26.40 
  -6   5   4  373.16   26.70 
  -5  -5   4  793.62   40.90 
  -5  -5   4  864.61   44.50 
   5  -5  -4  754.82   42.70 
  -5   5   4  810.82   48.60 
  -5   5   4  789.12   44.40 
   5   5  -4  831.62   48.70 
  -5   5   4  904.51   52.39 
  -5   5   4  705.93   47.50 
  -5   5   4  793.22   47.30 
  -5   5   4  770.22   46.80 
   4  -5  -4  495.35   29.10 
   4  -5  -4  521.25   29.90 
   4  -5  -4  518.65   27.60 
  -4  -5   4  512.25   30.40 
  -4  -5   4  511.35   26.90 
  -4  -5   4  513.45   29.20 
  -4  -5   4  505.15   28.70 
   4   5  -4  516.15   33.30 
   4   5  -4  548.85   31.10 
  -4   5   4  604.74   36.40 
   4   5  -4  518.65   35.80 
  -4   5   4  552.84   35.10 
  -3  -5   4 1537.25   72.69 
  -3  -5   4 1426.66   78.09 
   3  -5  -4 1571.64   70.99 
  -3  -5   4 1573.44   71.29 
  -3  -5   4 1529.45   73.69 
   3  -5  -4 1489.45   73.39 
  -3   5   4 1417.16   77.79 
  -3   5   4 1564.24   80.29 
   3   5  -4 1484.65   75.29 
   3   5  -4 1636.94   81.49 
   3   5  -4 1542.45   78.29 
  -3   5   4 1481.35   74.19 
   2  -5  -4  385.96   24.40 
  -2  -5   4  447.36   23.80 
  -2  -5   4  419.06   29.50 
   2  -5  -4  463.45   22.60 
  -2  -5   4  440.16   29.40 
   2   5  -4  508.35   31.80 
  -2   5   4  476.65   31.10 
  -2   5   4  475.55   27.00 
   2   5  -4  461.25   27.70 
   2   5  -4  477.25   29.40 
  -2   5   4  412.06   27.80 
  -1  -5   4 1580.34   82.09 
   1  -5  -4 1619.14   74.09 
  -1  -5   4 1615.54   76.29 
   1   5  -4 1599.34   81.59 
   1   5  -4 1632.84   80.99 
  -1   5   4 1693.73   80.19 
  -1   5   4 1647.74   84.89 
   0  -5   4 2384.46  110.79 
   0  -5   4 2424.16  116.39 
   0  -5  -4 2454.05  107.99 
   0  -5   4 2185.28  114.09 
   0   5  -4 2395.66  115.39 
   0   5   4 2404.16  114.19 
   0   5   4 2502.05  119.99 
   0   5  -4 2387.36  115.39 
   1  -5   4 2696.23  128.29 
   1  -5   4 2690.13  123.19 
   1  -5   4 2377.36  126.49 
  -1  -5  -4 2728.53  120.09 
  -1   5  -4 2736.23  127.99 
   1   5   4 2605.24  126.29 
   1   5   4 2690.63  131.99 
  -1   5  -4 2712.43  127.09 
   2  -5   4 1795.32   93.09 
   2  -5   4 1773.02   93.49 
   2  -5   4 1971.80   89.39 
  -2  -5  -4 1929.01   86.19 
  -2   5  -4 1767.62   91.19 
  -2   5  -4 1949.01  108.39 
   2   5   4 1901.21   97.89 
   2   5   4 1722.23   95.69 
  -2   5  -4 2023.30   94.09 
   3  -5   4  752.82   41.50 
   3  -5   4  672.83   41.60 
   3  -5   4  688.23   40.70 
   3  -5   4  764.32   43.60 
   3  -5   4  685.83   37.30 
  -3  -5  -4  709.73   34.90 
  -3  -5  -4  692.43   36.60 
   3   5   4  693.03   44.40 
  -3   5  -4  716.63   40.40 
  -3   5  -4  692.33   38.70 
   3   5   4  697.03   44.80 
  -3   5  -4  672.73   38.40 
   3   5   4  677.63   44.50 
  -3   5  -4  645.04   42.40 
   3   5   4  679.13   41.60 
  -3   5  -4  672.53   39.50 
   4  -5   4  244.08   19.70 
  -4  -5  -4  204.68   14.50 
   4  -5   4  205.18   17.70 
   4  -5   4  205.98   15.40 
   4  -5   4  195.18   16.10 
   4   5   4  217.08   20.50 
  -4   5  -4  186.18   16.30 
  -4   5  -4  212.78   15.70 
  -4   5  -4  190.78   18.60 
   4   5   4  178.98   19.50 
  -4   5  -4  195.08   16.80 
  -4   5  -4  190.08   16.00 
   4   5   4  203.88   17.60 
   4   5   4  209.58   20.40 
  -5  -5  -4   57.49    6.90 
   5  -5   4   41.20   10.10 
   5  -5   4   61.29    7.50 
   5  -5   4   43.60   11.30 
  -5  -5  -4   49.30    7.70 
  -5   5  -4   40.70   11.10 
  -5   5  -4   47.10    7.50 
   6  -5   4  238.78   17.50 
  -6  -5  -4  228.28   14.60 
   6  -5   4  229.28   14.00 
   6  -5   4  239.98   17.30 
   6   5   4  205.58   16.00 
   6   5   4  236.48   18.30 
  -6   5  -4  212.58   13.80 
  -9  -6   4  155.58   11.10 
   9  -6  -4  133.79   11.50 
  -9   6   4  133.99   10.10 
   9   6  -4  131.19    9.10 
  -9   6   4  115.69   10.60 
  -9   6   4  133.39    9.60 
   8  -6  -4   25.60    6.40 
  -8  -6   4   40.70    4.80 
  -8   6   4   37.80    6.70 
  -8   6   4   41.40    8.50 
  -8   6   4   41.50    6.80 
  -8   6   4   48.60    6.70 
  -8   6   4   52.49   10.60 
   8   6  -4   45.00    5.60 
  -7  -6   4   13.00    3.20 
  -7  -6   4   10.10    2.70 
   7  -6  -4    9.40    5.00 
   7  -6  -4    9.00    3.80 
  -7   6   4    3.20    4.00 
  -7   6   4   18.20    5.90 
  -7   6   4    7.70    5.50 
   6  -6  -4  176.88   12.50 
   6  -6  -4  187.58   15.40 
  -6  -6   4  172.58   11.10 
  -6  -6   4  181.08   12.50 
   6  -6  -4  167.68   15.60 
   6   6  -4  178.38   14.60 
  -6   6   4  178.68   18.60 
  -6   6   4  162.38   15.80 
  -6   6   4  144.49   14.30 
  -6   6   4  188.58   16.60 
  -6   6   4  169.38   16.60 
  -6   6   4  179.18   15.80 
  -6   6   4  166.58   16.20 
  -5  -6   4  131.49   11.30 
  -5  -6   4  131.59    9.10 
   5  -6  -4  125.99   11.80 
  -5  -6   4  124.89   10.30 
   5  -6  -4  126.29   12.00 
  -5   6   4  117.99   15.40 
   5   6  -4  135.59   15.10 
  -5   6   4  125.99   14.20 
  -5   6   4  127.49   15.70 
  -5   6   4  107.69   13.90 
  -5   6   4  148.39   14.80 
  -5   6   4  122.59   13.30 
   5   6  -4  137.19   13.00 
  -5   6   4  120.89   13.70 
   5   6  -4  135.99   16.30 
  -4  -6   4 1823.52   96.99 
   4  -6  -4 1856.21   91.39 
  -4  -6   4 1851.21   91.79 
  -4  -6   4 1943.51   87.59 
   4  -6  -4 1857.61   88.09 
  -4  -6   4 1864.41   89.59 
   4  -6  -4 1882.11   90.59 
  -4   6   4 2013.80   95.69 
  -4   6   4 1805.72   92.69 
   4   6  -4 1865.81   93.49 
  -4   6   4 1822.72   96.89 
  -4   6   4 1872.81   95.19 
   4   6  -4 1998.60   92.29 
  -4   6   4 1847.42   96.89 
   4   6  -4 1983.30  100.59 
   4   6  -4 1906.11   95.89 
   4   6  -4 1795.82   89.69 
  -4   6   4 1926.71   96.99 
  -4   6   4 1882.01   97.09 
   3  -6  -4  880.61   44.80 
  -3  -6   4  896.31   42.60 
  -3  -6   4  839.22   44.70 
  -3  -6   4  890.71   51.29 
  -3  -6   4  766.72   46.00 
  -3   6   4  864.41   49.60 
  -3   6   4  899.91   51.39 
   3   6  -4  831.12   49.20 
  -3   6   4  780.32   52.99 
   3   6  -4  904.31   47.20 
  -3   6   4  853.31   48.80 
  -3   6   4  871.41   51.29 
   3   6  -4  927.81   53.59 
   3   6  -4  831.22   48.20 
   2  -6  -4 1295.27   63.49 
  -2  -6   4 1296.57   62.09 
  -2  -6   4 1307.27   73.69 
   2  -6  -4 1355.76   60.39 
  -2   6   4 1169.38   66.09 
  -2   6   4 1272.47   68.49 
   2   6  -4 1289.17   66.69 
  -2   6   4 1341.77   71.29 
   2   6  -4 1245.18   65.19 
  -2   6   4 1330.97   68.99 
  -2   6   4 1277.47   67.29 
   1  -6  -4  989.10   48.30 
  -1  -6   4 1046.40   50.89 
  -1   6   4 1145.19   62.59 
  -1   6   4 1006.50   56.29 
  -1   6   4 1018.40   56.49 
   1   6  -4 1046.60   55.79 
  -1   6   4 1101.09   60.29 
   1   6  -4  950.00   51.59 
   0  -6   4 3463.95  163.38 
   0  -6   4 3105.19  160.28 
   0  -6   4 3349.47  157.08 
   0   6   4 3221.68  162.48 
   0   6   4 3950.80  170.58 
   0   6  -4 3811.52  167.98 
   0   6  -4 3265.97  160.18 
   0   6   4 3552.24  166.88 
   0   6  -4 3436.36  162.08 
   0   6  -4 3052.99  162.58 
   0   6  -4 3434.86  162.18 
   1  -6   4 1641.14   82.59 
   1  -6   4 1549.74   80.89 
  -1  -6  -4 1597.44   73.49 
   1  -6   4 1617.94   76.69 
  -1   6  -4 1605.74   81.89 
   1   6   4 1666.73   83.09 
  -1   6  -4 1413.06   82.19 
   1   6   4 1673.83   86.29 
  -1   6  -4 1626.94   80.69 
   1   6   4 1564.74   85.19 
   1   6   4 1618.04   84.89 
  -1   6  -4 1606.84   80.69 
  -1   6  -4 1545.85   77.99 
   2  -6   4    8.00    3.00 
  -2  -6  -4    3.10    1.50 
   2  -6   4    2.80    4.10 
   2  -6   4    3.60    3.80 
   2  -6   4    6.80    6.20 
  -2   6  -4    4.30    3.80 
  -2   6  -4    5.70    4.90 
  -2   6  -4    4.00    3.70 
   2   6   4    3.10    6.50 
   2   6   4    5.30    7.00 
   2   6   4   -4.50    6.90 
  -2   6  -4    7.20    3.70 
   2   6   4    5.30    4.40 
   3  -6   4   14.10    5.80 
   3  -6   4   31.10    7.30 
  -3  -6  -4   29.30    4.50 
   3  -6   4   30.90    5.30 
  -3  -6  -4   22.70    3.60 
   3  -6   4   28.30    6.60 
  -3   6  -4   24.70    6.20 
   3   6   4    2.90    9.10 
  -3   6  -4   24.80    6.20 
  -3   6  -4   30.10    5.80 
   3   6   4   23.80    8.80 
  -3   6  -4   25.80    7.50 
   3   6   4   23.90    7.80 
  -3   6  -4   26.80    6.60 
   3   6   4   31.90    7.90 
   4  -6   4   27.50    5.90 
  -4  -6  -4   37.60    5.10 
  -4  -6  -4   30.70    4.30 
   4  -6   4   51.59    7.60 
   4  -6   4   32.30    7.00 
   4   6   4   28.90    8.60 
  -4   6  -4   46.70    7.00 
  -4   6  -4   26.60    7.30 
  -4   6  -4   35.10    7.00 
   5  -6   4  153.18   14.20 
   5  -6   4  152.58   13.40 
  -5  -6  -4  159.58   11.50 
   5  -6   4  170.78   12.60 
  -5   6  -4  156.68   11.50 
  -5   6  -4  141.49   13.90 
   5   6   4  150.98   13.40 
   5   6   4  150.88   15.00 
  -5   6  -4  155.38   10.90 
   6  -6   4   36.90    4.10 
   6  -6   4   47.90    7.40 
   6   6   4   34.00    8.70 
  -6   6  -4   30.80    7.00 
  -6   6  -4   41.00    4.50 
   6   6   4   34.20    5.30 
   8  -7  -4   52.29    9.10 
  -8  -7   4   35.50    4.00 
   8  -7  -4   34.50    6.70 
   8   7  -4   39.90    4.50 
  -8   7   4   36.80    5.20 
  -8   7   4   40.40    5.10 
  -8   7   4   50.39    7.60 
  -8   7   4   48.40    6.20 
  -8   7   4   39.60    5.60 
  -7  -7   4  141.79    9.70 
   7  -7  -4  134.49   11.80 
  -7   7   4  119.09   12.00 
  -7   7   4  143.29   11.60 
   7   7  -4  135.89   10.50 
  -7   7   4  150.28   12.20 
  -7   7   4  123.69   12.10 
  -7   7   4  148.89   14.80 
  -7   7   4  146.99   13.30 
  -6  -7   4  134.19    8.90 
   6  -7  -4  140.29   12.40 
   6  -7  -4  133.79   10.30 
  -6  -7   4  139.19   10.00 
  -6   7   4   99.69   15.20 
  -6   7   4  133.29   12.30 
   6   7  -4  137.19   11.30 
  -6   7   4  124.79   12.40 
  -6   7   4  126.89   13.60 
  -6   7   4  138.69   12.80 
  -6   7   4  136.49   17.60 
  -5  -7   4  369.96   20.70 
  -5  -7   4  382.16   22.60 
   5  -7  -4  342.77   20.00 
   5  -7  -4  299.27   21.80 
  -5  -7   4  357.86   19.10 
   5   7  -4  356.96   23.20 
  -5   7   4  359.86   26.90 
  -5   7   4  345.37   24.20 
  -5   7   4  356.76   25.50 
  -5   7   4  302.07   25.20 
  -5   7   4  348.87   24.40 
  -5   7   4  371.66   25.80 
  -4  -7   4  445.36   27.00 
  -4  -7   4  510.35   25.80 
  -4  -7   4  459.75   29.10 
   4  -7  -4  497.65   28.80 
   4   7  -4  545.95   30.10 
  -4   7   4  458.15   33.20 
  -4   7   4  507.85   33.80 
  -4   7   4  496.85   31.70 
  -4   7   4  490.75   29.90 
  -4   7   4  516.95   33.50 
   4   7  -4  501.75   31.00 
  -4   7   4  507.85   32.30 
  -4   7   4  508.85   33.60 
  -3  -7   4  286.57   23.50 
  -3  -7   4  278.37   18.50 
  -3  -7   4  305.17   16.80 
  -3  -7   4  306.87   28.20 
   3  -7  -4  282.17   16.30 
   3   7  -4  270.77   18.80 
  -3   7   4  289.07   22.10 
   3   7  -4  247.58   21.50 
   3   7  -4  256.67   20.70 
  -3   7   4  314.47   25.90 
  -3   7   4  275.37   21.00 
  -3   7   4  280.87   23.50 
   3   7  -4  293.97   25.10 
  -3   7   4  284.47   22.30 
   3   7  -4  317.37   22.20 
  -3   7   4  273.47   22.50 
  -2  -7   4 1414.86   73.59 
   2  -7  -4 1312.57   65.29 
  -2  -7   4 1413.66   66.69 
  -2  -7   4 1514.55   92.19 
  -2   7   4 1370.96   78.19 
   2   7  -4 1414.56   71.89 
   1  -7  -4 2576.94  123.09 
  -1  -7   4 2803.42  131.29 
  -1  -7   4 2819.72  125.59 
  -1   7   4 2618.24  137.39 
   1   7  -4 2794.42  131.49 
   0  -7   4  677.03   40.40 
   0  -7   4  638.24   33.40 
   0  -7   4  647.14   38.00 
   0  -7  -4  593.54   30.80 
   0   7  -4  655.83   38.60 
   0   7   4  662.83   41.30 
   0   7  -4  630.54   36.80 
   0   7   4  645.94   40.30 
   0   7  -4  584.64   39.00 
   0   7   4  648.64   38.90 
   0   7  -4  617.74   34.70 
   0   7  -4  645.34   38.60 
  -1  -7  -4  611.74   32.80 
   1  -7   4  690.13   35.80 
   1  -7   4  700.43   39.80 
  -1   7  -4  706.93   39.60 
   1   7   4  666.03   42.40 
  -1   7  -4  638.84   41.40 
   1   7   4  693.23   42.80 
   1   7   4  642.24   42.20 
  -1   7  -4  765.92   41.80 
   1   7   4  704.43   41.30 
  -1   7  -4  685.53   37.40 
   2  -7   4  563.34   30.50 
   2  -7   4  582.34   34.10 
  -2  -7  -4  527.15   27.90 
   2   7   4  572.74   37.10 
   2   7   4  557.54   34.90 
  -2   7  -4  580.04   33.90 
  -2   7  -4  572.44   34.70 
  -2   7  -4  534.85   36.00 
  -2   7  -4  552.84   31.80 
  -3  -7  -4  314.97   17.10 
  -3  -7  -4  303.17   18.20 
   3  -7   4  345.47   23.40 
   3   7   4  344.87   24.20 
  -3   7  -4  272.27   21.50 
  -3   7  -4  286.97   22.80 
  -3   7  -4  321.97   20.90 
   3   7   4  302.67   22.20 
  -3   7  -4  318.77   20.00 
  -4  -7  -4   40.60    5.20 
   4  -7   4   51.19    8.70 
   4  -7   4   53.99    7.40 
   4  -7   4   40.60    5.80 
  -4   7  -4   47.90    7.60 
  -4   7  -4   50.59    8.70 
  -4   7  -4   55.39   11.20 
  -4   7  -4   44.80    6.10 
   4   7   4   58.09   12.90 
   4   7   4   41.50    7.10 
  -5  -7  -4   37.20    4.60 
   5  -7   4   42.00    5.50 
   5   7   4   49.80    7.30 
  -5   7  -4   35.00    4.50 
  -5   7  -4   38.70    6.10 
  -5   7  -4   45.50    5.10 
   7  -8  -4    2.80    3.50 
  -7  -8   4    0.00    1.30 
   7  -8  -4    0.00    2.40 
   7  -8  -4    0.20    3.30 
   7   8  -4    1.00    1.50 
  -7   8   4    4.90    2.60 
  -7   8   4   -1.20    2.00 
  -7   8   4    4.80    2.30 
  -7   8   4    3.30    2.60 
  -7   8   4    4.60    2.20 
  -6  -8   4    7.30    2.20 
   6  -8  -4   10.70    3.20 
  -6   8   4   10.80    3.40 
  -6   8   4    9.70    3.20 
  -6   8   4    2.80    2.90 
  -6   8   4    5.60    3.20 
   6   8  -4    9.00    2.50 
  -6   8   4   14.00    3.60 
   5  -8  -4   14.20    3.60 
  -5  -8   4   16.70    3.20 
  -5   8   4    9.30    3.70 
  -5   8   4    6.60    4.30 
  -5   8   4   10.50    4.80 
  -5   8   4   11.80    4.20 
  -5   8   4   14.70    4.30 
   5   8  -4    9.90    3.50 
  -4  -8   4  230.88   15.40 
   4  -8  -4  208.98   15.00 
  -4  -8   4  226.88   14.10 
  -4   8   4  205.18   16.90 
  -4   8   4  184.28   18.20 
  -4   8   4  230.68   18.10 
  -4   8   4  228.28   18.40 
  -4   8   4  228.18   18.30 
  -4   8   4  238.58   17.40 
   4   8  -4  223.58   16.30 
  -3  -8   4  172.78   12.40 
   3  -8  -4  161.48   10.70 
  -3   8   4  170.88   15.70 
  -3   8   4  175.18   15.90 
  -3   8   4  172.08   15.30 
   3   8  -4  200.78   13.20 
  -3   8   4  183.98   15.10 
   2  -8  -4  461.45   28.40 
  -2  -8   4  455.45   30.50 
  -2  -8   4  568.14   27.50 
   2   8  -4  578.84   32.40 
   2   8  -4  549.35   33.90 
  -2   8   4  549.25   32.00 
  -2   8   4  497.45   32.90 
  -2   8   4  516.75   30.70 
   2   8  -4  564.24   30.40 
  -2   8   4  572.04   41.50 
  -2   8   4  521.75   30.50 
  -1  -8   4  229.48   13.80 
   1  -8  -4  182.28   11.70 
  -1  -8   4  207.08   16.50 
   1   8  -4  247.98   24.00 
   1   8  -4  235.98   17.60 
  -1   8   4  242.78   17.70 
  -1   8   4  232.48   19.40 
   1   8  -4  235.58   19.00 
  -1   8   4  221.78   19.20 
  -1   8   4  215.48   16.60 
   0   8   4 1198.08   65.09 
   0   8  -4 1182.68   67.59 
   0   8  -4 1268.17   64.29 
   0   8  -4 1227.58   59.99 
   0   8   4 1225.18   63.09 
   0   8   4 1245.78   64.69 
   0   8   4 1251.57   64.59 
   1  -8   4  407.06   25.10 
   1  -8   4  432.96   27.40 
   1   8   4  404.26   26.10 
  -1   8  -4  416.86   25.40 
  -1   8  -4  394.16   27.30 
  -1   8  -4  367.46   23.20 
   1   8   4  420.36   27.70 
  -1   8  -4  419.16   27.30 
   2  -8   4   42.60    6.50 
  -2   8  -4   39.10    5.80 
   2   8   4   24.60    9.30 
  -2   8  -4   25.00    5.10 
  -2   8  -4   36.30    7.30 
  -2   8  -4   39.10    7.40 
   2   8   4   44.40    7.40 
   3  -8   4   75.19    7.80 
  -3  -8  -4   67.19    6.60 
   3   8   4   74.09    8.70 
  -3   8  -4   88.09    8.00 
  -3   8  -4   79.79    7.20 
  -3   8  -4   79.49    8.90 
   4   8   4   11.80    3.30 
  -4   8  -4    9.00    2.50 
  -4   8  -4   10.50    3.00 
  -5   9   4  212.78   13.40 
  -5   9   4  209.78   13.50 
   5   9  -4  220.08   13.70 
  -5   9   4  203.28   14.10 
  -4  -9   4   34.20    4.00 
  -4   9   4   31.50    6.50 
  -4   9   4   28.00    7.20 
  -4   9   4   37.00    7.50 
  -4   9   4   46.90    6.20 
  -4   9   4   25.50    4.60 
  -3  -9   4  297.67   17.30 
  -3   9   4  338.07   20.30 
   3   9  -4  342.17   19.80 
  -3   9   4  283.57   18.50 
  -3   9   4  294.67   22.10 
  -3   9   4  327.67   19.10 
  -3   9   4  343.97   20.80 
  -2  -9   4  363.76   20.90 
  -2   9   4  399.26   24.40 
   2   9  -4  414.56   21.30 
  -2   9   4  356.56   24.50 
  -2   9   4  401.26   23.40 
  -1  -9   4  136.19   10.20 
   1   9  -4  154.38   15.00 
  -1   9   4  172.18   16.20 
   1   9  -4  143.79   10.80 
   0  -9   4   78.09    7.20 
   0   9  -4   82.19    7.80 
   0   9  -4   71.99    9.10 
   1  -9   4    0.10    1.80 
   1  -9   4   -0.50    2.10 
  -1   9  -4   -2.40    1.90 
  -1   9  -4    3.70    2.50 
  -1   9  -4    4.90    2.50 
   2  -9   4  162.08   10.40 
  -2   9  -4  172.78   13.30 
  -2   9  -4  184.28   12.70 
  -2   9  -4  179.68   10.60 
 -11   0   5  133.79   10.90 
  11   0  -5  138.59   11.20 
  10   0  -5  103.29   11.50 
 -10   0   5  110.59   12.00 
  10   0  -5  119.89   12.20 
   9   0  -5    8.60    6.20 
   9   0  -5    9.90    4.70 
  -9   0   5    1.60    4.70 
  -9   0   5    9.70    5.20 
  -8   0   5  305.37   21.70 
   8   0  -5  272.37   23.20 
   8   0  -5  296.17   22.70 
  -8   0   5  251.27   20.70 
   8   0  -5  283.67   21.90 
  -8   0   5  294.37   21.30 
   8   0  -5  262.47   19.30 
  -7   0   5  -10.50    6.40 
   7   0  -5   -4.70    2.70 
   7   0  -5   14.60    6.30 
  -7   0   5   -1.00    2.30 
  -7   0   5    1.60    3.10 
  -6   0   5 4282.17  192.88 
   6   0  -5 4029.60  193.88 
  -6   0   5 4215.38  189.98 
   5   0  -5  383.16   24.70 
  -5   0   5  430.96   24.20 
  -5   0   5  390.96   21.90 
  -4   0   5 1453.15   67.89 
   4   0  -5 1350.16   68.89 
  -4   0   5 1392.86   65.99 
   4   0  -5 1356.96   65.89 
   4   0  -5 1475.35   68.19 
  -3   0   5 2754.82  123.09 
  -3   0   5 2622.84  121.29 
   3   0  -5 2816.52  124.49 
  -3   0   5 2463.05  120.49 
   3   0  -5 2691.43  121.49 
   2   0  -5 1759.22   80.89 
   2   0  -5 1840.82   85.49 
  -2   0   5 1771.42   81.09 
  -2   0   5 1753.82   81.09 
   2   0  -5 1663.83   82.69 
  -1   0   5 4224.98  182.98 
  -1   0   5 4106.19  183.48 
   1   0  -5 3893.21  183.68 
   1   0  -5 4007.40  182.28 
   0   0  -5  646.14   41.80 
   0   0   5  823.42   38.00 
   0   0   5  739.23   36.50 
   0   0  -5  718.53   36.20 
   1   0   5  168.98   11.80 
  -1   0  -5  166.58   17.10 
  -1   0  -5  175.58   11.30 
   1   0   5  200.48   13.80 
  -2   0  -5  188.78   13.50 
  -2   0  -5  193.18   12.50 
   2   0   5  201.78   15.50 
   2   0   5  161.08   12.40 
   2   0   5  182.48   15.80 
   3   0   5  362.76   25.20 
   3   0   5  330.27   24.10 
  -3   0  -5  327.97   20.60 
   4   0   5 1249.28   65.69 
   4   0   5 1162.48   64.09 
   4   0   5 1161.78   65.29 
   4   0   5 1185.28   64.39 
   5   0   5 1066.69   61.69 
   5   0   5 1148.79   60.49 
   5   0   5  927.21   60.39 
   5   0   5 1157.78   60.39 
   6   0   5   42.00    9.00 
   6   0   5   34.60    7.50 
   7   0   5   17.00    4.80 
   7   0   5   31.10    6.30 
   7   0   5   23.40    5.60 
 -11  -1   5   75.19    8.50 
  11  -1  -5   72.19    7.90 
  11  -1  -5   89.39    8.20 
 -11   1   5   83.09    9.20 
  11   1  -5   86.69    8.50 
  10  -1  -5   86.39    9.90 
 -10  -1   5   92.69   10.50 
  10  -1  -5   94.59   10.70 
  10   1  -5   86.29   10.10 
 -10   1   5   94.59   10.50 
 -10   1   5   71.59   10.10 
  -9  -1   5  338.67   22.70 
   9  -1  -5  280.97   22.10 
  -9  -1   5  276.47   20.80 
   9  -1  -5  281.07   23.00 
   9   1  -5  289.87   22.40 
   9   1  -5  294.27   19.90 
  -9   1   5  292.37   21.90 
  -9   1   5  283.77   21.30 
  -9   1   5  278.77   21.90 
  -8  -1   5  184.08   16.00 
   8  -1  -5  176.78   16.60 
  -8  -1   5  214.68   17.80 
   8  -1  -5  192.68   17.90 
   8  -1  -5  183.38   18.70 
  -8   1   5  205.38   16.80 
  -8   1   5  225.08   18.30 
   8   1  -5  204.98   18.20 
  -8   1   5  194.88   17.10 
   8   1  -5  199.18   17.90 
   8   1  -5  199.68   15.70 
  -8   1   5  195.88   17.40 
   7  -1  -5 2010.10   98.19 
  -7  -1   5 2070.89   95.99 
   7  -1  -5 1968.00   96.69 
  -7   1   5 1949.60   92.69 
   7   1  -5 1836.82   97.49 
   7   1  -5 1947.41   98.09 
  -7   1   5 1959.10   97.39 
  -7   1   5 1938.81   97.59 
  -6  -1   5  431.66   24.20 
   6  -1  -5  428.76   26.80 
  -6  -1   5  439.26   25.80 
   6  -1  -5  439.16   25.60 
  -6  -1   5  430.86   23.10 
   6  -1  -5  412.16   23.80 
  -6   1   5  417.76   23.70 
  -6   1   5  432.36   27.00 
   6   1  -5  396.76   27.30 
   5  -1  -5 3481.05  161.38 
   5  -1  -5 3450.85  164.48 
  -5  -1   5 3789.82  163.78 
  -5  -1   5 3480.55  161.78 
  -5  -1   5 3477.35  159.88 
  -5   1   5 3567.24  161.58 
  -5   1   5 3676.43  165.08 
   5   1  -5 3385.36  165.88 
   5   1  -5 3668.33  164.58 
  -4  -1   5 1416.56   71.89 
  -4  -1   5 1658.73   75.19 
  -4  -1   5 1382.36   73.69 
   4  -1  -5 1607.94   77.29 
  -4  -1   5 1578.64   73.49 
   4  -1  -5 1763.22   73.89 
   4  -1  -5 1559.44   75.79 
   4   1  -5 1572.54   75.39 
  -4   1   5 1692.03   76.39 
  -4   1   5 1545.25   73.39 
   4   1  -5 1509.35   76.99 
   3  -1  -5  580.94   39.80 
  -3  -1   5  499.75   28.00 
  -3  -1   5  547.85   26.70 
  -3  -1   5  542.55   27.40 
   3  -1  -5  543.25   27.30 
  -3  -1   5  523.95   29.80 
  -3   1   5  545.85   27.70 
   3   1  -5  508.15   30.00 
  -3   1   5  597.84   29.80 
  -2  -1   5  244.18   15.50 
   2  -1  -5  261.97   17.30 
   2  -1  -5  238.38   13.30 
   2  -1  -5  220.98   14.40 
  -2  -1   5  247.78   14.80 
  -2  -1   5  227.28   13.10 
  -2  -1   5  242.88   13.60 
   2   1  -5  242.18   15.70 
   2   1  -5  214.18   16.20 
   2   1  -5  230.98   16.10 
  -2   1   5  240.68   14.00 
  -1  -1   5  369.96   21.70 
  -1  -1   5  384.46   20.20 
   1  -1  -5  369.16   20.80 
   1  -1  -5  398.36   20.10 
  -1  -1   5  402.36   20.40 
   1  -1  -5  435.86   25.90 
   1   1  -5  377.76   25.00 
   1   1  -5  370.96   21.90 
  -1   1   5  393.76   21.20 
   0  -1  -5 1865.31   82.09 
   0  -1  -5 1506.35   88.59 
   0  -1   5 1780.92   84.69 
   0  -1   5 1719.53   82.29 
   0   1  -5 1941.41   90.09 
   0   1  -5 1675.63   83.49 
   0   1   5 1998.60   85.29 
   0   1   5 1783.72   83.69 
  -1  -1  -5  105.69    7.30 
  -1  -1  -5   79.19   11.20 
   1  -1   5   93.89    7.60 
   1  -1   5  104.49    9.30 
  -1   1  -5  106.19   12.40 
  -1   1  -5   99.79    8.40 
   1   1   5  104.79    9.80 
   1   1   5   96.29    8.30 
  -2  -1  -5  795.22   38.20 
   2   1   5  782.22   43.40 
   2   1   5  723.43   39.70 
   3  -1   5 1870.11   91.59 
  -3  -1  -5 1868.81   86.09 
   3  -1   5 1860.71   92.79 
  -3  -1  -5 1835.92   87.79 
   3   1   5 1826.92   93.69 
   3   1   5 1820.42   93.09 
   3   1   5 1733.23   87.59 
   4  -1   5 1113.59   62.49 
   4  -1   5 1193.58   58.29 
   4  -1   5 1129.19   61.99 
   4  -1   5 1087.09   61.19 
   4  -1   5 1162.08   62.89 
  -4  -1  -5 1211.48   57.89 
   4   1   5 1124.89   62.89 
  -4   1  -5 1142.29   57.69 
   4   1   5 1172.18   63.89 
   4   1   5 1133.09   62.99 
   4   1   5 1105.89   63.99 
   5  -1   5   76.09   11.60 
  -5  -1  -5   93.29    9.70 
   5  -1   5   79.79   10.50 
   5  -1   5   78.99   11.80 
   5  -1   5   80.79   13.50 
   5   1   5   73.39   11.00 
   5   1   5   78.29   11.50 
   5   1   5   79.59   11.80 
   5   1   5   83.49   12.00 
   6  -1   5  119.49   13.20 
   6  -1   5  121.39   13.40 
   6   1   5  125.89   13.50 
   6   1   5  133.09   13.80 
   7  -1   5   98.69    9.70 
   7  -1   5   98.89   10.50 
   7  -1   5  111.59   10.50 
   7   1   5  100.89   10.00 
   7   1   5   80.29   10.30 
   7   1   5  108.19   10.50 
  11  -2  -5   84.99    9.30 
 -11  -2   5  106.29    8.90 
  11  -2  -5   98.99    8.40 
 -11   2   5   85.09    8.10 
  11   2  -5   93.69    8.10 
  10  -2  -5 1368.16   70.89 
 -10  -2   5 1499.65   70.89 
  10  -2  -5 1364.66   70.29 
 -10   2   5 1335.17   69.99 
  10   2  -5 1445.16   71.29 
  -9  -2   5  175.28   15.10 
   9  -2  -5  137.69   14.60 
  -9  -2   5  150.48   13.80 
   9  -2  -5  134.69   15.60 
  -9   2   5  135.59   14.20 
   9   2  -5  161.98   14.90 
   9   2  -5  166.08   13.30 
  -9   2   5  162.78   14.50 
  -9   2   5  128.29   14.60 
  -8  -2   5  394.16   27.10 
   8  -2  -5  453.35   29.10 
   8  -2  -5  441.36   29.90 
  -8   2   5  469.15   30.80 
  -8   2   5  467.55   29.80 
  -8   2   5  468.05   30.20 
   8   2  -5  458.35   30.90 
   8   2  -5  424.86   30.10 
  -8   2   5  477.45   30.80 
  -8   2   5  437.66   30.50 
   8   2  -5  485.55   28.00 
  -7  -2   5  438.76   28.90 
   7   2  -5  464.65   30.50 
   7   2  -5  439.06   33.30 
  -7   2   5  471.45   31.00 
   7   2  -5  472.95   31.30 
  -7   2   5  460.85   30.60 
  -7   2   5  483.95   39.00 
   6  -2  -5  230.98   17.20 
  -6  -2   5  231.38   15.80 
  -6  -2   5  242.18   14.50 
  -6  -2   5  233.88   13.80 
   6  -2  -5  242.98   17.10 
  -6   2   5  235.88   15.40 
   6   2  -5  232.28   18.50 
   6   2  -5  230.78   19.00 
  -6   2   5  221.68   18.50 
  -5  -2   5 1663.03   80.79 
   5  -2  -5 1725.83   88.49 
  -5  -2   5 1727.63   82.89 
   5  -2  -5 1807.52   85.09 
   5  -2  -5 1714.23   82.29 
   5  -2  -5 1731.33   84.29 
  -5  -2   5 1750.32   81.89 
   5   2  -5 1943.01   88.79 
  -4  -2   5  885.41   43.30 
  -4  -2   5  810.62   46.10 
  -4  -2   5  915.61   44.70 
   4  -2  -5  933.21   46.50 
   4  -2  -5  920.81   49.80 
   4  -2  -5  942.31   44.40 
  -4  -2   5  956.70   46.40 
  -4   2   5  946.21   48.30 
   4   2  -5  890.81   48.60 
   4   2  -5  880.91   48.00 
  -4   2   5  937.61   45.10 
  -3  -2   5 3865.81  174.78 
  -3  -2   5 3904.21  174.98 
   3  -2  -5 3845.72  174.38 
   3  -2  -5 3910.91  176.48 
   3  -2  -5 3886.21  180.38 
  -3  -2   5 3677.33  176.58 
   3   2  -5 4025.70  177.98 
   3   2  -5 3839.32  178.88 
  -3   2   5 3879.51  175.68 
  -2  -2   5  292.27   18.60 
   2  -2  -5  284.07   17.80 
   2  -2  -5  314.37   16.70 
  -2  -2   5  319.27   17.10 
   2  -2  -5  367.96   22.40 
  -2  -2   5  323.37   17.20 
  -2  -2   5  308.17   20.50 
  -2   2   5  325.57   18.40 
   2   2  -5  288.37   19.50 
   2   2  -5  336.17   18.90 
   2   2  -5  305.67   19.40 
   1  -2  -5 1171.28   59.29 
  -1  -2   5 1073.99   52.49 
  -1  -2   5 1110.89   53.09 
   1  -2  -5  983.60   52.79 
  -1  -2   5 1127.99   55.79 
   1  -2  -5 1151.68   52.39 
   1   2  -5 1245.58   57.89 
   1   2  -5 1111.29   55.79 
  -1   2   5 1112.09   54.59 
   0  -2  -5  709.13   45.20 
   0  -2   5  659.93   35.50 
   0  -2   5  660.43   32.80 
   0  -2   5  621.54   33.00 
   0  -2  -5  675.83   32.00 
   0   2  -5  671.73   38.30 
   0   2   5  615.04   35.00 
   0   2   5  632.04   34.20 
   1  -2   5   21.00    4.50 
  -1  -2  -5   25.50    3.50 
  -1   2  -5   21.60    4.60 
  -1   2  -5   26.90    4.60 
  -1   2  -5   26.20    7.20 
   1   2   5   31.60    5.50 
   1   2   5   30.60    5.50 
  -2  -2  -5  788.32   41.80 
   2  -2   5  864.71   44.90 
  -2  -2  -5  798.82   40.10 
   2  -2   5  841.92   46.00 
   2  -2   5  852.71   41.70 
   2   2   5  790.32   47.70 
   2   2   5  757.52   42.60 
  -3  -2  -5  435.56   25.30 
   3  -2   5  428.76   28.40 
   3  -2   5  451.95   29.30 
   3  -2   5  433.06   27.90 
  -3  -2  -5  436.46   23.60 
   3   2   5  446.56   31.40 
   3   2   5  390.96   25.30 
   3   2   5  448.06   30.90 
   3   2   5  349.87   29.60 
   3   2   5  403.86   29.80 
   4  -2   5   67.09   10.10 
   4  -2   5   62.39    7.60 
   4  -2   5   77.79   10.10 
  -4  -2  -5   61.29    7.10 
   4  -2   5   61.29   10.40 
  -4  -2  -5   78.49    8.50 
   4   2   5   73.09   11.30 
   4   2   5   51.99   11.90 
  -4   2  -5   62.19    8.10 
   4   2   5   55.09   10.50 
   4   2   5   57.59    9.80 
   4   2   5   68.69   11.40 
  -5  -2  -5   12.60    3.90 
   5  -2   5   11.00    4.50 
   5  -2   5   12.40    4.80 
   5  -2   5   14.60    4.40 
   5  -2   5   11.10    6.70 
   5   2   5   15.00    5.40 
   5   2   5   14.30    6.00 
   5   2   5   12.30    5.40 
  -5   2  -5   15.30    4.90 
   5   2   5   16.00    6.20 
   6  -2   5   13.80    5.50 
   6  -2   5   21.40    5.00 
   6  -2   5    2.10    5.10 
   6   2   5   10.40    4.30 
   6   2   5   16.00    5.60 
   6   2   5   11.70    4.60 
   6   2   5    9.40    5.20 
   7  -2   5  102.29   12.20 
   7  -2   5   60.99    8.40 
   7  -2   5   80.09    8.20 
   7   2   5   73.69   10.50 
   7   2   5   73.79    8.60 
  10  -3  -5  153.48   13.00 
 -10  -3   5  166.68   13.40 
 -10   3   5  144.89   12.70 
  -9   3   5  685.13   40.10 
  -9   3   5  669.33   38.20 
  -9   3   5  590.04   36.50 
   8  -3  -5  391.56   27.00 
   8  -3  -5  382.96   25.80 
   8  -3  -5  331.87   24.10 
  -8  -3   5  385.56   21.90 
  -8   3   5  397.86   27.00 
  -8   3   5  359.96   25.00 
  -8   3   5  401.16   27.60 
  -8   3   5  419.06   27.30 
   8   3  -5  436.46   25.10 
  -8   3   5  402.46   25.60 
  -8   3   5  385.76   27.20 
   8   3  -5  362.96   26.60 
   7  -3  -5 1930.31   93.19 
   7  -3  -5 1841.42   93.09 
   7  -3  -5 1908.11   95.99 
   7  -3  -5 1791.02   89.69 
  -7  -3   5 1909.91   91.99 
  -7  -3   5 1944.41   89.09 
  -7  -3   5 1901.51   88.49 
   7   3  -5 2079.79   92.89 
   7   3  -5 1890.31   96.99 
  -7   3   5 1827.12   96.59 
  -7   3   5 1897.61   94.29 
   7   3  -5 1848.72   95.29 
   7   3  -5 1870.81   96.39 
  -7   3   5 1847.62   95.49 
  -7   3   5 1934.21   94.99 
  -7   3   5 1835.02   92.49 
  -7   3   5 1944.41   95.29 
  -7   3   5 1886.81   94.39 
   6  -3  -5 1588.24   78.59 
   6  -3  -5 1557.64   75.69 
  -6  -3   5 1565.54   73.99 
  -6  -3   5 1685.13   77.99 
  -6  -3   5 1556.34   75.09 
   6  -3  -5 1613.84   78.49 
  -6   3   5 1461.65   81.59 
  -6   3   5 1485.05   80.19 
   6   3  -5 1605.74   82.79 
  -6   3   5 1664.13   84.29 
   6   3  -5 1652.03   82.79 
   5  -3  -5  677.73   37.50 
  -5  -3   5  683.63   34.40 
  -5  -3   5  692.33   35.60 
   5  -3  -5  671.33   35.50 
  -5  -3   5  737.33   37.90 
   5  -3  -5  715.83   38.00 
  -5  -3   5  704.43   36.60 
  -5   3   5  650.03   40.60 
  -5   3   5  677.83   36.70 
   5   3  -5  752.12   41.90 
  -5   3   5  690.13   40.70 
  -4  -3   5  195.78   16.30 
  -4  -3   5  223.08   13.10 
   4  -3  -5  220.98   13.50 
   4  -3  -5  199.68   14.50 
  -4  -3   5  230.88   14.40 
  -4  -3   5  234.48   17.10 
   4  -3  -5  233.38   15.30 
  -4  -3   5  231.28   14.30 
   4   3  -5  209.88   17.50 
   4   3  -5  219.18   17.80 
  -4   3   5  216.58   17.90 
  -4   3   5  214.18   17.50 
  -3  -3   5   30.00    4.90 
   3  -3  -5   34.40    3.90 
  -3  -3   5   31.70    5.90 
   3  -3  -5   34.80    6.40 
   3  -3  -5   24.70    3.90 
  -3  -3   5   35.30    4.60 
  -3  -3   5   27.50    3.80 
  -3   3   5   21.90    5.50 
   3   3  -5   31.90    6.20 
   3   3  -5   28.80    6.40 
   3   3  -5   29.10    5.40 
  -3   3   5   37.30    4.90 
   2  -3  -5 1567.44   79.49 
  -2  -3   5 1578.34   72.49 
  -2  -3   5 1526.35   76.39 
  -2  -3   5 1571.44   72.29 
   2  -3  -5 1579.44   71.69 
  -2   3   5 1573.94   74.69 
  -2   3   5 1456.35   75.29 
   2   3  -5 1572.04   75.89 
   2   3  -5 1544.55   76.79 
  -1  -3   5  486.95   26.30 
   1  -3  -5  523.05   32.40 
  -1  -3   5  517.25   29.80 
   1  -3  -5  499.85   25.30 
  -1  -3   5  507.45   25.50 
   1   3  -5  514.25   29.70 
   1   3  -5  521.95   29.50 
   1   3  -5  502.65   29.60 
   0  -3  -5  264.57   14.00 
   0  -3   5  242.48   17.70 
   0  -3   5  269.37   17.30 
   0  -3   5  238.48   14.90 
   0   3  -5  247.08   17.40 
   0   3   5  233.68   19.60 
   0   3  -5  242.78   19.40 
   0   3   5  239.78   16.60 
   0   3  -5  252.77   17.30 
   1  -3   5  261.37   18.80 
   1  -3   5  261.97   16.00 
  -1  -3  -5  277.57   14.90 
   1  -3   5  270.47   19.00 
  -1  -3  -5  264.87   16.30 
   1   3   5  265.77   21.70 
   1   3   5  246.78   17.70 
   1   3   5  237.18   19.20 
  -1   3  -5  263.87   18.30 
  -1   3  -5  232.98   17.10 
   2  -3   5  104.49    9.40 
   2  -3   5  133.79   11.70 
   2  -3   5  135.79   12.30 
  -2  -3  -5  126.49    8.80 
   2  -3   5  111.29   12.90 
  -2  -3  -5  113.29   10.10 
   2   3   5  102.99   13.90 
  -2   3  -5  115.09   11.50 
   2   3   5  121.39   13.80 
  -2   3  -5  105.49    9.80 
   2   3   5  105.79   10.60 
  -3  -3  -5   35.00    6.00 
   3  -3   5   51.99    8.90 
   3  -3   5   38.20    7.30 
   3  -3   5   36.50    8.20 
   3  -3   5   30.80    6.50 
   3   3   5   52.79    8.80 
   3   3   5   25.30    8.30 
   3   3   5   64.59   11.10 
  -3   3  -5   35.30    9.40 
  -3   3  -5   43.80    6.40 
   3   3   5   29.10    8.40 
   4  -3   5    1.00    3.70 
  -4  -3  -5    5.40    2.70 
   4  -3   5    6.00    5.00 
   4  -3   5    2.90    4.30 
  -4  -3  -5    4.70    2.70 
   4   3   5   -2.10    8.00 
   4   3   5   -0.50    5.20 
   4   3   5   14.00    6.90 
  -4   3  -5    8.10    4.80 
   4   3   5   -2.30    4.10 
   4   3   5   10.70    6.60 
   5  -3   5   20.10    6.90 
  -5  -3  -5   23.70    5.00 
   5  -3   5   23.70    4.60 
  -5  -3  -5   17.60    4.20 
   5   3   5   24.00    6.30 
   5   3   5   15.80    6.90 
   5   3   5   23.40    7.50 
   5   3   5   20.80    6.00 
  -5   3  -5   14.10    5.10 
   6  -3   5   29.80    7.40 
  -6  -3  -5   19.50    5.50 
   6  -3   5   25.30    5.80 
   6   3   5   29.20    6.10 
   6   3   5   44.60    7.50 
   7  -3   5    5.10    2.60 
   7  -3   5   10.80    3.30 
   7   3   5    2.90    2.60 
  10  -4  -5    5.80    3.00 
 -10  -4   5   11.10    3.50 
  10  -4  -5    5.70    4.40 
  10   4  -5   11.00    2.90 
  10   4  -5   10.60    3.90 
   9  -4  -5   75.49   12.20 
   9  -4  -5   92.29   10.00 
  -9  -4   5  102.59   10.90 
  -9  -4   5   97.99    8.90 
   9  -4  -5  102.49   12.10 
   9   4  -5  102.39   10.80 
  -9   4   5   99.19   10.20 
   9   4  -5  101.39    9.20 
  -9   4   5   98.59   12.30 
  -9   4   5  113.39   12.20 
  -9   4   5   78.19   11.20 
  -9   4   5   91.89   10.60 
  -8  -4   5  137.59   12.50 
   8  -4  -5  127.29   12.40 
  -8  -4   5  124.39   10.90 
   8  -4  -5  116.69   13.30 
  -8   4   5  135.09   11.90 
  -8   4   5  129.79   15.20 
  -8   4   5  136.29   13.80 
   8   4  -5  137.09   11.80 
  -8   4   5  141.69   14.00 
  -8   4   5  129.79   13.00 
   8   4  -5  129.99   13.50 
  -8   4   5  129.69   12.50 
  -8   4   5   97.59   12.30 
   7  -4  -5 1715.53   86.49 
   7  -4  -5 1834.22   87.09 
   7  -4  -5 1767.32   83.49 
  -7  -4   5 1548.25   84.09 
   7  -4  -5 1658.33   89.29 
  -7  -4   5 1811.02   81.39 
  -7  -4   5 1839.82   82.69 
   7   4  -5 1591.24   86.09 
  -7   4   5 1724.63   89.39 
  -7   4   5 1732.73   87.99 
  -7   4   5 1779.12   87.89 
   7   4  -5 1748.13   88.79 
  -7   4   5 1709.83   86.99 
  -7   4   5 1770.12   90.49 
  -7   4   5 1746.53   91.19 
  -7   4   5 1867.21   90.19 
   6  -4  -5 3022.70  144.59 
   6  -4  -5 3251.07  145.29 
  -6  -4   5 3118.69  141.49 
  -6  -4   5 3149.19  143.79 
  -6  -4   5 3268.17  143.39 
   6   4  -5 3112.89  144.59 
  -6   4   5 3040.00  146.29 
  -6   4   5 2981.00  147.59 
  -6   4   5 2980.50  147.49 
  -6   4   5 3036.50  146.09 
  -6   4   5 3125.39  147.89 
  -6   4   5 2958.60  148.49 
  -6   4   5 2872.91  149.19 
   6   4  -5 3037.10  150.48 
  -5  -4   5 1234.38   57.49 
   5  -4  -5 1159.68   60.69 
  -5  -4   5 1225.58   58.99 
   5  -4  -5 1229.28   61.29 
   5  -4  -5 1264.17   58.89 
  -5  -4   5 1316.77   61.69 
  -5  -4   5 1194.28   59.89 
  -5   4   5 1182.58   64.89 
  -5   4   5  995.00   69.99 
  -5   4   5 1160.58   65.59 
   5   4  -5 1200.18   65.39 
   5   4  -5 1242.08   66.89 
  -4  -4   5 1058.89   49.10 
  -4  -4   5 1010.00   50.59 
  -4  -4   5  998.30   50.49 
   4  -4  -5 1036.60   49.60 
  -4  -4   5  938.11   54.49 
   4  -4  -5  940.51   50.79 
  -4  -4   5 1036.10   52.69 
   4  -4  -5  994.70   51.49 
  -4   4   5  984.60   56.49 
   4   4  -5 1035.90   57.09 
  -4   4   5  996.80   56.09 
   4   4  -5 1112.39   53.59 
   4   4  -5 1028.50   55.99 
  -4   4   5 1026.50   52.09 
  -3  -4   5  309.77   21.00 
   3  -4  -5  300.97   19.50 
   3  -4  -5  346.67   20.20 
  -3  -4   5  329.07   23.10 
  -3  -4   5  341.77   20.20 
   3  -4  -5  339.57   18.20 
  -3  -4   5  328.07   19.10 
  -3  -4   5  303.17   18.10 
  -3   4   5  329.37   20.90 
  -3   4   5  324.27   24.70 
   3   4  -5  317.47   23.10 
   3   4  -5  347.37   22.00 
  -3   4   5  312.87   23.80 
   3   4  -5  349.57   24.80 
  -2  -4   5  652.73   33.10 
  -2  -4   5  639.44   38.00 
  -2  -4   5  674.03   33.60 
   2  -4  -5  690.23   34.50 
   2  -4  -5  668.43   32.50 
  -2   4   5  577.74   36.20 
  -2   4   5  686.43   41.00 
   2   4  -5  676.03   37.20 
   2   4  -5  679.43   38.50 
  -2   4   5  665.43   36.30 
  -1  -4   5   93.69   10.40 
  -1  -4   5  108.19   10.20 
   1  -4  -5   92.89    6.80 
  -1  -4   5  101.59    8.20 
  -1   4   5   97.49   12.40 
  -1   4   5   97.99    9.50 
   1   4  -5   86.59   10.10 
   1   4  -5   97.99   10.10 
   0  -4   5  264.87   16.10 
   0  -4   5  269.57   18.60 
   0  -4  -5  262.17   14.50 
   0  -4   5  254.77   19.30 
   0  -4  -5  258.67   15.80 
   0   4  -5  264.47   18.90 
   0   4   5  252.67   22.00 
   0   4  -5  249.28   18.60 
   0   4   5  247.48   18.20 
   1  -4   5  109.89   11.80 
   1  -4   5  116.39   12.40 
  -1  -4  -5  104.69    9.30 
   1  -4   5  143.09   10.30 
   1  -4   5  114.69   11.80 
  -1  -4  -5  114.59    8.20 
  -1   4  -5  113.99   11.60 
   1   4   5  106.79   14.20 
   1   4   5  119.99   11.00 
  -1   4  -5  115.29   11.50 
  -2  -4  -5   64.69    6.30 
  -2  -4  -5   49.70    6.90 
   2  -4   5   51.69    8.40 
   2  -4   5   53.49    6.70 
  -2   4  -5   58.29    7.70 
  -2   4  -5   60.59   10.00 
   2   4   5   35.70    9.40 
  -2   4  -5   58.89    8.00 
  -2   4  -5   64.09    9.00 
   2   4   5   49.20   12.40 
   2   4   5   41.40   12.00 
   3  -4   5   35.10    7.80 
   3  -4   5   20.30    6.60 
   3  -4   5   38.70    6.50 
   3  -4   5   24.90    7.00 
  -3  -4  -5   37.30    5.60 
  -3  -4  -5   39.60    4.90 
   3   4   5   26.90    9.00 
   3   4   5   31.10    8.60 
  -3   4  -5   35.70    6.90 
  -3   4  -5   39.00    7.30 
   3   4   5   27.50    7.60 
  -3   4  -5   16.80    7.00 
   3   4   5   36.10    9.00 
  -3   4  -5   27.10    6.10 
   3   4   5   31.00    7.70 
   4  -4   5  211.78   18.60 
  -4  -4  -5  214.38   15.60 
   4  -4   5  221.58   18.90 
  -4  -4  -5  201.08   14.00 
  -4   4  -5  180.28   18.30 
   4   4   5  217.28   18.00 
   4   4   5  239.38   21.50 
  -4   4  -5  233.58   16.50 
   4   4   5  228.78   20.90 
   4   4   5  204.18   19.50 
   5  -4   5  196.88   16.00 
   5  -4   5  158.78   12.10 
  -5   4  -5  139.89   11.80 
   5   4   5  167.58   14.40 
   5   4   5  177.18   16.40 
   5   4   5  184.88   16.50 
  -5   4  -5  142.69   14.30 
   5   4   5  188.08   17.10 
   6  -4   5   76.89   10.10 
  -6  -4  -5   68.09    6.60 
   6  -4   5   73.29   11.90 
   6   4   5   65.59    7.70 
   9  -5  -5    6.50    5.20 
   9  -5  -5   14.00    4.90 
   9  -5  -5    7.20    3.50 
  -9  -5   5   10.90    2.50 
  -9   5   5   11.20    4.80 
   9   5  -5   11.80    5.90 
  -9   5   5    4.40    3.10 
  -9   5   5    7.70    3.20 
  -9   5   5    8.50    3.50 
  -9   5   5   11.90    4.90 
   8  -5  -5   12.60    4.50 
   8  -5  -5   15.20    4.60 
  -8  -5   5   14.00    3.50 
   8   5  -5   11.30    3.30 
  -8   5   5   11.80    3.90 
  -8   5   5   13.60    5.20 
  -8   5   5   18.40    5.10 
   8   5  -5    7.80    5.30 
  -8   5   5   12.60    5.20 
  -8   5   5    6.70    3.70 
  -7  -5   5    4.10    2.00 
   7  -5  -5    3.50    2.90 
  -7  -5   5    7.40    3.70 
   7  -5  -5    8.70    3.00 
  -7  -5   5    7.90    2.80 
   7  -5  -5    5.60    4.00 
  -7   5   5    8.60    4.50 
  -7   5   5    6.50    4.90 
   7   5  -5    1.50    2.60 
  -7   5   5    7.60    4.10 
  -7   5   5    3.70    4.00 
  -7   5   5   -1.90    3.30 
  -7   5   5   -4.80    3.40 
  -7   5   5    5.50    4.20 
  -6  -5   5 1104.09   63.19 
  -6  -5   5 1345.97   62.59 
   6  -5  -5 1332.27   65.99 
   6  -5  -5 1266.57   65.59 
  -6  -5   5 1363.56   61.19 
  -6   5   5 1292.37   68.59 
  -6   5   5 1298.37   68.99 
   6   5  -5 1396.76   66.79 
  -6   5   5 1235.88   69.19 
  -6   5   5 1250.67   70.69 
  -6   5   5 1310.27   67.59 
   6   5  -5 1330.17   71.89 
  -6   5   5 1333.17   67.09 
   6   5  -5 1066.99   69.79 
  -6   5   5 1198.18   68.29 
  -5  -5   5  325.47   18.20 
  -5  -5   5  313.07   20.10 
   5  -5  -5  313.07   21.10 
  -5  -5   5  334.87   21.50 
   5  -5  -5  291.77   20.90 
   5  -5  -5  310.97   19.00 
  -5  -5   5  329.97   19.70 
  -5  -5   5  278.07   23.70 
  -5   5   5  309.07   24.20 
   5   5  -5  333.27   26.60 
  -5   5   5  311.07   25.20 
   5   5  -5  309.07   20.10 
  -5   5   5  309.07   23.70 
  -5   5   5  285.97   24.60 
   5   5  -5  309.17   24.90 
  -5   5   5  315.97   24.60 
  -5   5   5  327.97   23.10 
   5   5  -5  317.87   22.00 
  -5   5   5  337.87   23.80 
  -4  -5   5 1007.30   62.69 
  -4  -5   5  957.30   46.20 
  -4  -5   5  946.61   50.29 
   4  -5  -5  966.20   46.80 
   4  -5  -5  875.01   48.60 
   4  -5  -5  803.42   52.49 
  -4  -5   5  928.61   48.00 
   4   5  -5  896.11   48.40 
  -4   5   5  939.51   51.99 
   4   5  -5 1025.80   58.89 
  -4   5   5  931.41   54.49 
  -4   5   5  890.41   54.39 
   4   5  -5 1096.89   54.09 
   3  -5  -5 1867.71   84.09 
  -3  -5   5 1837.12   84.39 
  -3  -5   5 1787.92   86.69 
  -3  -5   5 1704.73   88.29 
  -3  -5   5 1731.93   91.29 
   3  -5  -5 1650.83   85.19 
  -3   5   5 1797.12   93.39 
   3   5  -5 1809.12   88.69 
  -3   5   5 1807.22   91.09 
  -3   5   5 1813.02   92.49 
  -3   5   5 1562.84   89.29 
  -3   5   5 2080.89   96.29 
   3   5  -5 1932.21   94.59 
   3   5  -5 1798.02   91.69 
  -3   5   5 1797.72   93.49 
  -3   5   5 1886.61   90.69 
  -2  -5   5  572.24   29.90 
   2  -5  -5  567.24   28.70 
  -2  -5   5  605.54   32.90 
  -2  -5   5  552.04   35.40 
   2   5  -5  542.35   35.10 
  -2   5   5  557.34   33.60 
  -2   5   5  567.34   37.60 
   2   5  -5  575.14   33.80 
  -1  -5   5 3132.29  150.88 
  -1  -5   5 3323.77  154.58 
   1  -5  -5 3222.08  149.19 
  -1  -5   5 3235.48  157.18 
  -1   5   5 3332.27  161.08 
   1   5  -5 3233.88  155.48 
  -1   5   5 3212.28  155.28 
   1   5  -5 3217.08  156.58 
   1   5  -5 3793.62  159.88 
  -1   5   5 3324.77  170.38 
   0  -5   5 1164.38   56.69 
   0  -5   5 1184.18   62.29 
   0  -5  -5 1194.28   54.59 
   0   5  -5 1016.40   60.99 
   0   5  -5 1155.48   61.19 
   0   5   5 1224.58   66.19 
   0   5   5 1127.49   61.89 
   0   5  -5 1155.48   58.19 
   0   5  -5 1171.68   59.99 
   0   5   5 1143.79   64.59 
   1  -5   5  851.91   44.30 
  -1  -5  -5  907.61   42.30 
   1  -5   5  902.61   49.60 
  -1  -5  -5  876.51   43.90 
   1   5   5  854.51   49.30 
   1   5   5  852.01   51.69 
  -1   5  -5  837.62   47.40 
  -1   5  -5  881.71   48.30 
  -1   5  -5  844.22   47.00 
  -1   5  -5  783.62   48.90 
   1   5   5  882.01   53.69 
  -1   5  -5  867.01   45.80 
   1   5   5  912.21   53.29 
   2  -5   5  135.09   13.50 
   2  -5   5  127.69   12.90 
   2  -5   5  112.59   10.10 
  -2  -5  -5  128.99    9.20 
  -2  -5  -5  118.99   10.40 
   2  -5   5  121.29   12.40 
   2  -5   5  146.49   13.70 
   2   5   5  109.49   12.60 
  -2   5  -5  133.69   11.90 
   2   5   5  122.19   15.50 
  -2   5  -5  114.89   12.50 
  -2   5  -5  105.59   11.60 
  -2   5  -5  106.79   11.40 
  -2   5  -5   97.49   13.80 
   2   5   5  120.89   15.90 
   2   5   5  122.19   16.00 
   3  -5   5  467.05   30.00 
  -3  -5  -5  464.75   26.80 
   3  -5   5  412.36   29.60 
   3  -5   5  435.16   26.70 
   3  -5   5  519.95   28.80 
  -3  -5  -5  472.95   28.50 
   3   5   5  472.55   30.90 
  -3   5  -5  470.65   28.50 
  -3   5  -5  464.85   27.90 
   3   5   5  454.15   33.20 
   3   5   5  461.65   33.20 
  -3   5  -5  414.76   30.40 
   3   5   5  461.85   33.30 
  -3   5  -5  482.05   29.10 
  -4  -5  -5   62.89    6.20 
   4  -5   5   55.99   13.00 
  -4  -5  -5   72.39    7.70 
   4  -5   5   61.39    8.60 
   4  -5   5   47.70    9.90 
   4   5   5   66.99   11.60 
   4   5   5   61.69   14.70 
   4   5   5   73.89   12.70 
  -4   5  -5   81.39    8.20 
   4   5   5   55.69    9.90 
  -4   5  -5   41.80   11.20 
  -5  -5  -5   10.90    3.10 
   5  -5   5    8.10    2.70 
   5  -5   5    5.30    3.90 
   5  -5   5   11.50    3.40 
   5   5   5    3.20    3.40 
  -5   5  -5    3.20    2.90 
   5   5   5   10.40    3.60 
   6  -5   5   50.79    7.90 
   6  -5   5   56.69    7.20 
  -6  -5  -5   49.50    5.10 
   6  -5   5   52.79    8.60 
   6   5   5   34.10    5.80 
   6   5   5   49.99    6.20 
   9  -6  -5   38.90    6.30 
  -9  -6   5   47.50    5.80 
  -9   6   5   39.00    4.80 
  -9   6   5   30.60    4.80 
  -9   6   5   41.70    5.30 
   9   6  -5   38.20    4.30 
   8  -6  -5    6.40    3.00 
  -8  -6   5    4.90    2.00 
   8  -6  -5   13.40    5.60 
   8   6  -5    4.80    2.30 
  -8   6   5    5.50    5.20 
  -8   6   5    4.20    3.20 
  -8   6   5    4.40    3.10 
  -8   6   5    5.60    3.00 
   7  -6  -5   74.99   10.10 
   7  -6  -5   67.39    9.30 
   7   6  -5   79.89    8.30 
  -7   6   5   81.89    9.80 
  -7   6   5   84.19   10.10 
  -7   6   5   87.49   11.60 
  -7   6   5   84.69    9.70 
  -7   6   5   89.19    9.40 
  -7   6   5   83.89   11.00 
   6  -6  -5  100.69   10.60 
  -6  -6   5   95.99    8.50 
  -6  -6   5  100.49    9.50 
  -6  -6   5   87.29    7.50 
   6  -6  -5   97.09    8.60 
  -6   6   5  105.19   12.50 
  -6   6   5   80.19   10.60 
  -6   6   5   86.49   10.40 
  -6   6   5   79.89   11.80 
  -6   6   5   99.89   11.70 
   6   6  -5   92.79   10.00 
  -6   6   5   86.09   11.00 
  -6   6   5   80.29   11.00 
  -5  -6   5  189.68   13.30 
   5  -6  -5  169.58   14.70 
  -5  -6   5  193.58   18.30 
   5  -6  -5  189.98   14.80 
   5  -6  -5  179.38   12.70 
  -5  -6   5  178.78   11.80 
   5   6  -5  170.88   17.00 
  -5   6   5  203.48   17.70 
   5   6  -5  179.38   19.40 
   5   6  -5  175.58   15.40 
   5   6  -5  181.48   13.80 
  -5   6   5  176.88   17.40 
  -5   6   5  171.88   17.70 
  -5   6   5  177.18   17.60 
  -5   6   5  175.38   15.70 
  -5   6   5  173.78   16.50 
  -4  -6   5  588.24   30.30 
  -4  -6   5  592.24   34.40 
   4  -6  -5  571.74   32.70 
   4  -6  -5  612.34   31.10 
  -4  -6   5  572.64   37.80 
  -4  -6   5  581.64   32.20 
   4  -6  -5  545.45   32.90 
  -4   6   5  597.54   38.10 
   4   6  -5  592.84   34.20 
  -4   6   5  564.34   37.80 
  -4   6   5  583.04   35.30 
   4   6  -5  574.94   32.30 
  -4   6   5  567.64   36.70 
  -4   6   5  575.94   37.90 
   4   6  -5  596.44   38.00 
   4   6  -5  640.44   40.60 
   4   6  -5  567.34   34.90 
  -4   6   5  528.05   36.80 
  -4   6   5  583.44   36.40 
  -3  -6   5  719.23   38.40 
   3  -6  -5  767.82   36.20 
   3  -6  -5  661.03   38.30 
  -3  -6   5  697.53   36.00 
  -3  -6   5  718.33   43.60 
  -3  -6   5  675.13   40.00 
  -3   6   5  631.84   41.10 
  -3   6   5  742.73   43.00 
  -3   6   5  715.83   43.50 
   3   6  -5  774.72   46.50 
  -3   6   5  698.83   44.20 
  -3   6   5  682.23   43.20 
   3   6  -5  721.13   43.10 
   3   6  -5  680.73   41.00 
   3   6  -5  720.23   40.30 
  -3   6   5  707.93   41.40 
   3   6  -5  680.43   38.60 
  -3   6   5  716.23   44.50 
  -2  -6   5  147.29   12.50 
   2  -6  -5  124.39    9.00 
  -2  -6   5  123.49   13.70 
  -2  -6   5  129.19    9.90 
  -2   6   5  116.59   14.80 
   2   6  -5  126.69   11.90 
   2   6  -5  117.89   13.30 
  -2   6   5  126.09   15.40 
   2   6  -5  134.69   12.80 
  -2   6   5  128.99   15.50 
  -2   6   5  113.29   15.30 
  -2   6   5  128.39   13.80 
   2   6  -5  130.99   14.00 
   2   6  -5  128.89   11.40 
  -2   6   5  126.19   13.80 
  -1  -6   5   80.09   11.00 
  -1  -6   5   72.49    9.30 
   1  -6  -5   76.99    6.40 
  -1  -6   5   75.99    7.40 
   1   6  -5   55.29    9.60 
  -1   6   5   74.89   11.00 
   1   6  -5   67.29    9.80 
   1   6  -5   62.99    9.20 
  -1   6   5   79.99   11.80 
  -1   6   5   87.99   12.80 
   1   6  -5   63.59    8.50 
  -1   6   5   94.59   13.10 
  -1   6   5   82.89   12.70 
   1   6  -5   89.39   10.20 
   0  -6   5  401.46   28.20 
   0  -6   5  430.96   26.70 
   0  -6   5  423.86   23.50 
   0  -6  -5  382.46   21.20 
   0   6   5  364.86   29.00 
   0   6  -5  389.56   24.30 
   0   6  -5  336.67   27.10 
   0   6   5  406.16   31.10 
   0   6  -5  395.76   25.90 
   0   6   5  442.16   33.40 
   0   6  -5  442.16   27.80 
   0   6  -5  400.16   26.90 
   0   6   5  381.26   30.70 
   0   6   5  404.46   28.20 
  -1  -6  -5  523.45   34.30 
   1  -6   5  490.85   37.40 
  -1  -6  -5  519.45   26.70 
   1  -6   5  500.15   28.60 
  -1   6  -5  551.64   35.70 
   1   6   5  534.05   51.29 
  -1   6  -5  466.95   44.20 
  -1   6  -5  549.25   35.00 
  -1   6  -5  502.05   32.30 
   1   6   5  591.14   38.20 
  -1   6  -5  476.55   34.10 
  -2  -6  -5  205.28   12.60 
   2  -6   5  222.28   16.60 
  -2  -6  -5  202.08   13.90 
   2  -6   5  222.58   14.70 
   2   6   5  184.38   19.30 
   2   6   5  181.88   20.00 
  -2   6  -5  206.48   15.40 
   2   6   5  149.59   18.90 
   2   6   5  191.38   17.20 
  -2   6  -5  177.28   17.40 
  -2   6  -5  204.08   16.00 
  -2   6  -5  181.78   16.50 
  -3  -6  -5   42.00    6.30 
  -3  -6  -5   55.09    5.50 
   3  -6   5   51.39    8.00 
   3  -6   5   49.80    7.30 
   3   6   5   46.70    9.30 
   3   6   5   37.10    9.10 
   3   6   5   33.00    7.50 
  -3   6  -5   51.39    7.20 
  -3   6  -5   55.69    8.70 
  -3   6  -5   76.79   13.40 
  -3   6  -5   53.39   14.20 
   4  -6   5   83.39   11.70 
   4  -6   5   68.69   11.30 
  -4  -6  -5   72.29    7.50 
  -4   6  -5   74.59    7.20 
  -4   6  -5   82.59    8.10 
   4   6   5   70.79    8.70 
  -4   6  -5   61.79    9.00 
   4   6   5   66.79   10.90 
   5  -6   5    8.70    2.40 
  -5  -6  -5   13.50    2.80 
   5  -6   5    9.90    4.90 
   5   6   5   10.70    3.80 
   5   6   5   18.60    4.10 
   8  -7  -5   34.10    6.50 
  -8  -7   5   48.30    4.40 
   8  -7  -5   49.99    7.70 
   8   7  -5   46.30    4.70 
  -8   7   5   46.10    5.80 
  -8   7   5   39.80    6.20 
  -8   7   5   60.89    7.30 
  -8   7   5   50.19    4.90 
   7  -7  -5   36.70    6.30 
  -7  -7   5   39.50    4.70 
  -7   7   5   44.60    9.40 
  -7   7   5   36.80    8.10 
  -7   7   5   57.69   10.50 
  -7   7   5   40.90    9.30 
  -7   7   5   32.10    7.20 
  -6  -7   5   37.60    4.60 
   6  -7  -5   26.60    5.50 
   6  -7  -5   39.90    9.30 
   6   7  -5   38.20    5.80 
  -6   7   5   26.50    6.10 
  -6   7   5   26.80    7.10 
  -6   7   5   36.90    6.70 
  -6   7   5   26.20    5.90 
  -6   7   5   27.10    6.80 
  -6   7   5   19.00    5.80 
  -6   7   5   33.40    8.60 
   5  -7  -5  127.39   10.70 
  -5  -7   5  123.09    9.90 
  -5  -7   5  131.39   11.10 
  -5   7   5  134.99   14.30 
  -5   7   5  137.69   12.10 
  -4  -7   5   36.20    5.50 
  -4  -7   5   33.90    6.10 
  -4  -7   5   44.20    4.80 
   4  -7  -5   31.30    4.50 
   4  -7  -5   41.50    6.50 
   4   7  -5   38.20    6.40 
  -4   7   5   18.90    6.50 
  -4   7   5   40.20    8.30 
  -4   7   5   35.10    7.10 
  -4   7   5   32.30    8.80 
   4   7  -5   39.10    6.50 
  -4   7   5   33.10    7.70 
  -4   7   5   27.60    7.60 
  -4   7   5   28.90    6.80 
   3  -7  -5   87.49    7.70 
   3  -7  -5   99.99    9.90 
  -3  -7   5  108.49    8.50 
  -3  -7   5  107.29    9.60 
  -3  -7   5   81.59   10.30 
  -3   7   5  116.39   12.00 
  -3   7   5  109.79   13.70 
  -3   7   5  105.79   12.70 
   3   7  -5  106.39   10.90 
  -3   7   5  108.59   13.10 
  -3   7   5  109.89   12.70 
  -3   7   5   97.99   12.80 
   3   7  -5   92.19    9.80 
   3   7  -5   92.99   11.30 
  -2  -7   5  539.65   28.10 
   2  -7  -5  452.35   26.60 
  -2  -7   5  566.94   30.70 
  -2  -7   5  494.75   31.70 
   2   7  -5  546.05   32.40 
   2   7  -5  520.85   33.10 
  -2   7   5  521.55   35.50 
  -2   7   5  507.65   33.80 
  -2   7   5  532.65   32.90 
  -2   7   5  584.54   36.60 
   2   7  -5  526.95   30.80 
  -2   7   5  505.45   33.10 
   1  -7  -5   10.10    2.60 
  -1  -7   5    3.90    3.00 
   1   7  -5    2.80    2.90 
   1   7  -5    5.10    3.40 
  -1   7   5    0.60    4.80 
  -1   7   5   -3.10    3.20 
   1   7  -5    8.20    4.10 
   1   7  -5    4.90    3.50 
  -1   7   5   -9.80    5.20 
  -1   7   5    9.00    5.60 
   0  -7  -5   50.09    5.00 
   0  -7   5   55.99    6.50 
   0  -7   5   56.89    7.80 
   0   7  -5   51.99    8.80 
   0   7   5   57.89   10.50 
   0   7   5   45.40    9.70 
   0   7  -5   49.40    9.10 
   0   7   5   73.49   11.60 
   0   7  -5   55.39    8.00 
   0   7  -5   50.59    7.00 
   0   7   5   49.20    8.60 
  -1  -7  -5   49.50    6.20 
   1  -7   5   51.69    7.40 
  -1  -7  -5   42.70    4.80 
   1  -7   5   44.40    6.20 
  -1   7  -5   41.70    7.50 
  -1   7  -5   49.80    7.40 
   1   7   5   51.19    8.70 
   1   7   5   39.60   14.00 
   1   7   5   43.80   10.10 
   1   7   5   33.80    9.70 
  -1   7  -5   41.40    7.00 
   2  -7   5   34.40    5.90 
  -2  -7  -5   33.60    5.00 
  -2   7  -5   37.20    7.60 
  -2   7  -5   24.00    5.20 
   2   7   5   41.90    9.10 
   2   7   5   26.80    7.60 
   2   7   5   52.29    7.40 
  -2   7  -5   37.90    5.40 
   3  -7   5   31.60    5.00 
  -3  -7  -5   22.20    5.00 
  -3   7  -5   26.10    6.10 
  -3   7  -5   14.80    4.50 
  -3   7  -5   23.50    4.40 
   3   7   5   21.60    4.80 
   4  -7   5   24.90    4.00 
  -4  -7  -5   29.30    4.20 
  -4   7  -5   32.30    5.80 
  -4   7  -5   32.20    4.40 
  -4   7  -5   28.40    4.20 
   4   7   5   31.80    4.90 
   4   7   5   23.50    6.40 
   6  -8  -5    7.70    2.70 
  -6  -8   5   10.90    2.20 
  -6   8   5    6.00    2.80 
  -6   8   5    9.90    3.60 
  -6   8   5    4.10    2.80 
   6   8  -5   10.80    2.70 
  -6   8   5    7.90    3.10 
  -6   8   5   11.90    3.30 
  -5  -8   5  156.38   10.40 
   5  -8  -5  143.49   11.90 
  -5   8   5  161.88   13.40 
  -5   8   5  157.98   13.40 
  -5   8   5  150.98   14.50 
   5   8  -5  166.48   13.10 
  -5   8   5  132.19   13.40 
  -5   8   5  159.18   13.80 
   4  -8  -5   87.49    9.10 
  -4  -8   5   95.59    8.10 
   4   8  -5  110.39   10.00 
  -4   8   5  105.89   10.80 
  -4   8   5  111.19   11.60 
  -4   8   5   98.69   10.40 
  -4   8   5  103.99   13.00 
  -4   8   5  103.99    9.90 
  -4   8   5  105.29   11.10 
  -3  -8   5  364.26   24.60 
   3  -8  -5  368.86   24.00 
  -3  -8   5  407.06   23.30 
  -3   8   5  422.66   27.60 
   3   8  -5  452.15   25.80 
  -3   8   5  424.46   27.80 
  -3   8   5  430.46   26.40 
   3   8  -5  413.06   25.80 
   3   8  -5  429.66   23.50 
  -3   8   5  423.56   26.40 
  -3   8   5  402.46   29.60 
  -3   8   5  479.35   33.20 
  -2  -8   5   89.29   10.30 
  -2  -8   5   98.49    8.90 
   2   8  -5   93.09   10.60 
  -2   8   5   96.69   11.00 
  -2   8   5   98.99   10.30 
   2   8  -5  108.09   10.50 
  -2   8   5   85.69   10.50 
   2   8  -5  100.89    9.40 
  -2   8   5   99.59   12.20 
  -2   8   5  110.29   12.50 
  -1  -8   5  159.08   13.90 
  -1  -8   5  183.58   13.30 
  -1   8   5  186.88   16.60 
   1   8  -5  174.88   15.10 
  -1   8   5  173.58   14.50 
  -1   8   5  180.08   16.50 
  -1   8   5  180.28   15.80 
   1   8  -5  184.68   14.90 
   1   8  -5  226.88   18.40 
   1   8  -5  171.08   13.60 
   0  -8   5  129.99   10.60 
   0   8  -5  110.19   11.50 
   0   8  -5  115.49   10.40 
   0   8   5  131.39   17.60 
   0   8  -5  132.89   11.30 
   0   8   5  132.49   13.20 
   0   8   5  116.49   12.00 
   0   8  -5  110.19   11.70 
  -1  -8  -5    0.10    2.70 
   1  -8   5    0.20    1.90 
  -1   8  -5   -3.40    3.10 
  -1   8  -5    0.90    2.30 
   1   8   5    5.20    6.50 
   1   8   5    5.80    8.40 
  -1   8  -5    3.80    2.80 
   2  -8   5   10.80    2.90 
   2   8   5   10.70    3.70 
  -2   8  -5   12.50    3.00 
   2   8   5    9.40    4.30 
  -2   8  -5    9.80    3.50 
  -2   8  -5   18.40    3.40 
   3  -8   5   42.50    4.60 
   3   8   5   38.40    5.40 
  -3   8  -5   38.90    5.50 
  -3   8  -5   41.50    4.50 
  -3   8  -5   24.60    6.20 
  -4  -9   5  176.58   10.20 
  -4   9   5  165.68   11.90 
  -4   9   5  168.98   11.20 
   4   9  -5  176.28   11.40 
  -3  -9   5  275.87   16.70 
  -3   9   5  361.96   23.50 
  -3   9   5  301.37   17.50 
   3   9  -5  335.87   18.90 
  -3   9   5  316.57   18.20 
  -2  -9   5  204.88   13.00 
  -2   9   5  218.28   14.90 
  -2   9   5  213.38   14.30 
   2   9  -5  238.78   14.40 
   2   9  -5  246.98   15.30 
  -1  -9   5  357.26   19.50 
  -1   9   5  351.96   20.40 
   1   9  -5  360.16   21.50 
   1   9  -5  374.06   20.10 
   0  -9   5   75.09    6.30 
   0   9  -5   83.59    6.80 
   0   9  -5   63.79    7.30 
 -11   0   6   20.40    5.60 
  11   0  -6   21.60    4.70 
  10   0  -6    3.10    3.00 
 -10   0   6   11.40    5.20 
 -10   0   6    8.50    4.10 
  -9   0   6   74.99   10.00 
  -9   0   6   72.69   10.20 
   9   0  -6   73.39   10.70 
  -8   0   6  213.08   17.30 
  -8   0   6  217.68   18.10 
   8   0  -6  231.58   18.90 
   8   0  -6  170.68   15.60 
   8   0  -6  197.58   18.00 
  -8   0   6  221.38   18.00 
  -7   0   6 1450.55   81.29 
  -7   0   6 1664.13   80.19 
  -7   0   6 1610.94   79.99 
   6   0  -6   79.09   10.10 
  -6   0   6   93.59    9.70 
   5   0  -6   53.09    8.00 
  -5   0   6   69.09    6.50 
   4   0  -6   12.50    4.70 
  -4   0   6    9.50    3.40 
   4   0  -6    6.70    3.20 
  -4   0   6    9.60    2.30 
  -3   0   6 2778.72  120.69 
   3   0  -6 2457.05  121.39 
  -3   0   6 2599.04  118.89 
   3   0  -6 2506.45  118.49 
  -2   0   6 3436.76  154.58 
  -2   0   6 3682.73  154.58 
   2   0  -6 2997.80  160.08 
   2   0  -6 3440.56  154.08 
  -1   0   6  868.21   41.60 
   1   0  -6  715.33   47.20 
  -1   0   6  946.61   42.50 
   1   0  -6  747.53   41.40 
   1   0  -6  847.02   40.80 
   0   0   6   28.90    4.80 
   1   0   6  313.87   19.90 
  -1   0  -6  356.16   20.80 
   1   0   6  323.87   24.10 
   2   0   6  126.79   13.60 
   2   0   6  124.19   12.80 
  -2   0  -6  121.79   10.90 
   3   0   6 1079.09   59.89 
   3   0   6 1104.39   59.69 
   3   0   6 1036.10   58.29 
   3   0   6 1030.00   54.09 
   3   0   6 1086.69   60.49 
   4   0   6  739.23   44.30 
   4   0   6  761.92   45.40 
   4   0   6  712.53   45.50 
   4   0   6  806.52   47.90 
   5   0   6   50.19    9.40 
   5   0   6   33.80    7.80 
   5   0   6   48.70    9.20 
   6   0   6    7.80    4.10 
   6   0   6    6.50    3.30 
   6   0   6   -3.90    3.90 
  11  -1  -6  137.19   10.20 
 -11  -1   6   97.09   12.50 
  11   1  -6  113.49    9.70 
 -11   1   6  120.79    9.50 
  10  -1  -6  121.29   11.70 
 -10  -1   6  133.39   16.70 
 -10  -1   6  120.49   11.30 
 -10   1   6  114.49   11.60 
  10   1  -6  104.79   11.30 
   9  -1  -6  271.67   24.00 
   9  -1  -6  300.67   21.60 
  -9  -1   6  290.47   20.70 
  -9  -1   6  248.58   20.10 
   9   1  -6  239.48   18.30 
  -9   1   6  341.57   25.30 
  -9   1   6  288.57   24.30 
  -9   1   6  276.97   21.50 
   9   1  -6  289.47   21.70 
  -9   1   6  257.87   21.10 
   8  -1  -6   10.60    5.10 
   8  -1  -6   16.50    8.20 
  -8  -1   6   24.90    6.40 
  -8  -1   6   18.60    6.80 
  -8  -1   6   14.60    6.00 
   8  -1  -6   28.30    6.90 
  -8   1   6   15.30    6.40 
  -8   1   6   10.80    5.30 
   8   1  -6   17.00    6.00 
   8   1  -6   17.30    5.40 
   8   1  -6   18.80    7.20 
  -8   1   6   20.20    7.10 
  -8   1   6   13.70    6.90 
  -8   1   6   18.40    5.90 
   7  -1  -6  147.59   15.80 
   7  -1  -6  160.88   14.70 
  -7  -1   6  171.18   14.50 
   7   1  -6  170.28   16.60 
  -7   1   6  168.78   16.00 
  -7   1   6  134.19   15.00 
  -7   1   6  106.99   19.10 
  -7   1   6  170.88   15.40 
  -6  -1   6  357.16   22.00 
  -6  -1   6  321.97   19.60 
   6  -1  -6  325.47   20.90 
   6  -1  -6  294.37   22.20 
   6   1  -6  316.57   23.90 
  -6   1   6  318.17   22.50 
   5  -1  -6  316.97   21.00 
   5  -1  -6  294.57   18.00 
  -5  -1   6  303.77   18.30 
  -5  -1   6  311.37   20.00 
   5  -1  -6  284.17   20.70 
  -5   1   6  306.77   18.40 
  -5   1   6  324.07   21.20 
   5   1  -6  288.57   21.70 
   4  -1  -6  340.07   21.60 
   4  -1  -6  347.07   22.10 
   4  -1  -6  344.77   23.40 
  -4  -1   6  377.96   21.40 
  -4  -1   6  323.87   20.40 
   4  -1  -6  329.17   19.40 
  -4  -1   6  334.67   19.40 
   4   1  -6  331.17   22.80 
  -4   1   6  341.57   19.90 
  -4   1   6  342.77   21.90 
   3  -1  -6  258.37   15.10 
  -3  -1   6  250.97   15.70 
   3  -1  -6  229.88   16.60 
  -3  -1   6  253.97   15.20 
  -3  -1   6  282.17   16.90 
   3  -1  -6  271.37   19.30 
   3   1  -6  215.78   17.80 
  -3   1   6  273.17   17.10 
   3   1  -6  243.28   17.70 
   2  -1  -6  481.75   28.00 
   2  -1  -6  522.05   26.70 
  -2  -1   6  528.35   27.00 
  -2  -1   6  555.74   28.50 
  -2  -1   6  496.15   27.80 
   2  -1  -6  556.84   33.40 
  -2   1   6  551.64   28.60 
   2   1  -6  513.45   29.50 
  -2   1   6  451.15   28.40 
   2   1  -6  490.95   31.70 
  -1  -1   6  401.96   22.80 
   1  -1  -6  408.06   23.20 
   1  -1  -6  400.46   22.30 
  -1  -1   6  417.46   24.30 
  -1  -1   6  450.65   24.00 
   1  -1  -6  377.16   28.90 
  -1   1   6  482.05   26.50 
  -1   1   6  432.66   24.10 
   1   1  -6  442.16   29.10 
   0  -1   6  145.89   11.20 
   0  -1   6  169.48   12.80 
   0  -1  -6  164.38   10.90 
   0  -1  -6  155.28   12.00 
   0   1   6  155.38   12.20 
   0   1  -6  163.78   12.20 
   0   1   6  177.48   15.50 
   0   1  -6  181.68   17.00 
   0   1   6  167.78   13.30 
   1  -1   6    8.00    3.40 
  -1  -1  -6    9.10    3.20 
   1  -1   6    3.10    3.40 
  -1  -1  -6    5.00    2.30 
   1   1   6   10.20    4.70 
   1   1   6   22.00    5.70 
   1   1   6    3.00    2.40 
   2  -1   6 1127.99   56.99 
  -2  -1  -6 1053.69   53.69 
   2  -1   6 1159.18   61.89 
  -2  -1  -6 1029.50   51.99 
   2  -1   6 1056.69   58.29 
   2   1   6  966.20   53.59 
   2   1   6 1051.39   57.79 
   2   1   6 1056.59   59.79 
   2   1   6 1003.10   59.09 
   3  -1   6  860.41   49.20 
   3  -1   6  905.31   50.49 
   3  -1   6  851.51   44.50 
   3  -1   6  858.51   49.60 
  -3  -1  -6  864.81   44.90 
   3   1   6  855.91   50.89 
   3   1   6  859.71   50.99 
   3   1   6  827.92   49.60 
   3   1   6  798.12   49.90 
   4  -1   6  410.96   27.50 
  -4  -1  -6  398.36   23.70 
   4  -1   6  418.06   29.40 
   4  -1   6  388.96   27.90 
   4  -1   6  391.36   23.90 
   4  -1   6  425.06   29.40 
   4   1   6  366.06   29.50 
   4   1   6  400.16   29.00 
   4   1   6  406.86   29.30 
   4   1   6  381.76   28.20 
   5  -1   6   61.29   10.30 
   5  -1   6   70.29   10.20 
   5  -1   6   52.49   14.40 
   5   1   6   72.49   10.60 
   5   1   6   92.29   11.50 
   6  -1   6   20.30    5.40 
   6  -1   6   14.00    4.50 
   6  -1   6   16.50    5.80 
   6   1   6   21.10    7.80 
   6   1   6   19.50    4.90 
   6   1   6   10.40    5.30 
  11  -2  -6  203.98   14.00 
 -11  -2   6  214.38   13.70 
  11   2  -6  190.58   13.60 
  10  -2  -6    6.80    3.80 
 -10  -2   6   11.80    4.40 
 -10   2   6   11.90    9.20 
 -10   2   6    8.10    4.70 
  10   2  -6    8.30    3.80 
   9  -2  -6   49.80    8.90 
  -9  -2   6   61.59    9.50 
  -9  -2   6   62.79   10.10 
  -9   2   6   71.49   10.30 
  -9   2   6   66.89   10.90 
   9   2  -6   49.50    8.00 
  -9   2   6   52.39   12.10 
   9   2  -6   66.19   10.00 
  -8  -2   6  280.77   19.60 
   8  -2  -6  256.07   20.60 
   8  -2  -6  231.88   19.10 
  -8   2   6  238.58   21.00 
  -8   2   6  273.47   21.10 
  -8   2   6  249.48   20.20 
   8   2  -6  223.28   20.30 
   8   2  -6  217.58   19.50 
  -8   2   6  244.88   20.20 
   7  -2  -6  224.08   18.60 
  -7  -2   6  252.17   18.20 
  -7  -2   6  228.78   14.60 
  -7  -2   6  225.28   17.10 
   7  -2  -6  249.18   20.50 
   7  -2  -6  234.28   17.70 
  -7   2   6  218.78   18.60 
  -7   2   6  230.18   19.50 
  -7   2   6  251.37   19.40 
   7   2  -6  232.78   17.00 
   7   2  -6  231.08   19.50 
   7   2  -6  241.88   20.60 
  -7   2   6  237.98   19.60 
   6  -2  -6  452.35   27.30 
  -6  -2   6  477.75   27.70 
  -6  -2   6  445.76   24.30 
   6  -2  -6  456.85   28.70 
   6   2  -6  445.96   30.50 
  -6   2   6  443.86   29.50 
  -6   2   6  450.95   26.30 
  -6   2   6  460.55   31.10 
  -6   2   6  453.15   29.20 
  -6   2   6  420.06   29.20 
  -5  -2   6   68.79    7.10 
  -5  -2   6   69.39    8.00 
   5  -2  -6   65.69    6.80 
   5  -2  -6   80.19    9.00 
  -5  -2   6   91.79    6.90 
  -5  -2   6   75.99    8.60 
   5  -2  -6   79.49    8.40 
  -5  -2   6   62.49    6.50 
   5   2  -6   82.89   10.30 
  -5   2   6   69.99    7.50 
  -5   2   6   65.79    8.90 
   5   2  -6   79.59    9.20 
  -4  -2   6  329.37   18.00 
   4  -2  -6  291.27   26.60 
   4  -2  -6  330.97   18.90 
  -4  -2   6  342.47   19.30 
  -4  -2   6  336.67   20.70 
  -4  -2   6  308.67   20.40 
   4  -2  -6  323.37   21.20 
  -4  -2   6  331.67   18.80 
  -4   2   6  337.37   19.90 
  -4   2   6  315.77   23.30 
   4   2  -6  349.37   23.60 
  -4   2   6  310.27   24.40 
  -3  -2   6  125.99    9.30 
  -3  -2   6  131.99   10.80 
  -3  -2   6  121.79   10.40 
   3  -2  -6   96.79    9.60 
   3  -2  -6  129.89   13.20 
   3  -2  -6  121.89    9.00 
   3  -2  -6  121.69   10.20 
  -3  -2   6  117.59    8.70 
  -3   2   6  128.69   10.10 
  -3   2   6  123.59   11.50 
   3   2  -6  144.29   12.50 
   2  -2  -6  262.17   15.30 
   2  -2  -6  251.87   16.50 
  -2  -2   6  272.47   15.80 
  -2  -2   6  239.58   17.40 
  -2  -2   6  277.07   17.70 
   2  -2  -6  255.97   16.80 
   2  -2  -6  280.27   21.30 
   2   2  -6  282.07   19.00 
   2   2  -6  294.17   18.90 
  -2   2   6  265.07   17.10 
  -2   2   6  266.57   18.70 
   1  -2  -6  222.58   14.60 
  -1  -2   6  229.58   15.30 
  -1  -2   6  222.38   13.80 
  -1  -2   6  208.18   15.50 
   1  -2  -6  225.18   13.40 
  -1  -2   6  217.78   13.60 
   1   2  -6  224.78   18.00 
  -1   2   6  213.08   15.30 
  -1   2   6  225.98   19.30 
   1   2  -6  215.08   15.80 
   1   2  -6  231.88   16.20 
   0  -2   6  437.26   28.50 
   0  -2   6  484.95   24.70 
   0  -2  -6  476.35   25.50 
   0  -2   6  455.65   23.90 
   0  -2  -6  449.16   23.50 
   0  -2   6  423.26   24.80 
   0   2   6  425.66   25.90 
   0   2   6  450.65   30.20 
   0   2  -6  466.65   26.30 
   0   2   6  386.66   26.90 
   0   2  -6  365.86   24.90 
   1  -2   6  906.51   46.50 
  -1  -2  -6  890.51   44.30 
   1  -2   6  836.62   47.30 
  -1  -2  -6  870.41   42.20 
   1   2   6  769.82   54.79 
   1   2   6  838.22   50.39 
   1   2   6  789.02   46.10 
  -2  -2  -6  794.42   39.60 
   2  -2   6  781.52   41.50 
   2  -2   6  812.02   44.30 
   2  -2   6  735.63   44.40 
  -2  -2  -6  809.52   41.70 
   2   2   6  765.72   46.40 
   2   2   6  745.03   43.60 
   2   2   6  767.92   47.90 
   2   2   6  742.93   45.80 
  -2   2  -6  776.32   41.80 
   2   2   6  784.72   48.10 
   3  -2   6  157.78   15.70 
   3  -2   6  125.99   14.60 
   3  -2   6  148.89   14.90 
   3  -2   6  160.08   12.70 
  -3  -2  -6  160.98   13.10 
  -3  -2  -6  163.88   11.90 
   3   2   6  130.19   15.80 
   3   2   6  146.99   16.70 
  -3   2  -6  131.09   12.60 
   3   2   6  146.39   14.90 
   3   2   6  132.79   15.40 
   3   2   6  162.58   16.70 
   4  -2   6  251.87   17.00 
  -4  -2  -6  260.07   17.50 
   4  -2   6  266.07   21.30 
   4  -2   6  261.87   21.20 
   4   2   6  225.08   20.80 
  -4   2  -6  262.57   17.40 
   4   2   6  262.97   19.40 
   4   2   6  264.57   22.40 
   4   2   6  252.67   21.40 
   5  -2   6   10.00    8.70 
   5  -2   6   25.20    6.00 
   5   2   6   27.10    7.00 
   5   2   6   16.80    5.80 
   5   2   6   15.80    5.70 
   5   2   6   30.90    6.00 
   6  -2   6   36.10    6.10 
   6  -2   6   55.19    9.10 
   6   2   6   28.40    5.80 
   6   2   6   38.90    7.10 
   6   2   6   43.20    7.00 
  10  -3  -6    0.10    2.90 
 -10  -3   6    9.90    3.50 
  10  -3  -6   10.00    4.00 
  10   3  -6    4.10    3.00 
 -10   3   6    7.20    4.90 
   9  -3  -6  403.16   25.90 
  -9  -3   6  426.66   26.00 
  -9  -3   6  367.16   24.20 
   9  -3  -6  395.36   27.60 
   9   3  -6  394.86   25.50 
   9   3  -6  394.96   23.40 
  -9   3   6  410.26   25.70 
  -9   3   6  342.97   24.60 
   8  -3  -6  215.28   18.10 
  -8  -3   6  199.88   16.20 
  -8  -3   6  196.18   12.90 
   8  -3  -6  195.98   15.70 
   8   3  -6  208.08   15.30 
  -8   3   6  202.38   18.80 
  -8   3   6  200.48   17.60 
  -8   3   6  217.18   18.10 
  -8   3   6  216.58   18.10 
   8   3  -6  198.18   17.40 
  -7  -3   6  408.96   22.50 
   7  -3  -6  373.96   26.30 
  -7  -3   6  406.36   25.10 
  -7  -3   6  443.06   26.20 
   7  -3  -6  378.66   23.60 
   7  -3  -6  401.16   25.70 
   7   3  -6  400.26   25.00 
  -7   3   6  369.56   26.10 
  -7   3   6  395.56   26.70 
  -7   3   6  418.56   27.70 
   7   3  -6  417.36   30.00 
  -7   3   6  390.36   26.80 
  -7   3   6  401.86   27.30 
   7   3  -6  389.06   28.00 
  -7   3   6  396.06   27.70 
  -7   3   6  404.46   29.10 
   6  -3  -6 1096.99   55.39 
   6  -3  -6 1113.79   60.09 
  -6  -3   6 1005.80   58.09 
  -6  -3   6 1024.40   58.79 
  -6  -3   6 1103.79   53.69 
   6  -3  -6 1181.78   58.29 
  -6  -3   6 1144.09   54.69 
  -6  -3   6 1227.28   58.39 
   6   3  -6 1134.19   62.99 
  -6   3   6 1061.69   61.29 
  -6   3   6 1157.78   62.19 
  -6   3   6 1128.79   61.09 
   6   3  -6 1173.78   61.59 
  -6   3   6 1139.39   63.19 
  -6   3   6 1071.59   60.09 
  -5  -3   6  196.08   16.80 
  -5  -3   6  211.28   14.50 
   5  -3  -6  194.18   15.30 
  -5  -3   6  233.28   16.50 
   5  -3  -6  205.48   16.30 
   5  -3  -6  203.28   14.00 
  -5  -3   6  215.88   13.20 
   5   3  -6  224.98   18.20 
  -5   3   6  214.58   18.30 
   5   3  -6  200.28   18.40 
  -5   3   6  201.38   18.40 
  -4  -3   6   34.10    5.60 
   4  -3  -6   45.80    5.10 
  -4  -3   6   33.90    4.90 
   4  -3  -6   36.70    5.80 
   4  -3  -6   24.10    5.60 
  -4  -3   6   28.70    6.70 
  -4  -3   6   27.80    4.20 
  -4  -3   6   36.40    5.20 
   4   3  -6   31.00    7.10 
  -4   3   6   39.10    6.00 
  -4   3   6   31.20    7.30 
   4   3  -6   43.90    7.60 
  -4   3   6   31.50    7.20 
   3  -3  -6  343.17   19.30 
  -3  -3   6  344.87   20.40 
   3  -3  -6  317.07   20.30 
   3  -3  -6  282.07   20.20 
  -3  -3   6  338.77   19.70 
  -3  -3   6  347.07   21.90 
  -3  -3   6  384.86   19.60 
   3   3  -6  354.26   24.20 
  -3   3   6  344.27   25.10 
  -3   3   6  332.07   23.10 
  -3   3   6  346.87   21.60 
   3   3  -6  375.66   23.00 
  -2  -3   6   76.09    7.40 
   2  -3  -6   78.49   12.20 
  -2  -3   6   92.39   10.90 
  -2  -3   6   73.49    8.20 
  -2  -3   6   63.59    6.40 
   2  -3  -6   64.29    6.00 
  -2  -3   6   67.89    6.30 
   2   3  -6   76.99    9.50 
  -2   3   6   63.49    9.80 
  -2   3   6   58.99    7.20 
  -1  -3   6   55.59    7.30 
  -1  -3   6   51.19    7.00 
  -1  -3   6   65.49    6.10 
  -1  -3   6   74.69    6.60 
   1  -3  -6   66.09    5.90 
   1  -3  -6   61.49    6.50 
  -1   3   6   55.29    7.30 
  -1   3   6   56.09    9.40 
   1   3  -6   61.79    7.90 
   1   3  -6   74.79    8.60 
   0  -3  -6  238.18   14.10 
   0  -3  -6  225.28   15.50 
   0  -3   6  243.38   16.20 
   0  -3   6  236.88   17.90 
   0  -3   6  210.18   15.80 
   0   3   6  228.28   21.30 
   0   3  -6  219.18   17.00 
   0   3  -6  245.08   17.40 
   1  -3   6  418.36   27.50 
  -1  -3  -6  445.46   22.90 
   1  -3   6  439.06   24.60 
  -1  -3  -6  429.16   24.70 
   1  -3   6  416.86   26.90 
  -1   3  -6  367.76   24.60 
  -1   3  -6  427.66   25.30 
   1   3   6  384.66   29.50 
   1   3   6  395.96   27.30 
   1   3   6  399.56   30.30 
  -1   3  -6  373.56   24.80 
  -2  -3  -6  307.37   18.10 
   2  -3   6  287.67   18.60 
   2  -3   6  296.97   22.70 
   2  -3   6  324.37   20.30 
   2  -3   6  315.87   22.10 
   2  -3   6  287.27   22.30 
  -2  -3  -6  317.57   20.20 
   2   3   6  313.37   26.00 
   2   3   6  292.97   21.90 
  -2   3  -6  289.97   19.90 
   2   3   6  284.37   23.70 
   2   3   6  293.27   24.90 
  -2   3  -6  312.17   20.70 
   2   3   6  260.17   24.30 
  -3  -3  -6   33.70    6.30 
  -3  -3  -6   19.10    3.90 
   3  -3   6   23.00    9.70 
   3   3   6   22.50   12.00 
   3   3   6   23.30   10.20 
  -4  -3  -6  215.88   15.20 
   4  -3   6  226.48   15.30 
  -4  -3  -6  210.68   15.70 
   4  -3   6  228.18   18.80 
   4  -3   6  236.88   19.10 
   4   3   6  227.28   20.70 
   4   3   6  207.58   19.60 
  -4   3  -6  208.48   15.20 
   4   3   6  214.78   17.10 
   4   3   6  212.58   19.00 
   5  -3   6   57.09    8.60 
   5  -3   6   79.29    9.80 
  -5  -3  -6   53.69    6.80 
   5  -3   6   69.19    8.80 
   5   3   6   62.49    9.70 
   5   3   6   51.39    8.90 
   5   3   6   72.29    9.70 
   5   3   6   65.59   10.50 
   6  -3   6    7.40    3.50 
   6  -3   6    1.20    2.60 
   6   3   6    5.30    3.60 
   6   3   6    5.90    3.30 
 -10  -4   6   29.10    5.10 
  10  -4  -6   14.00    4.50 
  10  -4  -6   14.30    4.40 
  10   4  -6   27.10    5.40 
  10   4  -6   20.30    3.40 
 -10   4   6   18.40    3.90 
   9  -4  -6  124.99   13.70 
  -9  -4   6  140.99   12.70 
   9  -4  -6  140.29   11.90 
  -9   4   6  131.39   12.40 
  -9   4   6  134.49   12.40 
   9   4  -6  137.89   12.50 
   9   4  -6  126.59   10.50 
  -9   4   6  153.98   11.30 
  -9   4   6  143.09   14.40 
  -8  -4   6  722.23   40.20 
   8  -4  -6  728.83   40.40 
   8  -4  -6  747.53   42.50 
  -8  -4   6  744.73   36.90 
  -8   4   6  743.53   41.70 
   8   4  -6  719.43   41.10 
  -8   4   6  639.64   39.00 
  -8   4   6  734.23   42.90 
  -8   4   6  769.62   42.10 
   8   4  -6  782.12   39.60 
  -8   4   6  723.63   44.40 
  -8   4   6  753.42   42.20 
  -7  -4   6   99.99    8.60 
  -7  -4   6  101.89   15.50 
   7  -4  -6   95.49   10.60 
  -7  -4   6   94.99   10.80 
   7  -4  -6   85.19   10.30 
  -7   4   6   99.09   11.60 
  -7   4   6  100.39   11.40 
  -7   4   6   85.99   11.30 
  -7   4   6   94.79   11.70 
   7   4  -6  104.69   10.40 
  -7   4   6   97.79   11.40 
  -7   4   6   85.49   12.40 
   7   4  -6   97.59   19.20 
   6  -4  -6   44.30    6.90 
  -6  -4   6   38.00    5.60 
   6  -4  -6   49.80    7.50 
  -6  -4   6   31.80    8.40 
  -6  -4   6   46.40    5.60 
   6  -4  -6   46.20    6.00 
  -6  -4   6   37.00    7.10 
  -6  -4   6   45.60    7.50 
  -6   4   6   56.49    9.50 
   6   4  -6   51.89    7.70 
  -6   4   6   39.80    8.50 
  -6   4   6   39.10    8.90 
  -6   4   6   46.60    9.40 
  -6   4   6   40.30    8.80 
  -6   4   6   37.90    8.10 
   6   4  -6   41.00    8.70 
  -6   4   6   46.30    9.30 
   6   4  -6   49.10    9.80 
   5  -4  -6  312.07   21.10 
  -5  -4   6  379.86   28.10 
  -5  -4   6  288.67   18.30 
   5  -4  -6  323.87   27.00 
  -5  -4   6  318.37   19.60 
  -5  -4   6  328.27   21.70 
  -5   4   6  303.57   24.40 
   5   4  -6  312.87   25.10 
  -5   4   6  339.67   23.90 
  -5   4   6  284.27   24.30 
   5   4  -6  354.46   23.70 
  -5   4   6  297.27   23.40 
  -5   4   6  331.37   24.90 
  -5   4   6  309.07   24.60 
  -5   4   6  345.77   24.00 
   4  -4  -6    6.00    3.10 
  -4  -4   6    8.30    3.00 
  -4  -4   6    6.40    2.70 
   4  -4  -6    8.00    4.00 
   4  -4  -6    3.80    2.00 
  -4  -4   6   14.10    5.70 
  -4  -4   6    7.30    2.90 
  -4  -4   6    6.10    3.40 
   4   4  -6    8.80    3.70 
   4   4  -6    3.80    3.50 
   4   4  -6    4.10    3.90 
  -4   4   6   -4.90    4.60 
  -4   4   6    6.80    4.20 
   4   4  -6   15.00    5.60 
  -4   4   6    4.20    4.60 
  -4   4   6    9.50    4.40 
  -4   4   6    4.00    4.10 
  -4   4   6   12.50    4.80 
  -4   4   6    3.10    5.30 
  -3  -4   6  256.67   18.30 
   3  -4  -6  236.58   16.70 
  -3  -4   6  250.87   15.80 
   3  -4  -6  240.78   17.10 
  -3  -4   6  244.78   19.60 
  -3  -4   6  253.07   16.90 
   3  -4  -6  246.08   15.30 
  -3  -4   6  256.57   15.50 
  -3   4   6  264.57   21.50 
   3   4  -6  241.78   20.00 
  -3   4   6  248.78   18.60 
   3   4  -6  266.07   18.80 
  -3   4   6  242.98   19.20 
   2  -4  -6 2159.68  104.29 
  -2  -4   6 2204.58  103.49 
   2  -4  -6 2191.88  102.59 
  -2  -4   6 2245.78  108.99 
  -2  -4   6 2442.16  106.09 
  -2  -4   6 2062.29  106.39 
   2   4  -6 2219.98  109.29 
   2   4  -6 2348.57  107.99 
  -2   4   6 2133.19  106.99 
  -2   4   6 2228.38  112.59 
  -1  -4   6 1483.55   71.59 
   1  -4  -6 1454.25   68.29 
  -1  -4   6 1433.46   74.29 
   1  -4  -6 1323.37   69.59 
  -1  -4   6 1410.36   69.29 
   1   4  -6 1453.95   73.09 
  -1   4   6 1460.05   78.49 
  -1   4   6 1410.76   74.59 
   1   4  -6 1396.96   73.89 
  -1   4   6 1702.43   85.29 
   0  -4  -6  170.88   16.10 
   0  -4   6  164.98   14.50 
   0  -4   6  169.38   11.60 
   0  -4   6  141.49   14.10 
   0  -4  -6  153.38   10.50 
   0   4   6  145.49   17.00 
   0   4  -6  154.98   13.70 
   0   4   6  140.39   16.40 
   0   4  -6  150.48   13.70 
   0   4   6  129.09   16.40 
   0   4   6  120.79   16.50 
   0   4  -6  145.29   14.00 
   0   4   6  133.39   15.10 
   0   4  -6  160.88   12.10 
   1  -4   6  119.29   12.60 
  -1  -4  -6  117.79    9.00 
   1  -4   6  122.29   11.20 
  -1  -4  -6  114.79   10.30 
   1  -4   6  129.09   13.40 
  -1   4  -6  101.79   13.10 
  -1   4  -6   97.09   11.20 
   1   4   6  116.49   12.70 
  -1   4  -6  109.69   11.50 
   1   4   6  122.89   15.30 
   1   4   6  119.69   14.80 
  -1   4  -6  106.59   10.60 
   1   4   6  115.19   14.80 
  -1   4  -6   93.29   10.50 
   2  -4   6   18.70    4.40 
   2  -4   6   19.20    5.50 
   2  -4   6   14.10    5.80 
  -2  -4  -6   19.10    4.70 
   2  -4   6   20.80    5.90 
  -2  -4  -6   18.40    3.40 
  -2   4  -6   23.60    5.00 
   2   4   6   18.70    8.30 
   2   4   6   16.30    7.00 
  -2   4  -6   14.10    8.60 
   2   4   6   25.20    6.50 
   2   4   6   15.60    7.70 
  -2   4  -6   15.40    4.90 
  -2   4  -6   14.40    5.10 
   3  -4   6    8.30    4.80 
  -3  -4  -6   17.00    3.60 
   3  -4   6   17.80    4.70 
  -3  -4  -6   12.20    3.60 
  -3   4  -6   13.30    5.60 
   3   4   6   13.50    5.90 
   3   4   6   11.30    6.20 
   3   4   6    6.80    4.10 
  -3   4  -6   17.90    5.10 
   3   4   6   18.90    7.50 
   4  -4   6  247.18   16.40 
   4  -4   6  279.07   20.40 
   4  -4   6  274.97   19.70 
   4   4   6  224.58   20.70 
  -4   4  -6  261.47   17.00 
   4   4   6  243.28   20.80 
   4   4   6  223.48   20.10 
   4   4   6  254.17   18.60 
   5  -4   6   77.89    6.90 
  -5  -4  -6   75.99    7.50 
   5  -4   6   69.79   11.40 
   5   4   6   66.09   10.20 
   5   4   6   96.79   12.50 
   5   4   6   80.89    8.20 
   5   4   6   85.39    9.80 
   9  -5  -6   47.60    7.90 
   9  -5  -6   59.59    7.10 
  -9  -5   6   68.69    7.70 
  -9   5   6   46.60    7.80 
   9   5  -6   54.19    5.80 
  -9   5   6   52.89    6.80 
  -9   5   6   60.29    7.20 
  -8  -5   6  305.47   16.90 
   8  -5  -6  299.37   19.80 
   8  -5  -6  291.57   20.20 
  -8   5   6  306.57   22.50 
  -8   5   6  300.77   19.90 
   8   5  -6  318.37   18.70 
  -8   5   6  285.27   20.60 
  -8   5   6  241.08   18.60 
  -8   5   6  231.98   18.00 
  -8   5   6  307.57   21.80 
  -8   5   6  309.27   20.30 
  -7  -5   6  100.89    8.50 
  -7  -5   6   99.49   10.20 
   7  -5  -6  100.99   10.80 
   7  -5  -6   92.99    9.10 
   7  -5  -6   84.99   11.50 
  -7  -5   6   93.79    8.40 
  -7   5   6  110.89   11.30 
  -7   5   6  110.89   11.70 
  -7   5   6  110.99   12.40 
  -7   5   6  103.39   13.40 
  -7   5   6  108.09   12.50 
  -7   5   6   96.19   12.00 
   7   5  -6   91.99    9.70 
  -7   5   6   94.19   10.80 
  -6  -5   6  175.98   14.70 
   6  -5  -6  155.28   17.80 
  -6  -5   6  134.49   11.30 
  -6  -5   6  176.18   13.20 
  -6  -5   6  162.08   12.10 
   6  -5  -6  164.68   14.30 
   6   5  -6  200.88   15.00 
  -6   5   6  176.28   16.10 
  -6   5   6  176.88   17.10 
  -6   5   6  188.08   19.90 
  -6   5   6  150.68   15.90 
  -6   5   6  162.18   16.30 
  -6   5   6  159.28   15.10 
  -6   5   6  154.28   16.20 
  -5  -5   6   39.40    6.10 
  -5  -5   6   18.30    6.70 
  -5  -5   6   30.90    5.10 
   5  -5  -6   22.70    4.30 
  -5  -5   6   45.90    6.80 
   5  -5  -6   31.90    6.20 
   5  -5  -6   41.80    7.30 
  -5  -5   6   37.80    4.90 
  -5   5   6   32.30    7.50 
   5   5  -6   32.60    6.70 
   5   5  -6   33.40    6.30 
  -5   5   6   29.00    7.90 
  -5   5   6   26.20    7.00 
   5   5  -6   32.50    8.40 
  -5   5   6   36.50    8.50 
  -5   5   6   37.40    7.70 
  -5   5   6   46.00    9.80 
  -5   5   6   21.60    8.00 
   5   5  -6   30.40    7.90 
  -4  -5   6   20.40    7.10 
  -4  -5   6   29.20    4.40 
   4  -5  -6   29.40    6.00 
   4  -5  -6   30.30    6.50 
  -4  -5   6   37.40    6.60 
   4  -5  -6   20.10    4.20 
  -4  -5   6   18.20    4.10 
   4   5  -6   34.40    7.50 
  -4   5   6   31.70    7.60 
  -4   5   6   21.80    6.90 
  -4   5   6   26.30    8.60 
  -4   5   6   37.30    7.60 
   4   5  -6   15.60    6.70 
   4   5  -6   22.60    5.40 
  -4   5   6   25.70    7.50 
  -4   5   6   33.50    8.00 
   4   5  -6   28.30    6.10 
  -4   5   6   19.20    6.70 
   3  -5  -6  843.82   41.40 
   3  -5  -6  784.22   42.80 
  -3  -5   6  842.92   48.10 
  -3  -5   6  799.32   45.10 
  -3  -5   6  835.42   41.50 
  -3  -5   6  855.31   43.50 
   3   5  -6  865.81   45.90 
  -3   5   6  825.32   49.70 
  -3   5   6  815.22   47.00 
   3   5  -6  785.42   43.70 
  -3   5   6  779.82   47.70 
  -3   5   6  806.42   49.60 
  -3   5   6  855.11   47.70 
   3   5  -6  763.62   45.20 
  -3   5   6  819.22   48.70 
   3   5  -6  808.72   48.10 
  -2  -5   6  358.36   25.30 
   2  -5  -6  334.97   21.10 
  -2  -5   6  352.56   20.60 
  -2  -5   6  317.87   23.10 
  -2  -5   6  355.76   22.00 
   2  -5  -6  355.66   19.90 
  -2  -5   6  361.26   22.60 
   2   5  -6  356.46   21.60 
   2   5  -6  375.36   24.30 
   2   5  -6  330.67   24.00 
  -2   5   6  340.37   27.60 
   2   5  -6  334.77   25.10 
  -2   5   6  359.66   25.50 
  -2   5   6  348.67   27.70 
   2   5  -6  342.17   22.70 
  -2   5   6  351.66   25.30 
  -2   5   6  357.26   26.80 
   1  -5  -6 1099.29   56.39 
  -1  -5   6 1267.57   59.19 
  -1  -5   6 1144.39   61.89 
  -1  -5   6 1137.29   56.09 
   1  -5  -6 1146.59   54.89 
   1   5  -6 1092.49   56.99 
  -1   5   6 1123.99   63.99 
   1   5  -6 1021.30   60.09 
  -1   5   6 1093.49   61.59 
  -1   5   6 1155.18   65.49 
   1   5  -6 1226.98   60.69 
   1   5  -6 1130.49   59.09 
   1   5  -6 1130.79   61.39 
  -1   5   6 1142.89   65.49 
  -1   5   6 1130.59   61.49 
   0  -5  -6  203.98   12.80 
   0  -5   6  199.28   15.60 
   0  -5  -6  193.38   14.10 
   0  -5   6  181.98   17.20 
   0  -5   6  196.98   13.90 
   0   5  -6  195.98   17.20 
   0   5   6  189.58   17.40 
   0   5   6  194.18   19.30 
   0   5  -6  169.88   15.80 
   0   5   6  195.88   20.10 
   0   5   6  205.08   18.10 
   0   5  -6  195.58   14.80 
   0   5  -6  176.18   15.70 
   0   5   6  195.48   20.00 
   0   5  -6  190.58   15.70 
   1  -5   6   23.70    5.60 
   1  -5   6   36.40    6.40 
  -1  -5  -6   31.00    5.50 
  -1  -5  -6   28.80    4.40 
  -1   5  -6   28.30    6.30 
   1   5   6   40.00   10.50 
  -2  -5  -6  121.69   10.70 
   2  -5   6  123.39   13.80 
  -2  -5  -6  106.89    9.10 
   2  -5   6  134.29   11.10 
   2  -5   6  124.39   12.10 
   2   5   6  123.19   15.20 
   2   5   6  114.39   15.80 
  -2   5  -6  125.09   11.60 
   2   5   6  107.39   12.50 
  -2   5  -6  121.69   10.90 
  -2   5  -6  132.09   11.90 
   2   5   6  115.59   15.70 
  -2   5  -6  100.19   12.70 
  -3  -5  -6   48.90    6.60 
   3  -5   6   50.69   11.20 
   3  -5   6   44.20    7.80 
   3  -5   6   48.10    7.00 
   3  -5   6   41.40    7.70 
   3   5   6   56.99   14.00 
  -3   5  -6   39.00    7.60 
   3   5   6   51.69    9.60 
  -3   5  -6   45.60    7.00 
   4  -5   6   13.40    3.30 
  -4  -5  -6   16.30    3.70 
   4  -5   6   18.90    7.60 
  -4   5  -6    9.30    3.30 
   4   5   6   13.30    5.60 
  -4   5  -6    7.90    3.90 
   4   5   6   12.20    5.40 
   4   5   6    5.80    3.20 
   5  -5   6    2.10    3.50 
  -5  -5  -6    3.40    2.70 
   5  -5   6    3.60    1.90 
   5   5   6    7.40    3.30 
   5   5   6    7.10    2.80 
  -8  -6   6   47.40    4.60 
   8  -6  -6   43.60    6.20 
   8  -6  -6   40.80    6.00 
  -8   6   6   43.50    5.50 
  -8   6   6   36.00    6.70 
   8   6  -6   48.60    5.60 
  -8   6   6   40.90    6.40 
  -8   6   6   35.40    5.80 
  -8   6   6   43.10    8.10 
   7  -6  -6  106.99   10.30 
  -7  -6   6   94.49    7.80 
   7  -6  -6   81.59    9.40 
  -7   6   6  109.09   12.50 
  -7   6   6   95.59    9.90 
  -7   6   6   99.69   10.90 
  -7   6   6  104.89   11.70 
  -7   6   6   89.79   10.10 
   7   6  -6  100.19    9.10 
  -7   6   6   85.59   10.10 
  -7   6   6   84.79   10.20 
   6  -6  -6  258.57   18.60 
   6  -6  -6  260.37   16.60 
  -6  -6   6  253.87   16.00 
  -6  -6   6  269.67   18.00 
  -6   6   6  247.68   20.10 
  -6   6   6  228.28   20.90 
   6   6  -6  281.77   23.20 
  -6   6   6  255.07   23.10 
  -6   6   6  250.67   23.30 
  -6   6   6  248.48   20.00 
  -6   6   6  333.37   29.50 
  -6   6   6  197.08   20.20 
   5  -6  -6  351.56   23.30 
  -5  -6   6  386.26   20.70 
   5  -6  -6  366.56   21.40 
  -5  -6   6  374.16   23.50 
  -5  -6   6  363.86   22.20 
  -5  -6   6  364.46   21.60 
  -5   6   6  352.16   26.60 
  -5   6   6  362.26   25.80 
   5   6  -6  378.96   24.20 
  -5   6   6  358.96   24.70 
  -5   6   6  371.56   27.10 
  -5   6   6  382.76   26.90 
  -5   6   6  343.57   25.30 
   5   6  -6  349.37   21.90 
  -5   6   6  349.57   27.10 
  -4  -6   6    7.80    3.80 
  -4  -6   6    5.80    2.90 
   4  -6  -6    2.80    3.10 
  -4  -6   6    9.50    4.00 
   4   6  -6    7.20    3.90 
   4   6  -6    8.20    3.60 
  -4   6   6   11.40    5.50 
  -4   6   6   11.60    5.40 
  -4   6   6    5.90    4.90 
  -4   6   6   10.20    6.40 
   4   6  -6    6.50    3.80 
  -4   6   6   15.00    5.90 
  -4   6   6    9.80    5.30 
  -4   6   6    8.00    4.60 
  -3  -6   6  342.37   25.60 
  -3  -6   6  364.86   26.10 
   3  -6  -6  362.86   20.20 
   3  -6  -6  331.27   21.40 
  -3  -6   6  362.36   20.30 
  -3  -6   6  334.37   23.70 
   3   6  -6  323.77   22.00 
  -3   6   6  364.46   25.10 
   3   6  -6  335.47   23.60 
  -3   6   6  326.17   25.10 
  -3   6   6  325.87   25.50 
   3   6  -6  334.57   24.00 
  -3   6   6  321.07   25.40 
   3   6  -6  350.56   26.10 
  -3   6   6  367.86   27.20 
  -2  -6   6  103.69    8.60 
   2  -6  -6   81.69    7.60 
   2  -6  -6   81.89   10.30 
  -2  -6   6   90.29   10.70 
  -2  -6   6  108.79   12.60 
  -2  -6   6   97.19    9.90 
   2   6  -6   71.09    9.40 
   2   6  -6   91.89   12.00 
   2   6  -6  104.19   11.20 
  -2   6   6   99.59   17.10 
  -2   6   6   84.59   11.60 
  -2   6   6   74.09   12.00 
   2   6  -6  101.99   13.50 
  -2   6   6   94.29   12.90 
   2   6  -6   95.29   10.30 
  -1  -6   6  127.49   14.10 
   1  -6  -6  105.29    9.80 
  -1  -6   6  121.29   10.80 
   1  -6  -6  108.69    8.70 
  -1  -6   6  124.19   10.00 
  -1  -6   6  117.39   11.20 
   1   6  -6  104.69   10.30 
  -1   6   6   95.89   14.00 
   1   6  -6  103.99   10.90 
   1   6  -6  111.49   13.10 
  -1   6   6  120.69   13.50 
  -1   6   6  109.09   14.60 
  -1   6   6  108.09   14.50 
   1   6  -6  109.79   12.60 
  -1   6   6  108.99   14.00 
   0  -6  -6  365.66   23.40 
   0  -6   6  427.56   25.80 
   0  -6   6  443.06   24.10 
   0  -6  -6  416.06   22.60 
   0   6  -6  367.06   27.00 
   0   6  -6  423.96   24.90 
   0   6   6  431.06   31.70 
   0   6   6  397.06   30.00 
   0   6  -6  421.56   26.30 
   0   6   6  400.96   28.20 
   0   6   6  411.76   31.60 
   0   6  -6  407.96   26.60 
   1  -6   6  224.48   15.40 
  -1  -6  -6  199.78   15.10 
   1  -6   6  254.07   17.10 
  -1  -6  -6  253.87   14.80 
   1   6   6  244.78   21.50 
   1   6   6  227.28   19.20 
  -1   6  -6  230.78   17.40 
   1   6   6  243.48   21.60 
  -1   6  -6  238.68   18.00 
  -1   6  -6  248.98   16.70 
   1   6   6  233.78   22.20 
  -1   6  -6  193.28   17.70 
  -2  -6  -6   63.99    7.00 
   2  -6   6   52.89    7.30 
  -2  -6  -6   63.29    6.40 
  -2   6  -6   39.30    7.90 
  -2   6  -6   63.59    7.20 
  -2   6  -6   64.29    8.70 
   2   6   6   48.90   10.20 
   2   6   6   59.39    8.60 
  -2   6  -6   72.39    8.00 
   2   6   6   45.70    9.30 
   2   6   6   46.70   11.10 
   3  -6   6    4.10    2.40 
   3  -6   6   10.40    3.20 
  -3  -6  -6    6.70    2.60 
  -3   6  -6    7.70    5.40 
  -3   6  -6    3.40    2.60 
   3   6   6    8.30    4.00 
   3   6   6   -0.60    4.70 
   3   6   6    8.30    7.30 
   3   6   6    4.60    3.60 
  -3   6  -6    2.90    2.70 
  -4  -6  -6  109.79    8.40 
   4  -6   6  107.79    8.20 
  -4   6  -6   91.69    8.50 
  -4   6  -6  111.79    8.40 
   4   6   6  112.59    9.40 
   4   6   6  111.39   10.30 
   7  -7  -6   40.70    5.80 
   7  -7  -6   46.90    6.10 
  -7  -7   6   50.39    4.60 
  -7   7   6   50.49    6.10 
  -7   7   6   38.00    6.00 
   7   7  -6   44.00    5.10 
  -7   7   6   59.99    6.80 
  -7   7   6   33.40    5.90 
  -7   7   6   43.10    6.80 
  -6  -7   6   39.10    4.70 
   6  -7  -6   43.30    6.10 
   6  -7  -6   24.60    5.10 
  -6   7   6   41.40    7.10 
  -6   7   6   34.90    6.80 
  -6   7   6   40.60    6.60 
  -6   7   6   31.40    7.20 
  -6   7   6   36.80    5.90 
  -6   7   6   29.10    6.00 
  -6   7   6   40.50    6.40 
   6   7  -6   29.60    5.30 
   5  -7  -6   44.00    6.10 
  -5  -7   6   25.70    5.50 
  -5  -7   6   44.90    8.70 
  -5  -7   6   37.50    5.00 
  -5   7   6   20.60   10.40 
   5   7  -6   35.20    6.10 
  -5   7   6   31.20    5.90 
  -5   7   6   35.50    6.50 
  -5   7   6   34.80    7.40 
   5   7  -6   48.20    7.50 
  -5   7   6   34.90    7.70 
  -5   7   6   22.90    5.60 
  -5   7   6   37.90    7.80 
   4  -7  -6   42.20    5.90 
  -4  -7   6   42.20    6.10 
  -4  -7   6   38.80    5.20 
  -4  -7   6   39.10    5.90 
   4  -7  -6   46.30    6.70 
  -4   7   6   26.70    8.70 
  -4   7   6   34.70   10.60 
  -4   7   6   28.10    6.60 
   4   7  -6   44.40    5.80 
  -4   7   6   58.59    7.30 
  -4   7   6   29.40    6.70 
  -4   7   6   43.20    8.80 
   4   7  -6   53.69    8.60 
  -3  -7   6   29.90    6.20 
   3  -7  -6   37.70    8.60 
  -3  -7   6   28.90    4.40 
   3  -7  -6   29.20    4.60 
  -3  -7   6   44.00    5.80 
   3   7  -6   21.60    9.40 
  -3   7   6   21.80    7.40 
  -3   7   6   37.20    7.60 
   3   7  -6   33.10    6.70 
  -3   7   6   31.50    7.50 
  -3   7   6   41.60    8.70 
  -3   7   6   20.60    7.50 
  -2  -7   6   14.30    4.50 
   2  -7  -6   10.20    3.10 
  -2  -7   6   10.30    3.60 
  -2  -7   6   14.70    3.40 
   2  -7  -6   14.10    4.30 
  -2   7   6   25.00    7.70 
  -2   7   6   16.50    5.90 
   2   7  -6   16.40    4.70 
   2   7  -6   22.70    4.80 
  -2   7   6   12.70    5.80 
  -2   7   6   11.30    5.10 
  -1  -7   6   19.10    4.20 
  -1  -7   6   30.60    5.00 
   1  -7  -6   26.30    5.10 
  -1  -7   6   22.90    5.50 
   1   7  -6   27.10    6.20 
  -1   7   6   20.10    6.80 
   1   7  -6   20.00    4.50 
  -1   7   6   28.90    8.00 
   1   7  -6   13.30    4.70 
   0  -7   6    8.00    3.60 
   0  -7  -6    7.10    2.60 
   0  -7  -6    5.70    2.80 
   0   7   6    6.70    5.30 
   0   7  -6    4.40    3.10 
   0   7   6    4.00    4.10 
   0   7   6    5.30    5.10 
   0   7  -6    5.80    3.40 
   0   7  -6    4.50    3.20 
   0   7   6   10.70    4.50 
   1  -7   6   43.80    5.70 
   1  -7   6   34.20    5.30 
   1  -7   6   35.90    6.40 
  -1  -7  -6   41.00    5.30 
   1   7   6   35.10    7.60 
  -1   7  -6   32.00    6.50 
  -1   7  -6   26.90    6.20 
   1   7   6   38.20    8.10 
  -1   7  -6   36.70    5.80 
  -1   7  -6   36.10    5.50 
   1   7   6   30.60    8.00 
   1   7   6   30.60    6.70 
  -2  -7  -6   11.70    3.00 
   2  -7   6    7.80    4.10 
   2  -7   6    7.40    2.90 
   2   7   6    9.50    5.30 
   2   7   6    5.00    3.50 
   2   7   6    6.30    5.20 
  -2   7  -6    7.80    3.10 
  -2   7  -6   14.60    4.20 
  -2   7  -6    7.80    3.90 
  -3  -7  -6   24.90    4.00 
   3  -7   6   21.30    3.80 
  -3   7  -6   19.20    3.50 
  -3   7  -6   22.40    4.30 
  -3   7  -6   26.30    3.80 
   3   7   6   21.00    4.60 
   3   7   6   20.30    4.10 
   6  -8  -6    5.10    2.30 
  -6  -8   6    9.60    2.80 
  -6   8   6    9.30    3.10 
   6   8  -6    5.30    2.20 
  -6   8   6    6.90    3.00 
  -6   8   6    9.70    2.90 
  -6   8   6    9.30    3.80 
   5  -8  -6   27.70    4.70 
  -5  -8   6   30.70    3.70 
  -5   8   6   32.60    5.00 
  -5   8   6   20.90    4.90 
  -5   8   6   21.00    4.70 
   5   8  -6   23.90    4.30 
  -5   8   6   19.00    4.10 
  -5   8   6   20.10    4.50 
   4  -8  -6   23.70    4.70 
  -4  -8   6   24.80    4.80 
  -4  -8   6   37.20    6.30 
  -4   8   6   27.90    6.20 
  -4   8   6   31.80    5.70 
  -4   8   6   23.00    8.10 
  -4   8   6   25.40    4.80 
   4   8  -6   22.40    4.20 
  -4   8   6   35.10    7.00 
   3  -8  -6   35.00    5.20 
  -3  -8   6   33.50    4.70 
  -3  -8   6   17.40    7.20 
  -3   8   6   26.90    7.40 
   3   8  -6   39.50    5.90 
   3   8  -6   44.70    5.30 
  -3   8   6   33.40    6.00 
  -3   8   6   36.80    6.80 
  -3   8   6   42.40    7.60 
  -2  -8   6  194.98   17.20 
  -2  -8   6  192.78   12.70 
  -2   8   6  190.38   14.70 
   2   8  -6  206.88   15.30 
   2   8  -6  182.78   14.30 
  -2   8   6  177.48   13.80 
   2   8  -6  196.68   14.90 
  -1  -8   6   21.20    4.90 
  -1  -8   6   30.50    4.40 
   1  -8  -6   19.40    3.80 
   1   8  -6   36.00    5.30 
  -1   8   6   28.00    5.90 
  -1   8   6   22.70    5.60 
   1   8  -6   21.90    7.00 
  -1   8   6   24.60    6.40 
   0  -8   6   35.80    4.80 
   0  -8  -6   24.10    5.20 
   0  -8   6   26.70    4.50 
   0   8   6   38.00    6.70 
   0   8  -6   35.20    5.80 
   0   8   6   34.80    8.80 
   0   8   6   33.20    5.80 
   0   8  -6   39.00    5.20 
   0   8   6   33.00    6.40 
   0   8  -6   38.80    4.50 
   1  -8   6    3.60    2.00 
  -1  -8  -6    3.40    2.30 
  -1   8  -6    3.20    2.10 
   1   8   6   -0.30    2.50 
  -1   8  -6    1.90    1.80 
   1   8   6   -3.30    2.40 
  -1   8  -6   -1.20    1.70 
  11   0  -7    1.50    2.50 
 -10   0   7   67.89    9.10 
  10   0  -7   74.19    8.80 
  -9   0   7  182.48   15.50 
  -9   0   7  191.18   15.10 
  -9   0   7  207.58   17.10 
   8   0  -7  980.20   55.29 
  -8   0   7 1052.49   54.79 
   8   0  -7 1001.90   56.59 
  -7   0   7   52.99    8.00 
   7   0  -7   52.59    9.10 
   7   0  -7   40.70    8.90 
  -7   0   7   65.29   10.10 
  -7   0   7   65.89    8.50 
  -6   0   7  134.09   13.00 
   6   0  -7  113.89   12.70 
  -6   0   7   91.19   10.70 
   6   0  -7   92.99   12.50 
  -5   0   7  352.56   23.10 
  -5   0   7  338.07   20.70 
   5   0  -7  330.67   24.00 
  -4   0   7   61.89    7.10 
  -4   0   7   71.39    7.90 
   4   0  -7   62.79    8.60 
   4   0  -7   74.89    8.80 
  -3   0   7  156.08   13.60 
   3   0  -7  146.09   13.10 
   3   0  -7  167.58   12.50 
  -3   0   7  152.58   11.60 
   2   0  -7 5869.71  313.47 
  -2   0   7 7083.09  318.47 
  -2   0   7 7070.39  313.47 
   2   0  -7 7386.76  313.87 
  -2   0   7 7347.36  313.57 
  -1   0   7   53.49    6.80 
  -1   0   7   44.20    6.10 
  -1   0   7   53.59    9.70 
   0   0   7 1866.01   94.99 
   0   0   7 1867.11   90.69 
   0   0  -7 1834.92   88.89 
   0   0   7 1878.91   90.69 
   1   0   7 1027.50   56.69 
   1   0   7 1070.79   60.19 
  -1   0  -7 1051.79   53.79 
   1   0   7 1128.69   57.59 
   2   0   7   10.90    3.90 
   2   0   7    5.90    3.90 
   2   0   7   16.80    4.90 
   2   0   7    5.60    4.40 
   3   0   7   57.89   10.90 
   3   0   7   49.60    9.50 
   3   0   7   53.99    9.10 
   3   0   7   31.70    6.30 
   4   0   7   33.10    6.70 
   4   0   7   27.20    6.50 
   5   0   7  139.59   12.10 
   5   0   7  145.79   13.70 
   5   0   7  137.59   12.90 
  11  -1  -7  116.99   11.40 
  11   1  -7  103.49    8.60 
 -10  -1   7    5.50    5.80 
 -10  -1   7   18.10    4.40 
  10  -1  -7   16.00    5.10 
  10   1  -7   14.10    4.40 
   9  -1  -7    4.00    8.20 
  -9  -1   7   15.00    4.90 
  -9  -1   7   19.30    5.30 
   9  -1  -7   14.20    6.20 
  -9  -1   7   19.90    5.00 
  -9   1   7   14.30    4.80 
  -9   1   7   20.20    5.80 
   8  -1  -7   10.80    4.50 
  -8  -1   7    6.60    6.60 
   8  -1  -7   12.50    4.30 
  -8  -1   7    9.70    5.00 
   8  -1  -7   29.10    9.00 
  -8  -1   7    6.90    5.50 
   8   1  -7    9.60    4.70 
  -8   1   7   13.20    5.10 
  -8   1   7   12.60    5.50 
  -8   1   7    7.80    4.70 
   8   1  -7   11.90    6.00 
   7  -1  -7  185.98   17.10 
  -7  -1   7  185.58   15.80 
  -7  -1   7  194.08   16.00 
   7  -1  -7  187.88   17.00 
   7   1  -7  178.38   17.50 
   7   1  -7  180.58   16.70 
  -7   1   7  184.68   16.70 
  -7   1   7  192.18   17.50 
  -6  -1   7  190.38   16.40 
   6  -1  -7  204.28   15.20 
  -6   1   7  157.98   22.20 
  -6   1   7  205.18   16.20 
   6   1  -7  188.78   17.20 
  -6   1   7  200.38   16.90 
   5  -1  -7  328.57   23.60 
  -5  -1   7  323.47   20.40 
   5  -1  -7  337.07   21.70 
  -5  -1   7  369.76   23.00 
   5   1  -7  334.17   24.50 
  -5   1   7  341.97   20.90 
  -5   1   7  339.87   23.20 
  -4  -1   7 1313.57   61.69 
   4  -1  -7 1200.28   60.39 
   4  -1  -7 1190.28   62.59 
  -4  -1   7 1157.88   59.09 
   4  -1  -7 1240.98   59.19 
  -4   1   7 1137.19   59.59 
  -4   1   7 1219.18   62.09 
   4   1  -7 1236.18   64.09 
  -3  -1   7  670.33   35.50 
  -3  -1   7  627.74   34.00 
   3  -1  -7  678.03   35.50 
   3  -1  -7  635.34   33.70 
   3  -1  -7  613.34   36.00 
  -3   1   7  646.14   34.90 
  -3   1   7  633.94   38.40 
   3   1  -7  690.23   37.80 
  -2  -1   7  185.18   14.10 
  -2  -1   7  172.48   12.80 
  -2  -1   7  163.68   12.00 
   2  -1  -7  148.49   12.60 
   2  -1  -7  163.28   11.60 
   2  -1  -7  178.78   13.30 
  -2   1   7  155.18   12.50 
   2   1  -7  172.68   15.20 
  -2   1   7  156.38   16.10 
  -1  -1   7 1165.08   60.09 
   1  -1  -7 1225.28   61.29 
  -1  -1   7 1302.87   63.29 
   1  -1  -7 1255.97   59.79 
  -1   1   7 1229.78   61.69 
  -1   1   7 1206.68   66.29 
   0  -1  -7  977.90   48.30 
   0  -1   7 1057.79   51.49 
   0  -1   7  935.61   53.79 
   0  -1  -7 1034.60   50.29 
   0  -1   7  914.81   48.70 
   0   1   7  930.71   55.39 
   0   1   7  899.21   49.80 
  -1  -1  -7 2547.84  114.29 
   1  -1   7 2392.06  119.09 
   1   1   7 2452.25  121.29 
   1   1   7 2575.74  122.09 
   1   1   7 2108.79  122.69 
   1   1   7 2333.47  117.19 
   2  -1   7 1493.55   75.39 
   2  -1   7 1452.25   71.69 
   2  -1   7 1478.35   77.19 
   2  -1   7 1388.66   76.29 
  -2  -1  -7 1514.45   71.39 
   2   1   7 1502.85   79.09 
   2   1   7 1331.47   75.39 
   2   1   7 1408.76   75.99 
   2   1   7 1419.36   71.99 
   2   1   7 1443.56   78.29 
   3  -1   7  231.98   16.40 
   3  -1   7  224.28   20.00 
   3  -1   7  217.68   19.60 
   3   1   7  237.68   20.30 
   3   1   7  216.88   20.60 
   3   1   7  244.48   21.20 
   4  -1   7    5.50    3.80 
   4  -1   7    7.80    5.50 
   4  -1   7    8.90    4.00 
   4   1   7    9.70    5.30 
   4   1   7    5.30    5.60 
   4   1   7   15.00    5.70 
   5  -1   7   40.90    7.60 
   5  -1   7   40.60    7.10 
   5   1   7   25.30    5.90 
   5   1   7   22.40    7.40 
   5   1   7   41.10    7.60 
  10  -2  -7   54.69    9.00 
 -10  -2   7   52.09    7.00 
  10  -2  -7   48.60    8.20 
 -10   2   7   46.40    8.00 
  10   2  -7   46.00    6.50 
 -10   2   7   38.30    6.40 
   9  -2  -7   16.40    5.20 
  -9  -2   7    7.90    4.40 
  -9  -2   7   14.20    5.40 
   9  -2  -7   12.50    5.20 
  -9   2   7   21.40    6.20 
   9   2  -7    9.30    3.40 
  -9   2   7   18.60    4.50 
   9   2  -7   22.80    5.60 
   8  -2  -7   41.00    8.80 
  -8  -2   7   43.00    7.60 
  -8  -2   7   36.30    7.90 
  -8  -2   7   33.20    6.30 
  -8   2   7   44.70    8.10 
  -8   2   7   62.09   10.10 
   8   2  -7   22.60    6.30 
  -8   2   7   38.00    8.00 
  -8   2   7   31.10    7.60 
   8   2  -7   34.20    6.30 
   7  -2  -7  123.99   11.80 
  -7  -2   7  133.19   12.60 
  -7  -2   7  123.19   12.30 
   7  -2  -7  122.39   12.90 
   7  -2  -7  160.78   15.40 
  -7   2   7  113.89   13.40 
  -7   2   7  161.38   15.20 
  -7   2   7  109.39   13.80 
  -7   2   7  128.29   13.70 
   7   2  -7  120.99   13.70 
   7   2  -7  141.99   14.60 
  -7   2   7  118.79   13.40 
   7   2  -7  118.59   11.30 
  -6  -2   7   77.39    9.20 
   6  -2  -7   88.89    9.90 
   6  -2  -7   80.39   10.60 
  -6  -2   7   81.59    9.20 
   6   2  -7   84.29   12.20 
  -6   2   7   93.89   11.00 
  -6   2   7   99.89   13.30 
  -6   2   7   86.09   11.00 
  -6   2   7   99.79   11.10 
  -6   2   7   69.19   10.10 
   5  -2  -7  490.25   28.10 
  -5  -2   7  474.15   27.90 
   5  -2  -7  463.55   26.20 
  -5  -2   7  469.35   24.90 
   5  -2  -7  448.66   29.40 
  -5  -2   7  486.45   28.50 
  -5   2   7  465.45   30.00 
  -5   2   7  470.65   30.00 
   5   2  -7  480.85   31.50 
  -5   2   7  459.05   29.10 
  -5   2   7  431.36   30.00 
   5   2  -7  454.45   28.10 
  -5   2   7  444.06   30.00 
   4  -2  -7  154.38   12.20 
   4  -2  -7  173.58   13.80 
  -4  -2   7  221.48   13.60 
  -4  -2   7  182.58   11.90 
   4  -2  -7  179.08   15.00 
  -4  -2   7  180.58   14.20 
  -4   2   7  214.28   14.50 
  -4   2   7  166.08   15.30 
  -4   2   7  155.58   16.50 
   4   2  -7  175.78   16.40 
  -3  -2   7  477.45   25.30 
   3  -2  -7  463.95   25.80 
   3  -2  -7  458.45   27.40 
  -3  -2   7  479.15   26.20 
  -3  -2   7  517.05   28.30 
  -3   2   7  472.75   31.40 
   3   2  -7  463.25   29.90 
  -3   2   7  436.96   28.20 
   2  -2  -7  365.26   21.90 
  -2  -2   7  432.36   23.40 
  -2  -2   7  410.56   24.00 
  -2  -2   7  380.36   22.40 
  -2  -2   7  390.56   24.40 
   2   2  -7  377.36   25.40 
  -2   2   7  408.56   24.90 
  -2   2   7  383.96   28.40 
  -1  -2   7  105.29   10.90 
   1  -2  -7  125.09    9.40 
  -1  -2   7  109.99    9.80 
   1  -2  -7  117.49   10.50 
  -1  -2   7  117.99    9.30 
  -1   2   7  106.89   13.90 
   1   2  -7  113.29   11.00 
  -1   2   7  107.09   10.60 
   0  -2  -7  184.18   12.50 
   0  -2   7  187.88   14.90 
   0  -2   7  184.88   14.30 
   0  -2   7  154.08   16.40 
   0   2   7  171.68   17.60 
   0   2  -7  166.88   13.90 
   0   2   7  164.98   18.80 
   0   2   7  142.69   21.40 
   0   2   7  193.88   15.80 
  -1  -2  -7 1352.56   65.29 
   1  -2   7 1265.47   68.79 
   1  -2   7 1367.56   67.79 
  -1  -2  -7 1361.96   64.19 
   1  -2   7 1357.66   65.49 
   1  -2   7 1193.18   68.19 
   1   2   7 1273.17   71.99 
   1   2   7 1255.37   67.09 
   1   2   7 1313.67   72.69 
   1   2   7 1231.98   69.89 
   1   2   7 1295.07   66.69 
  -1   2  -7 1263.27   65.39 
  -2  -2  -7 2848.62  133.99 
   2  -2   7 2952.40  138.29 
  -2  -2  -7 2861.41  132.39 
   2  -2   7 2843.02  138.99 
   2  -2   7 2746.53  138.39 
   2  -2   7 2837.82  133.89 
   2   2   7 2875.81  142.39 
   2   2   7 3120.19  143.59 
   2   2   7 2813.82  134.99 
   2   2   7 2823.82  141.69 
  -2   2  -7 2658.43  133.79 
   3  -2   7  136.29   12.20 
   3  -2   7  144.39   14.70 
   3  -2   7  168.38   16.00 
  -3  -2  -7  136.79   11.90 
   3   2   7  141.19   16.50 
   3   2   7  146.29   13.60 
   3   2   7  132.39   15.40 
   3   2   7  150.38   16.20 
   4  -2   7  120.99   13.40 
   4  -2   7  131.69   14.10 
   4  -2   7  130.19   10.50 
   4   2   7  138.19   13.90 
   4   2   7  130.39   14.10 
   4   2   7  125.89   13.60 
   5  -2   7  176.68   14.70 
   5  -2   7  179.28   14.50 
   5   2   7  179.48   13.90 
   5   2   7  157.28   14.40 
   5   2   7  157.48   13.70 
  10  -3  -7   20.00    4.30 
 -10  -3   7   16.20    4.00 
  10   3  -7   23.70    5.30 
 -10   3   7   15.60    4.70 
  -9  -3   7   44.60    7.70 
  -9  -3   7   35.60    6.60 
   9  -3  -7   51.49    8.50 
   9  -3  -7   55.99    7.80 
  -9   3   7   60.59    9.20 
  -9   3   7   50.99    7.40 
  -9   3   7   57.19    8.40 
   9   3  -7   45.80    6.10 
   9   3  -7   81.09   13.50 
  -8  -3   7  200.48   15.70 
  -8  -3   7  167.18   18.90 
   8  -3  -7  190.98   16.60 
   8  -3  -7  179.58   14.90 
  -8   3   7  193.48   16.80 
  -8   3   7  197.28   16.60 
  -8   3   7  204.58   16.50 
   8   3  -7  189.28   14.40 
   8   3  -7  170.88   20.20 
  -8   3   7  190.68   17.60 
  -8   3   7  170.68   18.70 
  -7  -3   7   73.79    9.60 
   7  -3  -7   71.99    9.00 
  -7  -3   7   67.29    6.80 
   7  -3  -7   87.59   10.50 
  -7   3   7   88.59   11.90 
  -7   3   7   69.29   10.80 
   7   3  -7   70.79   12.00 
  -7   3   7   65.19   10.10 
  -7   3   7   76.09   10.40 
  -7   3   7   68.29   10.90 
   7   3  -7   88.39    9.20 
  -7   3   7   94.79   11.60 
  -6  -3   7  136.19   12.50 
   6  -3  -7  129.29   13.20 
   6  -3  -7  124.89   12.20 
  -6  -3   7  147.09   13.00 
   6  -3  -7  144.79   11.30 
  -6  -3   7  124.99   10.10 
  -6   3   7  138.89   14.70 
  -6   3   7  150.18   14.00 
  -6   3   7  140.09   15.00 
   6   3  -7  138.79   12.10 
   6   3  -7  141.99   15.50 
  -6   3   7  128.59   14.20 
  -6   3   7  151.98   15.10 
  -6   3   7  129.69   15.60 
  -6   3   7  127.69   14.50 
  -5  -3   7  122.09   10.90 
   5  -3  -7  111.59   11.10 
  -5  -3   7  119.99    9.60 
  -5  -3   7  131.29   11.90 
  -5  -3   7  106.59    9.40 
   5  -3  -7  102.89   11.90 
  -5  -3   7   92.49   12.20 
  -5   3   7  135.49   13.70 
  -5   3   7  119.29   13.40 
  -5   3   7  102.59   12.10 
  -5   3   7  125.49   13.20 
  -5   3   7  105.39   11.60 
  -5   3   7  135.99   16.20 
  -5   3   7  114.19   13.90 
   5   3  -7  119.59   10.80 
   5   3  -7  119.99   13.50 
  -4  -3   7  623.94   32.30 
   4  -3  -7  636.74   33.40 
  -4  -3   7  641.44   35.40 
  -4  -3   7  660.03   34.60 
   4  -3  -7  631.04   39.10 
   4  -3  -7  570.44   35.50 
  -4  -3   7  645.94   36.50 
  -4   3   7  577.44   37.00 
  -4   3   7  597.44   38.10 
   4   3  -7  645.64   35.60 
  -4   3   7  638.84   38.00 
   4   3  -7  634.64   39.20 
  -4   3   7  645.34   38.00 
  -4   3   7  613.74   39.40 
  -4   3   7  591.74   38.00 
   3  -3  -7  144.39   10.80 
  -3  -3   7  150.98   11.10 
  -3  -3   7  144.69   11.20 
  -3  -3   7  138.59   13.10 
  -3  -3   7  145.99   12.50 
  -3  -3   7  129.69   10.30 
   3  -3  -7  137.19   12.10 
  -3   3   7  129.09   15.20 
   3   3  -7  132.79   12.40 
  -3   3   7  136.89   15.60 
  -3   3   7  154.58   14.50 
  -3   3   7  149.09   14.60 
   3   3  -7  142.59   14.50 
  -3   3   7  127.49   14.20 
   2  -3  -7  406.26   23.20 
  -2  -3   7  423.76   25.80 
   2  -3  -7  414.66   25.10 
  -2  -3   7  413.86   26.50 
  -2  -3   7  395.56   24.90 
  -2  -3   7  390.96   23.10 
  -2  -3   7  444.76   24.10 
   2   3  -7  409.96   27.50 
   2   3  -7  462.75   27.10 
   2   3  -7  428.66   26.10 
  -2   3   7  388.86   29.40 
   2   3  -7  355.36   25.70 
  -2   3   7  444.96   28.60 
  -2   3   7  422.36   30.50 
  -2   3   7  406.46   28.00 
  -1  -3   7  144.19   12.20 
  -1  -3   7  163.78   13.40 
  -1  -3   7  141.89   13.80 
   1  -3  -7  173.38   13.40 
  -1  -3   7  165.18   12.00 
   1  -3  -7  167.38   11.40 
  -1   3   7  168.18   15.60 
  -1   3   7  149.69   16.60 
   1   3  -7  156.08   13.40 
  -1   3   7  181.68   15.70 
   1   3  -7  144.19   13.10 
   1   3  -7  162.98   13.80 
  -1   3   7  141.09   16.80 
  -1   3   7  139.79   16.90 
   1   3  -7  148.59   14.20 
   0  -3  -7 1165.18   56.69 
   0  -3   7 1078.29   60.39 
   0  -3   7 1233.28   59.69 
   0  -3   7 1182.08   56.59 
   0  -3   7 1164.48   59.19 
   0  -3  -7 1198.68   58.99 
   0   3  -7 1175.68   59.39 
   0   3   7 1167.68   61.99 
   0   3  -7 1203.08   59.49 
   0   3   7 1156.28   66.59 
   0   3   7 1066.89   63.79 
   0   3  -7 1152.28   59.49 
   0   3   7 1146.79   62.09 
   0   3   7 1119.39   65.79 
  -1  -3  -7   49.30    7.50 
   1  -3   7   65.99    9.20 
   1  -3   7   60.99    7.80 
  -1  -3  -7   57.09    6.80 
   1  -3   7   68.79   10.40 
   1  -3   7   67.69   10.80 
   1   3   7   54.09   10.10 
   1   3   7   89.99   12.90 
   1   3   7   82.99   11.60 
  -1   3  -7   69.29    8.30 
   1   3   7   74.49   11.60 
  -1   3  -7   66.19    8.70 
   1   3   7   43.50    9.60 
   2  -3   7  185.18   17.30 
   2  -3   7  206.78   15.40 
  -2  -3  -7  204.38   15.40 
   2  -3   7  195.18   17.70 
   2  -3   7  222.98   19.70 
  -2   3  -7  211.48   15.90 
   2   3   7  200.88   19.40 
   2   3   7  208.58   17.40 
   2   3   7  203.08   19.40 
   2   3   7  216.28   21.10 
   3  -3   7  604.54   39.40 
  -3  -3  -7  716.53   36.90 
  -3  -3  -7  711.93   41.00 
   3   3   7  622.44   41.70 
   3   3   7  579.54   40.10 
  -3   3  -7  753.82   38.40 
   3   3   7  669.83   42.10 
   3   3   7  709.03   41.80 
   4  -3   7  135.69   10.20 
   4  -3   7  122.59   13.10 
   4  -3   7  132.59   12.60 
  -4  -3  -7  131.39   10.20 
   4   3   7  120.79   13.60 
   4   3   7  128.89   13.50 
   4   3   7  119.39   12.80 
   4   3   7  149.59   12.30 
   5  -3   7  119.89   11.20 
   5  -3   7  108.29   10.50 
   5   3   7  122.89   10.80 
   5   3   7  118.69   10.70 
  10  -4  -7   51.69    5.90 
  10  -4  -7   50.59    6.60 
 -10  -4   7   49.90    5.90 
 -10   4   7   55.09    6.20 
   9  -4  -7  245.78   20.40 
  -9  -4   7  194.28   19.70 
   9   4  -7  259.77   17.40 
   8  -4  -7  306.87   21.60 
   8  -4  -7  285.07   19.40 
  -8  -4   7  294.97   20.20 
  -8   4   7  284.37   21.60 
  -8   4   7  255.77   30.00 
  -8   4   7  307.37   21.20 
   8   4  -7  292.07   18.60 
  -8   4   7  303.37   19.60 
  -8   4   7  294.87   21.00 
  -8   4   7  314.27   20.00 
  -8   4   7  324.57   20.90 
  -7  -4   7  144.89   12.90 
   7  -4  -7  141.19   12.00 
  -7  -4   7  153.18   12.40 
  -7  -4   7  145.09   10.30 
   7  -4  -7  147.09   13.20 
  -7   4   7  141.99   13.90 
  -7   4   7  144.89   15.00 
  -7   4   7  129.39   13.50 
  -7   4   7  151.38   14.00 
   7   4  -7  141.89   12.20 
  -7   4   7  144.39   14.00 
  -7   4   7  150.28   14.30 
  -7   4   7  151.68   15.80 
   6  -4  -7   21.80    4.60 
  -6  -4   7   25.00    6.00 
  -6  -4   7   22.90    6.10 
   6  -4  -7   17.60    6.10 
   6  -4  -7   23.60    6.30 
  -6   4   7   29.10    7.30 
  -6   4   7   18.30    7.20 
  -6   4   7   26.70    7.00 
  -6   4   7   27.50    7.20 
  -6   4   7   23.10    7.00 
   6   4  -7   19.20    6.80 
  -6   4   7   20.90    7.20 
   6   4  -7   16.30    4.80 
  -6   4   7   30.20    7.50 
  -5  -4   7  186.38   16.90 
  -5  -4   7  193.68   15.30 
  -5  -4   7  180.18   12.90 
   5  -4  -7  190.78   15.00 
   5  -4  -7  157.68   15.30 
   5  -4  -7  182.58   13.40 
  -5  -4   7  189.88   14.90 
  -5  -4   7  177.98   12.60 
  -5   4   7  175.58   17.20 
   5   4  -7  195.08   18.40 
  -5   4   7  178.08   17.20 
  -5   4   7  182.78   17.60 
   5   4  -7  183.08   15.20 
  -5   4   7  194.08   18.00 
  -5   4   7  189.18   16.70 
   5   4  -7  178.08   14.50 
  -5   4   7  183.48   17.40 
  -5   4   7  186.98   17.00 
   4  -4  -7  457.95   29.60 
   4  -4  -7  527.65   27.80 
  -4  -4   7  475.25   26.60 
  -4  -4   7  546.65   30.90 
  -4  -4   7  503.95   29.70 
  -4  -4   7  494.25   31.60 
   4  -4  -7  480.15   29.20 
  -4  -4   7  518.35   27.80 
  -4   4   7  497.05   33.90 
   4   4  -7  497.95   29.50 
  -4   4   7  476.45   31.80 
   4   4  -7  476.95   33.40 
  -4   4   7  452.85   31.00 
  -4   4   7  507.75   32.50 
  -4   4   7  505.85   33.00 
  -4   4   7  469.85   32.90 
  -4   4   7  516.65   34.60 
   4   4  -7  452.65   29.20 
  -3  -4   7 1890.41   96.49 
   3  -4  -7 1903.61   91.39 
   3  -4  -7 1917.81   93.49 
  -3  -4   7 2029.70   95.19 
  -3  -4   7 1899.71   92.99 
  -3  -4   7 2005.70   92.39 
   3   4  -7 2142.19   96.39 
   3   4  -7 1843.92   94.39 
  -3   4   7 1923.71  100.39 
  -3   4   7 1868.01   98.59 
   3   4  -7 1935.01   94.29 
  -3   4   7 1954.10   97.69 
  -3   4   7 1857.51   97.29 
   3   4  -7 1954.20   98.39 
  -3   4   7 1915.71  100.39 
  -3   4   7 1980.60   98.09 
  -2  -4   7 1764.12   86.09 
  -2  -4   7 1880.41   84.29 
  -2  -4   7 1564.74   87.79 
   2  -4  -7 1819.32   82.89 
  -2  -4   7 1786.02   88.39 
   2  -4  -7 1703.13   84.49 
  -2  -4   7 1741.23   84.79 
   2   4  -7 1708.33   88.69 
   2   4  -7 1741.73   84.39 
   2   4  -7 1852.91   87.19 
  -2   4   7 1795.12   89.49 
  -2   4   7 1691.73   90.49 
  -2   4   7 1794.22   92.99 
  -2   4   7 1700.13   92.09 
  -2   4   7 1761.22   89.39 
   2   4  -7 1767.22   86.09 
   2   4  -7 1581.04   86.89 
  -1  -4   7  431.86   24.70 
  -1  -4   7  419.76   28.50 
   1  -4  -7  457.85   24.50 
  -1  -4   7  432.66   26.40 
   1  -4  -7  418.16   25.80 
  -1  -4   7  419.06   26.50 
  -1  -4   7  455.45   25.50 
  -1   4   7  433.56   29.40 
  -1   4   7  402.16   30.90 
  -1   4   7  408.06   31.70 
   1   4  -7  427.86   27.00 
  -1   4   7  440.86   32.30 
   1   4  -7  461.15   27.90 
   1   4  -7  433.96   28.40 
  -1   4   7  431.46   29.80 
   1   4  -7  440.36   26.30 
   0  -4  -7  123.29    9.60 
   0  -4   7  112.29   10.10 
   0  -4   7  112.89   11.20 
   0  -4   7  106.69   10.60 
   0  -4   7  121.69   13.20 
   0  -4  -7  117.29   10.70 
   0   4   7  121.89   13.20 
   0   4   7   84.89   14.00 
   0   4   7   92.99   13.00 
   0   4  -7  109.69   11.10 
   0   4   7  138.89   15.20 
   0   4  -7  124.49   11.80 
   0   4  -7   99.69   10.80 
   0   4  -7  112.79   11.40 
   0   4   7  124.49   15.30 
  -1  -4  -7  154.48   11.90 
   1  -4   7  145.79   12.60 
  -1  -4  -7  157.78   12.80 
   1  -4   7  143.79   13.20 
   1  -4   7  154.18   11.80 
   1  -4   7  151.38   14.60 
  -1   4  -7  168.68   18.50 
   1   4   7  152.48   17.20 
  -1   4  -7  155.78   13.00 
  -1   4  -7  155.38   13.40 
   1   4   7  164.58   18.30 
   1   4   7  135.99   14.80 
   1   4   7  150.68   17.30 
   2  -4   7   92.49    9.30 
  -2  -4  -7   87.39    9.50 
  -2  -4  -7   91.29    8.60 
   2  -4   7   97.99   12.20 
  -2   4  -7   90.99    9.40 
   2   4   7   91.39   13.40 
   2   4   7   96.09   12.70 
   2   4   7  104.19   11.40 
   2   4   7   91.19   13.70 
   3  -4   7  168.08   15.90 
   3  -4   7  214.98   17.70 
  -3  -4  -7  227.78   15.50 
   3   4   7  215.38   16.60 
   3   4   7  230.18   19.00 
  -3   4  -7  218.78   15.30 
   3   4   7  219.28   18.90 
   3   4   7  215.18   19.40 
  -4  -4  -7   23.80    4.80 
   4  -4   7   21.40    5.10 
   4  -4   7   19.00    3.90 
   4   4   7   29.80    5.00 
   4   4   7   13.30    5.00 
   4   4   7   18.30    5.40 
   9  -5  -7   68.89    8.60 
   9  -5  -7   53.69    7.50 
  -9  -5   7   60.79    6.60 
  -9   5   7   51.99    6.60 
   9   5  -7   58.59    5.40 
  -9   5   7   57.39    6.40 
   8  -5  -7  535.95   30.00 
  -8  -5   7  477.65   24.90 
   8  -5  -7  502.65   28.10 
  -8  -5   7  426.76   31.50 
  -8   5   7  526.35   29.10 
  -8   5   7  477.75   27.90 
  -8   5   7  499.15   28.50 
  -8   5   7  504.95   29.00 
  -8   5   7  442.56   30.70 
  -8   5   7  487.45   31.00 
   8   5  -7  519.75   26.80 
  -8   5   7  521.35   30.60 
  -7  -5   7  150.78   13.40 
  -7  -5   7  185.18   11.80 
  -7   5   7  184.68   15.20 
  -7   5   7  171.18   15.30 
  -7   5   7  178.38   15.10 
  -7   5   7  154.38   21.30 
  -7   5   7  183.08   15.40 
  -7   5   7  171.88   14.50 
   7   5  -7  184.28   13.20 
  -7   5   7  152.08   15.20 
  -6  -5   7  154.18   11.40 
   6  -5  -7  176.58   12.70 
  -6  -5   7  167.58   11.90 
  -6  -5   7  167.18   13.80 
  -6  -5   7  170.68   13.50 
   6  -5  -7  185.88   14.60 
  -6   5   7  173.88   15.80 
  -6   5   7  142.89   16.70 
   6   5  -7  170.38   13.40 
  -6   5   7  162.88   14.80 
  -6   5   7  168.28   15.90 
  -6   5   7  186.18   15.50 
  -6   5   7  158.08   15.70 
  -6   5   7  148.89   15.70 
  -5  -5   7   15.10    3.60 
  -5  -5   7   12.80    3.30 
  -5  -5   7   15.40    4.20 
   5  -5  -7   11.70    3.50 
   5  -5  -7   14.90    4.70 
  -5  -5   7   15.00    4.50 
   5   5  -7   15.70    5.20 
  -5   5   7   14.50    5.50 
   5   5  -7   15.70    4.80 
  -5   5   7   20.20    6.10 
  -5   5   7   18.40    6.40 
  -5   5   7   20.00    6.70 
  -5   5   7   15.00    6.40 
  -5   5   7   17.80    6.90 
  -5   5   7   26.00    6.80 
   4  -5  -7   32.60    9.10 
   4  -5  -7   31.90    4.90 
  -4  -5   7   35.80    8.20 
  -4  -5   7   25.30    6.20 
  -4  -5   7   27.40    4.50 
   4   5  -7   17.50    5.30 
  -4   5   7   44.30    8.80 
  -4   5   7   21.50    6.80 
   4   5  -7   31.60    6.70 
  -4   5   7   17.90    5.80 
  -4   5   7   39.10    9.10 
   4   5  -7   26.30    7.00 
  -4   5   7   24.40    7.90 
  -4   5   7   14.90    5.40 
  -3  -5   7  201.98   14.10 
   3  -5  -7  203.88   14.30 
  -3  -5   7  203.78   16.90 
   3  -5  -7  201.98   15.80 
  -3  -5   7  209.88   15.00 
  -3   5   7  276.37   29.90 
  -3   5   7  212.58   21.50 
   3   5  -7  250.87   23.30 
  -3   5   7  226.08   26.20 
   3   5  -7  208.48   17.10 
  -2  -5   7  663.63   35.40 
  -2  -5   7  671.33   38.60 
   2  -5  -7  674.93   35.30 
  -2  -5   7  713.83   37.00 
   2  -5  -7  657.13   37.70 
  -2   5   7  629.84   43.10 
   2   5  -7  728.53   39.60 
   2   5  -7  630.94   51.49 
  -2   5   7  669.43   53.99 
  -1  -5   7  622.74   34.90 
  -1  -5   7  558.74   36.70 
  -1  -5   7  691.03   35.50 
   1  -5  -7  648.54   33.10 
  -1  -5   7  649.24   35.70 
   1  -5  -7  625.24   34.70 
  -1  -5   7  621.84   38.40 
   1   5  -7  646.34   38.00 
   1   5  -7  626.24   34.60 
   1   5  -7  597.94   44.70 
  -1   5   7  608.44   38.00 
   1   5  -7  610.44   35.70 
  -1   5   7  621.14   38.80 
  -1   5   7  639.24   40.90 
  -1   5   7  645.84   42.10 
   1   5  -7  563.94   36.00 
   0  -5   7   98.49   10.90 
   0  -5  -7  106.29   10.20 
   0  -5   7  112.89   11.00 
   0  -5  -7  110.59    8.90 
   0  -5   7  115.89   10.80 
   0  -5   7  116.79   10.10 
   0   5   7   80.09   12.10 
   0   5   7  114.69   14.70 
   0   5  -7  114.89   11.20 
   0   5  -7  109.89   10.70 
   0   5   7   85.79   13.20 
   0   5   7  118.89   14.70 
   0   5  -7   92.59   11.60 
   0   5   7  103.39   12.10 
   0   5  -7  102.99   10.20 
   1  -5   7  124.89   11.70 
   1  -5   7  127.69   10.00 
  -1  -5  -7  123.39   11.10 
   1  -5   7  139.79   11.80 
  -1  -5  -7  125.69    9.60 
  -1   5  -7  130.19   11.70 
   1   5   7  112.79   15.60 
  -1   5  -7  120.89   17.60 
   1   5   7  125.59   15.00 
   1   5   7  122.09   13.40 
   1   5   7  120.39   15.40 
  -1   5  -7  122.29   11.30 
  -1   5  -7  133.29   12.00 
  -2  -5  -7  103.09    9.80 
  -2  -5  -7  100.29   10.80 
   2  -5   7   98.89    9.40 
  -2   5  -7   98.19    9.40 
   2   5   7  102.09   13.30 
   2   5   7  107.49   11.30 
  -2   5  -7   99.59    9.30 
   2   5   7  103.49   13.60 
   2   5   7   93.79   12.50 
   3  -5   7  151.08   12.30 
  -3  -5  -7  158.58   11.60 
   3  -5   7  149.49   11.20 
   3   5   7  149.69   17.70 
   3   5   7  134.49   13.90 
  -3   5  -7  161.48   11.50 
   3   5   7  161.08   14.40 
  -4  -5  -7   73.39    7.10 
   4  -5   7  106.19   11.80 
   4  -5   7   75.09    7.50 
   4   5   7   95.99    8.70 
   4   5   7  104.39    9.10 
   4   5   7   81.09    8.10 
   8  -6  -7   41.40    7.70 
  -8   6   7   31.30    6.50 
  -8   6   7   30.60    5.40 
  -8   6   7   37.10    5.70 
  -8   6   7   32.40    5.80 
   8   6  -7   36.00    4.20 
  -8   6   7   22.80    6.30 
   7  -6  -7    8.30    2.90 
   7  -6  -7    3.90    4.10 
  -7   6   7    1.90    4.00 
  -7   6   7    7.80    3.30 
  -7   6   7   -3.50    4.90 
  -7   6   7    6.80    3.90 
  -7   6   7    7.60    4.50 
   6  -6  -7  201.38   15.30 
  -6  -6   7  199.88   13.00 
  -6  -6   7  206.98   15.20 
  -6  -6   7  188.58   15.60 
  -6   6   7  200.38   16.10 
  -6   6   7  157.48   17.40 
   6   6  -7  218.28   14.40 
  -6   6   7  202.08   17.10 
  -6   6   7  198.28   16.70 
  -6   6   7  213.68   16.10 
  -6   6   7  184.88   17.30 
  -6   6   7  220.18   16.90 
  -5  -6   7  116.39   10.60 
  -5  -6   7  144.39   11.90 
  -5  -6   7  131.59    9.70 
  -5  -6   7  125.09   10.00 
   5  -6  -7  126.19   11.60 
  -5   6   7  122.19   13.70 
  -5   6   7  140.69   21.70 
  -5   6   7  134.49   14.00 
   5   6  -7  128.99   11.80 
   5   6  -7  109.49   10.30 
  -5   6   7  140.39   15.20 
  -4  -6   7  297.57   18.20 
  -4  -6   7  284.07   20.10 
   4  -6  -7  259.87   18.90 
  -4  -6   7  290.07   17.30 
  -4  -6   7  286.37   19.00 
   4  -6  -7  300.27   17.90 
  -4   6   7  290.87   22.00 
  -4   6   7  291.97   23.40 
   4   6  -7  282.37   19.60 
  -4   6   7  275.67   21.60 
  -4   6   7  262.07   22.20 
   4   6  -7  281.57   18.50 
  -4   6   7  291.27   21.10 
  -3  -6   7  113.09   11.50 
   3  -6  -7   99.89   10.10 
  -3  -6   7  115.39    9.80 
  -3  -6   7   94.89    8.70 
   3  -6  -7   97.39    8.70 
   3   6  -7  113.39   11.40 
  -3   6   7  110.89   12.10 
  -3   6   7   96.19   12.70 
   3   6  -7  100.49   10.10 
  -3   6   7   75.39   11.30 
  -3   6   7  117.29   13.40 
  -3   6   7  125.29   13.30 
   3   6  -7  102.99   11.20 
   2  -6  -7    5.00    2.50 
  -2  -6   7   16.60    5.90 
   2  -6  -7    8.10    3.30 
  -2  -6   7    6.80    2.70 
  -2  -6   7   10.10    4.00 
   2   6  -7    4.00    3.70 
  -2   6   7   13.10    4.10 
  -2   6   7   12.00    5.60 
   2   6  -7    9.00    3.30 
   2   6  -7    1.80    3.60 
  -2   6   7   -2.40    3.90 
  -2   6   7    8.80    5.50 
  -2   6   7    9.30    5.70 
   2   6  -7    6.20    4.00 
  -1  -6   7   49.80    8.50 
  -1  -6   7   65.99    8.90 
  -1  -6   7   78.99    8.00 
   1  -6  -7   61.79    7.60 
  -1  -6   7   77.19   10.40 
   1  -6  -7   62.49    6.90 
  -1   6   7   76.39   11.50 
   1   6  -7   65.99    8.10 
   1   6  -7   81.99    9.00 
  -1   6   7   87.69   11.60 
   1   6  -7   79.99    9.00 
  -1   6   7   74.79   10.00 
  -1   6   7   67.89   12.30 
   0  -6   7   51.19    7.20 
   0   6  -7   50.09    7.10 
   0   6   7   40.20    8.80 
   0   6  -7   53.39    8.10 
   0   6   7   33.30   16.20 
   0   6  -7   58.19    6.90 
   1  -6   7  215.28   14.70 
  -1  -6  -7  201.58   14.30 
   1  -6   7  206.68   13.20 
   1  -6   7  187.08   14.60 
   1   6   7  196.28   18.30 
   1   6   7  207.18   16.60 
  -1   6  -7  205.48   16.00 
  -1   6  -7  200.68   14.60 
  -1   6  -7  213.78   14.50 
  -1   6  -7  214.28   14.90 
   1   6   7  185.48   18.20 
   1   6   7  189.18   17.50 
   2  -6   7   58.39    6.70 
  -2  -6  -7   62.79    6.70 
  -2   6  -7   61.99    6.90 
  -2   6  -7   60.79    6.50 
   2   6   7   57.49    8.40 
   2   6   7   49.10    8.80 
  -2   6  -7   59.09    9.20 
   2   6   7   59.39    9.60 
   2   6   7   54.09    9.60 
   3  -6   7  198.38   12.40 
  -3  -6  -7  198.28   12.40 
   3   6   7  199.08   13.60 
   3   6   7  193.38   13.40 
   3   6   7  192.08   14.40 
  -7   7   7   26.60    4.90 
  -7   7   7   17.20    4.20 
  -7   7   7   12.50    3.40 
  -7   7   7   24.60    4.50 
  -7   7   7   20.90    4.70 
   7   7  -7   22.70    4.60 
  -6  -7   7   15.90    3.00 
   6  -7  -7   13.80    3.80 
   6  -7  -7   14.20    4.00 
   6   7  -7   10.10    2.70 
  -6   7   7   13.60    3.90 
  -6   7   7   12.00    3.40 
  -6   7   7   19.40    4.80 
  -6   7   7   14.20    3.90 
  -6   7   7   14.70    4.20 
  -6   7   7    9.90    4.10 
   5  -7  -7    2.30    2.30 
  -5  -7   7    4.30    2.50 
  -5  -7   7    6.60    2.20 
  -5   7   7    5.30    3.30 
  -5   7   7   -4.60    4.00 
   5   7  -7    5.30    3.10 
  -5   7   7   -0.40    3.70 
  -5   7   7    4.20    3.30 
  -5   7   7    0.90    2.50 
  -5   7   7    3.00    3.00 
   4  -7  -7   34.80    5.40 
  -4  -7   7   42.20    5.10 
  -4  -7   7   33.90    6.20 
  -4  -7   7   37.70    5.40 
  -4   7   7   44.50    7.50 
   4   7  -7   31.10    6.00 
  -4   7   7   34.80    7.30 
  -4   7   7   33.60    7.00 
  -4   7   7   32.00    6.40 
  -4   7   7   37.20    7.00 
   4   7  -7   41.60    5.50 
  -4   7   7   53.09    7.50 
  -3  -7   7    4.70    2.30 
  -3  -7   7    8.00    3.40 
   3  -7  -7    5.40    3.00 
  -3   7   7    7.20    3.30 
  -3   7   7    7.30    3.60 
  -3   7   7    6.80    4.40 
   3   7  -7    8.10    3.30 
  -3   7   7    4.10    4.20 
   3   7  -7   12.00    3.20 
  -3   7   7   10.60    4.50 
  -2  -7   7   29.70    4.50 
   2  -7  -7   26.10    5.00 
  -2  -7   7   18.70    6.70 
  -2  -7   7   19.60    4.80 
  -2   7   7   22.80    5.30 
  -2   7   7   26.10    6.70 
   2   7  -7   35.00    5.00 
   2   7  -7   23.10    5.20 
  -2   7   7   36.00    6.80 
  -2   7   7   22.60    5.50 
  -2   7   7   24.40    6.60 
   2   7  -7   23.60    5.40 
   1  -7  -7   30.40    4.80 
  -1  -7   7   21.40    5.00 
  -1   7   7   24.30    6.40 
   1   7  -7   17.10    4.20 
   1   7  -7   15.40    3.90 
  -1   7   7   20.00    6.70 
   1   7  -7   25.30    5.70 
  -1   7   7   20.40    5.90 
   1   7  -7   23.10    5.70 
  -1   7   7   19.00    5.90 
  -1   7   7   17.80    4.80 
   0  -7   7    6.60    3.40 
   0  -7   7    3.50    3.50 
   0  -7   7   10.80    3.20 
   0   7   7    6.90    4.10 
   0   7   7   10.80    4.00 
   0   7  -7    0.20    3.00 
   0   7  -7    5.90    3.40 
   0   7  -7    1.10    2.70 
   0   7  -7   11.20    3.10 
   1  -7   7  116.79    9.20 
  -1  -7  -7  110.09    9.00 
   1   7   7  126.29   11.00 
   1   7   7  126.89   11.90 
   1   7   7  104.09   11.30 
  -1   7  -7  126.09    9.00 
   1   7   7  125.59   13.60 
  -1   7  -7  136.99    9.60 
  -2  -7  -7  576.94   30.20 
  -2   7  -7  591.14   29.30 
   2   7   7  643.14   34.90 
  -4  -8   7   26.20    3.20 
  -4  -8   7   23.30    3.40 
   4  -8  -7   15.20    3.90 
  -4   8   7   19.50    5.70 
   4   8  -7   19.00    3.60 
  -4   8   7   18.60    3.60 
  -4   8   7   16.30    3.90 
  -4   8   7   18.60    4.40 
  -4   8   7   25.20    5.10 
  -3  -8   7   42.40    4.80 
  -3  -8   7   42.20    4.50 
   3   8  -7   49.30    5.50 
  -3   8   7   54.99    6.40 
  -3   8   7   43.30    6.90 
  -3   8   7   49.30    6.40 
  -3   8   7   43.90    6.40 
   3   8  -7   43.60    5.00 
  -3   8   7   43.50    7.10 
  -2  -8   7  108.49    7.40 
  -2  -8   7   86.89    7.70 
   2   8  -7  102.39    8.30 
  -2   8   7   99.59    9.60 
  -2   8   7  110.49   10.30 
  -2   8   7   99.59    8.70 
   2   8  -7  108.29    8.10 
  -2   8   7   88.09   10.40 
  -1  -8   7   24.10    4.80 
   1   8  -7   17.60    3.50 
  -1   8   7   25.10    4.90 
  -1   8   7   19.00    4.30 
  -1   8   7   19.90    5.10 
   1   8  -7   19.20    5.40 
  10   0  -8   36.00    6.20 
  -9   0   8   27.30    6.00 
  -9   0   8   30.80    6.60 
   9   0  -8   31.00    7.00 
  -8   0   8   15.10    4.80 
   8   0  -8    4.40    3.80 
  -8   0   8   -1.60    3.60 
   7   0  -8   87.89   12.60 
  -7   0   8  133.19   13.20 
  -7   0   8  114.79   13.00 
   7   0  -8  120.59   13.20 
  -7   0   8  122.89   13.60 
  -6   0   8   86.29   10.70 
  -6   0   8  107.49   12.10 
   6   0  -8   97.19   12.60 
   6   0  -8  101.29   12.30 
  -6   0   8   93.79   12.00 
  -6   0   8   92.79   11.20 
   5   0  -8  362.66   26.20 
  -5   0   8  375.46   24.60 
  -5   0   8  352.86   24.60 
  -5   0   8  365.36   33.20 
  -5   0   8  359.56   24.50 
  -4   0   8  157.58   14.40 
   4   0  -8  129.59   14.20 
  -4   0   8  173.58   16.00 
  -3   0   8 3818.22  178.68 
  -3   0   8 3861.21  180.88 
  -3   0   8 3910.71  180.18 
   3   0  -8 3891.01  180.78 
  -2   0   8 1502.35   79.99 
  -2   0   8 1550.04   76.29 
  -2   0   8 1578.44   84.19 
  -1   0   8 2486.45  122.79 
  -1   0   8 2774.42  129.69 
  -1   0   8 2320.57  123.49 
  -1   0   8 2479.85  120.69 
   0   0   8 1621.04   77.89 
   0   0   8 1446.46   80.79 
   0   0   8 1538.75   81.79 
   2   0   8   25.50    5.60 
   2   0   8   19.30    7.00 
   2   0   8   29.70    7.50 
   3   0   8   11.50    4.80 
   3   0   8    5.40    4.20 
   3   0   8   18.10    6.40 
  10  -1  -8  198.88   13.70 
  10   1  -8  179.08   13.00 
 -10   1   8  144.29   12.80 
   9  -1  -8  244.08   18.00 
  -9  -1   8  233.08   18.20 
  -9  -1   8  252.07   17.00 
  -9   1   8  226.08   18.80 
   9   1  -8  250.97   17.60 
  -9   1   8  218.48   17.30 
   8  -1  -8  191.28   16.20 
  -8  -1   8  145.69   14.20 
  -8  -1   8  199.38   16.40 
  -8   1   8  160.58   15.70 
  -8   1   8  185.58   16.50 
   8   1  -8  171.68   15.40 
  -8   1   8  155.18   15.40 
   7  -1  -8  139.89   14.70 
  -7  -1   8  130.69   16.80 
   7  -1  -8  132.29   14.30 
  -7  -1   8  133.29   13.50 
  -7   1   8  159.38   16.70 
  -7   1   8  149.88   14.00 
   7   1  -8  126.39   13.70 
   7   1  -8  122.69   13.50 
  -7   1   8  142.29   14.50 
  -7   1   8  143.89   14.10 
  -6  -1   8  598.34   34.90 
   6  -1  -8  595.14   36.60 
  -6  -1   8  504.65   34.00 
  -6  -1   8  606.94   34.80 
  -6   1   8  594.44   36.10 
   6   1  -8  566.24   37.20 
  -6   1   8  587.44   35.60 
  -6   1   8  594.84   34.60 
  -6   1   8  561.74   35.50 
   6   1  -8  566.94   34.70 
   5  -1  -8  236.48   17.00 
   5  -1  -8  224.68   19.80 
  -5  -1   8  264.97   18.60 
  -5  -1   8  215.28   17.40 
  -5  -1   8  224.58   16.90 
  -5   1   8  234.98   18.80 
  -5   1   8  221.28   18.60 
  -5   1   8  235.88   18.90 
  -5   1   8  251.57   19.30 
   5   1  -8  251.27   20.40 
  -4  -1   8 3839.62  173.38 
   4  -1  -8 3716.23  171.58 
   4  -1  -8 3503.85  171.78 
  -4   1   8 3580.14  172.38 
   3  -1  -8  226.08   18.00 
  -3  -1   8  277.67   19.00 
  -3  -1   8  263.77   19.70 
  -3  -1   8  251.07   17.20 
  -3   1   8  226.18   18.80 
   3   1  -8  247.58   19.20 
  -3   1   8  235.98   21.30 
  -3   1   8  240.68   17.60 
  -3   1   8  252.77   19.60 
  -3   1   8  243.18   20.80 
   3   1  -8  234.98   21.80 
  -2  -1   8 2690.13  116.89 
   2  -1  -8 2607.44  117.59 
  -2  -1   8 2535.85  122.99 
   2  -1  -8 2308.67  118.29 
   2   1  -8 2516.15  118.89 
  -2   1   8 2658.53  126.59 
  -2   1   8 2425.86  122.89 
  -2   1   8 2507.75  118.59 
   2   1  -8 2392.36  126.49 
  -2   1   8 2073.89  129.29 
  -1  -1   8 2637.64  141.89 
   1  -1  -8 2653.73  120.79 
  -1  -1   8 2611.54  120.79 
  -1  -1   8 2620.14  122.39 
  -1  -1   8 2469.65  124.99 
  -1   1   8 2618.64  123.49 
  -1   1   8 2472.25  126.89 
   1   1  -8 2435.46  120.69 
  -1   1   8 2462.35  126.89 
   0  -1  -8  516.45   29.50 
   0  -1   8  495.05   31.00 
   0  -1   8  493.85   33.70 
   0  -1   8  501.25   33.70 
   0  -1   8  533.25   31.00 
   0   1   8  488.85   35.00 
   0   1   8  530.15   31.80 
   0   1   8  501.15   35.40 
   1  -1   8  182.88   16.10 
  -1  -1  -8  169.28   14.40 
   1  -1   8  167.58   18.10 
   1  -1   8  169.98   17.30 
   1  -1   8  177.98   14.80 
   1   1   8  211.58   21.20 
   1   1   8  173.38   17.90 
   1   1   8  159.18   14.90 
   1   1   8  178.38   17.70 
   2  -1   8  140.09   12.10 
   2  -1   8  158.18   16.30 
   2  -1   8  151.48   14.80 
   2   1   8  118.99   17.10 
   2   1   8  123.69   15.50 
   2   1   8  136.59   12.40 
   2   1   8  149.88   15.90 
   3  -1   8   57.89    9.70 
   3  -1   8   49.40    7.00 
   3  -1   8   51.79    8.70 
   3   1   8   49.10    8.80 
   3   1   8   62.59    8.90 
   3   1   8   43.90    9.70 
   4  -1   8  303.47   26.20 
   4  -1   8  361.36   24.40 
   4   1   8  417.96   30.80 
  10  -2  -8    0.30    2.00 
 -10   2   8    1.80    3.90 
  10   2  -8    3.70    2.80 
   9  -2  -8   12.80    6.00 
   9  -2  -8    7.70    4.00 
  -9  -2   8   10.90    4.50 
  -9  -2   8    2.10    4.00 
  -9  -2   8   11.90    4.20 
   9   2  -8   -4.70    5.70 
  -9   2   8   18.40    4.10 
  -9   2   8   11.60    4.40 
   8  -2  -8   42.30    7.70 
  -8  -2   8   39.20    7.40 
  -8  -2   8   68.39    9.20 
  -8  -2   8   44.40    8.50 
  -8   2   8   54.69    9.20 
  -8   2   8   33.20    7.20 
  -8   2   8   43.20    6.90 
   8   2  -8   48.00    8.00 
  -8   2   8   38.10    8.20 
  -7  -2   8  120.79   12.30 
  -7  -2   8  137.89   12.90 
   7  -2  -8  128.99   13.50 
   7  -2  -8  120.99   13.00 
  -7   2   8  119.69   12.80 
  -7   2   8  103.49   12.80 
  -7   2   8  124.29   13.40 
  -7   2   8  110.29   13.70 
  -7   2   8  118.19   12.70 
   6  -2  -8  538.65   31.10 
   6  -2  -8  489.15   33.50 
  -6  -2   8  572.24   32.90 
  -6  -2   8  531.15   32.40 
  -6   2   8  508.75   34.20 
   6   2  -8  556.34   36.00 
  -6   2   8  555.84   35.00 
  -6   2   8  551.44   34.60 
  -6   2   8  531.45   33.10 
  -6   2   8  528.95   41.00 
   5  -2  -8   71.59    8.80 
   5  -2  -8   82.49    9.60 
   5  -2  -8   71.89   11.20 
  -5  -2   8   95.79   10.40 
  -5  -2   8   96.99   10.30 
  -5  -2   8   92.59   10.00 
   5   2  -8   97.19   12.90 
  -5   2   8   94.29   11.60 
  -5   2   8   83.19   12.30 
  -5   2   8  118.09   13.50 
  -5   2   8   67.79   11.50 
  -5   2   8   95.89   11.60 
  -5   2   8   82.59   10.50 
  -5   2   8   93.29   12.00 
  -4  -2   8 3224.98  141.69 
  -4  -2   8 2995.70  141.09 
   4  -2  -8 2687.13  143.89 
  -4  -2   8 3045.20  141.29 
   4  -2  -8 2993.60  140.49 
  -4   2   8 3034.30  143.79 
   4   2  -8 3018.30  141.69 
  -4   2   8 2810.52  141.89 
  -4   2   8 3072.49  143.89 
  -4   2   8 2968.10  143.69 
  -4   2   8 3271.17  147.19 
   4   2  -8 3080.59  145.29 
  -4   2   8 2796.12  144.49 
  -4   2   8 2930.11  145.39 
  -3  -2   8  498.75   29.80 
   3  -2  -8  488.25   29.10 
   3  -2  -8  492.95   28.30 
  -3  -2   8  503.45   29.50 
  -3  -2   8  525.45   29.50 
  -3   2   8  460.85   31.10 
  -3   2   8  537.05   33.50 
  -3   2   8  468.15   33.20 
   3   2  -8  484.95   30.00 
  -3   2   8  476.65   33.20 
  -3   2   8  489.35   31.60 
   3   2  -8  475.05   31.80 
  -2  -2   8  175.78   14.10 
  -2  -2   8  187.08   13.50 
  -2  -2   8  159.88   14.10 
   2  -2  -8  169.88   14.10 
  -2   2   8  178.38   18.30 
  -2   2   8  180.78   17.70 
  -2   2   8  162.78   16.30 
   2   2  -8  170.68   16.20 
   2   2  -8  166.98   14.50 
  -2   2   8  168.08   17.10 
  -2   2   8  176.08   16.20 
  -1  -2   8 1033.10   52.89 
  -1  -2   8 1046.60   54.29 
   1  -2  -8 1081.99   53.79 
  -1  -2   8 1028.60   54.29 
   1  -2  -8 1035.90   51.89 
  -1  -2   8 1060.99   51.89 
  -1   2   8 1046.90   56.19 
  -1   2   8  970.90   56.49 
   1   2  -8 1004.80   53.49 
  -1   2   8 1027.90   60.09 
  -1   2   8 1013.30   55.69 
  -1   2   8 1001.70   59.49 
   0  -2   8 1163.68   58.59 
   0  -2   8 1243.58   61.89 
   0  -2  -8 1161.88   58.09 
   0  -2   8 1189.48   63.49 
   0  -2   8 1098.99   62.89 
   0  -2  -8 1197.98   59.89 
   0  -2   8 1202.48   60.59 
   0   2   8 1176.08   62.09 
   0   2   8 1143.29   61.69 
   0   2   8 1205.58   67.29 
   0   2  -8 1152.38   59.19 
   0   2   8 1151.18   66.59 
   0   2   8 1135.69   63.89 
   1  -2   8 1336.87   63.89 
  -1  -2  -8 1343.47   63.09 
   1  -2   8 1273.17   66.99 
   1  -2   8 1036.60   65.29 
   1   2   8 1252.17   70.19 
   1   2   8 1217.78   64.19 
   1   2   8 1239.78   67.19 
   1   2   8 1241.08   69.69 
   1   2   8 1267.37   64.29 
   2  -2   8   10.30    7.40 
   2  -2   8   19.70    4.80 
  -2  -2  -8   16.90    4.30 
   2  -2   8   12.90    5.80 
   2   2   8    3.40    4.80 
   2   2   8    6.70    4.70 
   2   2   8    3.60    5.00 
   3  -2   8   19.90    5.90 
   3  -2   8   21.60    4.40 
   3  -2   8   23.00    5.90 
   3   2   8   19.30    6.20 
   3   2   8   16.60    5.40 
   3   2   8   11.50    5.20 
   4  -2   8   67.99    8.20 
   4  -2   8   68.99    6.50 
   4  -2   8   62.39    9.10 
   4   2   8   80.09    8.70 
   4   2   8   60.69   11.70 
   4   2   8   71.09    9.10 
  10  -3  -8    8.40    2.80 
 -10   3   8    7.10    2.70 
  -9  -3   8    7.80    3.70 
  -9  -3   8   13.00    4.30 
   9  -3  -8    7.00    4.20 
   9  -3  -8    7.80    3.20 
   9   3  -8   12.50    2.90 
  -9   3   8    9.90    3.30 
  -9   3   8    8.70    5.80 
  -8  -3   8   13.50    4.40 
   8  -3  -8   16.20    5.10 
  -8  -3   8   23.00    7.20 
  -8   3   8   15.20    8.20 
  -8   3   8   18.90    5.50 
  -8   3   8   17.60    5.40 
  -8   3   8   23.40    4.90 
   8   3  -8   16.20    3.50 
  -8   3   8    8.80    3.90 
   7  -3  -8  321.67   20.90 
  -7  -3   8  337.57   22.60 
  -7  -3   8  331.47   21.60 
  -7   3   8  315.77   24.00 
  -7   3   8  289.97   23.70 
  -7   3   8  334.57   22.60 
  -7   3   8  311.27   22.50 
  -7   3   8  336.97   23.90 
   6  -3  -8 1040.60   51.19 
  -6  -3   8 1039.80   52.49 
   6  -3  -8  783.22   63.29 
   6  -3  -8 1011.80   51.99 
   6   3  -8 1021.40   57.59 
  -6   3   8  980.70   54.19 
  -6   3   8  960.60   55.49 
  -6   3   8 1022.90   54.19 
  -6   3   8 1025.30   54.39 
  -6   3   8  954.80   53.89 
  -6   3   8 1004.90   54.59 
  -5  -3   8 1988.20   93.29 
  -5  -3   8 1872.91   90.89 
   5  -3  -8 1768.82   93.79 
   5  -3  -8 1874.41   90.29 
  -5  -3   8 1957.70   92.89 
   5  -3  -8 1945.31   92.49 
  -5   3   8 1836.12   98.79 
   5   3  -8 1908.81   97.79 
  -5   3   8 1774.72   94.89 
   5   3  -8 1934.91   92.59 
  -5   3   8 1772.72   95.49 
  -5   3   8 1858.61   94.89 
  -5   3   8 1867.31   96.39 
  -5   3   8 2167.08  108.09 
  -5   3   8 1919.71   95.59 
  -4  -3   8 1710.63   79.29 
  -4  -3   8 1516.65   77.69 
  -4  -3   8 1661.63   74.59 
   4  -3  -8 1594.44   76.49 
   4  -3  -8 1640.64   78.59 
  -4  -3   8 1663.83   78.99 
  -4   3   8 1569.44   81.29 
   4   3  -8 1599.14   78.79 
  -4   3   8 1361.06   78.69 
  -4   3   8 1558.04   81.69 
  -4   3   8 1525.25   83.29 
   4   3  -8 1635.14   83.19 
  -4   3   8 1576.74   81.39 
  -4   3   8 1551.04   83.19 
  -4   3   8 1531.35   81.49 
   3  -3  -8  513.55   30.50 
  -3  -3   8  560.24   31.10 
  -3  -3   8  519.45   27.50 
  -3  -3   8  520.65   30.80 
   3  -3  -8  504.45   28.90 
  -3  -3   8  522.35   31.80 
  -3  -3   8  526.05   30.80 
  -3   3   8  485.75   35.20 
   3   3  -8  524.45   31.20 
   3   3  -8  511.55   33.20 
  -3   3   8  539.55   33.80 
  -3   3   8  541.55   34.60 
  -3   3   8  536.25   36.00 
  -3   3   8  464.85   32.50 
  -3   3   8  502.25   32.80 
   2  -3  -8  774.72   40.20 
  -2  -3   8  744.33   43.00 
  -2  -3   8  817.62   41.90 
   2  -3  -8  791.22   42.10 
  -2  -3   8  786.62   42.40 
  -2  -3   8  811.22   42.30 
  -2   3   8  756.22   45.20 
  -2   3   8  760.62   46.40 
   2   3  -8  724.33   43.70 
  -2   3   8  763.42   48.40 
  -2   3   8  761.02   45.00 
  -2   3   8  766.12   48.10 
   2   3  -8  759.22   42.20 
  -1  -3   8  423.36   25.30 
   1  -3  -8  425.76   24.90 
   1  -3  -8  460.45   26.80 
  -1  -3   8  472.15   27.20 
  -1  -3   8  439.16   28.00 
  -1  -3   8  449.76   26.40 
  -1   3   8  410.96   28.60 
  -1   3   8  384.46   30.20 
   1   3  -8  387.46   26.20 
  -1   3   8  434.26   29.50 
  -1   3   8  434.46   32.20 
  -1   3   8  438.96   32.30 
   0  -3   8 2025.70   98.49 
   0  -3  -8 2072.89   96.39 
   0  -3   8 2080.29   96.59 
   0  -3   8 1968.60   94.89 
   0   3   8 2003.40   98.99 
   0   3   8 1829.72  100.29 
   0   3  -8 1993.60   95.69 
   0   3   8 1973.70  104.19 
   0   3   8 1964.20   98.19 
   0   3   8 1974.50  103.79 
   1  -3   8  553.14   30.90 
  -1  -3  -8  544.75   29.40 
   1  -3   8  552.24   34.30 
  -1  -3  -8  545.55   30.70 
   1  -3   8  507.25   28.80 
   1  -3   8  511.25   32.80 
   1   3   8  548.65   36.50 
  -1   3  -8  550.14   32.30 
   1   3   8  534.15   32.50 
   1   3   8  484.75   30.80 
   1   3   8  518.65   35.10 
   1   3   8  498.05   36.10 
   2  -3   8   22.60    6.10 
  -2  -3  -8    7.80    3.30 
   2  -3   8    0.90    4.40 
   2  -3   8   10.00    3.50 
   2   3   8    6.00    4.40 
   2   3   8    7.00    3.90 
   2   3   8    1.20    3.90 
   3  -3   8  391.56   27.00 
  -3  -3  -8  414.26   22.90 
   3  -3   8  410.36   32.90 
   3  -3   8  431.16   26.50 
   3   3   8  406.66   27.70 
   3   3   8  449.95   24.20 
   3   3   8  407.16   27.40 
   4  -3   8   -4.80    2.70 
   4  -3   8    5.30    2.50 
   4   3   8    5.80    4.10 
   4   3   8   -3.60    2.20 
   9  -4  -8  253.57   16.50 
   9  -4  -8  261.67   18.50 
   9   4  -8  223.18   16.10 
  -9   4   8  235.28   16.60 
  -9   4   8  248.08   16.40 
  -8  -4   8  488.85   28.80 
   8  -4  -8  459.75   27.40 
  -8  -4   8  507.65   27.60 
   8  -4  -8  513.75   30.20 
  -8   4   8  475.45   28.70 
  -8   4   8  501.05   30.60 
  -8   4   8  494.35   31.30 
  -8   4   8  537.65   30.20 
  -7  -4   8  191.78   17.50 
  -7  -4   8  172.48   13.90 
   7  -4  -8  229.78   21.20 
  -7   4   8  187.78   17.60 
  -7   4   8  213.28   16.60 
  -7   4   8  231.28   20.10 
  -7   4   8  197.48   15.50 
   7   4  -8  184.48   13.40 
  -7   4   8  240.28   16.70 
  -7   4   8  198.48   16.70 
  -6  -4   8   74.39    8.70 
  -6  -4   8   60.69    6.40 
   6  -4  -8   56.69    7.30 
   6  -4  -8   66.39    8.50 
  -6  -4   8   68.19    8.60 
  -6   4   8   74.39   10.20 
  -6   4   8   62.49    9.70 
  -6   4   8   55.49   10.20 
  -6   4   8   66.49    9.30 
  -6   4   8   63.89   10.60 
  -6   4   8   79.69   11.50 
  -6   4   8   74.29   11.00 
  -5  -4   8  100.19    8.30 
  -5  -4   8   94.09   10.50 
   5  -4  -8   94.19   10.00 
  -5  -4   8  102.69   10.70 
   5  -4  -8  103.59    9.70 
  -5   4   8  101.99   12.00 
  -5   4   8  112.79   13.30 
  -5   4   8   91.99   12.30 
  -5   4   8  101.29   13.30 
   5   4  -8   88.59    9.80 
  -5   4   8   80.49   12.30 
   5   4  -8  105.99   10.20 
  -5   4   8   99.89   12.50 
  -5   4   8   94.19   11.90 
  -4  -4   8  179.08   15.40 
   4  -4  -8  211.08   16.20 
  -4  -4   8  193.78   13.40 
  -4  -4   8  213.58   16.50 
   4  -4  -8  220.18   16.50 
  -4   4   8  210.18   19.10 
  -4   4   8  219.68   18.60 
  -4   4   8  185.48   18.20 
  -4   4   8  214.68   18.60 
  -4   4   8  203.38   18.50 
   4   4  -8  210.58   16.30 
   4   4  -8  239.38   19.90 
  -4   4   8  202.68   19.20 
  -3  -4   8 1752.32   92.59 
  -3  -4   8 1968.40   92.59 
  -3  -4   8 2014.80   92.09 
  -3  -4   8 1800.72   90.29 
   3  -4  -8 1954.00   89.39 
  -3  -4   8 1906.61   91.29 
   3   4  -8 1901.61   95.59 
  -3   4   8 1680.33   92.39 
  -3   4   8 1875.61   94.59 
   3   4  -8 1910.81   91.39 
  -3   4   8 1796.42   94.99 
  -3   4   8 1850.41   97.49 
  -3   4   8 1870.51   94.79 
  -2  -4   8  238.98   15.00 
   2  -4  -8  232.88   17.20 
  -2  -4   8  236.78   17.40 
   2  -4  -8  246.08   16.10 
  -2  -4   8  233.78   18.80 
   2   4  -8  247.48   17.80 
  -2   4   8  214.78   21.40 
   2   4  -8  232.48   19.20 
  -2   4   8  226.68   20.50 
  -2   4   8  236.08   21.80 
  -2   4   8  235.68   20.20 
  -2   4   8  230.98   19.80 
   1  -4  -8  315.07   19.00 
  -1  -4   8  308.37   20.80 
   1  -4  -8  294.57   20.20 
  -1  -4   8  298.47   17.50 
  -1  -4   8  304.87   19.80 
  -1   4   8  303.07   22.70 
  -1   4   8  296.77   25.90 
  -1   4   8  303.77   22.80 
   1   4  -8  296.37   20.30 
  -1   4   8  319.17   25.80 
  -1   4   8  272.07   23.70 
   0  -4  -8  353.46   22.20 
   0  -4  -8  353.06   20.70 
   0  -4   8  369.06   22.50 
   0   4  -8  361.56   22.40 
   0   4  -8  343.07   21.80 
   0   4   8  331.07   25.50 
   0   4   8  347.67   27.30 
   0   4   8  332.97   24.20 
   0   4   8  328.67   27.70 
   0   4   8  318.97   23.30 
  -1  -4  -8   96.59    9.50 
  -1  -4  -8  109.39    9.00 
   1  -4   8   86.29    8.70 
   1  -4   8   95.99   13.80 
   1   4   8   88.79   20.80 
   1   4   8   99.29   11.10 
  -1   4  -8   92.49    8.80 
   1   4   8  109.49   15.80 
   1   4   8   86.59   13.10 
  -2  -4  -8  183.08   13.00 
   2  -4   8  172.88   14.20 
   2  -4   8  185.38   13.10 
   2   4   8  173.08   15.70 
   2   4   8  164.68   15.90 
   2   4   8  131.69   12.70 
   2   4   8  175.88   16.40 
   3  -4   8  107.29    8.60 
  -3  -4  -8  107.09    8.30 
   3  -4   8   94.89    9.60 
   3   4   8  112.79   11.20 
   3   4   8   96.39   10.40 
   3   4   8  143.79   13.00 
   3   4   8  119.29   10.70 
   8  -5  -8  427.86   24.30 
   8   5  -8  376.56   20.90 
  -8   5   8  402.16   23.40 
  -8   5   8  406.66   24.80 
  -8   5   8  396.86   23.60 
  -8   5   8  382.86   22.20 
  -8   5   8  415.86   24.80 
   7  -5  -8   62.69    7.30 
  -7  -5   8   56.49    7.40 
   7  -5  -8   60.79    8.20 
  -7  -5   8   66.79    7.00 
  -7   5   8   54.69    7.40 
  -7   5   8   51.99    8.40 
  -7   5   8   68.19    8.40 
  -7   5   8   60.39    8.30 
  -7   5   8   43.20   10.10 
  -6  -5   8   89.29   12.20 
  -6  -5   8   76.89    6.80 
   6  -5  -8   82.79    9.30 
  -6  -5   8   72.39    8.30 
  -6   5   8   64.79   11.10 
   6   5  -8   83.39    8.00 
  -6   5   8   88.79   10.30 
  -6   5   8   79.99    9.50 
  -6   5   8   83.79   10.40 
  -6   5   8   79.19    9.90 
  -6   5   8   93.79   11.60 
  -6   5   8   69.79   10.50 
  -5  -5   8  391.96   21.90 
  -5  -5   8  394.26   24.70 
  -5  -5   8  415.06   29.30 
   5  -5  -8  387.96   24.30 
   5  -5  -8  366.66   23.20 
  -5   5   8  403.96   26.50 
   5   5  -8  317.37   21.90 
   5   5  -8  440.46   29.30 
  -5   5   8  402.26   37.20 
  -5   5   8  381.76   27.10 
  -5   5   8  359.06   25.70 
   4  -5  -8  136.29   11.50 
  -4  -5   8  165.48   13.40 
   4  -5  -8  167.28   13.40 
  -4  -5   8  147.09   11.00 
  -4  -5   8  148.89   12.50 
  -4   5   8  126.89   14.40 
  -4   5   8  138.69   18.30 
  -4   5   8  149.29   16.00 
  -4   5   8  159.58   14.90 
   4   5  -8  160.78   12.70 
  -4   5   8  132.69   15.10 
  -4   5   8  151.28   14.10 
  -3  -5   8  114.49   11.00 
   3  -5  -8  104.69    9.80 
  -3  -5   8  114.99    9.30 
  -3  -5   8  109.79   11.10 
   3  -5  -8  113.19   10.90 
  -3  -5   8  135.89   13.50 
   3   5  -8  107.59   10.60 
  -3   5   8  116.19   13.30 
  -3   5   8  120.59   13.80 
  -3   5   8  105.69   12.30 
  -3   5   8  104.39   13.80 
  -3   5   8  115.39   13.60 
  -2  -5   8  269.37   16.50 
   2  -5  -8  277.07   18.60 
  -2  -5   8  284.07   19.00 
   2  -5  -8  266.47   17.00 
  -2  -5   8  247.18   17.70 
  -2   5   8  244.78   20.40 
  -2   5   8  274.37   21.20 
  -2   5   8  241.58   22.70 
  -2   5   8  262.67   22.50 
   2   5  -8  272.97   18.60 
  -2   5   8  276.07   23.80 
  -1  -5   8  293.67   19.50 
   1  -5  -8  297.77   19.40 
  -1  -5   8  247.18   20.10 
   1  -5  -8  291.77   18.00 
  -1   5   8  308.57   22.30 
  -1   5   8  289.37   24.00 
  -1   5   8  268.87   23.90 
  -1   5   8  287.37   24.30 
   1   5  -8  306.47   20.00 
   0  -5   8  126.89   10.50 
   0  -5  -8  120.29    9.70 
   0  -5   8  120.59   10.40 
   0  -5  -8  109.59   14.10 
   0   5   8  109.79   11.60 
   0   5   8   98.89   11.30 
   0   5   8  112.29   13.80 
   0   5  -8  105.39    9.80 
   0   5  -8  113.09   10.20 
   0   5   8  121.59   13.10 
   1  -5   8  111.19    9.70 
  -1  -5  -8  113.89    9.70 
   1   5   8   91.39   11.90 
   1   5   8   97.59   12.00 
   1   5   8  104.39   10.60 
  -1   5  -8  120.79   11.30 
   1   5   8   93.99   12.10 
   2  -5   8   16.80    3.50 
  -2  -5  -8   19.40    3.90 
   2   5   8   13.70    6.00 
   2   5   8   14.20    4.70 
   2   5   8   15.70    3.70 
   2   5   8   14.50    4.50 
   7  -6  -8   84.59    8.00 
   7  -6  -8   86.59    8.60 
   7   6  -8   89.99    7.60 
  -7   6   8   84.99    8.10 
  -7   6   8   91.99    8.40 
  -7   6   8   86.99   12.80 
  -7   6   8   74.29    8.50 
  -7   6   8   81.69    8.20 
  -7   6   8   83.39    8.50 
  -6  -6   8   78.09    7.40 
  -6  -6   8   89.39   10.90 
   6  -6  -8   80.49    8.30 
  -6  -6   8   87.39    6.50 
   6   6  -8   84.99    7.30 
  -6   6   8   88.79   13.30 
  -6   6   8   81.19   12.90 
  -6   6   8   63.79   14.40 
  -6   6   8   74.89    9.00 
  -6   6   8   76.59   11.10 
   5  -6  -8  411.16   23.80 
  -5  -6   8  398.06   20.90 
  -5  -6   8  396.96   23.70 
  -5  -6   8  400.56   22.70 
  -5   6   8  368.46   24.10 
  -5   6   8  361.46   25.80 
  -5   6   8  393.66   25.80 
  -5   6   8  382.06   25.10 
   5   6  -8  354.96   21.80 
  -5   6   8  378.36   24.90 
  -4  -6   8  205.68   14.50 
  -4  -6   8  190.58   12.70 
  -4  -6   8  210.08   15.30 
   4  -6  -8  200.48   14.80 
  -4   6   8  202.18   16.20 
  -4   6   8  196.88   17.30 
   4   6  -8  200.18   13.90 
  -4   6   8  192.08   16.40 
  -4   6   8  196.18   17.60 
   4   6  -8  181.68   13.50 
  -4   6   8  191.18   15.90 
  -3  -6   8  121.29   10.70 
   3  -6  -8  113.19   10.70 
  -3  -6   8  129.19    9.20 
  -3  -6   8  114.79   11.00 
  -3   6   8  110.69   12.40 
  -3   6   8  123.09   13.80 
  -3   6   8  115.79   13.20 
  -3   6   8  134.39   13.00 
   3   6  -8  112.19   10.20 
  -3   6   8  104.89   11.60 
   3   6  -8  116.89   10.20 
  -2  -6   8   56.89    6.90 
  -2  -6   8   70.09    6.60 
   2  -6  -8   56.79    7.70 
  -2  -6   8   69.19    8.00 
   2   6  -8   66.59    7.10 
  -2   6   8   56.09    9.20 
  -2   6   8   69.69    9.10 
  -2   6   8   49.90    8.00 
   2   6  -8   88.59   11.40 
  -2   6   8   62.09    9.50 
  -2   6   8   75.29   11.10 
  -1  -6   8   10.30    3.40 
  -1  -6   8   10.80    3.10 
  -1  -6   8   10.60    3.70 
   1  -6  -8    4.70    2.90 
  -1   6   8    7.50    3.40 
  -1   6   8    9.40    4.30 
  -1   6   8    4.50    4.80 
   1   6  -8    6.50    2.80 
  -1   6   8    6.00    4.30 
   1   6  -8   13.50    3.90 
  -1   6   8    4.90    4.60 
   0  -6   8  394.16   29.00 
   0  -6  -8  436.56   24.40 
   0   6  -8  453.05   27.20 
   0   6   8  431.66   27.80 
   0   6   8  422.86   28.10 
   0   6   8  417.86   28.10 
   0   6   8  394.56   25.60 
   1  -6   8   80.29    7.30 
  -1  -6  -8   75.39    7.30 
   1  -6   8   79.49    6.70 
   1   6   8   69.49    7.90 
   1   6   8   87.69    9.80 
   1   6   8   73.19    9.30 
  -1   6  -8   82.99    6.90 
   1   6   8   75.29    9.70 
   6  -7  -8  138.09   10.80 
   6  -7  -8  181.38   11.70 
  -6   7   8  132.19    9.80 
  -6   7   8  151.58   10.70 
  -6   7   8  161.78   14.80 
  -6   7   8  182.48   13.40 
   6   7  -8  160.08    9.50 
  -5  -7   8   19.00    3.60 
  -5  -7   8   11.80    3.30 
   5  -7  -8   18.70    3.90 
  -5   7   8   14.00    3.60 
   5   7  -8    7.70    3.80 
  -5   7   8   15.10    3.80 
  -5   7   8   18.90    4.40 
  -5   7   8   17.30    4.30 
  -5   7   8   15.30    3.60 
  -5   7   8    8.90    3.80 
  -4  -7   8  272.17   14.80 
   4  -7  -8  260.97   16.80 
  -4  -7   8  250.97   15.80 
   4   7  -8  279.57   15.90 
  -4   7   8  244.48   17.50 
  -4   7   8  281.97   19.20 
  -4   7   8  264.07   17.30 
  -4   7   8  276.77   18.90 
  -4   7   8  264.27   17.60 
   4   7  -8  274.27   15.60 
  -3  -7   8   23.40    4.20 
  -3  -7   8   30.80    4.00 
   3  -7  -8   21.30    4.40 
  -3   7   8   36.00    5.90 
   3   7  -8   25.90    4.30 
   3   7  -8   27.90    4.60 
  -3   7   8   29.00    5.20 
  -3   7   8   25.40    4.80 
  -3   7   8   29.50    6.10 
  -3   7   8   19.30    5.40 
  -2  -7   8   -0.60    1.60 
   2  -7  -8    0.60    2.00 
  -2   7   8    5.60    2.70 
   2   7  -8   -2.10    1.70 
  -2   7   8    1.40    2.60 
  -2   7   8    1.10    4.80 
  -2   7   8   -4.90    3.10 
  -2   7   8   -0.20    2.90 
   1  -7  -8  167.48   11.80 
  -1  -7   8  143.09   10.70 
  -1  -7   8  169.98   11.40 
   1   7  -8  177.58   13.20 
  -1   7   8  166.28   13.80 
  -1   7   8  168.28   14.10 
  -1   7   8  184.78   13.80 
   1   7  -8  177.98   11.60 
  -1   7   8  170.18   12.90 
   0  -7  -8   66.59    6.40 
   0  -7   8   61.79    5.50 
   0   7   8   68.39    6.90 
   0   7   8   64.59    7.90 
   0   7   8   68.89    7.80 
  10   0  -9    7.60    3.10 
  -9   0   9  411.56   30.30 
  -9   0   9  351.06   23.80 
   9   0  -9  311.77   21.90 
   8   0  -9    3.90    3.40 
  -7   0   9    3.90    4.40 
   7   0  -9    7.10    4.40 
  -7   0   9    6.20    3.60 
  -6   0   9  148.09   14.60 
  -6   0   9  130.99   13.80 
  -6   0   9  163.88   14.60 
  -6   0   9  146.59   14.10 
   6   0  -9  141.09   14.00 
   5   0  -9    9.80    7.60 
  -5   0   9   32.60    9.10 
  -5   0   9   20.60    6.40 
   5   0  -9   22.70    9.60 
  -5   0   9   16.70    7.30 
  -4   0   9  565.94   34.00 
   4   0  -9  583.84   35.80 
  -4   0   9  592.34   35.10 
  -4   0   9  592.54   35.40 
  -3   0   9 1259.37   66.39 
  -3   0   9 1278.77   65.29 
  -1   0   9   78.59   11.60 
  -1   0   9   65.19    9.50 
  -1   0   9   48.10    9.50 
   0   0   9    7.10    5.30 
   0   0   9   10.80    3.70 
   0   0   9    3.80    5.40 
   1   0   9   23.10    4.80 
   1   0   9   18.10    6.80 
   2   0   9    2.70    3.80 
   2   0   9    0.70    4.10 
   2   0   9    5.20    5.30 
   3   0   9  270.67   19.20 
   3   0   9  283.67   20.00 
  10  -1  -9   25.20    6.30 
  10   1  -9   20.50    4.30 
  -9  -1   9   24.00    4.60 
   9  -1  -9   17.30    6.00 
   9   1  -9   23.20    4.80 
  -9   1   9   29.00   10.00 
  -9   1   9   24.60    8.50 
  -8  -1   9   49.60    8.10 
   8  -1  -9   64.39    8.40 
  -8  -1   9   61.89    9.10 
   8   1  -9   50.09    8.30 
  -8   1   9   40.30    9.30 
  -8   1   9   54.19    8.90 
  -7  -1   9   34.20    6.90 
   7  -1  -9   49.00    8.10 
  -7  -1   9   32.70    7.10 
  -7   1   9   48.20    8.10 
  -7   1   9   30.10    7.70 
  -7   1   9   35.90    7.60 
   6  -1  -9  429.06   28.50 
  -6  -1   9  436.66   27.40 
  -6  -1   9  449.06   28.40 
  -6  -1   9  460.05   28.50 
  -6   1   9  428.26   29.00 
  -6   1   9  449.95   28.10 
  -6   1   9  406.66   28.00 
  -6   1   9  435.76   29.40 
  -5  -1   9  809.22   45.20 
  -5  -1   9  819.92   45.50 
   5  -1  -9  829.62   46.80 
  -5  -1   9  823.72   45.40 
  -5   1   9  787.82   45.30 
   5   1  -9  853.41   48.10 
  -5   1   9  796.12   46.60 
  -5   1   9  822.32   46.20 
  -4  -1   9  208.78   25.30 
  -4  -1   9  305.27   19.90 
  -4   1   9  259.97   27.70 
  -4   1   9  264.67   19.80 
  -3  -1   9  194.18   17.40 
  -3  -1   9  163.58   14.90 
  -3  -1   9  168.18   13.90 
   3  -1  -9  188.88   14.10 
  -3   1   9  185.18   16.90 
  -3   1   9  172.08   16.40 
  -3   1   9  142.49   17.20 
  -2   1   9   96.79   15.30 
  -2   1   9   93.29   15.70 
  -2   1   9  140.99   19.10 
  -1  -1   9  215.28   16.70 
  -1  -1   9  181.18   17.20 
  -1  -1   9  180.88   18.20 
  -1  -1   9  187.08   15.00 
  -1   1   9  212.28   17.00 
  -1   1   9  206.18   19.30 
  -1   1   9  191.18   19.30 
   0  -1   9   53.49    7.70 
   0  -1   9   41.20    9.00 
   0  -1   9   50.79   10.10 
   0   1   9   43.70    8.10 
   0   1   9   40.50    9.00 
   0   1   9   72.29   11.00 
   1  -1   9    6.10    3.70 
   1  -1   9    0.90    4.70 
   1  -1   9   12.50    4.50 
   1   1   9    2.70    3.10 
   1   1   9    4.50    4.40 
   2  -1   9   61.59    9.90 
   2  -1   9   73.89    7.40 
   2  -1   9   47.80    8.60 
   2   1   9   79.49   10.00 
   2   1   9   41.30    8.20 
   2   1   9   61.09    7.70 
   3  -1   9    7.60    3.20 
   3  -1   9    1.90    3.40 
   3  -1   9    7.00    3.30 
   3   1   9    6.60    4.00 
   3   1   9    3.10    3.40 
  -9  -2   9    9.40    3.50 
  -9   2   9   24.00    6.10 
  -9   2   9   11.80    3.90 
  -8  -2   9  131.29   11.60 
   8  -2  -9  110.49   11.70 
  -8  -2   9  135.49   12.40 
  -8   2   9  117.99   15.30 
  -8   2   9  123.39   12.40 
  -8   2   9  128.29   12.60 
  -8   2   9  128.19   13.20 
  -7  -2   9  748.73   41.90 
  -7   2   9  714.03   40.70 
  -7   2   9  771.32   44.40 
  -7   2   9  742.73   43.60 
  -6  -2   9 1955.30   90.59 
  -6  -2   9 1899.51   90.09 
   6  -2  -9 1762.22   86.69 
  -6   2   9 1801.92   91.99 
  -6   2   9 1779.62   90.09 
  -6   2   9 1879.81   91.19 
  -6   2   9 1655.13   90.69 
  -5  -2   9  454.15   27.80 
  -5  -2   9  458.75   27.70 
   5  -2  -9  473.65   26.50 
  -5  -2   9  437.56   26.90 
  -5   2   9  380.46   28.10 
  -5   2   9  414.36   28.50 
  -5   2   9  443.26   29.60 
  -5   2   9  417.16   28.50 
  -4  -2   9   67.99    9.10 
   4  -2  -9   78.79    8.70 
  -4  -2   9   77.59    9.30 
  -4   2   9   52.49   10.60 
  -4   2   9   80.99   11.10 
  -4   2   9   56.09   10.20 
   4   2  -9   78.19   11.30 
  -4   2   9   59.99   10.60 
  -4   2   9   60.39   10.10 
   3  -2  -9  161.18   13.70 
  -3  -2   9  164.98   13.50 
  -3  -2   9  143.79   13.80 
  -3   2   9  193.28   16.20 
  -3   2   9  180.68   18.00 
  -3   2   9  167.38   15.90 
   3   2  -9  137.39   15.40 
  -3   2   9  138.29   14.80 
  -3   2   9  131.99   15.90 
   3   2  -9  160.28   13.50 
  -2  -2   9   12.20    4.00 
  -2  -2   9   15.70    5.40 
   2  -2  -9   11.20    3.70 
  -2   2   9    8.80    5.90 
   2   2  -9   13.30    4.10 
  -2   2   9    4.90    5.20 
  -2   2   9   10.20    5.30 
  -2   2   9   17.50    5.60 
  -1  -2   9  169.58   13.30 
  -1  -2   9  179.68   14.80 
   1  -2  -9  181.68   14.00 
  -1   2   9  180.68   18.10 
  -1   2   9  166.48   15.70 
  -1   2   9  169.58   16.70 
  -1   2   9  180.98   18.20 
  -1   2   9  184.58   16.10 
   0  -2   9  731.83   38.00 
   0  -2   9  728.93   40.40 
   0  -2   9  675.73   42.40 
   0  -2  -9  784.12   39.30 
   0   2   9  749.03   45.30 
   0   2   9  733.13   45.90 
   0   2   9  749.13   41.20 
   0   2   9  731.33   43.00 
   1  -2   9  156.98   14.70 
   1  -2   9  162.68   15.60 
   1  -2   9  177.08   13.60 
   1   2   9  158.98   13.60 
   1   2   9  179.88   15.50 
   1   2   9  177.68   17.10 
   1   2   9  194.88   17.60 
   2  -2   9  107.69   12.00 
   2  -2   9  120.99   13.90 
   2  -2   9  122.69   11.60 
   2   2   9  116.69   12.60 
   2   2   9  121.19   11.30 
   2   2   9  115.09   12.30 
   3  -2   9   15.60    3.30 
   3  -2   9   18.10    4.20 
   3   2   9   14.90    3.90 
   3   2   9   13.70    4.00 
   9  -3  -9  126.29   10.60 
  -9   3   9  129.89   10.80 
  -8  -3   9  339.17   21.70 
  -8  -3   9  300.77   21.00 
   8  -3  -9  338.57   21.70 
  -8   3   9  345.37   20.00 
  -8   3   9  315.97   19.50 
  -8   3   9  335.67   21.80 
  -8   3   9  306.37   22.00 
  -7  -3   9   17.30    4.60 
  -7  -3   9    9.60    4.10 
   7  -3  -9    2.50    3.60 
  -7   3   9    6.90    4.20 
  -7   3   9    5.00    5.20 
  -7   3   9   21.90    5.60 
  -7   3   9   12.90    5.00 
  -7   3   9    8.00    5.10 
  -6  -3   9  253.37   18.40 
  -6  -3   9  225.28   17.60 
   6  -3  -9  238.58   17.00 
  -6   3   9  230.58   19.30 
  -6   3   9  254.07   19.80 
  -6   3   9  259.77   18.70 
  -6   3   9  241.98   20.00 
  -6   3   9  232.68   18.30 
  -6   3   9  310.27   29.50 
  -5  -3   9  865.21   45.20 
  -5  -3   9  866.01   45.20 
   5  -3  -9  823.02   43.90 
  -5   3   9  816.12   46.60 
  -5   3   9  800.92   46.80 
  -5   3   9  790.72   46.70 
  -5   3   9  792.72   46.90 
  -5   3   9  864.81   47.10 
  -5   3   9  805.42   45.30 
  -4  -3   9  414.46   25.50 
  -4  -3   9  442.86   26.00 
   4  -3  -9  362.06   23.70 
  -4  -3   9  414.06   25.30 
   4  -3  -9  408.86   25.10 
  -4   3   9  402.76   27.50 
  -4   3   9  419.06   29.20 
  -4   3   9  410.66   27.50 
  -4   3   9  391.56   27.00 
  -4   3   9  350.26   27.40 
   4   3  -9  412.96   25.70 
  -4   3   9  428.06   28.30 
   3  -3  -9  202.78   14.70 
  -3  -3   9  217.38   15.60 
  -3  -3   9  202.48   16.10 
   3  -3  -9  194.58   15.20 
  -3  -3   9  202.88   15.40 
   3   3  -9  212.98   15.60 
  -3   3   9  187.78   19.00 
  -3   3   9  227.98   18.00 
  -3   3   9  207.78   17.70 
  -3   3   9  172.98   16.50 
  -3   3   9  180.58   16.70 
  -3   3   9  192.88   18.90 
  -2  -3   9  272.07   18.60 
  -2  -3   9  263.87   18.00 
  -2  -3   9  276.07   19.40 
   2  -3  -9  261.17   17.80 
   2  -3  -9  268.67   18.50 
   2   3  -9  291.87   19.20 
  -2   3   9  260.27   20.90 
  -2   3   9  278.67   21.80 
  -2   3   9  258.77   23.10 
  -2   3   9  243.08   22.60 
  -2   3   9  279.17   20.40 
   1  -3  -9  444.76   26.00 
  -1  -3   9  429.46   26.60 
  -1  -3   9  421.36   24.90 
  -1   3   9  388.16   27.30 
   1   3  -9  430.16   25.70 
  -1   3   9  431.46   31.10 
  -1   3   9  405.06   30.80 
  -1   3   9  455.25   31.20 
   0  -3  -9   18.10    6.70 
   0  -3   9   24.00    4.40 
   0  -3   9   20.60    5.60 
   0   3   9   18.40    5.60 
   0   3   9   20.90    5.40 
   0   3   9   27.80    6.60 
   0   3  -9   30.30    4.90 
   0   3   9   22.90    6.70 
   1  -3   9   17.90    3.90 
  -1  -3  -9   20.50    4.10 
   1   3   9   30.40    6.90 
   1   3   9   20.80    5.90 
   1   3   9   18.20    5.10 
   1   3   9   21.90    6.10 
   2  -3   9    1.00    2.10 
   2  -3   9    4.50    4.30 
   2   3   9    0.30    3.90 
   2   3   9    5.00    3.30 
   2   3   9   11.00    3.70 
   8  -4  -9  134.29   11.10 
  -8  -4   9  117.19   11.50 
  -8   4   9  109.89   13.20 
  -8   4   9  136.79   11.80 
  -8   4   9  137.09   10.90 
  -8   4   9  120.39   10.00 
  -7  -4   9   79.69    8.70 
   7  -4  -9  104.29   12.60 
  -7  -4   9   72.59    8.90 
   7  -4  -9   98.79   10.20 
  -7   4   9   97.39    9.60 
  -7   4   9  100.49   13.90 
  -7   4   9   87.49    9.70 
  -7   4   9   77.69    9.80 
  -7   4   9   82.39    9.30 
  -7   4   9   79.59   11.60 
  -6  -4   9    7.80    3.60 
   6  -4  -9    8.40    3.40 
  -6  -4   9   15.40    4.40 
  -6   4   9   10.60    4.70 
  -6   4   9    7.30    4.70 
  -6   4   9    9.30    5.00 
  -6   4   9   16.90    5.30 
  -6   4   9    7.80    4.70 
  -6   4   9    7.60    4.50 
   5  -4  -9  108.19   10.20 
  -5  -4   9   87.09    9.80 
  -5  -4   9   89.99   12.00 
  -5   4   9   88.39   11.80 
  -5   4   9   80.89   11.30 
  -5   4   9   86.49   14.20 
  -5   4   9   83.09   17.10 
  -5   4   9  116.89   12.30 
  -5   4   9   96.79   10.90 
  -4  -4   9   44.80    6.10 
  -4  -4   9   34.20    6.20 
   4  -4  -9   33.90    7.70 
  -4  -4   9   37.90    6.60 
   4  -4  -9   33.60    5.70 
   4   4  -9   34.70    5.80 
  -4   4   9   27.40    8.10 
  -4   4   9   53.09    9.40 
  -4   4   9   37.90    8.20 
  -3  -4   9  502.85   34.40 
  -3  -4   9  509.55   29.50 
   3  -4  -9  544.95   30.20 
  -3  -4   9  511.15   29.70 
   3   4  -9  517.05   29.90 
  -3   4   9  499.35   33.20 
  -3   4   9  495.05   35.60 
  -3   4   9  492.35   34.10 
  -2  -4   9  756.12   42.70 
  -2  -4   9  749.13   45.20 
   2  -4  -9  724.73   37.50 
   2   4  -9  558.94   40.10 
  -2   4   9  672.13   42.80 
  -2   4   9  535.15   50.79 
  -2   4   9  662.73   40.10 
  -2   4   9  714.13   47.90 
  -1  -4   9  269.57   17.80 
  -1  -4   9  270.57   17.10 
   1  -4  -9  242.88   18.20 
  -1   4   9  248.68   18.30 
  -1   4   9  255.17   20.00 
  -1   4   9  238.68   27.20 
  -1   4   9  233.18   18.40 
  -1   4   9  266.37   22.00 
   1   4  -9  269.87   17.40 
   0  -4  -9    8.80    3.00 
   0  -4   9    4.50    3.50 
   0  -4   9    1.70    2.40 
   0   4   9   12.80    5.40 
   0   4   9   16.00    5.40 
   0   4  -9    8.50    3.70 
   0   4   9    5.70    3.50 
   0   4   9    5.10    6.70 
   0   4   9    6.20    4.20 
   1  -4   9    6.00    3.20 
  -1  -4  -9    4.10    2.20 
   1   4   9    3.90    3.50 
   1   4   9    2.30    5.60 
   1   4   9    0.00    2.90 
   1   4   9   -4.70    5.10 
   2  -4   9    8.70    2.30 
   2   4   9    6.30    3.90 
   2   4   9    6.30    2.80 
   2   4   9    2.40    3.50 
   8  -5  -9   56.69    9.40 
  -8   5   9   77.89    6.70 
  -8   5   9   76.69    7.90 
  -8   5   9   64.89    8.90 
   7  -5  -9   24.90    4.70 
   7  -5  -9   10.00    3.50 
  -7  -5   9   15.50    3.90 
  -7   5   9    6.90    4.90 
  -7   5   9   16.60    4.00 
  -7   5   9   10.80    3.60 
  -7   5   9   17.10    4.10 
  -7   5   9   21.10    4.80 
  -6  -5   9   16.50    5.80 
   6  -5  -9   19.30    4.10 
  -6   5   9   17.90    4.80 
  -6   5   9   15.40    4.50 
  -6   5   9   16.10    7.90 
  -6   5   9   16.70    5.20 
  -6   5   9   20.70    4.30 
   5  -5  -9  312.27   19.30 
  -5  -5   9  284.37   18.80 
  -5  -5   9  282.97   19.00 
  -5   5   9  284.27   20.50 
  -5   5   9  290.67   20.10 
  -5   5   9  312.07   20.90 
  -5   5   9  289.17   20.80 
  -5   5   9  334.57   29.50 
  -4  -5   9   94.29    9.20 
   4  -5  -9   89.59    9.10 
  -4  -5   9   91.89    9.20 
   4   5  -9   95.29    9.00 
  -4   5   9   83.89   11.00 
  -4   5   9   99.99   11.80 
  -4   5   9   83.29   10.10 
  -4   5   9   98.89   13.70 
  -4   5   9   85.09   10.20 
  -4   5   9   94.89   10.40 
   3  -5  -9   25.10    5.00 
  -3  -5   9   16.40    4.30 
  -3  -5   9   16.90    4.30 
  -3  -5   9   17.00    4.20 
  -3   5   9    9.70    5.50 
  -3   5   9   21.00    5.20 
  -3   5   9   17.90    5.50 
   3   5  -9   17.60    3.90 
  -3   5   9    7.60    4.70 
  -2  -5   9  100.29   10.00 
  -2  -5   9  121.09   10.20 
   2  -5  -9  121.59   10.40 
  -2   5   9  116.79   13.30 
  -2   5   9  107.29   11.50 
  -2   5   9  112.09   11.40 
   2   5  -9  120.99   10.30 
  -2   5   9  123.19   12.10 
  -2   5   9  113.39   13.40 
   1  -5  -9   42.80    5.90 
  -1  -5   9   60.49    6.60 
  -1  -5   9   51.39    6.40 
  -1   5   9   53.29    9.70 
  -1   5   9   54.69    7.50 
  -1   5   9   48.00    7.60 
  -1   5   9   37.60    7.90 
  -1   5   9   50.09    8.00 
   1   5  -9   46.60    6.10 
   0  -5   9    6.50    2.80 
   0  -5   9    8.30    2.60 
   0  -5  -9    7.60    2.80 
   0   5   9    5.60    5.50 
   0   5   9    2.90    3.70 
   0   5   9    5.30    2.80 
   0   5   9   15.00    4.70 
   0   5  -9    9.40    2.50 
   1  -5   9   19.00    3.60 
  -1  -5  -9   19.70    4.70 
   1   5   9   18.00    3.50 
   1   5   9   19.50    5.30 
   1   5   9    8.60    4.60 
   6  -6  -9  122.59   10.30 
  -6  -6   9  102.39    8.00 
  -6   6   9   82.99   10.20 
  -6   6   9  114.69    9.60 
  -6   6   9  116.69    9.20 
  -6   6   9  119.79    9.50 
  -6   6   9  101.69    9.00 
  -5  -6   9  117.09    9.00 
   5  -6  -9  138.29   10.20 
  -5   6   9  122.49   10.40 
  -5   6   9  106.19   10.70 
  -5   6   9  106.79    9.70 
  -5   6   9  130.09   10.80 
  -5   6   9  116.89   10.60 
  -5   6   9  128.09   10.90 
  -4  -6   9   68.59    6.80 
   4  -6  -9   71.49    7.20 
  -4   6   9   70.69    8.50 
  -4   6   9   63.69    9.30 
  -4   6   9   59.29    7.70 
  -4   6   9   58.99    7.70 
  -4   6   9   59.59    7.90 
   4   6  -9   66.89    6.30 
  -3  -6   9   13.70    3.40 
   3  -6  -9   21.90    4.40 
  -3   6   9   19.70    4.40 
  -3   6   9   18.00    4.10 
  -3   6   9   14.50    4.90 
  -3   6   9   15.90    4.70 
  -3   6   9   24.50    5.30 
   3   6  -9   21.50    4.10 
  -2  -6   9   24.10    4.00 
   2  -6  -9   19.20    4.20 
  -2   6   9   13.00    4.90 
   2   6  -9   21.90    4.20 
  -2   6   9   20.10    5.10 
  -2   6   9    8.50    4.30 
  -2   6   9   14.30    3.80 
  -2   6   9   15.00    4.00 
  -1  -6   9   55.89    7.40 
  -1  -6   9   58.59    5.50 
   1  -6  -9   57.69    6.10 
   1   6  -9   51.49    5.60 
  -1   6   9   54.09    7.00 
  -1   6   9   58.19    6.40 
  -1   6   9   53.69    7.60 
  -1   6   9   55.29    8.30 
   9   0 -10   73.79    7.20 
  -9   0  10   73.89    7.20 
  -8   0  10   21.60    5.40 
   8   0 -10   20.60    4.60 
  -8   0  10   21.10    7.60 
   7   0 -10   27.30    8.30 
  -7   0  10   25.70    6.20 
  -7   0  10   28.40    6.30 
  -6   0  10    1.00    5.00 
  -6   0  10   12.30    4.60 
  -5   0  10   62.99   10.60 
  -5   0  10   84.49   15.10 
  -5   0  10   90.89   10.30 
  -4   0  10  139.29   13.30 
  -4   0  10  119.49   12.40 
  -3   0  10   18.30    5.40 
  -3   0  10   25.50    6.20 
  -2   0  10  733.93   40.20 
  -2   0  10  805.92   43.30 
  -1   0  10   13.00    5.50 
  -1   0  10    3.50    3.30 
  -1   0  10   -3.00    4.90 
   0   0  10   35.10    9.20 
   0   0  10   34.40    6.30 
   0   0  10   30.70    6.90 
   1   0  10   61.99    9.40 
   1   0  10   57.29    6.80 
   1   0  10   61.49    8.40 
   2   0  10  231.88   15.30 
  -9  -1  10   17.80    4.40 
   9  -1 -10    7.70    3.00 
  -9   1  10   12.50    3.20 
   8  -1 -10   30.80    5.60 
  -8   1  10   17.80    5.00 
  -8   1  10   23.10    5.30 
  -7  -1  10  437.56   26.50 
  -7  -1  10  406.46   26.10 
   7  -1 -10  428.16   25.10 
  -7   1  10  382.66   24.90 
  -7   1  10  388.46   26.40 
  -7   1  10  437.96   29.70 
  -7   1  10  433.86   27.10 
  -6  -1  10   31.60    6.80 
  -6  -1  10   24.30    6.40 
   6  -1 -10   22.90    5.70 
  -6  -1  10   20.40    8.10 
  -6   1  10   22.30    6.20 
  -6   1  10   31.80    6.80 
  -6   1  10   35.60    7.30 
  -6   1  10   30.90    6.30 
  -5  -1  10   26.70    9.70 
  -5  -1  10   26.30    6.60 
  -5  -1  10   16.10    5.20 
  -5   1  10   10.90    7.40 
  -5   1  10   22.70    5.50 
  -5   1  10   17.90    8.60 
  -4  -1  10   26.90    5.50 
  -4  -1  10   12.20    4.10 
  -4   1  10    7.00    5.30 
  -4   1  10    9.40    4.60 
  -3  -1  10  195.08   15.60 
  -3  -1  10  190.38   18.20 
  -3   1  10  176.88   19.50 
  -3   1  10  153.28   15.10 
  -3   1  10  169.38   16.30 
  -2  -1  10   90.09    9.40 
  -2  -1  10   97.29   14.30 
  -2   1  10   88.29   11.50 
  -2   1  10   97.19   14.30 
  -2   1  10   90.29   12.20 
  -1  -1  10   52.89    7.20 
  -1   1  10   55.59   10.10 
  -1   1  10   53.29    7.80 
  -1   1  10   62.59    9.70 
   0  -1  10   48.10    8.30 
   0  -1  10   45.00    6.30 
   0   1  10   29.20    6.90 
   0   1  10   41.80    8.30 
   0   1  10   45.60    7.00 
   1  -1  10   28.10    4.70 
   1  -1  10   16.70    8.50 
   1  -1  10   27.80    5.40 
   1   1  10   11.60    4.40 
   1   1  10   19.20    4.50 
   1   1  10   17.80    5.40 
   2  -1  10  132.79   10.60 
   2  -1  10  112.99   11.30 
   2   1  10  127.89   10.50 
   9  -2 -10   21.20    4.30 
  -9  -2  10   30.20    5.10 
  -9   2  10   25.60    6.30 
   8  -2 -10   67.39    7.50 
  -8  -2  10   53.29    7.00 
  -8   2  10   60.19    7.90 
  -7  -2  10  328.17   21.40 
   7  -2 -10  335.77   21.20 
  -7  -2  10  332.77   21.70 
  -7   2  10  312.07   20.90 
  -7   2  10  319.67   22.10 
  -6  -2  10  306.27   20.40 
  -6  -2  10  319.57   20.80 
   6  -2 -10  301.57   20.60 
  -6   2  10  300.57   21.30 
  -6   2  10  249.08   19.20 
  -6   2  10  319.47   20.60 
  -6   2  10  260.87   21.00 
  -5  -2  10  604.54   33.70 
  -5  -2  10  595.54   34.10 
  -5  -2  10  510.35   30.70 
  -5   2  10  504.85   31.50 
  -5   2  10  534.05   33.10 
  -5   2  10  549.95   33.30 
  -4  -2  10   13.80    5.40 
  -4  -2  10   27.50    5.40 
  -4   2  10   23.20    5.20 
  -4   2  10    9.00    4.50 
  -4   2  10   18.70    5.80 
  -4   2  10   12.40    6.90 
  -4   2  10   13.40    7.60 
  -3  -2  10   21.20    5.30 
  -3  -2  10   16.30    3.90 
  -3   2  10   10.80    4.80 
  -3   2  10   12.60    6.20 
  -3   2  10   13.00    5.50 
  -3   2  10   28.90    7.30 
  -2  -2  10   71.89    8.40 
  -2  -2  10   78.89    8.10 
  -2   2  10   53.99    9.60 
  -2   2  10   82.69    9.80 
  -1  -2  10   16.60    4.20 
  -1  -2  10   16.60    6.40 
  -1   2  10   23.10    5.10 
  -1   2  10   20.80    6.30 
  -1   2  10   27.00    6.90 
   0  -2  10   10.00    3.30 
   0   2  10   13.70    5.60 
   0   2  10   13.40    5.10 
   0   2  10    4.80    4.70 
   1  -2  10   13.20    3.30 
   1   2  10   10.60    4.00 
   1   2  10    7.00    3.70 
   1   2  10   10.10    4.10 
   8  -3 -10   16.00    4.00 
  -8  -3  10   14.70    4.20 
  -8   3  10   22.90    4.60 
  -8   3  10   17.60    4.10 
  -8   3  10   12.10    3.20 
  -7  -3  10  179.58   14.20 
   7  -3 -10  153.18   13.60 
  -7  -3  10  180.68   15.60 
  -7   3  10  189.48   21.00 
  -7   3  10  146.89   12.30 
  -7   3  10  147.69   13.40 
  -6  -3  10  467.15   27.00 
  -6  -3  10  460.95   27.10 
  -6   3  10  465.55   27.50 
  -6   3  10  447.26   27.30 
  -6   3  10  435.96   28.10 
  -5  -3  10  202.48   20.20 
  -5  -3  10  149.29   12.60 
   5  -3 -10  141.59   11.50 
  -5  -3  10  147.19   12.20 
  -5   3  10  138.19   13.20 
  -5   3  10  154.38   13.70 
  -5   3  10  143.09   12.80 
  -4  -3  10   32.00    6.00 
  -4  -3  10   29.20    5.80 
   4  -3 -10   27.90    5.60 
  -4  -3  10   28.60    5.30 
  -4   3  10   31.90    6.30 
  -4   3  10   17.90    4.90 
  -4   3  10   31.10    6.90 
  -4   3  10   21.00    6.10 
  -3  -3  10   76.09    8.40 
   3  -3 -10   79.59    8.10 
  -3  -3  10   81.29    8.60 
  -3   3  10   73.19    9.00 
  -3   3  10   64.89    9.40 
  -3   3  10   93.29   11.30 
  -3   3  10   85.59   10.40 
  -2  -3  10  484.55   26.90 
  -2  -3  10  476.45   27.90 
   2  -3 -10  521.15   26.90 
  -2   3  10  429.16   30.50 
  -2   3  10  495.95   30.30 
  -2   3  10  477.65   28.90 
  -2   3  10  451.05   30.80 
  -2   3  10  476.45   31.30 
  -1  -3  10   57.79    6.50 
   1  -3 -10   60.59    7.50 
  -1  -3  10   59.99    7.10 
  -1   3  10   64.69    8.50 
  -1   3  10   59.99    7.70 
  -1   3  10   59.39    8.50 
  -1   3  10   67.59    9.80 
  -1   3  10   49.99    8.60 
   0  -3  10   53.29    6.40 
   0   3  10   50.59    7.90 
   0   3  10   40.40    6.90 
   0   3  10   50.49    8.20 
   0   3  10   47.60    7.70 
   1  -3  10    6.90    2.30 
   1   3  10    8.20    3.40 
  -7  -4  10  108.19    8.90 
   7  -4 -10  135.19   10.60 
  -7   4  10  119.59   10.00 
  -7   4  10  118.19    9.50 
  -7   4  10  114.09   10.40 
   6  -4 -10   36.20    6.70 
  -6  -4  10   38.20    5.70 
  -6   4  10   30.70    6.20 
  -6   4  10   32.20    6.30 
  -6   4  10   43.60    9.30 
  -6   4  10   44.10    6.40 
  -6   4  10   37.50    5.90 
   5  -4 -10    5.40    2.90 
  -5  -4  10    2.00    4.40 
  -5  -4  10    2.20    2.50 
  -5   4  10    3.50    3.70 
  -5   4  10    3.50    3.40 
  -5   4  10   -0.20    3.70 
  -5   4  10    4.30    3.30 
  -5   4  10    2.20    3.40 
  -5   4  10    2.00    3.90 
  -4  -4  10  188.38   16.00 
   4  -4 -10  219.68   14.50 
  -4  -4  10  213.78   14.90 
  -4  -4  10  227.18   14.30 
  -4   4  10  188.48   18.00 
  -4   4  10  208.48   15.00 
  -4   4  10  215.68   16.30 
  -4   4  10  227.28   15.90 
  -3  -4  10  337.57   19.90 
   3  -4 -10  351.06   19.80 
  -3   4  10  315.07   26.20 
  -3   4  10  302.87   23.00 
  -3   4  10  315.27   24.30 
  -3   4  10  322.97   21.40 
  -3   4  10  296.47   20.20 
  -2  -4  10  246.38   19.50 
  -2  -4  10  246.18   16.10 
   2  -4 -10  241.88   16.20 
  -2   4  10  201.08   15.00 
  -2   4  10  198.28   23.70 
  -2   4  10  203.38   14.80 
  -2   4  10  193.08   17.40 
  -2   4  10  208.98   21.10 
  -1  -4  10   14.30    3.60 
   1  -4 -10   11.60    3.30 
  -1  -4  10   10.90    3.00 
  -1   4  10   11.80    4.20 
  -1   4  10   15.40    4.90 
  -1   4  10   12.20    3.70 
  -1   4  10    4.40    5.50 
  -1   4  10    6.80    4.70 
   0  -4  10   50.69    5.80 
   0   4  10   60.39    7.30 
   0   4  10   48.30    8.00 
   0   4  10   46.90    6.10 
   6  -5 -10    5.40    2.10 
  -6   5  10    1.90    2.10 
  -6   5  10    1.60    2.60 
  -6   5  10    2.30    2.80 
  -6   5  10    5.50    2.70 
  -5  -5  10    5.10    2.10 
  -5   5  10   -2.80    2.80 
  -5   5  10    4.60    2.30 
  -5   5  10   -0.20    3.40 
  -5   5  10   -0.50    2.70 
  -5   5  10    2.70    3.70 
   4  -5 -10   54.09    6.00 
  -4  -5  10   49.60    5.70 
  -4   5  10   52.69    7.30 
  -4   5  10   42.50    6.40 
  -4   5  10   39.20    6.90 
  -4   5  10   42.80    8.80 
  -4   5  10   42.40    5.80 
  -3  -5  10   39.10    4.70 
  -3  -5  10   28.00    4.60 
   3  -5 -10   39.00    5.20 
  -3   5  10   47.30    7.00 
  -3   5  10   34.40    5.40 
  -3   5  10   35.80    5.90 
  -3   5  10   30.00    6.10 
  -3   5  10   26.60    5.70 
  -2  -5  10  130.59   10.60 
  -2  -5  10  143.59    9.60 
   2  -5 -10  129.99   11.90 
  -2   5  10  112.79   10.70 
  -2   5  10  155.68   12.40 
  -2   5  10  143.59   10.90 
  -2   5  10  126.79   12.20 
  -1  -5  10   92.49    7.60 
  -1  -5  10  103.69    7.00 
  -1   5  10   81.09    8.70 
  -1   5  10  126.79   13.70 
  -1   5  10  100.79    7.90 
  -1   5  10   98.29    7.90 
  -8   0  11   37.10    5.30 
  -7   0  11   23.60    4.90 
  -6   0  11    6.70    4.30 
  -6   0  11    6.90    3.40 
  -5   0  11   24.00    5.90 
  -4   0  11   92.69   12.80 
  -4   0  11   98.79   10.10 
  -3   0  11   47.50    6.90 
  -3   0  11   38.80    6.00 
  -2   0  11    5.30    3.80 
  -1   0  11    0.50    2.60 
   0   0  11  143.89   10.20 
  -8  -1  11  226.08   17.40 
  -8   1  11  204.08   14.90 
  -7  -1  11  286.27   18.30 
  -7   1  11  281.37   18.30 
  -7   1  11  266.97   16.30 
  -6  -1  11   12.30    5.00 
  -6  -1  11    8.50    5.70 
  -6   1  11    6.70    3.50 
  -6   1  11    4.70    4.70 
  -5  -1  11   18.30    5.10 
  -5  -1  11    9.10    3.50 
  -5   1  11   16.80    4.70 
  -5   1  11    6.50    5.60 
  -4  -1  11   18.10    4.70 
  -4  -1  11   17.70    7.60 
  -4   1  11   23.40    4.90 
  -4   1  11   28.40    5.30 
  -3  -1  11   63.09    7.30 
  -3  -1  11   65.99    8.00 
  -3   1  11   71.69    8.10 
  -2   1  11   36.00    9.60 
  -2   1  11   20.30    6.20 
  -1  -1  11   44.00    5.80 
  -1   1  11   42.20    5.70 
  -1   1  11   29.70    5.20 
   0  -1  11  130.69   10.10 
   0   1  11  180.08   10.60 
  -7  -2  11  247.68   15.70 
   7  -2 -11  226.38   13.70 
  -7   2  11  229.18   14.40 
  -7   2  11  223.18   15.30 
  -6  -2  11   83.09    8.60 
   6  -2 -11   85.39    9.10 
  -6   2  11   91.69    8.30 
  -6   2  11   91.09    9.10 
  -6   2  11   92.29    8.50 
   5  -2 -11   58.29    7.70 
  -5  -2  11   45.50    6.90 
  -5  -2  11   54.39   10.80 
  -5   2  11   64.89    7.80 
  -5   2  11   62.79    9.70 
  -4  -2  11   14.50    4.00 
  -4  -2  11    8.40    4.60 
  -4   2  11   12.20    5.40 
  -4   2  11   11.40    5.40 
  -3  -2  11   21.90    4.10 
  -3  -2  11   26.40    5.00 
  -3   2  11   17.10    5.10 
  -3   2  11   32.90    8.50 
  -2  -2  11  138.59   11.10 
  -2  -2  11  147.99   10.20 
  -2   2  11  131.49   14.50 
  -2   2  11  149.88   11.80 
  -1  -2  11   78.79    7.10 
  -1   2  11   61.09    7.80 
  -1   2  11   73.79    9.20 
  -6  -3  11   39.10    5.60 
   6  -3 -11   51.69    5.50 
  -6   3  11   43.30    6.40 
  -6   3  11   62.69    9.00 
  -6   3  11   41.20    5.20 
   5  -3 -11    2.00    3.30 
  -5  -3  11    3.10    2.30 
  -5   3  11    1.10    2.40 
  -5   3  11    7.90    3.60 
  -5   3  11   -2.00    2.80 
  -4  -3  11  134.29   10.10 
  -4  -3  11  124.39   12.20 
  -4   3  11  130.79   10.70 
  -4   3  11  136.29    9.50 
  -4   3  11  141.19   11.40 
  -3  -3  11  163.58   11.10 
  -3  -3  11  159.28   11.40 
  -3   3  11  164.98   11.90 
  -3   3  11  137.69   13.30 
  -2  -3  11  158.48   10.70 
  -2  -3  11  177.68   11.90 
  -2   3  11  187.48   13.30 
  -2   3  11  174.48   12.30 
  -5  -4  11   37.80    6.20 
   5  -4 -11   25.90    4.90 
  -5   4  11   19.50    4.40 
  -5   4  11   27.40    4.70 
  -4  -4  11  144.99   11.40 
  -4   4  11  140.89   11.70 
  -4   4  11  104.89   10.80 
  -4   4  11  136.19    9.40 
  -3  -4  11  139.79   12.30 
  -3   4  11  130.29   10.90 
  -3   4  11  128.39   10.80 
  -4   0  12   90.69    9.20 
   0   0   0    0.00    0.00 
  
_computing_structure_solution     'SHELXT 2014/5 (Sheldrick, 2014)' 
;
_shelx_hkl_checksum              85051
loop_
_space_group_symop_operation_xyz
'x, y, z'
'-x, y+1/2, -z'
loop_
_atom_site_label
_atom_site_type_symbol
_atom_site_fract_x
_atom_site_fract_y
_atom_site_fract_z
_atom_site_U_iso_or_equiv
_atom_site_adp_type
_atom_site_occupancy
_atom_site_site_symmetry_order
_atom_site_calc_flag
_atom_site_refinement_flags_posn
_atom_site_refinement_flags_adp
N1 N 0.8938(2) 0.2022(2) 1.14016(19) 0.0631(5) Uani 1 1 d . .
C1 C 0.7047(2) 0.5803(2) 0.40488(18) 0.0412(4) Uani 1 1 d . .
C2 C 0.8290(2) 0.6755(2) 0.4989(2) 0.0470(5) Uani 1 1 d . .
H2 H 0.8866 0.6412 0.5944 0.056 Uiso 1 1 calc R U
C3 C 0.8657(3) 0.8167(2) 0.4520(2) 0.0566(5) Uani 1 1 d . .
H3 H 0.9475 0.8774 0.5159 0.068 Uiso 1 1 calc R U
C4 C 0.7812(3) 0.8710(3) 0.3082(3) 0.0633(6) Uani 1 1 d . .
H4 H 0.8075 0.9669 0.2769 0.076 Uiso 1 1 calc R U
C5 C 0.6611(3) 0.7834(3) 0.2148(2) 0.0572(5) Uani 1 1 d . .
H5 H 0.6060 0.8203 0.1197 0.069 Uiso 1 1 calc R U
C6 C 0.6181(2) 0.6371(2) 0.25903(19) 0.0463(5) Uani 1 1 d . .
C7 C 0.4924(2) 0.5468(3) 0.1629(2) 0.0553(5) Uani 1 1 d . .
H7 H 0.4362 0.5830 0.0677 0.066 Uiso 1 1 calc R U
C8 C 0.4528(3) 0.4076(3) 0.2079(2) 0.0633(6) Uani 1 1 d . .
H8 H 0.3683 0.3499 0.1442 0.076 Uiso 1 1 calc R U
C9 C 0.5381(2) 0.3501(3) 0.3497(2) 0.0586(5) Uani 1 1 d . .
H9 H 0.5092 0.2538 0.3780 0.070 Uiso 1 1 calc R U
C10 C 0.6630(2) 0.4310(2) 0.44862(19) 0.0447(4) Uani 1 1 d . .
C11 C 0.7541(2) 0.3640(2) 0.60072(19) 0.0441(4) Uani 1 1 d . .
H11 H 0.8618 0.4012 0.6312 0.053 Uiso 1 1 calc R U
C12 C 0.7586(3) 0.1830(2) 0.6079(2) 0.0583(6) Uani 1 1 d . .
H12A H 0.6563 0.1426 0.5939 0.070 Uiso 1 1 calc R U
H12B H 0.7866 0.1412 0.5298 0.070 Uiso 1 1 calc R U
C13 C 0.8766(3) 0.1286(3) 0.7559(2) 0.0612(6) Uani 1 1 d . .
H13A H 0.8683 0.0145 0.7644 0.073 Uiso 1 1 calc R U
H13B H 0.9808 0.1520 0.7616 0.073 Uiso 1 1 calc R U
C14 C 0.8520(2) 0.2091(2) 0.8822(2) 0.0472(5) Uani 1 1 d . .
C15 C 0.9120(2) 0.1430(3) 1.0222(2) 0.0594(6) Uani 1 1 d . .
H15 H 0.9696 0.0499 1.0349 0.071 Uiso 1 1 calc R U
C16 C 0.8111(2) 0.3353(3) 1.1188(2) 0.0572(5) Uani 1 1 d . .
H16 H 0.7958 0.3796 1.1986 0.069 Uiso 1 1 calc R U
C17 C 0.7469(2) 0.4111(2) 0.9848(2) 0.0495(5) Uani 1 1 d . .
H17 H 0.6907 0.5046 0.9760 0.059 Uiso 1 1 calc R U
C18 C 0.76606(19) 0.3478(2) 0.86236(19) 0.0419(4) Uani 1 1 d . .
C19 C 0.6922(2) 0.4264(2) 0.7134(2) 0.0459(4) Uani 1 1 d . .
H19A H 0.7107 0.5400 0.7251 0.055 Uiso 1 1 calc R U
H19B H 0.5804 0.4096 0.6758 0.055 Uiso 1 1 calc R U
loop_
_atom_site_aniso_label
_atom_site_aniso_U_11
_atom_site_aniso_U_22
_atom_site_aniso_U_33
_atom_site_aniso_U_23
_atom_site_aniso_U_13
_atom_site_aniso_U_12
N1 0.0605(10) 0.0770(13) 0.0453(10) 0.0142(9) 0.0134(8) 0.0010(9)
C1 0.0469(9) 0.0444(10) 0.0351(8) 0.0016(7) 0.0190(7) 0.0078(7)
C2 0.0525(10) 0.0490(11) 0.0411(10) 0.0026(8) 0.0199(8) 0.0024(8)
C3 0.0612(12) 0.0489(12) 0.0639(13) 0.0005(9) 0.0288(10) -0.0044(9)
C4 0.0773(14) 0.0505(12) 0.0743(14) 0.0180(10) 0.0425(12) 0.0053(11)
C5 0.0672(13) 0.0600(12) 0.0497(11) 0.0193(10) 0.0285(10) 0.0186(10)
C6 0.0526(10) 0.0508(11) 0.0390(9) 0.0058(8) 0.0217(8) 0.0133(8)
C7 0.0565(11) 0.0686(14) 0.0353(9) 0.0032(9) 0.0118(9) 0.0145(10)
C8 0.0605(13) 0.0711(15) 0.0472(11) -0.0089(10) 0.0086(9) -0.0045(10)
C9 0.0644(12) 0.0534(12) 0.0525(12) 0.0007(9) 0.0167(10) -0.0077(10)
C10 0.0502(10) 0.0460(10) 0.0390(9) 0.0018(8) 0.0185(8) 0.0035(8)
C11 0.0507(9) 0.0436(10) 0.0403(9) 0.0073(7) 0.0203(8) 0.0049(8)
C12 0.0845(15) 0.0451(11) 0.0518(11) 0.0032(8) 0.0336(10) 0.0128(10)
C13 0.0770(14) 0.0522(12) 0.0636(13) 0.0161(9) 0.0374(11) 0.0244(10)
C14 0.0457(9) 0.0498(11) 0.0480(10) 0.0105(8) 0.0201(8) 0.0052(8)
C15 0.0549(11) 0.0641(14) 0.0567(12) 0.0186(10) 0.0188(9) 0.0132(10)
C16 0.0600(12) 0.0670(14) 0.0419(10) 0.0002(9) 0.0169(9) -0.0057(10)
C17 0.0537(11) 0.0497(11) 0.0459(10) 0.0006(8) 0.0203(8) 0.0004(8)
C18 0.0418(9) 0.0426(9) 0.0417(9) 0.0047(7) 0.0168(7) -0.0010(8)
C19 0.0532(10) 0.0426(9) 0.0430(10) 0.0061(7) 0.0198(8) 0.0099(8)
loop_
_atom_type_symbol
_atom_type_description
_atom_type_scat_dispersion_real
_atom_type_scat_dispersion_imag
_atom_type_scat_source
C C 0.0181 0.0091 'International Tables Vol C Tables 4.2.6.8 and 6.1.1.4'
H H 0.0000 0.0000 'International Tables Vol C Tables 4.2.6.8 and 6.1.1.4'
N N 0.0311 0.0180 'International Tables Vol C Tables 4.2.6.8 and 6.1.1.4'
loop_
_geom_angle_atom_site_label_1
_geom_angle_atom_site_label_2
_geom_angle_atom_site_label_3
_geom_angle
C16 N1 C15 116.03(18)
C2 C1 C6 117.83(16)
C2 C1 C10 123.23(15)
C6 C1 C10 118.93(16)
C3 C2 C1 121.25(17)
C3 C2 H2 119.4
C1 C2 H2 119.4
C2 C3 C4 120.6(2)
C2 C3 H3 119.7
C4 C3 H3 119.7
C5 C4 C3 119.9(2)
C5 C4 H4 120.0
C3 C4 H4 120.0
C4 C5 C6 121.42(18)
C4 C5 H5 119.3
C6 C5 H5 119.3
C7 C6 C5 121.54(17)
C7 C6 C1 119.52(17)
C5 C6 C1 118.95(18)
C8 C7 C6 120.50(18)
C8 C7 H7 119.7
C6 C7 H7 119.7
C7 C8 C9 120.4(2)
C7 C8 H8 119.8
C9 C8 H8 119.8
C10 C9 C8 122.2(2)
C10 C9 H9 118.9
C8 C9 H9 118.9
C9 C10 C1 118.42(17)
C9 C10 C11 120.81(17)
C1 C10 C11 120.78(15)
C10 C11 C12 114.35(16)
C10 C11 C19 111.49(15)
C12 C11 C19 108.66(16)
C10 C11 H11 107.3
C12 C11 H11 107.3
C19 C11 H11 107.3
C13 C12 C11 110.06(19)
C13 C12 H12A 109.6
C11 C12 H12A 109.6
C13 C12 H12B 109.6
C11 C12 H12B 109.6
H12A C12 H12B 108.2
C14 C13 C12 111.82(17)
C14 C13 H13A 109.3
C12 C13 H13A 109.3
C14 C13 H13B 109.3
C12 C13 H13B 109.3
H13A C13 H13B 107.9
C18 C14 C15 117.73(18)
C18 C14 C13 121.71(17)
C15 C14 C13 120.54(18)
N1 C15 C14 125.3(2)
N1 C15 H15 117.4
C14 C15 H15 117.4
N1 C16 C17 123.5(2)
N1 C16 H16 118.3
C17 C16 H16 118.3
C16 C17 C18 119.98(18)
C16 C17 H17 120.0
C18 C17 H17 120.0
C14 C18 C17 117.49(16)
C14 C18 C19 121.77(16)
C17 C18 C19 120.72(16)
C18 C19 C11 113.40(15)
C18 C19 H19A 108.9
C11 C19 H19A 108.9
C18 C19 H19B 108.9
C11 C19 H19B 108.9
H19A C19 H19B 107.7
loop_
_geom_bond_atom_site_label_1
_geom_bond_atom_site_label_2
_geom_bond_distance
N1 C16 1.329(3)
N1 C15 1.335(3)
C1 C2 1.417(3)
C1 C6 1.430(2)
C1 C10 1.430(3)
C2 C3 1.366(3)
C2 H2 0.9300
C3 C4 1.404(3)
C3 H3 0.9300
C4 C5 1.357(3)
C4 H4 0.9300
C5 C6 1.415(3)
C5 H5 0.9300
C6 C7 1.409(3)
C7 C8 1.354(3)
C7 H7 0.9300
C8 C9 1.399(3)
C8 H8 0.9300
C9 C10 1.374(3)
C9 H9 0.9300
C10 C11 1.515(2)
C11 C12 1.525(3)
C11 C19 1.530(3)
C11 H11 0.9800
C12 C13 1.516(3)
C12 H12A 0.9700
C12 H12B 0.9700
C13 C14 1.511(3)
C13 H13A 0.9700
C13 H13B 0.9700
C14 C18 1.385(3)
C14 C15 1.388(3)
C15 H15 0.9300
C16 C17 1.377(3)
C16 H16 0.9300
C17 C18 1.393(3)
C17 H17 0.9300
C18 C19 1.510(2)
C19 H19A 0.9700
C19 H19B 0.9700
loop_
_geom_torsion_atom_site_label_1
_geom_torsion_atom_site_label_2
_geom_torsion_atom_site_label_3
_geom_torsion_atom_site_label_4
_geom_torsion
C6 C1 C2 C3 -0.3(3)
C10 C1 C2 C3 179.31(17)
C1 C2 C3 C4 -0.3(3)
C2 C3 C4 C5 0.4(3)
C3 C4 C5 C6 0.1(3)
C4 C5 C6 C7 179.26(19)
C4 C5 C6 C1 -0.7(3)
C2 C1 C6 C7 -179.19(16)
C10 C1 C6 C7 1.2(2)
C2 C1 C6 C5 0.8(2)
C10 C1 C6 C5 -178.84(16)
C5 C6 C7 C8 -179.59(19)
C1 C6 C7 C8 0.4(3)
C6 C7 C8 C9 -1.2(3)
C7 C8 C9 C10 0.5(3)
C8 C9 C10 C1 1.1(3)
C8 C9 C10 C11 -179.2(2)
C2 C1 C10 C9 178.53(18)
C6 C1 C10 C9 -1.9(2)
C2 C1 C10 C11 -1.2(3)
C6 C1 C10 C11 178.37(15)
C9 C10 C11 C12 30.7(3)
C1 C10 C11 C12 -149.60(17)
C9 C10 C11 C19 -93.1(2)
C1 C10 C11 C19 86.6(2)
C10 C11 C12 C13 169.12(16)
C19 C11 C12 C13 -65.6(2)
C11 C12 C13 C14 51.1(2)
C12 C13 C14 C18 -18.5(3)
C12 C13 C14 C15 159.65(19)
C16 N1 C15 C14 0.0(3)
C18 C14 C15 N1 -0.1(3)
C13 C14 C15 N1 -178.3(2)
C15 N1 C16 C17 -0.3(3)
N1 C16 C17 C18 0.6(3)
C15 C14 C18 C17 0.3(3)
C13 C14 C18 C17 178.56(18)
C15 C14 C18 C19 -178.27(17)
C13 C14 C18 C19 0.0(3)
C16 C17 C18 C14 -0.6(3)
C16 C17 C18 C19 178.05(17)
C14 C18 C19 C11 -14.3(3)
C17 C18 C19 C11 167.10(16)
C10 C11 C19 C18 172.91(15)
C12 C11 C19 C18 46.0(2)
