#------------------------------------------------------------------------------
#$Date: 2019-11-03 16:25:06 +0200 (Sun, 03 Nov 2019) $
#$Revision: 221862 $
#$URL: file:///home/coder/svn-repositories/cod/cif/4/12/87/4128798.cif $
#------------------------------------------------------------------------------
#
# This file is available in the Crystallography Open Database (COD),
# http://www.crystallography.net/
#
# All data on this site have been placed in the public domain by the
# contributors.
#
data_4128798
loop_
_publ_author_name
'Strangm\"uller, Stefan'
'Eickhoff, Henrik'
'M\"uller, David'
'Klein, Wilhelm'
'Raudaschl-Sieber, Gabriele'
'Kirchhain, Holger'
'Sedlmeier, Christian'
'Baran, Volodymyr'
'Senyshyn, Anatoliy'
'Deringer, Volker L.'
'van W\"ullen, Leo'
'Gasteiger, Hubert A.'
'F\"assler, Thomas F'
_publ_section_title
;
 Fast Ionic Conductivity in the Most Lithium-Rich Phosphidosilicate
 Li<sub>14</sub>SiP<sub>6</sub>.
;
_journal_issue                   36
_journal_name_full               'Journal of the American Chemical Society'
_journal_page_first              14200
_journal_page_last               14209
_journal_paper_doi               10.1021/jacs.9b05301
_journal_volume                  141
_journal_year                    2019
_chemical_compound_source        synthetic
_chemical_formula_moiety         'P4 Si0.67, 9.33(Li)'
_chemical_formula_sum            'Li2.33 P Si0.17'
_chemical_formula_weight         51.85
_space_group_IT_number           225
_space_group_name_Hall           '-F 4 2 3'
_space_group_name_H-M_alt        'F m -3 m'
_symmetry_cell_setting           cubic
_symmetry_space_group_name_Hall  '-F 4 2 3'
_symmetry_space_group_name_H-M   'F m -3 m'
_audit_creation_date             06-Jul-2018
_audit_creation_method           FULLPROF
_audit_update_record             11-May-2019
_cell_angle_alpha                90.0000
_cell_angle_beta                 90.0000
_cell_angle_gamma                90.0000
_cell_formula_units_Z            4
_cell_length_a                   5.93927
_cell_length_b                   5.93927
_cell_length_c                   5.93927
_cell_measurement_temperature    300
_cell_volume                     209.507
_computing_molecular_graphics    'DIAMOND 3.2k'
_computing_structure_refinement  FULLPROF
_computing_structure_solution    SHELXS-97
_diffrn_ambient_temperature      300
_diffrn_detector                 '^3^He counter'
_diffrn_detector_type
; curved position-sensitive detector-array of 80 counter tubes, height:
 300 mm, resolution: 3 mm 
;
_diffrn_measurement_device       'one-circle powder diffractometer'
_diffrn_measurement_device_type  'SPODI High resolution powder diffractometer'
_diffrn_measurement_method       'profile data from \q/2\q scans'
_diffrn_radiation_monochromator  Ge(551)
_diffrn_radiation_probe          neutron
_diffrn_radiation_type           'Constant Wavelength Neutron Diffraction'
_diffrn_radiation_wavelength     1.54817
_diffrn_source                   'nuclear reactor'
_diffrn_source_type              'FRM II beamline 8a'
_exptl_absorpt_process_details
;   FullProf Absorption/surface roughness correction. 
 No correction is applied. 
;
_exptl_crystal_density_diffrn    1.644
_pd_block_id                     Li14SiP6_300K_5h_300mm_varH
_pd_calc_method                  'Rietveld Refinement'
_pd_char_colour                  red
_pd_instr_geometry               Debye-Scherrer
_pd_instr_location
; SPODI diffractometer, Heinz Maier-Leibnitz-Zentrum, FRM II, Technische
 Universit\"at M\"unchen, Garching, Germany
;
_pd_meas_2theta_range_inc        0.050019
_pd_meas_2theta_range_max        151.89999
_pd_meas_2theta_range_min        0.95000
_pd_meas_number_of_points        3020
_pd_meas_scan_method             step
_pd_proc_2theta_range_inc        0.050019
_pd_proc_2theta_range_max        151.8206
_pd_proc_2theta_range_min        0.8706
_pd_proc_info_data_reduction
; efficiency/intensity correction and 2\q scattering-angle correction for each
detector-collimator pair, geometrical data correction with Lorentz factor,
variable integration height to obtain 1D data:
H~L~=(R^2^*sin(4\q))/(H~S~*cos^2^(2\q))*\D2\q+H~S~/2
with H~L~: limiting height, H~S~: sample height, R: detector radius
(M. Hoelzel, A. Senyshyn, N. Juenke, H. Boysen, W. Schmahl, H. Fuess,
Nucl. Instrum. Methods Phys. Res., Sect. A 2012, 667, 32-37)
;
_pd_proc_ls_peak_cutoff          0.00500
_pd_proc_ls_profile_function     Pseudo-Voigt
_pd_proc_ls_prof_R_factor        4.6175
_pd_proc_ls_prof_wR_expected     2.3725
_pd_proc_ls_prof_wR_factor       6.1586
_pd_proc_number_of_points        2858
_pd_proc_wavelength              1.548175
_pd_spec_mounting
; sealed Nb tube container (10 mm diameter, 0.5 mm wall thickness, sample
 volume ca. 2 cm^3^) 
;
_pd_spec_mount_mode              transmission
_pd_spec_orientation             vertical
_pd_spec_shape                   cylinder
_pd_spec_size_axial              30
_pd_spec_size_equat              10
_refine_ls_goodness_of_fit_all   2.5959
_refine_ls_number_parameters     0
_refine_ls_number_reflns         23
_refine_ls_number_restraints     0
_refine_ls_R_I_factor            9.1189
_cod_data_source_file            ja9b05301_si_004.cif
_cod_data_source_block           Li14SiP6
_cod_database_code               4128798
_pd_proc_ls_prof_cr_factor       10.3203
_pd_proc_ls_prof_cwr_factor      9.4102
_pd_proc_ls_prof_cwr_expected    3.6251
_pd_proc_ls_prof_chi2            6.7386
_pd_proc_ls_prof_echi2           7.2383
loop_
_symmetry_equiv_pos_as_xyz
x,y,z
x,-y,-z
-x,y,-z
-x,-y,z
y,z,x
-y,-z,x
y,-z,-x
-y,z,-x
z,x,y
-z,x,-y
-z,-x,y
z,-x,-y
y,x,z
-y,x,-z
y,-x,-z
-y,-x,z
z,y,x
-z,-y,x
-z,y,-x
z,-y,-x
x,z,y
x,-z,-y
-x,-z,y
-x,z,-y
-x,-y,-z
-x,y,z
x,-y,z
x,y,-z
-y,-z,-x
y,z,-x
-y,z,x
y,-z,x
-z,-x,-y
z,-x,y
z,x,-y
-z,x,y
-y,-x,-z
y,-x,z
-y,x,z
y,x,-z
-z,-y,-x
z,y,-x
z,-y,x
-z,y,x
-x,-z,-y
-x,z,y
x,z,-y
x,-z,y
x+1/2,y+1/2,z
x+1/2,-y+1/2,-z
-x+1/2,y+1/2,-z
-x+1/2,-y+1/2,z
y+1/2,z+1/2,x
-y+1/2,-z+1/2,x
y+1/2,-z+1/2,-x
-y+1/2,z+1/2,-x
z+1/2,x+1/2,y
-z+1/2,x+1/2,-y
-z+1/2,-x+1/2,y
z+1/2,-x+1/2,-y
y+1/2,x+1/2,z
-y+1/2,x+1/2,-z
y+1/2,-x+1/2,-z
-y+1/2,-x+1/2,z
z+1/2,y+1/2,x
-z+1/2,-y+1/2,x
-z+1/2,y+1/2,-x
z+1/2,-y+1/2,-x
x+1/2,z+1/2,y
x+1/2,-z+1/2,-y
-x+1/2,-z+1/2,y
-x+1/2,z+1/2,-y
-x+1/2,-y+1/2,-z
-x+1/2,y+1/2,z
x+1/2,-y+1/2,z
x+1/2,y+1/2,-z
-y+1/2,-z+1/2,-x
y+1/2,z+1/2,-x
-y+1/2,z+1/2,x
y+1/2,-z+1/2,x
-z+1/2,-x+1/2,-y
z+1/2,-x+1/2,y
z+1/2,x+1/2,-y
-z+1/2,x+1/2,y
-y+1/2,-x+1/2,-z
y+1/2,-x+1/2,z
-y+1/2,x+1/2,z
y+1/2,x+1/2,-z
-z+1/2,-y+1/2,-x
z+1/2,y+1/2,-x
z+1/2,-y+1/2,x
-z+1/2,y+1/2,x
-x+1/2,-z+1/2,-y
-x+1/2,z+1/2,y
x+1/2,z+1/2,-y
x+1/2,-z+1/2,y
x+1/2,y,z+1/2
x+1/2,-y,-z+1/2
-x+1/2,y,-z+1/2
-x+1/2,-y,z+1/2
y+1/2,z,x+1/2
-y+1/2,-z,x+1/2
y+1/2,-z,-x+1/2
-y+1/2,z,-x+1/2
z+1/2,x,y+1/2
-z+1/2,x,-y+1/2
-z+1/2,-x,y+1/2
z+1/2,-x,-y+1/2
y+1/2,x,z+1/2
-y+1/2,x,-z+1/2
y+1/2,-x,-z+1/2
-y+1/2,-x,z+1/2
z+1/2,y,x+1/2
-z+1/2,-y,x+1/2
-z+1/2,y,-x+1/2
z+1/2,-y,-x+1/2
x+1/2,z,y+1/2
x+1/2,-z,-y+1/2
-x+1/2,-z,y+1/2
-x+1/2,z,-y+1/2
-x+1/2,-y,-z+1/2
-x+1/2,y,z+1/2
x+1/2,-y,z+1/2
x+1/2,y,-z+1/2
-y+1/2,-z,-x+1/2
y+1/2,z,-x+1/2
-y+1/2,z,x+1/2
y+1/2,-z,x+1/2
-z+1/2,-x,-y+1/2
z+1/2,-x,y+1/2
z+1/2,x,-y+1/2
-z+1/2,x,y+1/2
-y+1/2,-x,-z+1/2
y+1/2,-x,z+1/2
-y+1/2,x,z+1/2
y+1/2,x,-z+1/2
-z+1/2,-y,-x+1/2
z+1/2,y,-x+1/2
z+1/2,-y,x+1/2
-z+1/2,y,x+1/2
-x+1/2,-z,-y+1/2
-x+1/2,z,y+1/2
x+1/2,z,-y+1/2
x+1/2,-z,y+1/2
x,y+1/2,z+1/2
x,-y+1/2,-z+1/2
-x,y+1/2,-z+1/2
-x,-y+1/2,z+1/2
y,z+1/2,x+1/2
-y,-z+1/2,x+1/2
y,-z+1/2,-x+1/2
-y,z+1/2,-x+1/2
z,x+1/2,y+1/2
-z,x+1/2,-y+1/2
-z,-x+1/2,y+1/2
z,-x+1/2,-y+1/2
y,x+1/2,z+1/2
-y,x+1/2,-z+1/2
y,-x+1/2,-z+1/2
-y,-x+1/2,z+1/2
z,y+1/2,x+1/2
-z,-y+1/2,x+1/2
-z,y+1/2,-x+1/2
z,-y+1/2,-x+1/2
x,z+1/2,y+1/2
x,-z+1/2,-y+1/2
-x,-z+1/2,y+1/2
-x,z+1/2,-y+1/2
-x,-y+1/2,-z+1/2
-x,y+1/2,z+1/2
x,-y+1/2,z+1/2
x,y+1/2,-z+1/2
-y,-z+1/2,-x+1/2
y,z+1/2,-x+1/2
-y,z+1/2,x+1/2
y,-z+1/2,x+1/2
-z,-x+1/2,-y+1/2
z,-x+1/2,y+1/2
z,x+1/2,-y+1/2
-z,x+1/2,y+1/2
-y,-x+1/2,-z+1/2
y,-x+1/2,z+1/2
-y,x+1/2,z+1/2
y,x+1/2,-z+1/2
-z,-y+1/2,-x+1/2
z,y+1/2,-x+1/2
z,-y+1/2,x+1/2
-z,y+1/2,x+1/2
-x,-z+1/2,-y+1/2
-x,z+1/2,y+1/2
x,z+1/2,-y+1/2
x,-z+1/2,y+1/2
loop_
_atom_site_label
_atom_site_fract_x
_atom_site_fract_y
_atom_site_fract_z
_atom_site_U_iso_or_equiv
_atom_site_occupancy
_atom_site_adp_type
_atom_site_type_symbol
P 0.00000 0.00000 0.00000 0.04001 1.00000 Uani P
Si1 0.25000 0.25000 0.25000 0.04957 0.08329 Uani Si
Li1 0.25000 0.25000 0.25000 0.04957 0.91527 Uani Li
Li2 0.50000 0.00000 0.00000 0.12027 0.50264 Uani Li
loop_
_atom_site_aniso_label
_atom_site_aniso_U_11
_atom_site_aniso_U_22
_atom_site_aniso_U_33
_atom_site_aniso_U_12
_atom_site_aniso_U_13
_atom_site_aniso_U_23
_atom_site_aniso_type_symbol
P 0.04001 0.04001 0.04001 0.00000 0.00000 0.00000 Li
Si1 0.04957 0.04957 0.04957 0.00000 0.00000 0.00000 Li
Li1 0.04957 0.04957 0.04957 0.00000 0.00000 0.00000 Li
Li2 0.12027 0.12027 0.12027 0.00000 0.00000 0.00000 Li
loop_
_atom_type_symbol
_atom_type_scat_length_neutron
_atom_type_scat_source
P 0.51300 V.F._Sears_Neutron_News_3_26_(1992)
Si 0.41490 V.F._Sears_Neutron_News_3_26_(1992)
Li -0.19000 V.F._Sears_Neutron_News_3_26_(1992)
loop_
_pd_proc_point_id
_pd_proc_2theta_corrected
_pd_proc_intensity_total
_pd_calc_intensity_total
_pd_proc_intensity_bkg_calc
163 8.9706 1975(174) 1945.6912 1945.6912
164 9.0206 2062(178) 1938.6757 1938.6757
165 9.0706 2078(178) 1931.6603 1931.6603
166 9.1206 1903(169) 1924.6448 1924.6448
167 9.1706 1862(167) 1917.6293 1917.6293
168 9.2206 1873(167) 1910.6138 1910.6138
169 9.2706 1964(170) 1903.5983 1903.5983
170 9.3206 1979(170) 1896.5829 1896.5829
171 9.3706 1931(168) 1889.5674 1889.5674
172 9.4206 1807(162) 1882.5520 1882.5520
173 9.4706 1905(166) 1875.5365 1875.5365
174 9.5206 1934(166) 1868.5210 1868.5210
175 9.5706 1827(161) 1861.5056 1861.5056
176 9.6206 1855(162) 1854.4901 1854.4901
177 9.6706 1789(158) 1847.4746 1847.4746
178 9.7206 1779(157) 1840.4591 1840.4591
179 9.7706 1802(158) 1833.4436 1833.4436
180 9.8206 1781(156) 1826.4282 1826.4282
181 9.8706 1757(155) 1819.4127 1819.4127
182 9.9206 1752(154) 1812.3972 1812.3972
183 9.9706 1842(158) 1805.3818 1805.3818
184 10.0206 1866(158) 1798.3662 1798.3662
185 10.0706 1845(157) 1791.3510 1791.3510
186 10.1206 1737(152) 1784.3354 1784.3354
187 10.1706 1864(156) 1777.3199 1777.3199
188 10.2206 1830(155) 1770.3044 1770.3044
189 10.2706 1850(155) 1763.2889 1763.2889
190 10.3206 1731(149) 1756.2736 1756.2736
191 10.3706 1755(150) 1749.2581 1749.2581
192 10.4206 1635(144) 1742.2426 1742.2426
193 10.4706 1694(146) 1735.2271 1735.2271
194 10.5206 1663(145) 1728.5104 1728.5104
195 10.5706 1763(148) 1723.1362 1723.1362
196 10.6206 1809(150) 1717.7621 1717.7621
197 10.6706 1787(148) 1712.3879 1712.3879
198 10.7206 1748(146) 1707.0139 1707.0139
199 10.7706 1684(143) 1701.6398 1701.6398
200 10.8206 1689(143) 1696.2656 1696.2656
201 10.8706 1635(140) 1690.8916 1690.8916
202 10.9206 1626(139) 1685.5175 1685.5175
203 10.9706 1751(144) 1680.1433 1680.1433
204 11.0206 1700(142) 1674.7692 1674.7692
205 11.0706 1795(145) 1669.3950 1669.3950
206 11.1206 1717(142) 1664.0210 1664.0210
207 11.1706 1469(131) 1658.6469 1658.6469
208 11.2206 1538(133) 1653.2727 1653.2727
209 11.2706 1776(143) 1647.8986 1647.8986
210 11.3206 1758(142) 1642.5245 1642.5245
211 11.3706 1610(135) 1637.1504 1637.1504
212 11.4206 1611(135) 1632.5823 1632.5823
213 11.4706 1514(130) 1630.6826 1630.6826
214 11.5206 1613(134) 1628.7830 1628.7830
215 11.5706 1602(133) 1626.8833 1626.8833
216 11.6206 1634(134) 1624.9836 1624.9836
217 11.6706 1539(130) 1623.0840 1623.0840
218 11.7206 1554(130) 1621.1843 1621.1843
219 11.7706 1598(131) 1619.2847 1619.2847
220 11.8206 1450(125) 1617.3850 1617.3850
221 11.8706 1621(132) 1615.4854 1615.4854
222 11.9206 1594(130) 1613.5857 1613.5857
223 11.9706 1567(129) 1611.6860 1611.6860
224 12.0206 1533(127) 1609.7864 1609.7864
225 12.0706 1721(134) 1607.8868 1607.8868
226 12.1206 1679(132) 1605.9872 1605.9872
227 12.1706 1574(127) 1604.0875 1604.0875
228 12.2206 1654(130) 1602.1879 1602.1879
229 12.2706 1804(136) 1600.2882 1600.2882
230 12.3206 1625(128) 1598.3885 1598.3885
231 12.3706 1720(132) 1596.4889 1596.4889
232 12.4206 1609(127) 1594.5892 1594.5892
233 12.4706 1524(123) 1592.6896 1592.6896
234 12.5206 1565(125) 1590.7899 1590.7899
235 12.5706 1688(129) 1588.8903 1588.8903
236 12.6206 1593(125) 1586.9906 1586.9906
237 12.6706 1654(127) 1585.0909 1585.0909
238 12.7206 1619(125) 1583.1913 1583.1913
239 12.7706 1541(122) 1581.2916 1581.2916
240 12.8206 1685(127) 1579.3921 1579.3921
241 12.8706 1670(126) 1577.4924 1577.4924
242 12.9206 1692(127) 1575.5928 1575.5928
243 12.9706 1706(127) 1573.6931 1573.6931
244 13.0206 1686(126) 1571.7935 1571.7935
245 13.0706 1633(123) 1569.8938 1569.8938
246 13.1206 1522(119) 1567.9941 1567.9941
247 13.1706 1513(118) 1566.0945 1566.0945
248 13.2206 1622(122) 1564.1948 1564.1948
249 13.2706 1525(118) 1562.2952 1562.2952
250 13.3206 1581(120) 1560.3955 1560.3955
251 13.3706 1645(122) 1558.4958 1558.4958
252 13.4206 1442(114) 1556.5962 1556.5962
253 13.4706 1447(114) 1554.6965 1554.6965
254 13.5206 1418(112) 1552.7969 1552.7969
255 13.5706 1657(121) 1550.8972 1550.8972
256 13.6206 1540(116) 1548.9976 1548.9976
257 13.6706 1485(114) 1547.0979 1547.0979
258 13.7206 1409(111) 1545.1982 1545.1982
259 13.7706 1498(114) 1543.2986 1543.2986
260 13.8206 1564(116) 1541.3990 1541.3990
261 13.8706 1521(114) 1539.4994 1539.4994
262 13.9206 1401(109) 1537.5997 1537.5997
263 13.9706 1584(116) 1535.7001 1535.7001
264 14.0206 1494(112) 1533.8004 1533.8004
265 14.0706 1553(114) 1531.9008 1531.9008
266 14.1206 1582(115) 1530.0011 1530.0011
267 14.1706 1550(113) 1528.1014 1528.1014
268 14.2206 1580(114) 1526.2018 1526.2018
269 14.2706 1534(112) 1524.3021 1524.3021
270 14.3206 1523(111) 1522.4025 1522.4025
271 14.3706 1494(110) 1520.5028 1520.5028
272 14.4206 1493(110) 1518.6031 1518.6031
273 14.4706 1449(108) 1516.7035 1516.7035
274 14.5206 1545(111) 1514.8038 1514.8038
275 14.5706 1509(110) 1512.9043 1512.9043
276 14.6206 1472(108) 1511.8522 1511.8522
277 14.6706 1595(112) 1512.9585 1512.9585
278 14.7206 1504(109) 1514.0647 1514.0647
279 14.7706 1702(115) 1515.1709 1515.1709
280 14.8206 1606(112) 1516.2770 1516.2770
281 14.8706 1534(109) 1517.3832 1517.3832
282 14.9206 1629(112) 1518.4894 1518.4894
283 14.9706 1592(110) 1519.5956 1519.5956
284 15.0206 1464(105) 1520.7018 1520.7018
285 15.0706 1476(106) 1521.8080 1521.8080
286 15.1206 1451(104) 1522.9142 1522.9142
287 15.1706 1473(105) 1524.0204 1524.0204
288 15.2206 1503(106) 1525.1266 1525.1266
289 15.2706 1439(103) 1526.2328 1526.2328
290 15.3206 1536(106) 1527.3390 1527.3390
291 15.3706 1554(107) 1528.4452 1528.4452
292 15.4206 1539(106) 1529.5514 1529.5514
293 15.4706 1527(105) 1530.6576 1530.6576
294 15.5206 1674(110) 1531.7638 1531.7638
295 15.5706 1545(105) 1532.8700 1532.8700
296 15.6206 1483(103) 1533.9762 1533.9762
297 15.6706 1520(104) 1535.0824 1535.0824
298 15.7206 1615(107) 1536.1886 1536.1886
299 15.7706 1519(104) 1537.2948 1537.2948
300 15.8206 1376(98) 1538.4010 1538.4010
301 15.8706 1353(97) 1539.5072 1539.5072
302 15.9206 1444(100) 1540.6134 1540.6134
303 15.9706 1548(103) 1541.7196 1541.7196
304 16.0206 1584(104) 1542.8258 1542.8258
305 16.0706 1591(104) 1543.9320 1543.9320
306 16.1206 1530(102) 1545.0382 1545.0382
307 16.1706 1489(101) 1546.1444 1546.1444
308 16.2206 1572(103) 1547.2506 1547.2506
309 16.2706 1574(103) 1548.3568 1548.3568
310 16.3206 1618(104) 1549.4630 1549.4630
311 16.3706 1604(103) 1550.5692 1550.5692
312 16.4206 1691(106) 1551.6754 1551.6754
313 16.4706 1509(100) 1552.7816 1552.7816
314 16.5206 1490(99) 1553.8878 1553.8878
315 16.5706 1546(100) 1554.9940 1554.9940
316 16.6206 1585(102) 1556.1002 1556.1002
317 16.6706 1592(102) 1557.2064 1557.2064
318 16.7206 1591(101) 1558.3126 1558.3126
319 16.7706 1588(101) 1559.4188 1559.4188
320 16.8206 1476(97) 1560.5250 1560.5250
321 16.8706 1531(99) 1561.6312 1561.6312
322 16.9206 1619(101) 1561.4141 1561.4141
323 16.9706 1513(98) 1557.8606 1557.8606
324 17.0206 1471(96) 1554.3071 1554.3071
325 17.0706 1537(98) 1550.7538 1550.7538
326 17.1206 1469(95) 1547.2002 1547.2002
327 17.1706 1597(99) 1543.6469 1543.6469
328 17.2206 1588(99) 1540.0935 1540.0935
329 17.2706 1512(96) 1536.5399 1536.5399
330 17.3206 1644(100) 1532.9866 1532.9866
331 17.3706 1603(99) 1529.4331 1529.4331
332 17.4206 1485(95) 1525.8796 1525.8796
333 17.4706 1537(96) 1522.3263 1522.3263
334 17.5206 1488(94) 1518.7728 1518.7728
335 17.5706 1511(95) 1515.2195 1515.2195
336 17.6206 1621(98) 1511.6659 1511.6659
337 17.6706 1433(92) 1508.1125 1508.1125
338 17.7206 1422(91) 1504.5592 1504.5592
339 17.7706 1558(95) 1501.0056 1501.0056
340 17.8206 1496(93) 1497.4523 1497.4523
341 17.8706 1427(91) 1493.8987 1493.8987
342 17.9206 1483(92) 1490.3453 1490.3453
343 17.9706 1537(94) 1486.7920 1486.7920
344 18.0206 1406(90) 1483.2385 1483.2385
345 18.0706 1477(92) 1479.6851 1479.6851
346 18.1206 1459(91) 1476.1316 1476.1316
347 18.1706 1466(91) 1472.5782 1472.5782
348 18.2206 1406(89) 1469.0248 1469.0248
349 18.2706 1527(92) 1465.4713 1465.4713
350 18.3206 1606(94) 1461.9180 1461.9180
351 18.3706 1462(90) 1458.3644 1458.3644
352 18.4206 1347(86) 1454.8110 1454.8110
353 18.4706 1401(88) 1451.2577 1451.2577
354 18.5206 1533(91) 1447.7041 1447.7041
355 18.5706 1512(91) 1444.1508 1444.1508
356 18.6206 1463(89) 1440.5973 1440.5973
357 18.6706 1526(91) 1437.0438 1437.0438
358 18.7206 1480(89) 1433.4905 1433.4905
359 18.7706 1450(88) 1429.9370 1429.9370
360 18.8206 1462(88) 1426.3835 1426.3835
361 18.8706 1391(86) 1422.8301 1422.8301
362 18.9206 1484(88) 1419.2767 1419.2767
363 18.9706 1557(90) 1415.7233 1415.7233
364 19.0206 1390(85) 1412.1698 1412.1698
365 19.0706 1469(87) 1408.6165 1408.6165
366 19.1206 1519(89) 1405.0629 1405.0629
367 19.1706 1520(89) 1401.5095 1401.5095
368 19.2206 1410(85) 1397.9562 1397.9562
369 19.2706 1359(83) 1394.4026 1394.4026
370 19.3206 1317(82) 1390.8492 1390.8492
371 19.3706 1325(82) 1387.2958 1387.2958
372 19.4206 1305(81) 1384.3849 1383.7424
373 19.4706 1381(83) 1380.8413 1380.1890
374 19.5206 1362(83) 1377.0667 1376.4043
375 19.5706 1315(81) 1373.1818 1372.5090
376 19.6206 1335(81) 1369.2968 1368.6135
377 19.6706 1368(82) 1365.4122 1364.7183
378 19.7206 1409(83) 1361.5281 1360.8230
379 19.7706 1360(82) 1357.6439 1356.9275
380 19.8206 1380(82) 1353.7601 1353.0322
381 19.8706 1343(81) 1349.8766 1349.1367
382 19.9206 1345(81) 1345.9934 1345.2415
383 19.9706 1234(77) 1342.1106 1341.3462
384 20.0206 1292(79) 1338.2279 1337.4507
385 20.0706 1273(78) 1334.3458 1333.5554
386 20.1206 1228(76) 1330.4637 1329.6599
387 20.1706 1324(79) 1326.5823 1325.7646
388 20.2206 1331(79) 1322.7010 1321.8694
389 20.2706 1389(81) 1318.8201 1317.9739
390 20.3206 1261(77) 1314.9397 1314.0786
391 20.3706 1333(79) 1311.0594 1310.1831
392 20.4206 1278(77) 1307.1799 1306.2878
393 20.4706 1318(78) 1303.3008 1302.3926
394 20.5206 1297(77) 1299.4219 1298.4971
395 20.5706 1363(79) 1295.5436 1294.6018
396 20.6206 1319(78) 1291.6656 1290.7063
397 20.6706 1381(79) 1287.7883 1286.8110
398 20.7206 1293(76) 1283.9116 1282.9158
399 20.7706 1141(72) 1280.0352 1279.0203
400 20.8206 1301(76) 1276.1594 1275.1250
401 20.8706 1405(79) 1272.2841 1271.2295
402 20.9206 1214(73) 1268.4095 1267.3342
403 20.9706 1327(77) 1264.5356 1263.4390
404 21.0206 1210(73) 1260.6622 1259.5435
405 21.0706 1188(72) 1257.3972 1256.2559
406 21.1206 1208(73) 1255.8451 1254.6803
407 21.1706 1316(76) 1254.2936 1253.1047
408 21.2206 1281(75) 1252.7429 1251.5292
409 21.2706 1247(73) 1251.1929 1249.9535
410 21.3206 1248(73) 1249.6438 1248.3779
411 21.3706 1228(72) 1248.0956 1246.8024
412 21.4206 1270(74) 1246.5482 1245.2268
413 21.4706 1278(74) 1245.0018 1243.6512
414 21.5206 1285(74) 1243.4563 1242.0756
415 21.5706 1269(73) 1241.9119 1240.5000
416 21.6206 1196(71) 1240.3685 1238.9244
417 21.6706 1195(71) 1238.8263 1237.3489
418 21.7206 1264(72) 1237.2853 1235.7733
419 21.7706 1215(71) 1235.7452 1234.1976
420 21.8206 1118(68) 1234.2067 1232.6221
421 21.8706 1090(67) 1232.6696 1231.0465
422 21.9206 1161(69) 1231.1337 1229.4709
423 21.9706 1175(69) 1229.5994 1227.8954
424 22.0206 1123(67) 1228.0665 1226.3197
425 22.0706 1281(72) 1226.5353 1224.7441
426 22.1206 1271(72) 1225.0059 1223.1686
427 22.1706 1210(70) 1223.4783 1221.5930
428 22.2206 1325(73) 1221.9525 1220.0175
429 22.2706 1311(72) 1220.4287 1218.4418
430 22.3206 1299(72) 1218.9071 1216.8662
431 22.3706 1303(72) 1217.3877 1215.2906
432 22.4206 1299(71) 1215.8707 1213.7151
433 22.4706 1385(74) 1214.3562 1212.1395
434 22.5206 1227(69) 1212.8441 1210.5638
435 22.5706 1217(69) 1211.3350 1208.9883
436 22.6206 1350(72) 1209.8286 1207.4126
437 22.6706 1351(72) 1208.3257 1205.8372
438 22.7206 1247(69) 1206.8258 1204.2615
439 22.7706 1207(68) 1205.3296 1202.6859
440 22.8206 1172(67) 1203.8370 1201.1104
441 22.8706 1119(65) 1202.3484 1199.5347
442 22.9206 1163(66) 1200.8641 1197.9591
443 22.9706 1213(68) 1199.3843 1196.3835
444 23.0206 1148(66) 1197.9093 1194.8080
445 23.0706 1167(66) 1196.4395 1193.2324
446 23.1206 1159(66) 1194.9751 1191.6567
447 23.1706 1196(67) 1193.5166 1190.0812
448 23.2206 1209(67) 1192.0645 1188.5056
449 23.2706 1133(65) 1190.6190 1186.9301
450 23.3206 1195(66) 1189.1810 1185.3545
451 23.3706 1229(67) 1187.7506 1183.7788
452 23.4206 1205(66) 1186.3287 1182.2032
453 23.4706 1110(63) 1184.9160 1180.6277
454 23.5206 1184(65) 1183.5131 1179.0521
455 23.5706 1224(66) 1182.6155 1177.4766
456 23.6206 1253(67) 1181.2421 1175.9009
457 23.6706 1255(67) 1179.8816 1174.3253
458 23.7206 1191(65) 1178.5349 1172.7498
459 23.7706 1167(64) 1177.2032 1171.1742
460 23.8206 1240(66) 1175.8879 1169.5986
461 23.8706 1175(64) 1174.6199 1168.0525
462 23.9206 1104(62) 1173.5194 1166.6543
463 23.9706 1140(63) 1172.4406 1165.2562
464 24.0206 1134(63) 1171.3851 1163.8580
465 24.0706 1168(64) 1170.3561 1162.4600
466 24.1206 1201(64) 1169.3556 1161.0618
467 24.1706 1233(65) 1168.3872 1159.6637
468 24.2206 1178(63) 1167.4542 1158.2655
469 24.2706 1152(63) 1166.5609 1156.8674
470 24.3206 1235(65) 1165.7115 1155.4692
471 24.3706 1261(65) 1164.9121 1154.0712
472 24.4206 1134(62) 1164.1682 1152.6730
473 24.4706 1215(64) 1163.4874 1151.2749
474 24.5206 1247(65) 1162.8781 1149.8767
475 24.5706 1276(65) 1162.3502 1148.4786
476 24.6206 1183(63) 1161.9152 1147.0804
477 24.6706 1141(61) 1161.5872 1145.6824
478 24.7206 1209(63) 1161.3822 1144.2842
479 24.7706 1211(63) 1161.3208 1142.8861
480 24.8206 1171(62) 1161.4263 1141.4879
481 24.8706 1176(62) 1161.7280 1140.0898
482 24.9206 1139(61) 1162.2618 1138.6917
483 24.9706 1156(61) 1163.0714 1137.2936
484 25.0206 1094(59) 1164.2115 1135.8954
485 25.0706 1085(59) 1165.7506 1134.4973
486 25.1206 1107(59) 1167.7772 1133.0991
487 25.1706 1147(60) 1170.4183 1131.7010
488 25.2206 1155(60) 1173.8885 1130.3030
489 25.2706 1079(58) 1178.6486 1128.9048
490 25.3206 1163(60) 1185.8066 1127.5066
491 25.3706 1124(59) 1198.0515 1126.1085
492 25.4206 1281(63) 1221.4564 1124.7103
493 25.4706 1286(63) 1268.3885 1123.3123
494 25.5206 1413(66) 1361.4193 1121.9141
495 25.5706 1604(70) 1537.3827 1120.5160
496 25.6206 1846(75) 1850.7662 1119.1178
497 25.6706 2287(84) 2375.1345 1117.7197
498 25.7206 3127(98) 3199.8652 1116.3217
499 25.7706 4428(116) 4417.4224 1114.9235
500 25.8206 6392(140) 6088.9927 1113.5254
501 25.8706 9023(166) 8185.2246 1112.1272
502 25.9206 11928(190) 10512.5430 1110.7290
503 25.9706 14635(211) 12673.9756 1109.3309
504 26.0206 16424(223) 14133.1035 1107.9327
505 26.0706 16949(226) 14404.4395 1106.5347
506 26.1206 15782(218) 13315.8740 1105.1365
507 26.1706 12911(196) 11149.4863 1103.7384
508 26.2206 9573(169) 8499.9785 1102.3403
509 26.2706 6626(140) 5977.8896 1100.9421
510 26.3206 4255(112) 3987.2471 1099.5441
511 26.3706 2726(89) 2650.1968 1098.1459
512 26.4206 1944(75) 1874.2788 1096.7478
513 26.4706 1540(67) 1479.0793 1095.3496
514 26.5206 1327(62) 1297.5000 1093.9514
515 26.5706 1322(62) 1218.1305 1092.5533
516 26.6206 1180(58) 1181.7430 1091.1552
517 26.6706 1130(57) 1162.1300 1089.7571
518 26.7206 1250(60) 1149.2367 1088.3590
519 26.7706 1256(60) 1139.5038 1086.9608
520 26.8206 1295(60) 1131.6318 1085.5627
521 26.8706 1293(60) 1125.0396 1084.1646
522 26.9206 1304(60) 1119.3922 1082.7665
523 26.9706 1258(59) 1114.4653 1081.3683
524 27.0206 1300(60) 1110.0972 1079.9702
525 27.0706 1327(61) 1106.1716 1078.5720
526 27.1206 1269(59) 1102.6025 1077.1738
527 27.1706 1113(55) 1099.3259 1075.7758
528 27.2206 1154(56) 1096.2932 1074.3777
529 27.2706 1082(54) 1093.4655 1072.9795
530 27.3206 1123(55) 1090.8130 1071.5814
531 27.3706 1123(55) 1088.3110 1070.1832
532 27.4206 1133(55) 1085.9398 1068.7852
533 27.4706 1114(55) 1083.6829 1067.3870
534 27.5206 1132(55) 1081.5262 1065.9889
535 27.5706 1137(55) 1079.4587 1064.5907
536 27.6206 1128(55) 1077.4709 1063.1926
537 27.6706 1095(54) 1075.5544 1061.7944
538 27.7206 1132(55) 1073.7030 1060.3964
539 27.7706 1052(53) 1071.9104 1058.9982
540 27.8206 1047(52) 1070.1726 1057.6001
541 27.8706 1101(54) 1068.4852 1056.2019
542 27.9206 1117(54) 1066.8452 1054.8038
543 27.9706 1079(53) 1065.2501 1053.4056
544 28.0206 1061(52) 1063.6980 1052.0076
545 28.0706 1068(52) 1062.1873 1050.6094
546 28.1206 1119(54) 1060.7170 1049.2113
547 28.1706 1140(54) 1059.2866 1047.8131
548 28.2206 1021(51) 1057.8964 1046.4150
549 28.2706 992(50) 1056.5463 1045.0168
550 28.3206 1142(54) 1055.8556 1044.2368
551 28.3706 1202(55) 1055.7427 1043.9918
552 28.4206 1114(53) 1055.6743 1043.7467
553 28.4706 1083(52) 1055.6533 1043.5017
554 28.5206 1083(52) 1055.6826 1043.2567
555 28.5706 1089(52) 1055.7664 1043.0116
556 28.6206 1102(52) 1055.9094 1042.7666
557 28.6706 1063(51) 1056.1176 1042.5215
558 28.7206 1072(51) 1056.3983 1042.2765
559 28.7706 1114(52) 1056.7600 1042.0315
560 28.8206 1144(53) 1057.2128 1041.7864
561 28.8706 1095(52) 1057.7698 1041.5414
562 28.9206 1140(53) 1058.4457 1041.2964
563 28.9706 1054(50) 1059.2593 1041.0513
564 29.0206 1028(50) 1060.2332 1040.8063
565 29.0706 1090(51) 1061.3953 1040.5612
566 29.1206 1190(53) 1062.7803 1040.3162
567 29.1706 1167(53) 1064.4305 1040.0712
568 29.2206 1056(50) 1066.3997 1039.8260
569 29.2706 1058(50) 1068.7551 1039.5811
570 29.3206 1097(51) 1071.5865 1039.3361
571 29.3706 1000(48) 1075.0300 1039.0909
572 29.4206 1013(49) 1079.3434 1038.8459
573 29.4706 1068(50) 1085.1342 1038.6008
574 29.5206 1073(50) 1093.9454 1038.3558
575 29.5706 1156(52) 1109.5876 1038.1108
576 29.6206 1191(52) 1140.6934 1037.8657
577 29.6706 1270(54) 1204.8241 1037.6207
578 29.7206 1499(59) 1333.9714 1037.3757
579 29.7706 1660(62) 1579.9597 1037.1306
580 29.8206 2074(69) 2017.1611 1036.8856
581 29.8706 2748(79) 2737.1987 1036.6405
582 29.9206 3650(91) 3827.4863 1036.3955
583 29.9706 5233(109) 5327.6519 1036.1505
584 30.0206 7096(127) 7164.1938 1035.9054
585 30.0706 9432(146) 9095.3555 1035.6604
586 30.1206 11296(160) 10714.5664 1035.4153
587 30.1706 12261(166) 11558.6016 1035.1703
588 30.2206 11847(163) 11312.9648 1034.9253
589 30.2706 10542(154) 10009.2070 1034.6802
590 30.3206 8136(135) 8031.9355 1034.4352
591 30.3706 5818(114) 5907.7383 1034.1902
592 30.4206 4066(95) 4071.5017 1033.9451
593 30.4706 2587(75) 2738.5066 1033.7001
594 30.5206 1955(65) 1910.2064 1033.4550
595 30.5706 1443(56) 1462.9670 1033.2100
596 30.6206 1302(53) 1249.0295 1032.9650
597 30.6706 1260(52) 1155.0459 1032.7198
598 30.7206 1181(50) 1114.2977 1032.4749
599 30.7706 1095(48) 1094.7922 1032.2299
600 30.8206 1108(49) 1083.4844 1031.9847
601 30.8706 1116(49) 1075.6522 1031.7397
602 30.9206 1118(49) 1069.6439 1031.4946
603 30.9706 952(45) 1064.8087 1031.2496
604 31.0206 1005(46) 1060.8188 1031.0046
605 31.0706 1089(48) 1057.4663 1030.7595
606 31.1206 1061(47) 1054.6057 1030.5145
607 31.1706 1076(47) 1052.1324 1030.2695
608 31.2206 1000(45) 1049.9683 1030.0244
609 31.2706 1000(45) 1048.0562 1029.7794
610 31.3206 1028(46) 1046.3517 1029.5343
611 31.3706 1060(47) 1044.8210 1029.2893
612 31.4206 1028(46) 1043.4371 1029.0443
613 31.4706 1058(46) 1042.1779 1028.7992
614 31.5206 1060(46) 1041.0260 1028.5542
615 31.5706 1024(45) 1039.9664 1028.3092
616 31.6206 1014(45) 1038.9868 1028.0641
617 31.6706 1006(45) 1038.0774 1027.8191
618 31.7206 1033(45) 1037.2290 1027.5740
619 31.7706 1024(45) 1036.4346 1027.3290
620 31.8206 1033(45) 1035.6879 1027.0840
621 31.8706 958(43) 1034.9830 1026.8389
622 31.9206 1032(45) 1034.3159 1026.5939
623 31.9706 1039(45) 1033.6823 1026.3489
624 32.0206 1042(45) 1033.0786 1026.1038
625 32.0706 995(44) 1032.5018 1025.8588
626 32.1206 1040(45) 1031.9493 1025.6136
627 32.1706 1054(45) 1031.4188 1025.3687
628 32.2206 1038(45) 1030.9082 1025.1237
629 32.2706 1064(45) 1036.0936 1024.8785
630 32.3206 1014(44) 1035.7070 1024.6335
631 32.3706 1036(45) 1035.3374 1024.3885
632 32.4206 1097(46) 1034.9836 1024.1434
633 32.4706 1070(45) 1034.6448 1023.8984
634 32.5206 1132(46) 1034.3196 1023.6534
635 32.5706 1069(45) 1034.1635 1023.5643
636 32.6206 983(43) 1034.4412 1023.8968
637 32.6706 1079(45) 1034.7303 1024.2292
638 32.7206 1016(44) 1035.0305 1024.5618
639 32.7706 1049(44) 1035.3412 1024.8943
640 32.8206 1031(44) 1035.0549 1025.2268
641 32.8706 1021(43) 1035.3939 1025.5593
642 32.9206 977(42) 1035.7419 1025.8918
643 32.9706 1016(43) 1036.0988 1026.2244
644 33.0206 1078(44) 1036.4639 1026.5569
645 33.0706 1057(44) 1036.8373 1026.8894
646 33.1206 1019(43) 1037.2188 1027.2219
647 33.1706 1007(43) 1037.6079 1027.5544
648 33.2206 1046(43) 1038.0049 1027.8870
649 33.2706 1016(43) 1038.4094 1028.2195
650 33.3206 1023(43) 1038.8214 1028.5520
651 33.3706 1012(43) 1039.2408 1028.8845
652 33.4206 1065(44) 1039.6678 1029.2170
653 33.4706 1124(45) 1040.1019 1029.5494
654 33.5206 1082(44) 1040.5437 1029.8820
655 33.5706 1032(43) 1040.9929 1030.2145
656 33.6206 1075(44) 1041.4496 1030.5470
657 33.6706 1004(42) 1041.9138 1030.8795
658 33.7206 1017(42) 1042.3856 1031.2120
659 33.7706 1020(42) 1042.8652 1031.5446
660 33.8206 1113(44) 1043.3528 1031.8771
661 33.8706 1145(45) 1043.8484 1032.2096
662 33.9206 1163(45) 1044.3522 1032.5421
663 33.9706 1193(45) 1044.8644 1032.8746
664 34.0206 1214(46) 1045.3851 1033.2072
665 34.0706 1203(45) 1045.9148 1033.5397
666 34.1206 1168(45) 1046.4536 1033.8722
667 34.1706 1196(45) 1047.0017 1034.2047
668 34.2206 1161(44) 1047.5594 1034.5372
669 34.2706 1086(43) 1048.1272 1034.8698
670 34.3206 1041(42) 1048.7054 1035.2023
671 34.3706 1038(42) 1049.2942 1035.5348
672 34.4206 959(40) 1049.8940 1035.8672
673 34.4706 1035(41) 1050.5056 1036.1997
674 34.5206 1040(42) 1051.1290 1036.5322
675 34.5706 1014(41) 1051.7651 1036.8647
676 34.6206 991(40) 1052.4142 1037.1973
677 34.6706 1025(41) 1053.0770 1037.5298
678 34.7206 1118(43) 1053.7539 1037.8623
679 34.7706 1083(42) 1054.4458 1038.1948
680 34.8206 1135(43) 1055.1532 1038.5273
681 34.8706 1138(43) 1055.8771 1038.8599
682 34.9206 1072(42) 1056.6180 1039.1924
683 34.9706 1129(43) 1057.3771 1039.5249
684 35.0206 1155(43) 1058.1550 1039.8574
685 35.0706 1161(43) 1058.9530 1040.1899
686 35.1206 1089(42) 1059.7720 1040.5225
687 35.1706 1190(44) 1060.6132 1040.8550
688 35.2206 1042(41) 1061.4775 1041.1875
689 35.2706 1109(42) 1062.3667 1041.5199
690 35.3206 1087(41) 1063.2823 1041.8525
691 35.3706 1069(41) 1064.2255 1042.1851
692 35.4206 985(39) 1065.1979 1042.5175
693 35.4706 1030(40) 1066.2015 1042.8500
694 35.5206 1150(42) 1067.2383 1043.1825
695 35.5706 1089(41) 1068.3102 1043.5150
696 35.6206 1081(41) 1069.4197 1043.8475
697 35.6706 1037(40) 1070.5691 1044.1801
698 35.7206 1104(41) 1071.7610 1044.5126
699 35.7706 1085(41) 1072.9983 1044.8451
700 35.8206 1139(42) 1074.2844 1045.1776
701 35.8706 1128(41) 1075.6226 1045.5101
702 35.9206 1151(42) 1077.0167 1045.8427
703 35.9706 1095(41) 1078.4705 1046.1752
704 36.0206 1095(41) 1079.8529 1046.3718
705 36.0706 1120(41) 1081.2780 1046.5415
706 36.1206 1046(40) 1082.7775 1046.7111
707 36.1706 1108(41) 1084.3580 1046.8807
708 36.2206 1065(40) 1086.0256 1047.0504
709 36.2706 1085(40) 1087.7876 1047.2201
710 36.3206 1139(41) 1089.6523 1047.3896
711 36.3706 1026(39) 1091.6285 1047.5593
712 36.4206 1019(39) 1093.7261 1047.7290
713 36.4706 1075(40) 1095.9554 1047.8986
714 36.5206 1085(40) 1098.3295 1048.0682
715 36.5706 1089(40) 1100.8619 1048.2379
716 36.6206 1095(40) 1103.5681 1048.4076
717 36.6706 1025(38) 1106.4651 1048.5771
718 36.7206 1071(39) 1109.6018 1048.7468
719 36.7706 1093(40) 1112.9418 1048.9165
720 36.8206 1053(39) 1116.5398 1049.0861
721 36.8706 1083(39) 1120.4240 1049.2557
722 36.9206 1037(38) 1124.1561 1049.4254
723 36.9706 1156(40) 1128.7211 1049.5951
724 37.0206 1060(39) 1133.6844 1049.7646
725 37.0706 1081(39) 1139.0970 1049.9343
726 37.1206 1044(38) 1145.0155 1050.1040
727 37.1706 1113(39) 1151.5066 1050.2736
728 37.2206 1008(37) 1158.6482 1050.4432
729 37.2706 1078(39) 1166.5332 1050.6129
730 37.3206 1089(39) 1175.2725 1050.7826
731 37.3706 1137(40) 1184.9944 1050.9521
732 37.4206 1169(40) 1195.8553 1051.1218
733 37.4706 1199(41) 1208.0411 1051.2915
734 37.5206 1199(40) 1221.7821 1051.4611
735 37.5706 1193(40) 1237.3628 1051.6307
736 37.6206 1254(41) 1255.1339 1051.8004
737 37.6706 1250(41) 1275.5455 1051.9701
738 37.7206 1240(41) 1299.1830 1052.1396
739 37.7706 1302(42) 1326.8427 1052.3093
740 37.8206 1317(42) 1359.6295 1052.4790
741 37.8706 1264(41) 1399.1025 1052.6486
742 37.9206 1287(41) 1447.5295 1052.8182
743 37.9706 1267(41) 1508.3097 1052.9879
744 38.0206 1329(42) 1587.0300 1053.1575
745 38.0706 1550(45) 1694.4282 1053.3271
746 38.1206 1892(50) 1854.8551 1053.4968
747 38.1706 2475(57) 2127.7197 1053.6665
748 38.2206 3514(68) 2650.8589 1053.8361
749 38.2706 5081(82) 3703.6450 1054.0057
750 38.3206 7514(99) 5747.4561 1054.1754
751 38.3706 11328(122) 9351.3184 1054.3451
752 38.4206 16507(147) 14949.4561 1054.5146
753 38.4706 23373(175) 22574.7070 1054.6843
754 38.5206 32633(207) 31886.3750 1054.8540
755 38.5706 43536(238) 42453.7656 1055.0236
756 38.6206 54540(266) 53583.1445 1055.1932
757 38.6706 61079(281) 63279.1367 1055.3629
758 38.7206 61956(283) 67791.4375 1055.5325
759 38.7706 57323(272) 63895.6250 1055.7021
760 38.8206 47917(248) 52136.0742 1055.8718
761 38.8706 36321(215) 36761.6328 1056.0415
762 38.9206 24597(177) 22664.6055 1056.2111
763 38.9706 15606(141) 12618.7480 1056.3807
764 39.0206 9258(108) 6766.1577 1056.5504
765 39.0706 5309(82) 3856.7444 1056.7200
766 39.1206 3192(63) 2559.6572 1056.8896
767 39.1706 2294(53) 2006.0020 1057.0593
768 39.2206 1850(48) 1759.7988 1057.2290
769 39.2706 1689(46) 1634.4500 1057.3986
770 39.3206 1648(45) 1556.9243 1057.5682
771 39.3706 1561(44) 1499.7699 1057.7379
772 39.4206 1538(43) 1452.7761 1057.9075
773 39.4706 1418(41) 1412.1470 1058.0771
774 39.5206 1355(40) 1376.4166 1058.2468
775 39.5706 1349(40) 1344.9332 1058.4165
776 39.6206 1349(40) 1317.2837 1058.5861
777 39.6706 1213(38) 1293.0809 1058.7557
778 39.7206 1101(36) 1271.9303 1058.9254
779 39.7706 1133(37) 1253.4333 1059.0950
780 39.8206 1140(37) 1237.2188 1059.2646
781 39.8706 1102(36) 1222.9595 1059.4343
782 39.9206 1185(37) 1210.3702 1059.6040
783 39.9706 1173(37) 1199.2112 1059.7736
784 40.0206 1148(37) 1189.2783 1059.9432
785 40.0706 1116(36) 1180.4010 1060.1129
786 40.1206 1161(37) 1172.4392 1060.2825
787 40.1706 1147(36) 1165.2742 1060.4521
788 40.2206 1194(37) 1158.8065 1060.6218
789 40.2706 1164(36) 1152.9501 1060.7915
790 40.3206 1108(36) 1147.6312 1060.9611
791 40.3706 1186(37) 1142.7893 1061.1307
792 40.4206 1155(36) 1138.3707 1061.3004
793 40.4706 1164(36) 1134.3298 1061.4700
794 40.5206 1138(36) 1130.6261 1061.6396
795 40.5706 1140(36) 1127.2241 1061.8093
796 40.6206 1099(35) 1124.0940 1061.9790
797 40.6706 1149(36) 1121.2089 1062.1486
798 40.7206 1094(35) 1118.5459 1062.3182
799 40.7706 1039(34) 1116.0837 1062.4879
800 40.8206 1109(35) 1113.8037 1062.6575
801 40.8706 1118(35) 1111.6901 1062.8271
802 40.9206 1095(35) 1109.7281 1062.9968
803 40.9706 1094(35) 1107.9053 1063.1664
804 41.0206 1067(34) 1106.2097 1063.3361
805 41.0706 1113(35) 1104.6307 1063.5057
806 41.1206 1114(35) 1103.1594 1063.6754
807 41.1706 1147(35) 1101.7872 1063.8450
808 41.2206 1086(34) 1100.5071 1064.0146
809 41.2706 1137(35) 1098.9565 1063.8290
810 41.3206 1157(35) 1096.8895 1063.0485
811 41.3706 1022(33) 1094.8960 1062.2681
812 41.4206 1163(35) 1092.9705 1061.4875
813 41.4706 1094(34) 1091.1089 1060.7072
814 41.5206 1068(34) 1089.3068 1059.9268
815 41.5706 1105(34) 1087.5603 1059.1462
816 41.6206 1125(34) 1085.8663 1058.3658
817 41.6706 1084(34) 1084.2218 1057.5853
818 41.7206 1086(34) 1082.6244 1056.8049
819 41.7706 1075(33) 1081.0713 1056.0245
820 41.8206 1026(33) 1079.5604 1055.2440
821 41.8706 1056(33) 1078.0901 1054.4635
822 41.9206 1052(33) 1076.6589 1053.6831
823 41.9706 1079(33) 1075.2657 1052.9027
824 42.0206 1085(33) 1073.9095 1052.1222
825 42.0706 1027(32) 1072.5898 1051.3418
826 42.1206 1023(32) 1071.3065 1050.5613
827 42.1706 1006(32) 1070.0599 1049.7809
828 42.2206 1045(32) 1068.8512 1049.0005
829 42.2706 1042(32) 1067.6814 1048.2200
830 42.3206 1050(32) 1066.5531 1047.4395
831 42.3706 1052(32) 1065.4697 1046.6591
832 42.4206 996(31) 1064.4355 1045.8787
833 42.4706 993(31) 1063.4574 1045.0981
834 42.5206 1011(32) 1062.5463 1044.3177
835 42.5706 1017(32) 1061.7258 1043.5372
836 42.6206 1095(33) 1061.0610 1042.7568
837 42.6706 1068(32) 1060.7355 1041.9764
838 42.7206 1053(32) 1061.2455 1041.1959
839 42.7706 965(31) 1063.7932 1040.4155
840 42.8206 1061(32) 1070.9231 1039.6350
841 42.8706 1090(33) 1087.2446 1038.8546
842 42.9206 1121(33) 1119.7047 1038.0741
843 42.9706 1171(34) 1176.4430 1037.2937
844 43.0206 1287(35) 1263.3357 1036.5133
845 43.0706 1457(38) 1378.3427 1035.7328
846 43.1206 1584(39) 1506.1140 1034.9524
847 43.1706 1750(41) 1617.6938 1034.1719
848 43.2206 1895(43) 1678.9534 1033.3915
849 43.2706 1788(42) 1666.7942 1032.6110
850 43.3206 1666(40) 1583.9580 1031.8306
851 43.3706 1553(39) 1458.0559 1031.0500
852 43.4206 1385(37) 1324.9731 1030.2697
853 43.4706 1280(35) 1212.5825 1029.4893
854 43.5206 1161(34) 1133.1553 1028.7087
855 43.5706 1075(32) 1085.0596 1027.9282
856 43.6206 1021(31) 1059.5497 1027.1478
857 43.6706 1026(32) 1047.2500 1026.3674
858 43.7206 1010(31) 1041.4451 1025.5869
859 43.7706 977(31) 1038.4064 1024.8065
860 43.8206 991(31) 1036.4376 1024.0260
861 43.8706 1007(31) 1034.8807 1023.2456
862 43.9206 971(31) 1033.5054 1022.4651
863 43.9706 1004(31) 1032.2322 1021.6848
864 44.0206 969(31) 1031.0283 1020.9043
865 44.0706 959(30) 1029.8766 1020.1238
866 44.1206 1020(31) 1028.7657 1019.3434
867 44.1706 1040(32) 1027.6869 1018.5625
868 44.2206 1004(31) 1026.6237 1017.7706
869 44.2706 1022(31) 1025.5825 1016.9787
870 44.3206 1006(31) 1024.5598 1016.1867
871 44.3706 950(30) 1023.5530 1015.3948
872 44.4206 960(30) 1022.5601 1014.6028
873 44.4706 1012(31) 1021.5791 1013.8109
874 44.5206 983(31) 1020.6088 1013.0190
875 44.5706 970(31) 1019.6478 1012.2271
876 44.6206 943(30) 1018.6954 1011.4351
877 44.6706 956(30) 1017.7505 1010.6432
878 44.7206 1030(32) 1016.8125 1009.8513
879 44.7706 1051(32) 1016.2952 1009.0593
880 44.8206 1021(31) 1015.3757 1008.2673
881 44.8706 1018(31) 1014.4617 1007.4754
882 44.9206 1019(31) 1013.5528 1006.6835
883 44.9706 1002(31) 1012.6486 1005.8916
884 45.0206 949(30) 1011.7488 1005.0997
885 45.0706 932(30) 1010.8530 1004.3077
886 45.1206 973(31) 1009.9612 1003.5157
887 45.1706 984(31) 1009.0729 1002.7238
888 45.2206 1030(32) 1002.7235 1001.9319
889 45.2706 1078(32) 1001.9247 1001.1400
890 45.3206 1016(31) 1001.1271 1000.3480
891 45.3706 998(31) 1000.3307 999.5561
892 45.4206 976(31) 999.5354 998.7642
893 45.4706 1021(31) 998.7411 997.9722
894 45.5206 1053(32) 997.9478 997.1803
895 45.5706 1054(32) 997.1553 996.3883
896 45.6206 1067(32) 996.3638 995.5964
897 45.6706 1005(31) 995.5731 994.8044
898 45.7206 1024(32) 994.7833 994.0126
899 45.7706 1093(33) 993.9941 993.2206
900 45.8206 1024(32) 993.2057 992.4286
901 45.8706 967(31) 992.4180 991.6367
902 45.9206 1006(31) 991.6310 990.8448
903 45.9706 1023(31) 990.8447 990.0529
904 46.0206 1001(31) 990.0591 989.2609
905 46.0706 959(30) 989.2740 988.4689
906 46.1206 942(30) 988.4898 987.6771
907 46.1706 972(31) 987.7061 986.8851
908 46.2206 924(30) 986.9231 986.0932
909 46.2706 932(30) 986.1407 985.3013
910 46.3206 1003(31) 985.3590 984.5093
911 46.3706 949(30) 984.5779 983.7173
912 46.4206 965(31) 983.7975 982.9254
913 46.4706 971(31) 983.0179 982.1335
914 46.5206 938(30) 982.2388 981.3416
915 46.5706 986(31) 981.4604 980.5496
916 46.6206 968(31) 980.6828 979.7577
917 46.6706 941(30) 979.9059 978.9658
918 46.7206 958(30) 979.1297 978.1738
919 46.7706 1029(32) 978.3543 977.3819
920 46.8206 1005(31) 977.5796 976.5899
921 46.8706 949(30) 976.8058 975.7980
922 46.9206 981(31) 976.0329 975.0061
923 46.9706 989(31) 975.2607 974.2142
924 47.0206 971(31) 974.4896 973.4222
925 47.0706 934(30) 973.7192 972.6302
926 47.1206 970(31) 972.9499 971.8383
927 47.1706 975(31) 972.1816 971.0464
928 47.2206 995(31) 971.6095 970.2545
929 47.2706 1009(31) 970.8464 969.4626
930 47.3206 1023(31) 970.0845 968.6706
931 47.3706 985(31) 969.3239 967.8787
932 47.4206 1006(31) 968.5646 967.0867
933 47.4706 929(30) 967.8068 966.2948
934 47.5206 1003(31) 967.0504 965.5029
935 47.5706 1007(31) 966.2955 964.7109
936 47.6206 988(31) 965.5422 963.9189
937 47.6706 948(30) 964.7908 963.1271
938 47.7206 971(31) 964.0410 962.3351
939 47.7706 961(31) 963.2932 961.5432
940 47.8206 963(31) 962.5473 960.7512
941 47.8706 950(30) 961.8036 959.9593
942 47.9206 991(31) 961.0621 959.1674
943 47.9706 947(30) 960.3229 958.3754
944 48.0206 919(30) 959.5864 957.5836
945 48.0706 963(31) 958.8524 956.7916
946 48.1206 967(31) 958.1213 955.9996
947 48.1706 899(29) 958.0645 955.8791
948 48.2206 915(30) 959.1156 956.8632
949 48.2706 974(31) 960.1702 957.8472
950 48.3206 944(30) 961.2284 958.8314
951 48.3706 952(30) 962.2905 959.8154
952 48.4206 983(31) 963.3567 960.7995
953 48.4706 1020(31) 964.4274 961.7836
954 48.5206 977(31) 965.5029 962.7676
955 48.5706 977(31) 966.5837 963.7518
956 48.6206 982(31) 967.6699 964.7358
957 48.6706 1010(31) 968.7621 965.7199
958 48.7206 1004(31) 969.8609 966.7040
959 48.7706 987(31) 970.9666 967.6880
960 48.8206 946(30) 972.0798 968.6722
961 48.8706 983(31) 973.2013 969.6562
962 48.9206 972(31) 974.3317 970.6403
963 48.9706 998(31) 975.4718 971.6244
964 49.0206 957(30) 976.6224 972.6084
965 49.0706 987(31) 977.7848 973.5926
966 49.1206 1005(31) 978.9597 974.5767
967 49.1706 1029(32) 980.1485 975.5607
968 49.2206 975(31) 981.3527 976.5447
969 49.2706 970(31) 982.5737 977.5288
970 49.3206 988(31) 983.8135 978.5129
971 49.3706 990(31) 985.0740 979.4970
972 49.4206 971(31) 986.3574 980.4811
973 49.4706 1041(32) 987.6666 981.4651
974 49.5206 1084(32) 989.0043 982.4492
975 49.5706 1083(32) 990.3745 983.4333
976 49.6206 1053(32) 991.7808 984.4174
977 49.6706 1008(31) 993.2280 985.4015
978 49.7206 970(31) 997.4301 986.3856
979 49.7706 997(31) 999.0211 987.3696
980 49.8206 955(30) 1000.6740 988.3538
981 49.8706 1001(31) 1002.3693 989.3378
982 49.9206 1024(32) 1004.1750 990.3219
983 49.9706 1026(32) 1006.0756 991.3060
984 50.0206 1012(31) 1008.0864 992.2900
985 50.0706 1036(32) 1010.2271 993.2742
986 50.1206 1041(32) 1012.5207 994.2582
987 50.1706 1012(31) 1014.9967 995.2423
988 50.2206 987(31) 1017.6907 996.2264
989 50.2706 1060(32) 1020.6472 997.2104
990 50.3206 1047(32) 1023.9229 998.1946
991 50.3706 1011(31) 1027.5872 999.1786
992 50.4206 1046(32) 1031.7316 1000.1627
993 50.4706 1053(32) 1036.4801 1001.1468
994 50.5206 1035(32) 1042.0353 1002.1309
995 50.5706 998(31) 1048.8453 1003.1150
996 50.6206 992(31) 1058.1476 1004.0991
997 50.6706 1026(32) 1073.5806 1005.0831
998 50.7206 1082(32) 1105.1093 1006.0671
999 50.7706 1228(35) 1176.8269 1007.0512
1000 50.8206 1372(37) 1338.7405 1008.0354
1001 50.8706 1739(41) 1677.2737 1009.0194
1002 50.9206 2320(48) 2311.7432 1010.0035
1003 50.9706 3280(57) 3357.3923 1010.9875
1004 51.0206 4559(67) 4847.3794 1011.9716
1005 51.0706 6231(78) 6639.5127 1012.9557
1006 51.1206 7889(88) 8369.9922 1013.9398
1007 51.1706 9150(95) 9534.2520 1014.9239
1008 51.2206 9399(96) 9707.8691 1015.9080
1009 51.2706 8602(92) 8812.1904 1016.8920
1010 51.3206 6976(83) 7176.1001 1017.8762
1011 51.3706 5230(72) 5318.8506 1018.8602
1012 51.4206 3690(60) 3683.9500 1019.8443
1013 51.4706 2392(48) 2498.0688 1020.8284
1014 51.5206 1693(41) 1770.4548 1021.8124
1015 51.5706 1340(36) 1385.9844 1022.7966
1016 51.6206 1215(34) 1207.5178 1023.7806
1017 51.6706 1131(33) 1132.0112 1024.7646
1018 51.7206 1134(33) 1100.7667 1025.7488
1019 51.7706 1111(33) 1086.5988 1026.7328
1020 51.8206 1088(32) 1078.8591 1027.7169
1021 51.8706 1086(32) 1073.8464 1028.7010
1022 51.9206 1131(33) 1070.2992 1029.6851
1023 51.9706 1166(34) 1067.7253 1030.6692
1024 52.0206 1141(33) 1065.8715 1031.6532
1025 52.0706 1156(34) 1064.5742 1032.6373
1026 52.1206 1121(33) 1063.7203 1033.6215
1027 52.1706 1070(32) 1063.2263 1034.6055
1028 52.2206 1042(32) 1063.0321 1035.5896
1029 52.2706 1080(32) 1063.0928 1036.5736
1030 52.3206 1091(33) 1063.3751 1037.5577
1031 52.3706 1053(32) 1063.8551 1038.5419
1032 52.4206 1011(31) 1064.5151 1039.5259
1033 52.4706 1071(32) 1065.3441 1040.5100
1034 52.5206 1114(33) 1066.3357 1041.4940
1035 52.5706 1043(32) 1067.4882 1042.4781
1036 52.6206 1057(32) 1068.8048 1043.4623
1037 52.6706 1057(32) 1070.2936 1044.4463
1038 52.7206 1090(33) 1071.9683 1045.4304
1039 52.7706 1032(32) 1073.8486 1046.4144
1040 52.8206 1089(33) 1075.1062 1046.5422
1041 52.8706 1103(33) 1074.1716 1044.2073
1042 52.9206 1105(33) 1073.5599 1041.8723
1043 52.9706 1038(32) 1073.3533 1039.5375
1044 53.0206 1098(33) 1073.7202 1037.2025
1045 53.0706 1115(33) 1075.1145 1034.8674
1046 53.1206 1159(34) 1078.8804 1032.5326
1047 53.1706 1135(33) 1088.8335 1030.1976
1048 53.2206 1178(34) 1114.5991 1027.8628
1049 53.2706 1283(35) 1177.0457 1025.5278
1050 53.3206 1355(36) 1314.1011 1023.1927
1051 53.3706 1581(39) 1580.9788 1020.8578
1052 53.4206 2043(45) 2036.1316 1018.5229
1053 53.4706 2634(51) 2706.2124 1016.1880
1054 53.5206 3431(58) 3539.5999 1013.8531
1055 53.5706 4255(65) 4378.4121 1011.5180
1056 53.6206 4856(69) 4984.5576 1009.1831
1057 53.6706 4991(70) 5139.5815 1006.8482
1058 53.7206 4773(69) 4776.9395 1004.5133
1059 53.7706 4043(63) 4032.9194 1002.1784
1060 53.8206 3154(56) 3152.1245 999.8433
1061 53.8706 2405(49) 2356.6802 997.5084
1062 53.9206 1770(42) 1767.9376 995.1735
1063 53.9706 1450(38) 1400.3977 992.8386
1064 54.0206 1187(34) 1203.1143 990.5037
1065 54.0706 1137(33) 1109.9656 988.1686
1066 54.1206 1078(32) 1069.7419 985.8337
1067 54.1706 1030(32) 1052.5828 983.4988
1068 54.2206 1069(32) 1044.4744 981.1639
1069 54.2706 1063(32) 1039.8806 978.8289
1070 54.3206 1103(33) 1036.8813 976.4938
1071 54.3706 1111(33) 1034.8489 974.1589
1072 54.4206 1101(33) 1033.5630 971.8240
1073 54.4706 1108(33) 1032.9357 969.4891
1074 54.5206 1112(33) 1032.9314 967.1542
1075 54.5706 1151(33) 1033.5463 964.8192
1076 54.6206 1132(33) 1034.8032 962.4843
1077 54.6706 1111(33) 1037.6190 961.0198
1078 54.7206 1067(32) 1044.0129 962.3738
1079 54.7706 1104(33) 1051.2626 963.7278
1080 54.8206 1051(32) 1059.4956 965.0820
1081 54.8706 1065(32) 1068.8774 966.4360
1082 54.9206 1138(33) 1079.6272 967.7900
1083 54.9706 1141(33) 1092.0367 969.1440
1084 55.0206 1146(33) 1106.4977 970.4980
1085 55.0706 1105(33) 1123.5535 971.8522
1086 55.1206 1069(32) 1143.9651 973.2062
1087 55.1706 1141(33) 1168.8174 974.5602
1088 55.2206 1225(35) 1199.6719 975.9142
1089 55.2706 1211(34) 1238.9303 977.2682
1090 55.3206 1147(33) 1291.1410 978.6223
1091 55.3706 1259(35) 1367.6198 979.9763
1092 55.4206 1386(37) 1500.5945 981.3303
1093 55.4706 1663(40) 1776.8923 982.6843
1094 55.5206 2327(48) 2394.5688 984.0383
1095 55.5706 3608(60) 3711.9180 985.3925
1096 55.6206 6044(77) 6208.8818 986.7465
1097 55.6706 9843(99) 10306.4072 988.1005
1098 55.7206 15486(124) 16131.8301 989.4545
1099 55.7706 22954(151) 23378.5820 990.8085
1100 55.8206 30433(174) 31168.3672 992.1627
1101 55.8706 36559(191) 37727.5391 993.5167
1102 55.9206 38754(196) 40504.1875 994.8707
1103 55.9706 36152(190) 37739.4414 996.2247
1104 56.0206 30727(175) 30234.5488 997.5787
1105 56.0706 22751(150) 20883.1445 998.9328
1106 56.1206 14669(121) 12650.9385 1000.2868
1107 56.1706 8308(91) 7012.9512 1001.6408
1108 56.2206 4634(68) 3860.5276 1002.9949
1109 56.2706 2575(50) 2360.7019 1004.3489
1110 56.3206 1675(40) 1722.6667 1005.7030
1111 56.3706 1325(36) 1462.3724 1007.0570
1112 56.4206 1195(34) 1349.3444 1008.4110
1113 56.4706 1179(34) 1290.7247 1009.7650
1114 56.5206 1174(34) 1252.9099 1011.1190
1115 56.5706 1170(34) 1224.3866 1012.4731
1116 56.6206 1202(34) 1201.1412 1013.8271
1117 56.6706 1160(34) 1181.6058 1015.1812
1118 56.7206 1114(33) 1165.0266 1016.5352
1119 56.7706 1093(33) 1150.9370 1017.8892
1120 56.8206 1149(33) 1138.9724 1019.2433
1121 56.8706 1105(33) 1128.8204 1020.5973
1122 56.9206 1120(33) 1120.2031 1021.9514
1123 56.9706 1137(33) 1112.8799 1023.3054
1124 57.0206 1118(33) 1106.6486 1024.6593
1125 57.0706 1145(33) 1101.3392 1026.0134
1126 57.1206 1123(33) 1096.8116 1027.3674
1127 57.1706 1104(33) 1092.9485 1028.7214
1128 57.2206 1069(32) 1089.6533 1030.0756
1129 57.2706 1142(33) 1086.8473 1031.4296
1130 57.3206 1148(33) 1083.7288 1032.0480
1131 57.3706 1066(32) 1080.0031 1031.6912
1132 57.4206 1097(33) 1076.5983 1031.3344
1133 57.4706 1115(33) 1073.4746 1030.9775
1134 57.5206 1186(34) 1070.5988 1030.6207
1135 57.5706 1151(33) 1067.9419 1030.2638
1136 57.6206 1102(33) 1065.4799 1029.9070
1137 57.6706 1042(32) 1063.1909 1029.5502
1138 57.7206 1096(33) 1060.6545 1029.1934
1139 57.7706 1072(32) 1058.6646 1028.8365
1140 57.8206 1051(32) 1056.7988 1028.4797
1141 57.8706 1036(32) 1055.0454 1028.1229
1142 57.9206 1077(32) 1053.3932 1027.7661
1143 57.9706 1062(32) 1051.8324 1027.4093
1144 58.0206 993(31) 1050.3549 1027.0525
1145 58.0706 1012(31) 1048.9529 1026.6956
1146 58.1206 1012(31) 1047.6202 1026.3387
1147 58.1706 1068(32) 1046.3507 1025.9819
1148 58.2206 1061(32) 1045.1388 1025.6251
1149 58.2706 997(31) 1043.9799 1025.2683
1150 58.3206 1035(32) 1042.8696 1024.9115
1151 58.3706 1054(32) 1041.8043 1024.5546
1152 58.4206 1069(32) 1040.7804 1024.1978
1153 58.4706 991(31) 1039.7947 1023.8410
1154 58.5206 989(31) 1038.8441 1023.4842
1155 58.5706 1022(31) 1037.9264 1023.1273
1156 58.6206 1016(31) 1037.0391 1022.7705
1157 58.6706 1045(32) 1036.1801 1022.4137
1158 58.7206 1067(32) 1035.3472 1022.0568
1159 58.7706 1058(32) 1034.5387 1021.7000
1160 58.8206 1026(32) 1033.7532 1021.3432
1161 58.8706 1034(32) 1032.9889 1020.9863
1162 58.9206 1049(32) 1032.2445 1020.6295
1163 58.9706 1056(32) 1031.5188 1020.2727
1164 59.0206 1105(33) 1030.8105 1019.9159
1165 59.0706 1056(32) 1030.1187 1019.5590
1166 59.1206 1049(32) 1029.4423 1019.2022
1167 59.1706 1039(32) 1028.7804 1018.8454
1168 59.2206 1048(32) 1028.1320 1018.4886
1169 59.2706 1017(31) 1027.4965 1018.1318
1170 59.3206 993(31) 1026.8729 1017.7749
1171 59.3706 1041(32) 1026.2610 1017.4181
1172 59.4206 1070(32) 1025.6597 1017.0613
1173 59.4706 1112(33) 1025.0686 1016.7045
1174 59.5206 1134(33) 1024.4871 1016.3477
1175 59.5706 1059(32) 1023.9147 1015.9908
1176 59.6206 1078(32) 1023.3510 1015.6340
1177 59.6706 1038(32) 1022.7955 1015.2772
1178 59.7206 1024(32) 1022.2477 1014.9203
1179 59.7706 1054(32) 1021.7073 1014.5635
1180 59.8206 1004(31) 1021.1740 1014.2067
1181 59.8706 1083(32) 1020.6473 1013.8499
1182 59.9206 1023(31) 1020.1270 1013.4930
1183 59.9706 1026(32) 1019.6127 1013.1362
1184 60.0206 1045(32) 1019.1042 1012.7794
1185 60.0706 1026(32) 1018.6013 1012.4225
1186 60.1206 1004(31) 1018.1036 1012.0657
1187 60.1706 1034(32) 1017.4208 1011.7089
1188 60.2206 999(31) 1016.9359 1011.3521
1189 60.2706 1027(32) 1016.4555 1010.9952
1190 60.3206 980(31) 1015.9794 1010.6384
1191 60.3706 992(31) 1015.5075 1010.2816
1192 60.4206 993(31) 1015.0396 1009.9247
1193 60.4706 988(31) 1014.5756 1009.5679
1194 60.5206 975(31) 1014.1152 1009.2111
1195 60.5706 1019(31) 1013.6585 1008.8542
1196 60.6206 999(31) 1013.2053 1008.4974
1197 60.6706 1035(32) 1012.7554 1008.1406
1198 60.7206 1004(31) 1012.3086 1007.7838
1199 60.7706 1011(31) 1011.8650 1007.4269
1200 60.8206 1038(32) 1011.4244 1007.0701
1201 60.8706 1071(32) 1010.9868 1006.7133
1202 60.9206 1106(33) 1010.5521 1006.3564
1203 60.9706 1038(32) 1010.1203 1005.9996
1204 61.0206 1051(32) 1009.6912 1005.6428
1205 61.0706 1044(32) 1009.2648 1005.2859
1206 61.1206 982(31) 1008.8412 1004.9291
1207 61.1706 1017(31) 1008.4203 1004.5723
1208 61.2206 998(31) 1008.0020 1004.2155
1209 61.2706 990(31) 1007.5865 1003.8587
1210 61.3206 953(30) 1007.1737 1003.5018
1211 61.3706 990(31) 1006.7637 1003.1450
1212 61.4206 1089(33) 1006.3566 1002.7882
1213 61.4706 989(31) 1005.9525 1002.4314
1214 61.5206 999(31) 1005.5516 1002.0746
1215 61.5706 990(31) 1005.1538 1001.7177
1216 61.6206 1009(31) 1004.7597 1001.3609
1217 61.6706 1005(31) 1004.3694 1001.0041
1218 61.7206 967(31) 1003.9833 1000.6472
1219 61.7706 1006(31) 1003.6021 1000.2904
1220 61.8206 1009(31) 1003.2260 999.9336
1221 61.8706 1022(31) 1002.8561 999.5768
1222 61.9206 987(31) 1002.4933 999.2199
1223 61.9706 937(30) 1002.2206 998.9449
1224 62.0206 979(31) 1002.1382 998.8503
1225 62.0706 954(30) 1002.0679 998.7558
1226 62.1206 1000(31) 1002.0124 998.6612
1227 62.1706 954(30) 999.3482 998.5667
1228 62.2206 941(30) 999.3829 998.4720
1229 62.2706 932(30) 999.4739 998.3775
1230 62.3206 944(30) 999.7061 998.2830
1231 62.3706 966(31) 1000.3192 998.1884
1232 62.4206 981(31) 1001.9077 998.0938
1233 62.4706 973(31) 1005.7144 997.9992
1234 62.5206 947(30) 1013.8643 997.9047
1235 62.5706 987(31) 1029.1405 997.8101
1236 62.6206 1084(32) 1053.8464 997.7155
1237 62.6706 1117(33) 1087.7148 997.6210
1238 62.7206 1223(34) 1125.8888 997.5264
1239 62.7706 1222(34) 1158.7236 997.4318
1240 62.8206 1172(34) 1174.9066 997.3372
1241 62.8706 1277(35) 1167.7441 997.2427
1242 62.9206 1210(34) 1140.3118 997.1481
1243 62.9706 1160(34) 1102.4084 997.0535
1244 63.0206 1067(32) 1065.2922 996.9590
1245 63.0706 972(31) 1036.2091 996.8644
1246 63.1206 977(31) 1017.2180 996.7698
1247 63.1706 923(30) 1006.6437 996.6752
1248 63.2206 970(31) 1001.4997 996.5807
1249 63.2706 947(30) 999.2199 996.4861
1250 63.3206 979(31) 998.2184 996.3915
1251 63.3706 992(31) 997.7184 996.2970
1252 63.4206 934(30) 997.4039 996.2024
1253 63.4706 987(31) 997.1635 996.1078
1254 63.5206 952(30) 996.9597 996.0132
1255 63.5706 959(30) 996.7793 995.9187
1256 63.6206 950(30) 996.6155 995.8241
1257 63.6706 964(31) 996.4645 995.7296
1258 63.7206 955(30) 996.3234 995.6350
1259 63.7706 966(31) 1000.9580 995.5404
1260 63.8206 984(31) 1000.9076 995.4459
1261 63.8706 1050(32) 1000.8642 995.3513
1262 63.9206 972(31) 1000.8271 995.2567
1263 63.9706 971(31) 1000.7955 995.1621
1264 64.0206 953(30) 1000.7692 995.0676
1265 64.0706 975(31) 1000.7474 994.9730
1266 64.1206 923(30) 1000.7303 994.8784
1267 64.1706 976(31) 1000.7174 994.7839
1268 64.2206 1051(32) 1000.7085 994.6893
1269 64.2706 989(31) 1000.7036 994.5947
1270 64.3206 959(30) 1000.7025 994.5001
1271 64.3706 1009(31) 1000.7053 994.4056
1272 64.4206 978(31) 1000.7119 994.3110
1273 64.4706 1003(31) 1000.7222 994.2164
1274 64.5206 1011(31) 1000.7363 994.1219
1275 64.5706 1008(31) 1000.7542 994.0273
1276 64.6206 1022(31) 1000.7761 993.9327
1277 64.6706 1054(32) 1000.8019 993.8381
1278 64.7206 1045(32) 1000.8318 993.7436
1279 64.7706 1045(32) 1000.8659 993.6490
1280 64.8206 1021(31) 1000.9041 993.5544
1281 64.8706 998(31) 1000.9467 993.4599
1282 64.9206 990(31) 1000.9937 993.3653
1283 64.9706 985(31) 1001.0455 993.2708
1284 65.0206 1010(31) 1001.4173 993.1761
1285 65.0706 1004(31) 1001.4838 993.0816
1286 65.1206 993(31) 1001.5555 992.9871
1287 65.1706 1015(31) 1001.6326 992.8925
1288 65.2206 1038(32) 1001.7155 992.7979
1289 65.2706 984(31) 1001.7584 992.6577
1290 65.3206 987(31) 1001.4656 992.1758
1291 65.3706 996(31) 1001.1794 991.6940
1292 65.4206 1017(31) 1000.8997 991.2121
1293 65.4706 1011(31) 1000.6268 990.7302
1294 65.5206 1007(31) 1000.3611 990.2484
1295 65.5706 1007(31) 1000.1027 989.7665
1296 65.6206 1058(32) 999.8523 989.2847
1297 65.6706 1060(32) 999.6099 988.8029
1298 65.7206 1007(31) 999.3760 988.3210
1299 65.7706 987(31) 999.1511 987.8392
1300 65.8206 964(31) 998.9353 987.3573
1301 65.8706 977(31) 998.7294 986.8755
1302 65.9206 1005(31) 998.5338 986.3936
1303 65.9706 979(31) 998.3488 985.9117
1304 66.0206 988(31) 998.1751 985.4299
1305 66.0706 1006(31) 998.0131 984.9481
1306 66.1206 914(30) 997.8638 984.4662
1307 66.1706 984(31) 997.7274 983.9844
1308 66.2206 981(31) 997.6048 983.5025
1309 66.2706 975(31) 997.4968 983.0207
1310 66.3206 985(31) 997.4039 982.5388
1311 66.3706 993(31) 997.3273 982.0570
1312 66.4206 1002(31) 997.2678 981.5751
1313 66.4706 1007(31) 997.2263 981.0933
1314 66.5206 1021(31) 997.2038 980.6115
1315 66.5706 1014(31) 997.2014 980.1296
1316 66.6206 1050(32) 997.2206 979.6478
1317 66.6706 1042(32) 997.2623 979.1659
1318 66.7206 1026(32) 997.3282 978.6840
1319 66.7706 1031(32) 997.4198 978.2023
1320 66.8206 1008(31) 997.5382 977.7203
1321 66.8706 1011(31) 997.6860 977.2386
1322 66.9206 1022(31) 997.8646 976.7567
1323 66.9706 1073(32) 998.0761 976.2748
1324 67.0206 1001(31) 998.3230 975.7930
1325 67.0706 1041(32) 998.6073 975.3112
1326 67.1206 1048(32) 998.9322 974.8293
1327 67.1706 993(31) 999.3003 974.3475
1328 67.2206 980(31) 999.7150 973.8656
1329 67.2706 1001(31) 1000.1797 973.3838
1330 67.3206 943(30) 1000.6979 972.9019
1331 67.3706 1013(31) 1001.2746 972.4201
1332 67.4206 1043(32) 1001.9139 971.9382
1333 67.4706 1008(31) 1002.6213 971.4564
1334 67.5206 1013(31) 1003.4023 970.9745
1335 67.5706 1014(31) 1004.2629 970.4927
1336 67.6206 982(31) 1005.2112 970.0109
1337 67.6706 922(30) 1006.2543 969.5290
1338 67.7206 1003(31) 1007.4015 969.0471
1339 67.7706 1086(32) 1008.6771 968.5798
1340 67.8206 1008(31) 1010.0820 968.1172
1341 67.8706 1033(32) 1011.6254 967.6546
1342 67.9206 1030(32) 1013.3212 967.1920
1343 67.9706 1003(31) 1015.1861 966.7294
1344 68.0206 992(31) 1017.2390 966.2668
1345 68.0706 1043(32) 1019.5012 965.8042
1346 68.1206 966(31) 1021.9996 965.3416
1347 68.1706 1006(31) 1024.7633 964.8790
1348 68.2206 1031(32) 1027.8276 964.4164
1349 68.2706 1033(32) 1031.2334 963.9538
1350 68.3206 1010(31) 1035.0294 963.4912
1351 68.3706 1058(32) 1039.2769 963.0286
1352 68.4206 1037(32) 1044.0457 962.5660
1353 68.4706 1085(32) 1049.4252 962.1034
1354 68.5206 1081(32) 1055.5243 961.6408
1355 68.5706 1064(32) 1062.4969 961.1782
1356 68.6206 1050(32) 1070.6133 960.7156
1357 68.6706 1103(33) 1080.5020 960.2530
1358 68.7206 1158(34) 1093.9592 959.7904
1359 68.7706 1188(34) 1116.0162 959.3278
1360 68.8206 1203(34) 1159.3491 958.8652
1361 68.8706 1329(36) 1250.9645 958.4026
1362 68.9206 1518(38) 1437.6899 957.9400
1363 68.9706 1722(41) 1781.9717 957.4774
1364 69.0206 2270(47) 2335.0864 957.0148
1365 69.0706 2978(54) 3090.9404 956.5522
1366 69.1206 3768(61) 3938.8164 956.0897
1367 69.1706 4430(66) 4661.3667 955.6270
1368 69.2206 4870(69) 5009.2114 955.1644
1369 69.2706 4811(69) 4845.9932 954.7018
1370 69.3206 4208(64) 4255.9824 954.2392
1371 69.3706 3404(58) 3476.3096 953.7766
1372 69.4206 2671(51) 2749.5859 953.3140
1373 69.4706 2040(45) 2225.6118 952.8514
1374 69.5206 1681(41) 1945.4821 952.3888
1375 69.5706 1686(41) 1885.9020 951.9262
1376 69.6206 2003(44) 2039.0192 951.4636
1377 69.6706 2611(51) 2496.4224 951.0010
1378 69.7206 3774(61) 3529.6682 950.5384
1379 69.7706 6205(78) 5625.1348 950.0758
1380 69.8206 9969(99) 9391.2148 949.6132
1381 69.8706 15752(125) 15316.0801 949.1506
1382 69.9206 23737(154) 23453.2207 948.6880
1383 69.9706 33336(182) 33143.0273 948.2254
1384 70.0206 42062(205) 42661.9727 947.7628
1385 70.0706 47826(218) 49025.5508 947.3002
1386 70.1206 47547(218) 49202.4492 946.8376
1387 70.1706 42108(205) 42714.6016 946.3750
1388 70.2206 33051(181) 32181.6855 945.9124
1389 70.2706 22723(150) 21272.3262 945.4498
1390 70.3206 13787(117) 12640.2998 944.9872
1391 70.3706 7470(86) 7090.3623 944.5247
1392 70.4206 3986(63) 4075.6560 944.0620
1393 70.4706 2226(47) 2632.6570 943.5994
1394 70.5206 1528(39) 1988.9191 943.1368
1395 70.5706 1346(36) 1698.4723 942.6742
1396 70.6206 1221(34) 1551.8022 942.2116
1397 70.6706 1209(34) 1463.6851 941.7490
1398 70.7206 1193(34) 1402.5272 941.2864
1399 70.7706 1205(34) 1358.0917 940.8239
1400 70.8206 1157(34) 1330.6592 940.3612
1401 70.8706 1180(34) 1331.6439 939.8986
1402 70.9206 1296(36) 1391.5266 939.4360
1403 70.9706 1562(39) 1570.2734 938.9734
1404 71.0206 1797(42) 1958.9459 938.5108
1405 71.0706 2444(49) 2653.6431 938.0482
1406 71.1206 3186(56) 3691.8987 937.5856
1407 71.1706 4288(65) 4968.9736 937.1230
1408 71.2206 5514(74) 6198.0586 936.6604
1409 71.2706 6212(78) 6975.5151 936.1978
1410 71.3206 6507(80) 6979.2495 935.7352
1411 71.3706 5707(75) 6201.5015 935.2726
1412 71.4206 4730(68) 4952.7046 934.8100
1413 71.4706 3433(58) 3637.8477 934.3474
1414 71.5206 2446(49) 2556.5464 933.8848
1415 71.5706 1727(41) 1824.1252 933.4222
1416 71.6206 1422(37) 1403.9631 932.9597
1417 71.6706 1275(35) 1194.8523 932.4970
1418 71.7206 1127(33) 1100.7589 932.0344
1419 71.7706 1133(33) 1059.2566 931.5718
1420 71.8206 1092(33) 1038.7971 931.1092
1421 71.8706 1094(33) 1026.2672 930.6467
1422 71.9206 1053(32) 1016.9811 930.1840
1423 71.9706 1041(32) 1009.3679 929.7214
1424 72.0206 996(31) 1002.8525 929.2589
1425 72.0706 1041(32) 997.1615 928.7962
1426 72.1206 1065(32) 992.1208 928.3336
1427 72.1706 1022(31) 987.6098 927.8710
1428 72.2206 1076(32) 983.5367 927.4084
1429 72.2706 1093(33) 979.8310 926.9458
1430 72.3206 1068(32) 976.4384 926.4832
1431 72.3706 1040(32) 973.3128 926.0206
1432 72.4206 1072(32) 970.4196 925.5580
1433 72.4706 1099(33) 967.7294 925.0954
1434 72.5206 1105(33) 965.2177 924.6328
1435 72.5706 1070(32) 962.8646 924.1702
1436 72.6206 1075(32) 960.6515 923.7076
1437 72.6706 994(31) 958.5641 923.2450
1438 72.7206 987(31) 956.5896 922.7824
1439 72.7706 945(30) 954.7170 922.3198
1440 72.8206 893(29) 952.9370 921.8572
1441 72.8706 863(29) 951.2404 921.3947
1442 72.9206 908(30) 949.6199 920.9320
1443 72.9706 934(30) 948.0692 920.4694
1444 73.0206 889(29) 946.5825 920.0068
1445 73.0706 947(30) 945.1547 919.5442
1446 73.1206 965(31) 943.7807 919.0817
1447 73.1706 910(30) 942.4830 918.6190
1448 73.2206 930(30) 941.2053 918.1564
1449 73.2706 866(29) 939.9705 917.6938
1450 73.3206 923(30) 938.7754 917.2312
1451 73.3706 942(30) 937.6171 916.7686
1452 73.4206 938(30) 936.4931 916.3060
1453 73.4706 944(30) 935.4011 915.8434
1454 73.5206 987(31) 934.3391 915.3809
1455 73.5706 907(30) 933.3052 914.9182
1456 73.6206 952(30) 932.2975 914.4556
1457 73.6706 952(30) 931.7520 914.4307
1458 73.7206 929(30) 931.2508 914.4270
1459 73.7706 843(29) 930.7712 914.4232
1460 73.8206 898(29) 930.3123 914.4195
1461 73.8706 874(29) 929.8725 914.4157
1462 73.9206 946(30) 929.4509 914.4120
1463 73.9706 934(30) 929.0464 914.4082
1464 74.0206 907(30) 928.6581 914.4045
1465 74.0706 926(30) 928.2853 914.4007
1466 74.1206 911(30) 927.9269 914.3970
1467 74.1706 939(30) 927.5822 914.3932
1468 74.2206 929(30) 927.2505 914.3895
1469 74.2706 986(31) 926.9312 914.3857
1470 74.3206 937(30) 926.6238 914.3820
1471 74.3706 902(30) 926.3275 914.3782
1472 74.4206 925(30) 926.0417 914.3745
1473 74.4706 923(30) 925.7661 914.3707
1474 74.5206 949(30) 925.5002 914.3669
1475 74.5706 984(31) 925.2434 914.3632
1476 74.6206 970(31) 924.9954 914.3594
1477 74.6706 948(30) 924.7557 914.3557
1478 74.7206 978(31) 924.5240 914.3519
1479 74.7706 983(31) 924.2999 914.3481
1480 74.8206 962(31) 924.0832 914.3444
1481 74.8706 940(30) 923.8734 914.3406
1482 74.9206 931(30) 923.6702 914.3369
1483 74.9706 896(29) 923.4735 914.3331
1484 75.0206 950(30) 923.2828 914.3293
1485 75.0706 902(30) 923.0982 914.3256
1486 75.1206 905(30) 922.9191 914.3218
1487 75.1706 948(30) 922.7454 914.3181
1488 75.2206 902(30) 922.5768 914.3143
1489 75.2706 901(30) 922.4134 914.3106
1490 75.3206 953(30) 922.2547 914.3068
1491 75.3706 849(29) 922.1006 914.3031
1492 75.4206 910(30) 921.9509 914.2993
1493 75.4706 913(30) 921.8056 914.2956
1494 75.5206 905(30) 921.6643 914.2918
1495 75.5706 921(30) 921.3340 914.2881
1496 75.6206 944(30) 921.2036 914.2843
1497 75.6706 911(30) 921.0767 914.2806
1498 75.7206 913(30) 920.9534 914.2768
1499 75.7706 954(30) 920.8334 914.2731
1500 75.8206 878(29) 920.7167 914.2693
1501 75.8706 896(29) 920.6032 914.2656
1502 75.9206 907(30) 920.4927 914.2618
1503 75.9706 875(29) 920.3852 914.2581
1504 76.0206 916(30) 920.2805 914.2543
1505 76.0706 900(30) 920.1787 914.2505
1506 76.1206 897(29) 920.0795 914.2468
1507 76.1706 855(29) 919.9830 914.2430
1508 76.2206 868(29) 919.8889 914.2393
1509 76.2706 940(30) 919.7974 914.2355
1510 76.3206 925(30) 919.7083 914.2318
1511 76.3706 845(29) 921.6873 914.2280
1512 76.4206 861(29) 921.6340 914.2242
1513 76.4706 850(29) 916.9340 914.2205
1514 76.5206 864(29) 916.9583 914.2167
1515 76.5706 933(30) 916.9841 914.2130
1516 76.6206 877(29) 917.0109 914.2092
1517 76.6706 961(31) 917.0392 914.2054
1518 76.7206 952(30) 917.0688 914.2017
1519 76.7706 917(30) 917.0997 914.1979
1520 76.8206 896(29) 917.1321 914.1942
1521 76.8706 831(28) 917.1660 914.1904
1522 76.9206 872(29) 917.2015 914.1867
1523 76.9706 923(30) 917.2384 914.1829
1524 77.0206 867(29) 917.2771 914.1792
1525 77.0706 887(29) 917.3174 914.1754
1526 77.1206 924(30) 917.3596 914.1717
1527 77.1706 943(30) 917.4036 914.1679
1528 77.2206 925(30) 917.4497 914.1642
1529 77.2706 869(29) 917.4977 914.1604
1530 77.3206 884(29) 917.5480 914.1567
1531 77.3706 906(30) 917.6005 914.1529
1532 77.4206 896(29) 917.6555 914.1492
1533 77.4706 883(29) 917.7131 914.1454
1534 77.5206 898(29) 917.7733 914.1417
1535 77.5706 913(30) 917.8365 914.1379
1536 77.6206 879(29) 917.5931 914.1342
1537 77.6706 901(30) 917.6676 914.1304
1538 77.7206 915(30) 917.7456 914.1266
1539 77.7706 889(29) 917.8273 914.1229
1540 77.8206 881(29) 917.8423 914.0481
1541 77.8706 887(29) 917.8566 913.9682
1542 77.9206 907(30) 917.8757 913.8882
1543 77.9706 878(29) 917.9005 913.8083
1544 78.0206 931(30) 917.9312 913.7284
1545 78.0706 859(29) 917.9689 913.6485
1546 78.1206 886(29) 918.0140 913.5685
1547 78.1706 919(30) 918.0678 913.4886
1548 78.2206 893(29) 918.1316 913.4087
1549 78.2706 883(29) 918.2065 913.3287
1550 78.3206 893(29) 918.2946 913.2488
1551 78.3706 906(30) 918.3979 913.1689
1552 78.4206 871(29) 918.5192 913.0890
1553 78.4706 940(30) 918.6620 913.0090
1554 78.5206 942(30) 918.8304 912.9291
1555 78.5706 943(30) 919.0303 912.8492
1556 78.6206 916(30) 919.2684 912.7692
1557 78.6706 900(30) 919.5549 912.6893
1558 78.7206 930(30) 919.9054 912.6094
1559 78.7706 924(30) 920.3527 912.5294
1560 78.8206 892(29) 920.9906 912.4495
1561 78.8706 922(30) 922.1054 912.3696
1562 78.9206 923(30) 924.5194 912.2897
1563 78.9706 928(30) 930.2802 912.2097
1564 79.0206 1026(32) 943.5939 912.1298
1565 79.0706 1018(31) 971.3777 912.0499
1566 79.1206 1050(32) 1022.0225 911.9699
1567 79.1706 1119(33) 1100.1132 911.8900
1568 79.2206 1259(35) 1200.5967 911.8101
1569 79.2706 1299(36) 1303.0981 911.7302
1570 79.3206 1464(38) 1375.6208 911.6502
1571 79.3706 1468(38) 1388.6083 911.5703
1572 79.4206 1481(38) 1336.1797 911.4904
1573 79.4706 1342(36) 1240.8474 911.4104
1574 79.5206 1220(34) 1136.0420 911.3305
1575 79.5706 1093(33) 1047.7893 911.2505
1576 79.6206 991(31) 987.2390 911.1707
1577 79.6706 934(30) 952.4313 911.0907
1578 79.7206 969(31) 935.2980 911.0107
1579 79.7706 968(31) 927.8968 910.9308
1580 79.8206 959(30) 924.9470 910.8509
1581 79.8706 910(30) 923.7703 910.7710
1582 79.9206 904(30) 923.2543 910.6910
1583 79.9706 857(29) 923.0034 910.6111
1584 80.0206 905(30) 922.8888 910.5312
1585 80.0706 922(30) 922.8648 910.4512
1586 80.1206 904(30) 922.9110 910.3713
1587 80.1706 884(29) 923.0159 910.2914
1588 80.2206 892(29) 923.1715 910.2114
1589 80.2706 867(29) 923.3729 910.1315
1590 80.3206 906(30) 923.6169 910.0516
1591 80.3706 962(31) 923.9012 909.9717
1592 80.4206 936(30) 924.2249 909.8917
1593 80.4706 890(29) 924.5878 909.8118
1594 80.5206 932(30) 924.9902 909.7319
1595 80.5706 888(29) 925.4335 909.6519
1596 80.6206 921(30) 925.9188 909.5720
1597 80.6706 888(29) 926.4483 909.4921
1598 80.7206 876(29) 927.0246 909.4122
1599 80.7706 994(31) 927.6503 909.3322
1600 80.8206 891(29) 928.3298 909.2523
1601 80.8706 944(30) 928.8940 909.0003
1602 80.9206 951(30) 928.9311 908.1591
1603 80.9706 953(30) 929.0355 907.3178
1604 81.0206 940(30) 929.2130 906.4767
1605 81.0706 971(31) 929.4713 905.6354
1606 81.1206 967(31) 929.8170 904.7943
1607 81.1706 933(30) 930.2599 903.9531
1608 81.2206 991(31) 930.8099 903.1118
1609 81.2706 962(31) 931.4785 902.2707
1610 81.3206 920(30) 932.2800 901.4294
1611 81.3706 989(31) 933.2280 900.5883
1612 81.4206 999(31) 934.3414 899.7470
1613 81.4706 964(31) 935.6406 898.9058
1614 81.5206 952(30) 937.1484 898.0646
1615 81.5706 980(31) 938.8946 897.2234
1616 81.6206 970(31) 940.9089 896.3823
1617 81.6706 949(30) 943.2318 895.5410
1618 81.7206 982(31) 945.9078 894.6998
1619 81.7706 937(30) 948.9901 893.8586
1620 81.8206 940(30) 952.5469 893.0174
1621 81.8706 956(30) 956.6517 892.1763
1622 81.9206 973(31) 961.4043 891.3350
1623 81.9706 1000(31) 966.9223 890.4937
1624 82.0206 961(31) 973.3523 889.6526
1625 82.0706 943(30) 980.8915 888.8113
1626 82.1206 943(30) 989.7775 887.9702
1627 82.1706 946(30) 1000.3453 887.1290
1628 82.2206 943(30) 1013.0298 886.2877
1629 82.2706 1023(31) 1028.4117 885.4466
1630 82.3206 985(31) 1047.2921 884.6053
1631 82.3706 937(30) 1070.7085 883.7642
1632 82.4206 931(30) 1100.2048 882.9230
1633 82.4706 994(31) 1138.3713 882.0817
1634 82.5206 1025(32) 1190.7578 881.2405
1635 82.5706 1114(33) 1270.9963 880.3993
1636 82.6206 1222(34) 1411.1276 879.5582
1637 82.6706 1383(37) 1678.1458 878.7169
1638 82.7206 1791(42) 2187.5647 877.8757
1639 82.7706 2615(51) 3097.0767 877.0345
1640 82.8206 4131(64) 4566.4019 876.1933
1641 82.8706 6453(80) 6680.0254 875.3522
1642 82.9206 9671(98) 9370.6445 874.5109
1643 82.9706 13123(114) 12321.5449 873.6697
1644 83.0206 15825(125) 14868.1826 872.8285
1645 83.0706 17125(130) 16072.6523 871.9872
1646 83.1206 16558(128) 15317.2754 871.1461
1647 83.1706 14077(118) 12899.6650 870.3049
1648 83.2206 10197(100) 9726.6338 869.4636
1649 83.2706 6531(80) 6700.6753 868.6225
1650 83.3206 4029(63) 4364.8804 867.7812
1651 83.3706 2351(48) 2843.3269 866.9401
1652 83.4206 1606(40) 1976.8021 866.0989
1653 83.4706 1246(35) 1529.1721 865.2576
1654 83.5206 1154(33) 1307.9863 864.4165
1655 83.5706 1016(31) 1195.4098 863.5752
1656 83.6206 988(31) 1131.7540 862.7341
1657 83.6706 1000(31) 1090.1031 861.8928
1658 83.7206 974(31) 1059.2902 861.0516
1659 83.7706 979(31) 1034.6935 860.2104
1660 83.8206 1003(31) 1014.2363 859.3692
1661 83.8706 976(31) 996.8955 858.5281
1662 83.9206 954(30) 982.0250 857.6868
1663 83.9706 962(31) 969.1987 856.8456
1664 84.0206 965(31) 958.0919 856.0045
1665 84.0706 960(30) 948.4329 855.1632
1666 84.1206 969(31) 940.0175 854.3221
1667 84.1706 995(31) 932.6603 853.4808
1668 84.2206 966(31) 926.2195 852.6395
1669 84.2706 948(30) 923.2175 854.4348
1670 84.3206 932(30) 921.1771 856.4845
1671 84.3706 979(31) 919.7824 858.5338
1672 84.4206 1000(31) 918.9835 860.5835
1673 84.4706 966(31) 918.7551 862.6331
1674 84.5206 957(30) 919.0928 864.6825
1675 84.5706 957(30) 920.0154 866.7322
1676 84.6206 1007(31) 921.5950 868.7815
1677 84.6706 952(30) 924.0286 870.8312
1678 84.7206 1017(31) 927.9523 872.8808
1679 84.7706 1032(32) 935.3909 874.9302
1680 84.8206 1004(31) 952.1487 876.9798
1681 84.8706 1070(32) 992.4456 879.0292
1682 84.9206 1116(33) 1084.7513 881.0788
1683 84.9706 1219(34) 1273.5747 883.1285
1684 85.0206 1489(38) 1607.2095 885.1778
1685 85.0706 1955(44) 2104.5962 887.2275
1686 85.1206 2548(50) 2713.2886 889.2769
1687 85.1706 2962(54) 3288.4500 891.3265
1688 85.2206 3412(58) 3628.6296 893.3762
1689 85.2706 3467(58) 3582.1255 895.4255
1690 85.3206 3120(55) 3171.2974 897.4752
1691 85.3706 2672(51) 2570.4939 899.5245
1692 85.4206 2087(45) 1976.0488 901.5742
1693 85.4706 1604(40) 1515.2593 903.6238
1694 85.5206 1261(35) 1222.2426 905.6732
1695 85.5706 1142(33) 1065.7572 907.7228
1696 85.6206 1076(32) 993.9429 909.7722
1697 85.6706 1019(31) 964.7294 911.8218
1698 85.7206 956(30) 953.5080 913.8715
1699 85.7706 1013(31) 949.0297 915.9208
1700 85.8206 975(31) 947.0368 917.9705
1701 85.8706 952(30) 946.1092 920.0198
1702 85.9206 930(30) 945.7795 922.0695
1703 85.9706 974(31) 945.8597 924.1191
1704 86.0206 988(31) 946.2471 926.1685
1705 86.0706 997(31) 946.8740 928.2181
1706 86.1206 913(30) 947.6901 930.2675
1707 86.1706 961(31) 948.6595 932.3171
1708 86.2206 985(31) 949.7545 934.3668
1709 86.2706 910(30) 950.9531 936.4161
1710 86.3206 924(30) 952.2394 938.4658
1711 86.3706 957(30) 953.5995 940.5151
1712 86.4206 960(30) 955.0233 942.5648
1713 86.4706 919(30) 956.5019 944.6145
1714 86.5206 949(30) 958.0277 946.6638
1715 86.5706 899(29) 959.5955 948.7135
1716 86.6206 938(30) 961.1996 950.7628
1717 86.6706 937(30) 962.8366 952.8125
1718 86.7206 950(30) 964.5024 954.8621
1719 86.7706 961(31) 965.4852 956.2029
1720 86.8206 968(31) 965.5369 956.5894
1721 86.8706 1002(31) 965.6095 956.9757
1722 86.9206 925(30) 965.7010 957.3621
1723 86.9706 880(29) 965.8099 957.7485
1724 87.0206 920(30) 965.9345 958.1348
1725 87.0706 924(30) 966.0735 958.5212
1726 87.1206 945(30) 966.2258 958.9076
1727 87.1706 965(31) 966.3903 959.2940
1728 87.2206 971(31) 966.5659 959.6804
1729 87.2706 958(30) 966.7520 960.0667
1730 87.3206 932(30) 966.9477 960.4531
1731 87.3706 989(31) 967.1523 960.8395
1732 87.4206 938(30) 967.3654 961.2259
1733 87.4706 965(31) 967.5861 961.6122
1734 87.5206 980(31) 967.8141 961.9986
1735 87.5706 922(30) 968.0490 962.3850
1736 87.6206 942(30) 968.2903 962.7714
1737 87.6706 1009(31) 968.5375 963.1578
1738 87.7206 903(30) 968.7904 963.5442
1739 87.7706 891(29) 969.0485 963.9305
1740 87.8206 904(30) 969.3117 964.3169
1741 87.8706 931(30) 969.5796 964.7032
1742 87.9206 935(30) 969.8520 965.0897
1743 87.9706 950(30) 970.1286 965.4761
1744 88.0206 907(30) 970.4092 965.8624
1745 88.0706 956(30) 970.6935 966.2488
1746 88.1206 875(29) 970.9815 966.6351
1747 88.1706 929(30) 971.2729 967.0215
1748 88.2206 975(31) 971.5676 967.4080
1749 88.2706 954(30) 971.8654 967.7943
1750 88.3206 963(31) 972.1660 968.1807
1751 88.3706 932(30) 972.4695 968.5670
1752 88.4206 983(31) 972.7758 968.9534
1753 88.4706 981(31) 973.0846 969.3398
1754 88.5206 1023(31) 973.3958 969.7262
1755 88.5706 988(31) 973.7094 970.1126
1756 88.6206 975(31) 974.0251 970.4989
1757 88.6706 935(30) 974.3431 970.8853
1758 88.7206 993(31) 974.6631 971.2717
1759 88.7706 1016(31) 974.9850 971.6581
1760 88.8206 1019(31) 975.3089 972.0445
1761 88.8706 953(30) 975.6346 972.4308
1762 88.9206 936(30) 975.9730 972.8172
1763 88.9706 960(30) 976.3022 973.2036
1764 89.0206 967(31) 976.6331 973.5900
1765 89.0706 1047(32) 976.9655 973.9764
1766 89.1206 992(31) 977.2994 974.3627
1767 89.1706 956(30) 981.9960 974.7491
1768 89.2206 979(31) 982.4003 975.1355
1769 89.2706 954(30) 982.8073 975.5219
1770 89.3206 956(30) 983.2174 975.9083
1771 89.3706 973(31) 983.6304 976.2946
1772 89.4206 969(31) 984.0463 976.6810
1773 89.4706 971(31) 984.4651 977.0674
1774 89.5206 995(31) 984.8868 977.4537
1775 89.5706 956(30) 985.3116 977.8401
1776 89.6206 939(30) 985.7394 978.2265
1777 89.6706 946(30) 986.1702 978.6129
1778 89.7206 958(30) 986.6041 978.9993
1779 89.7706 953(30) 987.0411 979.3856
1780 89.8206 934(30) 985.4540 979.7720
1781 89.8706 963(31) 985.9270 980.1584
1782 89.9206 948(30) 986.4026 980.5448
1783 89.9706 960(30) 986.8810 980.9312
1784 90.0206 958(30) 987.3621 981.3175
1785 90.0706 964(31) 987.8461 981.7039
1786 90.1206 981(31) 988.3329 982.0903
1787 90.1706 928(30) 988.8229 982.4767
1788 90.2206 969(31) 989.3160 982.8631
1789 90.2706 973(31) 989.8124 983.2495
1790 90.3206 932(30) 990.3120 983.6358
1791 90.3706 968(31) 990.8151 984.0222
1792 90.4206 996(31) 991.3219 984.4086
1793 90.4706 1041(32) 991.8325 984.7950
1794 90.5206 992(31) 992.3467 985.1813
1795 90.5706 1007(31) 992.8651 985.5677
1796 90.6206 1017(31) 993.3875 985.9540
1797 90.6706 1015(31) 993.9142 986.3405
1798 90.7206 994(31) 994.4455 986.7269
1799 90.7706 983(31) 994.9813 987.1132
1800 90.8206 1000(31) 995.5220 987.4996
1801 90.8706 994(31) 996.0677 987.8860
1802 90.9206 1018(31) 996.6185 988.2723
1803 90.9706 986(31) 997.1750 988.6588
1804 91.0206 988(31) 997.7369 989.0451
1805 91.0706 1007(31) 998.3049 989.4315
1806 91.1206 1003(31) 998.8789 989.8179
1807 91.1706 1072(32) 999.4594 990.2042
1808 91.2206 1063(32) 1000.0466 990.5906
1809 91.2706 1019(31) 1000.6407 990.9770
1810 91.3206 998(31) 1001.2422 991.3634
1811 91.3706 1039(32) 1001.8513 991.7498
1812 91.4206 1023(31) 1002.4684 992.1362
1813 91.4706 997(31) 1002.9377 992.5225
1814 91.5206 986(31) 1003.5743 992.9089
1815 91.5706 1030(32) 1004.2202 993.2953
1816 91.6206 948(30) 1004.8757 993.6816
1817 91.6706 1018(31) 1005.5411 994.0681
1818 91.7206 991(31) 1006.2174 994.4545
1819 91.7706 1021(31) 1006.9044 994.8408
1820 91.8206 1070(32) 1007.6033 995.2272
1821 91.8706 1133(33) 1008.3145 995.6135
1822 91.9206 1041(32) 1009.0386 995.9999
1823 91.9706 1016(31) 1009.7766 996.3864
1824 92.0206 1007(31) 1010.5285 996.7726
1825 92.0706 960(30) 1011.2960 997.1591
1826 92.1206 969(31) 1012.0793 997.5454
1827 92.1706 992(31) 1012.8796 997.9318
1828 92.2206 1042(32) 1013.6981 998.3182
1829 92.2706 1038(32) 1014.5352 998.7046
1830 92.3206 1019(31) 1015.3926 999.0909
1831 92.3706 996(31) 1016.2713 999.4773
1832 92.4206 1035(32) 1017.1725 999.8637
1833 92.4706 979(31) 1018.0981 1000.2501
1834 92.5206 1028(32) 1019.0489 1000.6365
1835 92.5706 1031(32) 1020.0270 1001.0228
1836 92.6206 999(31) 1021.0342 1001.4092
1837 92.6706 1010(31) 1022.0720 1001.7956
1838 92.7206 1016(31) 1023.1433 1002.1820
1839 92.7706 1089(33) 1024.2494 1002.5684
1840 92.8206 1074(32) 1025.3933 1002.9548
1841 92.8706 1122(33) 1026.5776 1003.3411
1842 92.9206 1069(32) 1027.8051 1003.7275
1843 92.9706 1055(32) 1029.0796 1004.1139
1844 93.0206 1056(32) 1030.4034 1004.5002
1845 93.0706 1074(32) 1031.7814 1004.8867
1846 93.1206 1076(32) 1033.2173 1005.2730
1847 93.1706 1060(32) 1034.7155 1005.6594
1848 93.2206 1066(32) 1036.2821 1006.0458
1849 93.2706 1038(32) 1037.9213 1006.4321
1850 93.3206 1037(32) 1039.6404 1006.8185
1851 93.3706 1017(31) 1041.4457 1007.2049
1852 93.4206 1070(32) 1043.3446 1007.5913
1853 93.4706 1058(32) 1045.3469 1007.9777
1854 93.5206 1087(32) 1047.4601 1008.3640
1855 93.5706 1098(33) 1049.6963 1008.7504
1856 93.6206 1092(33) 1051.8217 1008.8915
1857 93.6706 1096(33) 1053.8949 1008.8336
1858 93.7206 1064(32) 1056.1323 1008.7757
1859 93.7706 1133(33) 1058.5480 1008.7178
1860 93.8206 1120(33) 1061.1633 1008.6598
1861 93.8706 1044(32) 1063.9996 1008.6019
1862 93.9206 1034(32) 1067.0809 1008.5439
1863 93.9706 1021(31) 1070.4391 1008.4860
1864 94.0206 1080(32) 1074.1028 1008.4281
1865 94.0706 1108(33) 1078.1135 1008.3701
1866 94.1206 1101(33) 1082.5146 1008.3122
1867 94.1706 1090(33) 1087.3566 1008.2543
1868 94.2206 1061(32) 1092.7043 1008.1964
1869 94.2706 1170(34) 1098.6232 1008.1384
1870 94.3206 1170(34) 1105.2035 1008.0805
1871 94.3706 1077(32) 1112.5464 1008.0226
1872 94.4206 1083(32) 1120.7795 1007.9646
1873 94.4706 1125(33) 1130.0939 1007.9067
1874 94.5206 1087(32) 1140.7877 1007.8488
1875 94.5706 1119(33) 1153.4894 1007.7908
1876 94.6206 1132(33) 1169.4774 1007.7329
1877 94.6706 1166(34) 1191.1285 1007.6749
1878 94.7206 1196(34) 1222.0383 1007.6170
1879 94.7706 1243(35) 1265.9454 1007.5591
1880 94.8206 1221(34) 1324.2405 1007.5012
1881 94.8706 1259(35) 1393.1312 1007.4432
1882 94.9206 1327(36) 1462.1238 1007.3853
1883 94.9706 1367(36) 1518.7434 1007.3273
1884 95.0206 1450(38) 1556.6587 1007.2694
1885 95.0706 1485(38) 1585.2495 1007.2115
1886 95.1206 1463(38) 1625.1199 1007.1536
1887 95.1706 1566(39) 1701.3586 1007.0956
1888 95.2206 1786(42) 1851.6436 1007.0377
1889 95.2706 2168(46) 2153.0591 1006.9797
1890 95.3206 3172(56) 2768.9377 1006.9218
1891 95.3706 4824(69) 3990.7754 1006.8639
1892 95.4206 7242(85) 6227.6089 1006.8060
1893 95.4706 11133(105) 9899.4746 1006.7480
1894 95.5206 16493(128) 15213.4785 1006.6901
1895 95.5706 22923(151) 21912.4121 1006.6321
1896 95.6206 29563(171) 28980.0059 1006.5742
1897 95.6706 34155(184) 34470.7500 1006.5163
1898 95.7206 35326(187) 36058.4141 1006.4584
1899 95.7706 31955(178) 32831.6484 1006.4005
1900 95.8206 25768(160) 26210.1465 1006.3425
1901 95.8706 18143(134) 18612.1680 1006.2845
1902 95.9206 11386(106) 12007.7627 1006.2266
1903 95.9706 6967(83) 7302.1855 1006.1687
1904 96.0206 4025(63) 4451.6675 1006.1108
1905 96.0706 2664(51) 2929.3035 1006.0528
1906 96.1206 1930(43) 2181.9094 1005.9949
1907 96.1706 1590(39) 1822.2234 1005.9370
1908 96.2206 1390(37) 1636.8777 1005.8790
1909 96.2706 1283(35) 1526.8098 1005.8211
1910 96.3206 1251(35) 1450.6284 1005.7632
1911 96.3706 1184(34) 1392.1378 1005.7052
1912 96.4206 1248(35) 1344.7302 1005.6473
1913 96.4706 1278(35) 1305.2523 1005.5894
1914 96.5206 1183(34) 1271.9784 1005.5314
1915 96.5706 1206(34) 1243.6785 1005.4735
1916 96.6206 1197(34) 1219.4711 1005.4156
1917 96.6706 1224(34) 1198.6581 1005.3576
1918 96.7206 1166(34) 1180.6520 1005.2997
1919 96.7706 1132(33) 1165.0093 1005.2418
1920 96.8206 1152(33) 1151.3340 1005.1838
1921 96.8706 1105(33) 1139.5139 1005.1259
1922 96.9206 1136(33) 1129.7881 1005.9450
1923 96.9706 1226(35) 1123.4639 1008.9758
1924 97.0206 1153(33) 1118.1682 1012.0060
1925 97.0706 1179(34) 1113.7511 1015.0368
1926 97.1206 1191(34) 1110.0951 1018.0671
1927 97.1706 1144(33) 1107.1034 1021.0979
1928 97.2206 1193(34) 1104.6862 1024.1287
1929 97.2706 1255(35) 1102.7787 1027.1589
1930 97.3206 1156(34) 1101.3167 1030.1897
1931 97.3706 1192(34) 1100.2491 1033.2201
1932 97.4206 1208(34) 1099.5333 1036.2509
1933 97.4706 1140(33) 1099.1273 1039.2816
1934 97.5206 1165(34) 1099.0017 1042.3119
1935 97.5706 1203(34) 1099.1254 1045.3427
1936 97.6206 1123(33) 1099.4730 1048.3729
1937 97.6706 1114(33) 1100.0244 1051.4037
1938 97.7206 1186(34) 1100.7574 1054.4344
1939 97.7706 1104(33) 1101.6573 1057.4648
1940 97.8206 1212(34) 1102.7076 1060.4956
1941 97.8706 1174(34) 1103.8948 1063.5259
1942 97.9206 1136(33) 1105.2083 1066.5566
1943 97.9706 1101(33) 1106.6354 1069.5874
1944 98.0206 1150(33) 1108.1683 1072.6177
1945 98.0706 1131(33) 1109.7979 1075.6484
1946 98.1206 1106(33) 1111.5162 1078.6788
1947 98.1706 1190(34) 1113.3175 1081.7096
1948 98.2206 1079(32) 1115.1942 1084.7404
1949 98.2706 1110(33) 1117.1416 1087.7706
1950 98.3206 1184(34) 1119.1548 1090.8014
1951 98.3706 1132(33) 1121.2284 1093.8317
1952 98.4206 1158(34) 1123.3597 1096.8624
1953 98.4706 1159(34) 1125.5438 1099.8932
1954 98.5206 1141(33) 1127.7781 1102.9236
1955 98.5706 1086(32) 1130.0593 1105.9543
1956 98.6206 1107(33) 1132.3844 1108.9846
1957 98.6706 1147(33) 1134.7520 1112.0154
1958 98.7206 1143(33) 1137.1588 1115.0461
1959 98.7706 1119(33) 1139.6033 1118.0764
1960 98.8206 1137(33) 1142.0841 1121.1072
1961 98.8706 1191(34) 1144.5991 1124.1376
1962 98.9206 1148(33) 1147.1479 1127.1683
1963 98.9706 1133(33) 1149.7286 1130.1991
1964 99.0206 1189(34) 1152.3403 1133.2294
1965 99.0706 1093(33) 1154.9830 1136.2601
1966 99.1206 1152(33) 1157.6553 1139.2904
1967 99.1706 1164(34) 1160.3580 1142.3212
1968 99.2206 1217(34) 1163.0903 1145.3519
1969 99.2706 1166(34) 1165.8523 1148.3823
1970 99.3206 1196(34) 1168.6451 1151.4131
1971 99.3706 1142(33) 1171.4686 1154.4434
1972 99.4206 1171(34) 1174.3250 1157.4741
1973 99.4706 1172(34) 1177.2148 1160.5049
1974 99.5206 1143(33) 1180.1401 1163.5352
1975 99.5706 1148(33) 1183.1042 1166.5659
1976 99.6206 1167(34) 1186.1091 1169.5963
1977 99.6706 1175(34) 1189.1598 1172.6271
1978 99.7206 1178(34) 1192.2605 1175.6578
1979 99.7706 1190(34) 1195.4171 1178.6881
1980 99.8206 1129(33) 1198.6384 1181.7189
1981 99.8706 1155(33) 1201.9325 1184.7491
1982 99.9206 1160(34) 1205.3130 1187.7799
1983 99.9706 1117(33) 1208.7942 1190.8107
1984 100.0206 1173(34) 1212.3953 1193.8411
1985 100.0706 1126(33) 1216.1423 1196.8718
1986 100.1206 1151(33) 1220.0657 1199.9021
1987 100.1706 1158(34) 1224.2090 1202.9329
1988 100.2206 1090(33) 1228.6277 1205.9636
1989 100.2706 1119(33) 1233.4014 1208.9939
1990 100.3206 1090(33) 1238.6713 1212.0247
1991 100.3706 1141(33) 1244.7529 1215.0549
1992 100.4206 1161(34) 1252.5839 1218.0858
1993 100.4706 1213(34) 1264.9921 1221.1166
1994 100.5206 1307(36) 1289.7062 1224.1469
1995 100.5706 1381(37) 1344.6094 1227.1776
1996 100.6206 1481(38) 1462.7642 1230.2079
1997 100.6706 1788(42) 1690.4382 1233.2386
1998 100.7206 2210(47) 2066.9834 1236.2694
1999 100.7706 2889(53) 2585.9900 1239.2998
2000 100.8206 3432(58) 3159.1982 1242.3306
2001 100.8706 3728(61) 3614.9580 1245.3608
2002 100.9206 3879(62) 3766.3799 1248.3916
2003 100.9706 3674(60) 3540.8132 1251.4224
2004 101.0206 3071(55) 3047.4941 1254.4526
2005 101.0706 2441(49) 2478.1545 1257.4834
2006 101.1206 1939(44) 1990.5159 1260.5137
2007 101.1706 1607(40) 1654.4418 1263.5444
2008 101.2206 1432(37) 1462.3931 1266.5752
2009 101.2706 1279(35) 1369.5151 1269.6056
2010 101.3206 1188(34) 1330.6359 1272.6364
2011 101.3706 1190(34) 1316.1852 1275.6666
2012 101.4206 1228(35) 1311.3143 1278.6974
2013 101.4706 1211(34) 1310.0056 1281.7281
2014 101.5206 1235(35) 1310.1558 1284.7585
2015 101.5706 1163(34) 1311.0684 1287.7893
2016 101.6206 1132(33) 1312.4883 1290.8196
2017 101.6706 1150(33) 1314.2905 1293.8503
2018 101.7206 1135(33) 1316.3994 1296.8811
2019 101.7706 1135(33) 1318.7653 1299.9114
2020 101.8206 1169(34) 1321.3557 1302.9421
2021 101.8706 1153(33) 1321.1528 1302.9746
2022 101.9206 1144(33) 1318.7505 1300.6118
2023 101.9706 1128(33) 1318.6005 1298.2491
2024 102.0206 1078(32) 1316.6302 1295.8868
2025 102.0706 1116(33) 1314.8838 1293.5242
2026 102.1206 1092(33) 1313.3917 1291.1617
2027 102.1706 1085(32) 1312.1991 1288.7991
2028 102.2206 1185(34) 1311.3680 1286.4364
2029 102.2706 1115(33) 1306.6886 1284.0741
2030 102.3206 1137(33) 1307.0369 1281.7114
2031 102.3706 1221(34) 1308.5159 1279.3490
2032 102.4206 1261(35) 1312.5840 1276.9863
2033 102.4706 1226(35) 1323.5437 1274.6237
2034 102.5206 1225(35) 1352.6497 1272.2614
2035 102.5706 1416(37) 1424.2668 1269.8987
2036 102.6206 1604(40) 1580.0952 1267.5363
2037 102.6706 1864(43) 1872.0408 1265.1736
2038 102.7206 2382(48) 2332.2451 1262.8109
2039 102.7706 3041(55) 2928.8398 1260.4486
2040 102.8206 3504(59) 3532.9443 1258.0858
2041 102.8706 3910(62) 3939.2642 1255.7235
2042 102.9206 3857(62) 3965.8430 1253.3608
2043 102.9706 3620(60) 3598.6309 1250.9982
2044 103.0206 3046(55) 3003.2151 1248.6357
2045 103.0706 2412(49) 2388.9219 1246.2731
2046 103.1206 1896(43) 1899.7517 1243.9108
2047 103.1706 1610(40) 1581.0513 1241.5481
2048 103.2206 1462(38) 1406.2412 1239.1854
2049 103.2706 1319(36) 1322.5496 1236.8230
2050 103.3206 1229(35) 1285.4247 1234.4603
2051 103.3706 1187(34) 1268.2869 1232.0980
2052 103.4206 1125(33) 1258.7603 1229.7354
2053 103.4706 1187(34) 1252.0986 1227.3727
2054 103.5206 1183(34) 1246.6826 1225.0103
2055 103.5706 1152(33) 1241.9662 1222.6476
2056 103.6206 1169(34) 1237.7264 1220.2853
2057 103.6706 1165(34) 1233.8386 1217.9226
2058 103.7206 1129(33) 1230.2236 1215.5598
2059 103.7706 1108(33) 1226.8225 1213.1975
2060 103.8206 1156(34) 1223.5918 1210.8348
2061 103.8706 1162(34) 1220.4999 1208.4725
2062 103.9206 1178(34) 1217.5208 1206.1099
2063 103.9706 1132(33) 1214.6360 1203.7471
2064 104.0206 1179(34) 1211.8304 1201.3848
2065 104.0706 1232(35) 1209.0913 1199.0221
2066 104.1206 1187(34) 1206.4099 1196.6598
2067 104.1706 1189(34) 1203.7772 1194.2971
2068 104.2206 1158(34) 1201.1873 1191.9343
2069 104.2706 1155(33) 1198.6354 1189.5720
2070 104.3206 1126(33) 1196.1163 1187.2094
2071 104.3706 1162(34) 1193.6272 1184.8470
2072 104.4206 1234(35) 1191.1641 1182.4843
2073 104.4706 1170(34) 1188.7252 1180.1216
2074 104.5206 1161(34) 1186.3086 1177.7593
2075 104.5706 1161(34) 1183.9119 1175.3966
2076 104.6206 1134(33) 1181.5342 1173.0342
2077 104.6706 1129(33) 1179.1737 1170.6715
2078 104.7206 1147(33) 1176.8297 1168.3088
2079 104.7706 1139(33) 1174.5018 1165.9465
2080 104.8206 1164(34) 1172.1887 1163.5839
2081 104.8706 1253(35) 1169.8903 1161.2214
2082 104.9206 1200(34) 1167.6056 1158.8588
2083 104.9706 1219(34) 1165.3348 1156.4961
2084 105.0206 1188(34) 1163.0980 1154.1338
2085 105.0706 1217(34) 1160.8546 1151.7710
2086 105.1206 1171(34) 1158.6252 1149.4087
2087 105.1706 1142(33) 1156.4093 1147.0460
2088 105.2206 1185(34) 1154.2069 1144.6833
2089 105.2706 1177(34) 1152.0190 1142.3210
2090 105.3206 1089(33) 1149.8450 1139.9583
2091 105.3706 1152(33) 1147.6862 1137.5959
2092 105.4206 1142(33) 1145.5422 1135.2333
2093 105.4706 1130(33) 1143.4139 1132.8706
2094 105.5206 1101(33) 1141.3025 1130.5083
2095 105.5706 1153(33) 1139.2076 1128.1455
2096 105.6206 1183(34) 1137.1311 1125.7832
2097 105.6706 1160(34) 1135.0731 1123.4205
2098 105.7206 1184(34) 1133.0349 1121.0579
2099 105.7706 1192(34) 1131.0182 1118.6956
2100 105.8206 1202(34) 1129.0232 1116.3328
2101 105.8706 1130(33) 1127.0521 1113.9705
2102 105.9206 1130(33) 1125.1061 1111.6078
2103 105.9706 1159(34) 1123.1866 1109.2451
2104 106.0206 1123(33) 1121.2964 1106.8827
2105 106.0706 1145(33) 1119.4366 1104.5200
2106 106.1206 1110(33) 1118.7083 1103.2557
2107 106.1706 1083(32) 1120.7050 1104.6805
2108 106.2206 1106(33) 1122.7399 1106.1053
2109 106.2706 1087(32) 1124.8163 1107.5299
2110 106.3206 1136(33) 1126.9380 1108.9547
2111 106.3706 1094(33) 1129.1083 1110.3793
2112 106.4206 1140(33) 1131.3326 1111.8041
2113 106.4706 1143(33) 1133.6146 1113.2289
2114 106.5206 1112(33) 1135.9603 1114.6534
2115 106.5706 1160(34) 1138.3760 1116.0782
2116 106.6206 1172(34) 1140.8678 1117.5029
2117 106.6706 1147(33) 1143.4448 1118.9277
2118 106.7206 1114(33) 1146.1144 1120.3525
2119 106.7706 1127(33) 1148.8871 1121.7771
2120 106.8206 1180(34) 1151.7747 1123.2019
2121 106.8706 1201(34) 1154.7891 1124.6265
2122 106.9206 1130(33) 1157.9473 1126.0513
2123 106.9706 1151(33) 1161.0918 1127.4761
2124 107.0206 1189(34) 1164.5912 1128.9006
2125 107.0706 1212(34) 1168.2932 1130.3254
2126 107.1206 1162(34) 1172.2238 1131.7501
2127 107.1706 1091(33) 1176.4167 1133.1749
2128 107.2206 1161(34) 1180.9060 1134.5997
2129 107.2706 1194(34) 1185.7375 1136.0243
2130 107.3206 1216(34) 1190.9634 1137.4491
2131 107.3706 1199(34) 1196.6442 1138.8737
2132 107.4206 1246(35) 1202.8604 1140.2985
2133 107.4706 1158(34) 1209.6979 1141.7233
2134 107.5206 1285(35) 1217.2748 1143.1478
2135 107.5706 1233(35) 1225.7321 1144.5726
2136 107.6206 1206(34) 1235.2465 1145.9973
2137 107.6706 1212(34) 1246.0574 1147.4221
2138 107.7206 1214(34) 1258.4552 1148.8469
2139 107.7706 1272(35) 1272.8470 1150.2715
2140 107.8206 1212(34) 1289.7585 1151.6963
2141 107.8706 1270(35) 1309.8838 1153.1208
2142 107.9206 1280(35) 1334.1853 1154.5457
2143 107.9706 1273(35) 1363.9878 1155.9705
2144 108.0206 1401(37) 1401.6069 1157.3950
2145 108.0706 1410(37) 1451.9541 1158.8198
2146 108.1206 1496(38) 1527.1266 1160.2445
2147 108.1706 1712(41) 1656.6648 1161.6693
2148 108.2206 1977(44) 1904.0369 1163.0941
2149 108.2706 2420(49) 2385.2588 1164.5187
2150 108.3206 3232(56) 3270.4434 1165.9435
2151 108.3706 4672(68) 4747.4946 1167.3680
2152 108.4206 6966(83) 6941.6499 1168.7928
2153 108.4706 9919(99) 9793.6426 1170.2177
2154 108.5206 12998(114) 12949.5000 1171.6422
2155 108.5706 15592(124) 15668.8301 1173.0670
2156 108.6206 16918(130) 16954.4375 1174.4917
2157 108.6706 16766(129) 16176.0195 1175.9165
2158 108.7206 14112(118) 13664.8691 1177.3413
2159 108.7706 10608(102) 10381.7070 1178.7659
2160 108.8206 7493(86) 7258.5918 1180.1907
2161 108.8706 5162(71) 4844.9751 1181.6152
2162 108.9206 3503(59) 3260.3857 1183.0400
2163 108.9706 2534(50) 2351.0486 1184.4648
2164 109.0206 1981(44) 1878.5685 1185.8894
2165 109.0706 1708(41) 1645.5688 1187.3142
2166 109.1206 1588(39) 1528.5378 1188.7389
2167 109.1706 1482(38) 1463.5145 1190.1637
2168 109.2206 1371(37) 1421.8138 1191.5885
2169 109.2706 1331(36) 1391.5178 1193.0131
2170 109.3206 1265(35) 1367.8311 1194.4379
2171 109.3706 1284(35) 1348.6345 1195.8624
2172 109.4206 1208(34) 1332.7946 1197.2872
2173 109.4706 1156(34) 1319.6292 1198.7120
2174 109.5206 1237(35) 1308.6207 1200.1366
2175 109.5706 1239(35) 1299.3895 1201.5614
2176 109.6206 1233(35) 1291.6324 1202.9861
2177 109.6706 1234(35) 1285.0955 1204.4109
2178 109.7206 1196(34) 1279.5884 1205.8357
2179 109.7706 1265(35) 1274.9412 1207.2603
2180 109.8206 1312(36) 1271.0237 1208.6851
2181 109.8706 1188(34) 1267.7283 1210.1096
2182 109.9206 1183(34) 1264.9622 1211.5344
2183 109.9706 1228(35) 1262.6567 1212.9592
2184 110.0206 1213(34) 1259.1478 1212.7838
2185 110.0706 1230(35) 1255.7645 1212.3862
2186 110.1206 1204(34) 1252.6884 1211.9888
2187 110.1706 1258(35) 1249.8823 1211.5912
2188 110.2206 1200(34) 1247.3217 1211.1936
2189 110.2706 1182(34) 1244.9814 1210.7960
2190 110.3206 1204(34) 1242.8450 1210.3984
2191 110.3706 1188(34) 1240.9001 1210.0009
2192 110.4206 1204(34) 1239.1389 1209.6033
2193 110.4706 1237(35) 1237.5667 1209.2057
2194 110.5206 1246(35) 1236.2128 1208.8082
2195 110.5706 1159(34) 1235.1935 1208.4106
2196 110.6206 1149(33) 1234.8734 1208.0131
2197 110.6706 1170(34) 1236.2318 1207.6155
2198 110.7206 1252(35) 1241.4386 1207.2179
2199 110.7706 1323(36) 1254.2853 1206.8203
2200 110.8206 1328(36) 1279.6282 1206.4227
2201 110.8706 1403(37) 1320.7136 1206.0253
2202 110.9206 1514(38) 1375.0480 1205.6276
2203 110.9706 1582(39) 1431.0792 1205.2300
2204 111.0206 1578(39) 1469.6621 1204.8325
2205 111.0706 1543(39) 1473.1313 1204.4349
2206 111.1206 1515(38) 1439.3082 1204.0374
2207 111.1706 1478(38) 1383.3846 1203.6398
2208 111.2206 1352(36) 1325.1394 1203.2422
2209 111.2706 1313(36) 1278.3217 1202.8446
2210 111.3206 1238(35) 1247.4091 1202.4470
2211 111.3706 1225(35) 1230.0598 1202.0496
2212 111.4206 1276(35) 1221.3766 1201.6520
2213 111.4706 1266(35) 1217.2429 1201.2544
2214 111.5206 1234(35) 1214.9891 1200.8568
2215 111.5706 1231(35) 1213.4999 1200.4592
2216 111.6206 1209(34) 1212.3143 1200.0616
2217 111.6706 1206(34) 1211.2717 1199.6641
2218 111.7206 1290(35) 1210.3169 1199.2665
2219 111.7706 1247(35) 1209.4257 1198.8690
2220 111.8206 1263(35) 1208.5842 1198.4713
2221 111.8706 1294(35) 1207.7839 1198.0739
2222 111.9206 1254(35) 1207.0173 1197.6763
2223 111.9706 1241(35) 1206.2797 1197.2787
2224 112.0206 1291(35) 1205.5668 1196.8811
2225 112.0706 1274(35) 1204.8752 1196.4835
2226 112.1206 1248(35) 1204.2029 1196.0859
2227 112.1706 1295(35) 1203.5472 1195.6884
2228 112.2206 1247(35) 1202.9067 1195.2908
2229 112.2706 1202(34) 1202.2800 1194.8933
2230 112.3206 1169(34) 1201.6654 1194.4957
2231 112.3706 1193(34) 1201.0623 1194.0981
2232 112.4206 1205(34) 1200.4692 1193.7006
2233 112.4706 1250(35) 1199.8859 1193.3030
2234 112.5206 1260(35) 1200.2769 1193.8710
2235 112.5706 1223(34) 1202.1737 1195.9366
2236 112.6206 1197(34) 1204.0778 1198.0020
2237 112.6706 1216(34) 1205.9893 1200.0676
2238 112.7206 1223(34) 1207.9075 1202.1333
2239 112.7706 1149(33) 1209.8317 1204.1987
2240 112.8206 1139(33) 1211.7618 1206.2643
2241 112.8706 1176(34) 1213.6975 1208.3297
2242 112.9206 1180(34) 1215.6384 1210.3954
2243 112.9706 1173(34) 1217.5845 1212.4611
2244 113.0206 1173(34) 1219.5347 1214.5264
2245 113.0706 1239(35) 1221.4897 1216.5920
2246 113.1206 1208(34) 1223.4486 1218.6573
2247 113.1706 1196(34) 1225.4119 1220.7230
2248 113.2206 1187(34) 1227.3790 1222.7887
2249 113.2706 1242(35) 1229.3495 1224.8541
2250 113.3206 1263(35) 1231.3236 1226.9198
2251 113.3706 1241(35) 1233.3008 1228.9851
2252 113.4206 1222(34) 1235.2815 1231.0508
2253 113.4706 1179(34) 1237.2653 1233.1165
2254 113.5206 1233(35) 1239.2515 1235.1818
2255 113.5706 1200(34) 1241.2410 1237.2474
2256 113.6206 1188(34) 1243.2328 1239.3127
2257 113.6706 1285(35) 1245.3623 1241.3784
2258 113.7206 1262(35) 1247.3618 1243.4441
2259 113.7706 1268(35) 1249.3635 1245.5095
2260 113.8206 1286(35) 1251.3679 1247.5752
2261 113.8706 1254(35) 1253.3744 1249.6405
2262 113.9206 1261(35) 1255.3833 1251.7062
2263 113.9706 1266(35) 1257.3945 1253.7719
2264 114.0206 1216(34) 1259.4075 1255.8372
2265 114.0706 1256(35) 1261.4229 1257.9028
2266 114.1206 1241(35) 1263.4401 1259.9683
2267 114.1706 1253(35) 1265.4595 1262.0338
2268 114.2206 1218(34) 1267.4808 1264.0995
2269 114.2706 1216(34) 1269.5039 1266.1649
2270 114.3206 1260(35) 1271.5292 1268.2306
2271 114.3706 1298(36) 1273.5559 1270.2959
2272 114.4206 1207(34) 1275.5848 1272.3616
2273 114.4706 1221(34) 1277.6156 1274.4272
2274 114.5206 1238(35) 1279.6478 1276.4926
2275 114.5706 1225(35) 1281.6823 1278.5582
2276 114.6206 1242(35) 1283.7184 1280.6237
2277 114.6706 1217(34) 1285.7562 1282.6892
2278 114.7206 1156(34) 1287.7961 1284.7549
2279 114.7706 1237(35) 1289.8378 1286.8203
2280 114.8206 1223(34) 1291.8813 1288.8860
2281 114.8706 1287(35) 1293.9265 1290.9513
2282 114.9206 1252(35) 1295.9740 1293.0170
2283 114.9706 1259(35) 1298.0236 1295.0826
2284 115.0206 1232(35) 1300.0747 1297.1479
2285 115.0706 1217(34) 1302.1283 1299.2136
2286 115.1206 1313(36) 1304.1838 1301.2791
2287 115.1706 1213(34) 1306.2418 1303.3447
2288 115.2206 1264(35) 1308.3022 1305.4104
2289 115.2706 1264(35) 1308.3094 1307.4757
2290 115.3206 1266(35) 1318.9360 1309.5414
2291 115.3706 1258(35) 1321.1516 1311.6067
2292 115.4206 1274(35) 1323.3722 1313.6724
2293 115.4706 1267(35) 1325.5978 1315.7380
2294 115.5206 1223(34) 1327.8284 1317.8033
2295 115.5706 1275(35) 1330.0649 1319.8690
2296 115.6206 1264(35) 1332.3074 1321.9344
2297 115.6706 1267(35) 1334.5565 1324.0001
2298 115.7206 1319(36) 1336.8125 1326.0658
2299 115.7706 1200(34) 1339.0757 1328.1311
2300 115.8206 1268(35) 1341.3473 1330.1968
2301 115.8706 1295(35) 1343.6273 1332.2621
2302 115.9206 1270(35) 1345.9175 1334.3278
2303 115.9706 1234(35) 1348.2180 1336.3934
2304 116.0206 1258(35) 1350.5298 1338.4587
2305 116.0706 1258(35) 1352.8547 1340.5244
2306 116.1206 1280(35) 1355.1936 1342.5898
2307 116.1706 1277(35) 1357.5488 1344.6555
2308 116.2206 1299(36) 1359.9219 1346.7212
2309 116.2706 1221(34) 1362.3151 1348.7865
2310 116.3206 1259(35) 1364.7319 1350.8522
2311 116.3706 1261(35) 1367.1753 1352.9175
2312 116.4206 1348(36) 1369.6504 1354.9832
2313 116.4706 1346(36) 1372.1619 1357.0488
2314 116.5206 1370(37) 1374.7166 1359.1143
2315 116.5706 1424(37) 1377.3234 1361.1799
2316 116.6206 1365(36) 1379.9923 1363.2452
2317 116.6706 1367(36) 1382.7388 1365.3109
2318 116.7206 1310(36) 1385.5795 1367.3766
2319 116.7706 1413(37) 1388.5392 1369.4419
2320 116.8206 1327(36) 1391.6531 1371.5076
2321 116.8706 1330(36) 1394.9762 1373.5729
2322 116.9206 1340(36) 1398.6322 1375.6385
2323 116.9706 1355(36) 1402.9521 1377.7042
2324 117.0206 1356(36) 1408.9175 1379.7697
2325 117.0706 1415(37) 1419.1547 1381.8353
2326 117.1206 1447(38) 1439.7584 1383.9006
2327 117.1706 1581(39) 1481.9232 1385.9663
2328 117.2206 1702(41) 1561.0585 1388.0320
2329 117.2706 1973(44) 1690.1616 1390.0973
2330 117.3206 2378(48) 1866.6514 1392.1630
2331 117.3706 2562(50) 2060.1189 1394.2283
2332 117.4206 2724(52) 2212.4426 1396.2939
2333 117.4706 2590(50) 2260.2322 1398.3596
2334 117.5206 2614(51) 2181.5859 1400.4250
2335 117.5706 2384(48) 2015.6121 1402.4907
2336 117.6206 2062(45) 1827.2699 1404.5560
2337 117.6706 1805(42) 1667.5988 1406.6217
2338 117.7206 1599(39) 1558.5923 1408.6874
2339 117.7706 1494(38) 1496.7688 1410.7527
2340 117.8206 1441(37) 1467.2931 1412.8184
2341 117.8706 1374(37) 1455.5044 1414.8838
2342 117.9206 1332(36) 1451.8005 1416.9495
2343 117.9706 1378(37) 1451.3654 1419.0151
2344 118.0206 1319(36) 1452.2067 1421.0804
2345 118.0706 1290(35) 1453.6128 1423.1461
2346 118.1206 1273(35) 1455.3362 1425.2114
2347 118.1706 1270(35) 1457.2805 1427.2771
2348 118.2206 1347(36) 1459.3961 1429.3428
2349 118.2706 1319(36) 1461.6521 1431.4081
2350 118.3206 1318(36) 1464.0287 1433.4738
2351 118.3706 1325(36) 1466.5117 1435.5392
2352 118.4206 1276(35) 1469.0928 1437.6049
2353 118.4706 1365(36) 1471.7664 1439.6704
2354 118.5206 1340(36) 1474.5308 1441.7358
2355 118.5706 1340(36) 1476.1895 1442.6040
2356 118.6206 1318(36) 1473.8422 1439.3710
2357 118.6706 1393(37) 1471.5962 1436.1373
2358 118.7206 1303(36) 1469.4611 1432.9038
2359 118.7706 1346(36) 1467.4504 1429.6707
2360 118.8206 1332(36) 1465.5808 1426.4371
2361 118.8706 1329(36) 1463.8762 1423.2040
2362 118.9206 1235(35) 1462.3669 1419.9705
2363 118.9706 1356(36) 1461.0931 1416.7368
2364 119.0206 1445(38) 1460.1130 1413.5038
2365 119.0706 1409(37) 1459.5116 1410.2701
2366 119.1206 1401(37) 1459.4576 1407.0371
2367 119.1706 1377(37) 1460.3739 1403.8035
2368 119.2206 1379(37) 1463.4905 1400.5699
2369 119.2706 1540(39) 1472.2451 1397.3369
2370 119.3206 1575(39) 1494.9691 1394.1033
2371 119.3706 1651(40) 1548.3030 1390.8702
2372 119.4206 1774(42) 1657.8699 1387.6366
2373 119.4706 1963(44) 1850.3898 1384.4031
2374 119.5206 2355(48) 2133.7793 1381.1699
2375 119.5706 2732(52) 2472.7393 1377.9364
2376 119.6206 2885(53) 2779.0396 1374.7032
2377 119.6706 2977(54) 2934.9419 1371.4697
2378 119.7206 2798(52) 2866.1228 1368.2361
2379 119.7706 2609(51) 2607.0381 1365.0031
2380 119.8206 2421(49) 2266.5364 1361.7694
2381 119.8706 2074(45) 1949.6404 1358.5364
2382 119.9206 1789(42) 1714.7843 1355.3027
2383 119.9706 1675(40) 1569.9780 1352.0692
2384 120.0206 1503(38) 1493.5057 1348.8361
2385 120.0706 1469(38) 1457.6088 1345.6025
2386 120.1206 1445(38) 1441.6113 1342.3694
2387 120.1706 1434(37) 1434.1193 1339.1359
2388 120.2206 1437(37) 1430.0647 1335.9023
2389 120.2706 1369(37) 1427.5436 1332.6692
2390 120.3206 1448(38) 1425.8997 1329.4357
2391 120.3706 1371(37) 1424.8987 1326.2025
2392 120.4206 1420(37) 1424.4470 1322.9690
2393 120.4706 1442(37) 1424.4919 1319.7354
2394 120.5206 1464(38) 1425.0154 1316.5023
2395 120.5706 1429(37) 1426.0087 1313.2687
2396 120.6206 1460(38) 1427.4775 1310.0356
2397 120.6706 1461(38) 1429.4431 1306.8020
2398 120.7206 1416(37) 1431.9259 1303.5685
2399 120.7706 1467(38) 1434.9675 1300.3353
2400 120.8206 1455(38) 1439.5721 1298.0636
2401 120.8706 1371(37) 1446.6322 1297.5935
2402 120.9206 1413(37) 1454.4186 1297.1233
2403 120.9706 1389(37) 1462.9984 1296.6532
2404 121.0206 1423(37) 1472.4702 1296.1831
2405 121.0706 1434(37) 1482.9377 1295.7129
2406 121.1206 1463(38) 1494.5222 1295.2428
2407 121.1706 1493(38) 1507.3826 1294.7727
2408 121.2206 1475(38) 1521.6758 1294.3026
2409 121.2706 1463(38) 1537.6213 1293.8325
2410 121.3206 1437(37) 1555.4604 1293.3623
2411 121.3706 1514(38) 1575.4817 1292.8922
2412 121.4206 1533(39) 1598.0625 1292.4221
2413 121.4706 1515(38) 1623.6115 1291.9519
2414 121.5206 1518(38) 1652.6912 1291.4818
2415 121.5706 1505(38) 1685.9698 1291.0117
2416 121.6206 1612(40) 1724.2889 1290.5416
2417 121.6706 1658(40) 1768.7761 1290.0715
2418 121.7206 1630(40) 1820.7756 1289.6013
2419 121.7706 1600(40) 1882.1317 1289.1312
2420 121.8206 1735(41) 1955.1580 1288.6611
2421 121.8706 1817(42) 2042.8921 1288.1910
2422 121.9206 1880(43) 2149.7278 1287.7208
2423 121.9706 2096(45) 2282.4795 1287.2507
2424 122.0206 2289(47) 2454.6792 1286.7806
2425 122.0706 2770(52) 2695.6196 1286.3105
2426 122.1206 3266(57) 3069.9360 1285.8405
2427 122.1706 4097(64) 3711.0767 1285.3702
2428 122.2206 5290(72) 4859.6182 1284.9001
2429 122.2706 7034(83) 6891.2100 1284.4301
2430 122.3206 9844(99) 10284.4795 1283.9598
2431 122.3706 14562(120) 15501.6992 1283.4897
2432 122.4206 21888(147) 22786.9531 1283.0197
2433 122.4706 31787(178) 31877.8027 1282.5496
2434 122.5206 43103(207) 41769.0703 1282.0795
2435 122.5706 52570(229) 50504.6289 1281.6093
2436 122.6206 57586(239) 55462.6172 1281.1392
2437 122.6706 55470(235) 54700.7969 1280.6691
2438 122.7206 48098(219) 48486.7148 1280.1989
2439 122.7706 37692(194) 38992.9336 1279.7288
2440 122.8206 28375(168) 28803.0820 1279.2587
2441 122.8706 19723(140) 19847.7422 1278.7886
2442 122.9206 13327(115) 13051.2666 1278.3185
2443 122.9706 9292(96) 8484.6621 1277.8483
2444 123.0206 6655(81) 5701.2988 1277.3782
2445 123.0706 4919(70) 4123.9170 1276.9081
2446 123.1206 3986(63) 3261.7361 1276.4380
2447 123.1706 3273(57) 2782.9951 1275.9678
2448 123.2206 2875(53) 2497.7708 1275.4977
2449 123.2706 2422(49) 2308.3608 1275.0276
2450 123.3206 2085(45) 2169.0840 1274.5575
2451 123.3706 2009(44) 2059.1758 1274.0874
2452 123.4206 1850(43) 1968.7712 1273.6172
2453 123.4706 1735(41) 1892.7852 1273.1471
2454 123.5206 1703(41) 1828.1655 1272.6770
2455 123.5706 1647(40) 1772.7075 1272.2068
2456 123.6206 1597(39) 1724.8079 1271.7367
2457 123.6706 1557(39) 1683.1581 1271.2666
2458 123.7206 1474(38) 1646.7900 1270.7965
2459 123.7706 1427(37) 1614.8394 1270.3264
2460 123.8206 1456(38) 1586.6373 1269.8562
2461 123.8706 1558(39) 1561.6309 1269.3861
2462 123.9206 1550(39) 1539.3354 1268.9160
2463 123.9706 1492(38) 1519.3932 1268.4458
2464 124.0206 1534(39) 1501.4651 1267.9757
2465 124.0706 1575(39) 1485.2892 1267.5056
2466 124.1206 1507(38) 1470.6438 1267.0355
2467 124.1706 1570(39) 1457.3262 1266.5654
2468 124.2206 1505(38) 1445.1897 1266.0952
2469 124.2706 1522(39) 1434.0852 1265.6251
2470 124.3206 1448(38) 1423.8977 1265.1550
2471 124.3706 1433(37) 1414.5278 1264.6849
2472 124.4206 1422(37) 1408.4553 1266.7910
2473 124.4706 1501(38) 1405.1804 1271.0399
2474 124.5206 1448(38) 1402.4852 1275.2881
2475 124.5706 1462(38) 1400.3152 1279.5370
2476 124.6206 1464(38) 1398.6191 1283.7852
2477 124.6706 1523(39) 1397.3481 1288.0341
2478 124.7206 1488(38) 1396.4683 1292.2830
2479 124.7706 1406(37) 1395.9385 1296.5312
2480 124.8206 1378(37) 1395.7301 1300.7800
2481 124.8706 1482(38) 1395.8153 1305.0283
2482 124.9206 1410(37) 1396.1664 1309.2772
2483 124.9706 1454(38) 1396.7650 1313.5260
2484 125.0206 1525(39) 1397.5873 1317.7743
2485 125.0706 1430(37) 1398.6173 1322.0232
2486 125.1206 1395(37) 1399.8381 1326.2714
2487 125.1706 1324(36) 1401.2340 1330.5203
2488 125.2206 1418(37) 1402.7943 1334.7692
2489 125.2706 1354(36) 1404.5034 1339.0173
2490 125.3206 1425(37) 1406.3529 1343.2662
2491 125.3706 1467(38) 1408.3318 1347.5144
2492 125.4206 1435(37) 1410.4304 1351.7633
2493 125.4706 1433(37) 1412.6423 1356.0122
2494 125.5206 1355(36) 1414.9574 1360.2605
2495 125.5706 1413(37) 1417.3704 1364.5093
2496 125.6206 1426(37) 1419.8743 1368.7576
2497 125.6706 1380(37) 1419.5243 1370.0679
2498 125.7206 1407(37) 1418.6586 1370.9153
2499 125.7706 1386(37) 1418.0024 1371.7626
2500 125.8206 1393(37) 1417.4165 1372.6100
2501 125.8706 1380(37) 1416.8965 1373.4573
2502 125.9206 1446(38) 1416.4375 1374.3047
2503 125.9706 1415(37) 1416.0375 1375.1521
2504 126.0206 1425(37) 1415.6917 1375.9995
2505 126.0706 1428(37) 1415.3975 1376.8469
2506 126.1206 1355(36) 1415.1522 1377.6942
2507 126.1706 1353(36) 1414.9524 1378.5416
2508 126.2206 1405(37) 1414.7965 1379.3890
2509 126.2706 1410(37) 1414.6813 1380.2363
2510 126.3206 1455(38) 1414.6051 1381.0837
2511 126.3706 1402(37) 1414.5659 1381.9310
2512 126.4206 1343(36) 1414.5612 1382.7784
2513 126.4706 1398(37) 1414.5900 1383.6259
2514 126.5206 1403(37) 1414.6499 1384.4731
2515 126.5706 1377(37) 1414.7399 1385.3206
2516 126.6206 1312(36) 1414.8583 1386.1678
2517 126.6706 1410(37) 1415.0033 1387.0153
2518 126.7206 1367(36) 1415.1746 1387.8627
2519 126.7706 1372(37) 1415.3700 1388.7100
2520 126.8206 1402(37) 1415.5889 1389.5574
2521 126.8706 1398(37) 1415.8301 1390.4047
2522 126.9206 1441(37) 1416.0923 1391.2521
2523 126.9706 1450(38) 1416.3751 1392.0995
2524 127.0206 1441(37) 1416.6772 1392.9468
2525 127.0706 1416(37) 1416.9979 1393.7942
2526 127.1206 1390(37) 1417.3364 1394.6415
2527 127.1706 1392(37) 1417.6919 1395.4889
2528 127.2206 1411(37) 1418.0638 1396.3363
2529 127.2706 1437(37) 1418.4513 1397.1836
2530 127.3206 1465(38) 1418.8540 1398.0311
2531 127.3706 1377(37) 1419.2711 1398.8784
2532 127.4206 1324(36) 1419.7020 1399.7258
2533 127.4706 1394(37) 1420.1466 1400.5732
2534 127.5206 1503(38) 1420.6040 1401.4205
2535 127.5706 1409(37) 1421.0740 1402.2679
2536 127.6206 1415(37) 1421.5560 1403.1152
2537 127.6706 1425(37) 1422.0497 1403.9626
2538 127.7206 1334(36) 1422.5551 1404.8101
2539 127.7706 1358(36) 1423.0714 1405.6573
2540 127.8206 1389(37) 1423.5988 1406.5048
2541 127.8706 1407(37) 1424.1368 1407.3521
2542 127.9206 1418(37) 1424.6853 1408.1995
2543 127.9706 1419(37) 1425.2445 1409.0469
2544 128.0206 1514(38) 1425.8141 1409.8943
2545 128.0706 1465(38) 1426.3942 1410.7415
2546 128.1206 1442(37) 1426.9852 1411.5889
2547 128.1706 1456(38) 1427.5872 1412.4363
2548 128.2206 1414(37) 1428.2009 1413.2837
2549 128.2706 1470(38) 1428.8268 1414.1311
2550 128.3206 1456(38) 1429.4658 1414.9783
2551 128.3706 1388(37) 1430.1199 1415.8257
2552 128.4206 1447(38) 1430.7905 1416.6731
2553 128.4706 1468(38) 1431.4807 1417.5205
2554 128.5206 1418(37) 1432.1947 1418.3679
2555 128.5706 1370(37) 1432.9418 1419.2151
2556 128.6206 1462(38) 1433.7451 1420.0625
2557 128.6706 1432(37) 1434.6686 1420.9100
2558 128.7206 1464(38) 1435.8820 1421.7574
2559 128.7706 1436(37) 1437.7788 1422.6049
2560 128.8206 1385(37) 1441.1074 1423.4520
2561 128.8706 1455(38) 1446.9769 1424.2994
2562 128.9206 1462(38) 1456.4852 1425.1469
2563 128.9706 1511(38) 1469.8878 1425.9943
2564 129.0206 1551(39) 1485.6504 1426.8417
2565 129.0706 1524(39) 1500.0195 1427.6888
2566 129.1206 1558(39) 1507.9885 1428.5363
2567 129.1706 1550(39) 1506.3065 1429.3837
2568 129.2206 1502(38) 1496.2300 1430.2311
2569 129.2706 1533(39) 1482.1724 1431.0785
2570 129.3206 1536(39) 1468.6410 1431.9257
2571 129.3706 1527(39) 1458.3510 1432.7731
2572 129.4206 1436(37) 1451.9403 1433.6205
2573 129.4706 1462(38) 1448.6759 1434.4679
2574 129.5206 1452(38) 1447.4097 1435.3153
2575 129.5706 1444(38) 1447.2001 1436.1625
2576 129.6206 1401(37) 1447.4752 1437.0099
2577 129.6706 1520(38) 1447.9550 1437.8573
2578 129.7206 1462(38) 1448.5227 1438.7047
2579 129.7706 1430(37) 1449.1340 1439.5521
2580 129.8206 1478(38) 1449.7717 1440.3993
2581 129.8706 1512(38) 1450.4287 1441.2467
2582 129.9206 1486(38) 1451.1007 1442.0942
2583 129.9706 1488(38) 1443.3120 1442.9417
2584 130.0206 1455(38) 1444.1199 1443.7891
2585 130.0706 1438(37) 1444.9335 1444.6362
2586 130.1206 1475(38) 1445.7521 1445.4836
2587 130.1706 1381(37) 1446.5747 1446.3311
2588 130.2206 1374(37) 1447.4006 1447.1785
2589 130.2706 1447(38) 1448.2292 1448.0259
2590 130.3206 1432(37) 1449.0598 1448.8730
2591 130.3706 1418(37) 1449.8927 1449.7205
2592 130.4206 1442(37) 1450.7272 1450.5679
2593 130.4706 1440(37) 1451.5630 1451.4153
2594 130.5206 1472(38) 1452.4000 1452.2627
2595 130.5706 1462(38) 1453.2379 1453.1099
2596 130.6206 1441(37) 1454.0769 1453.9573
2597 130.6706 1465(38) 1454.9167 1454.8047
2598 130.7206 1461(38) 1458.3533 1455.6521
2599 130.7706 1470(38) 1459.3726 1456.4995
2600 130.8206 1477(38) 1460.2471 1457.3467
2601 130.8706 1427(37) 1461.1228 1458.1941
2602 130.9206 1428(37) 1461.9996 1459.0415
2603 130.9706 1463(38) 1462.8776 1459.8889
2604 131.0206 1505(38) 1463.7563 1460.7363
2605 131.0706 1469(38) 1464.6360 1461.5835
2606 131.1206 1460(38) 1465.5167 1462.4309
2607 131.1706 1482(38) 1466.3984 1463.2783
2608 131.2206 1507(38) 1467.2811 1464.1257
2609 131.2706 1486(38) 1468.1648 1464.9733
2610 131.3206 1500(38) 1469.0490 1465.8203
2611 131.3706 1478(38) 1469.9346 1466.6678
2612 131.4206 1489(38) 1470.8209 1467.5153
2613 131.4706 1502(39) 1471.7083 1468.3627
2614 131.5206 1483(38) 1472.5966 1469.2101
2615 131.5706 1432(38) 1473.4856 1470.0573
2616 131.6206 1389(37) 1474.3759 1470.9047
2617 131.6706 1374(37) 1475.2672 1471.7521
2618 131.7206 1427(38) 1476.1594 1472.5995
2619 131.7706 1488(39) 1477.0529 1473.4469
2620 131.8206 1451(38) 1477.9469 1474.2941
2621 131.8706 1452(39) 1478.8424 1475.1415
2622 131.9206 1439(38) 1479.7389 1475.9889
2623 131.9706 1523(40) 1480.6366 1476.8363
2624 132.0206 1505(39) 1481.5354 1477.6837
2625 132.0706 1530(40) 1482.4352 1478.5309
2626 132.1206 1544(40) 1483.3364 1479.3783
2627 132.1706 1504(40) 1484.2389 1480.2257
2628 132.2206 1502(40) 1485.1426 1481.0731
2629 132.2706 1488(40) 1486.0476 1481.9205
2630 132.3206 1502(40) 1486.9536 1482.7677
2631 132.3706 1492(40) 1487.8615 1483.6151
2632 132.4206 1544(41) 1488.7705 1484.4625
2633 132.4706 1531(41) 1489.6812 1485.3101
2634 132.5206 1493(40) 1490.5933 1486.1575
2635 132.5706 1498(40) 1491.5066 1487.0046
2636 132.6206 1540(41) 1492.4218 1487.8521
2637 132.6706 1538(41) 1493.3386 1488.6995
2638 132.7206 1529(41) 1494.2571 1489.5469
2639 132.7706 1460(40) 1495.1772 1490.3943
2640 132.8206 1464(40) 1496.0990 1491.2415
2641 132.8706 1602(42) 1497.0229 1492.0889
2642 132.9206 1613(42) 1497.9486 1492.9363
2643 132.9706 1546(42) 1498.8763 1493.7837
2644 133.0206 1525(41) 1499.8060 1494.6311
2645 133.0706 1472(41) 1500.7377 1495.4783
2646 133.1206 1493(41) 1501.6716 1496.3257
2647 133.1706 1450(41) 1502.6079 1497.1731
2648 133.2206 1472(41) 1503.5464 1498.0205
2649 133.2706 1515(42) 1504.4874 1498.8679
2650 133.3206 1559(42) 1505.4305 1499.7151
2651 133.3706 1510(42) 1506.3766 1500.5625
2652 133.4206 1565(43) 1507.3253 1501.4099
2653 133.4706 1615(43) 1508.2767 1502.2573
2654 133.5206 1488(42) 1509.3706 1503.1047
2655 133.5706 1520(42) 1510.3297 1503.9519
2656 133.6206 1518(42) 1511.2924 1504.7993
2657 133.6706 1504(42) 1512.2582 1505.6467
2658 133.7206 1548(43) 1513.2274 1506.4941
2659 133.7706 1524(43) 1514.2003 1507.3416
2660 133.8206 1563(43) 1515.1764 1508.1887
2661 133.8706 1604(44) 1516.1567 1509.0361
2662 133.9206 1598(44) 1520.4669 1513.2095
2663 133.9706 1549(43) 1524.9857 1517.5874
2664 134.0206 1544(43) 1529.5089 1521.9652
2665 134.0706 1519(43) 1534.0353 1526.3418
2666 134.1206 1559(44) 1538.5677 1530.7197
2667 134.1706 1548(44) 1543.1051 1535.0977
2668 134.2206 1569(44) 1547.6475 1539.4756
2669 134.2706 1607(45) 1552.1954 1543.8535
2670 134.3206 1564(44) 1556.7474 1548.2301
2671 134.3706 1585(44) 1561.3069 1552.6080
2672 134.4206 1652(45) 1565.8723 1556.9860
2673 134.4706 1524(44) 1570.4442 1561.3639
2674 134.5206 1512(44) 1575.0231 1565.7418
2675 134.5706 1513(44) 1579.6075 1570.1184
2676 134.6206 1522(44) 1584.2010 1574.4963
2677 134.6706 1548(44) 1588.8022 1578.8743
2678 134.7206 1550(45) 1593.4119 1583.2522
2679 134.7706 1551(45) 1598.0303 1587.6301
2680 134.8206 1518(44) 1602.6566 1592.0067
2681 134.8706 1452(43) 1607.2941 1596.3846
2682 134.9206 1527(45) 1611.9419 1600.7626
2683 134.9706 1555(45) 1616.6007 1605.1405
2684 135.0206 1618(46) 1621.2714 1609.5184
2685 135.0706 1562(45) 1625.9529 1613.8950
2686 135.1206 1615(46) 1630.6492 1618.2729
2687 135.1706 1595(46) 1635.3595 1622.6509
2688 135.2206 1548(45) 1640.0848 1627.0288
2689 135.2706 1577(46) 1644.8192 1631.4066
2690 135.3206 1501(45) 1649.5768 1635.7832
2691 135.3706 1556(46) 1654.3546 1640.1611
2692 135.4206 1535(46) 1659.1523 1644.5391
2693 135.4706 1489(45) 1663.9718 1648.9170
2694 135.5206 1581(46) 1668.8149 1653.2949
2695 135.5706 1657(48) 1673.6823 1657.6715
2696 135.6206 1617(47) 1678.5790 1662.0494
2697 135.6706 1599(47) 1683.5063 1666.4274
2698 135.7206 1608(47) 1688.4673 1670.8053
2699 135.7706 1586(47) 1693.4657 1675.1832
2700 135.8206 1558(47) 1698.5037 1679.5598
2701 135.8706 1595(47) 1703.5892 1683.9377
2702 135.9206 1605(48) 1708.7263 1688.3157
2703 135.9706 1589(47) 1713.9218 1692.6936
2704 136.0206 1549(47) 1719.1833 1697.0715
2705 136.0706 1581(47) 1724.5188 1701.4481
2706 136.1206 1540(47) 1729.9432 1705.8260
2707 136.1706 1584(48) 1735.4690 1710.2040
2708 136.2206 1536(47) 1741.1139 1714.5819
2709 136.2706 1604(48) 1746.8997 1718.9598
2710 136.3206 1641(49) 1752.8527 1723.3364
2711 136.3706 1615(49) 1759.0123 1727.7144
2712 136.4206 1631(49) 1765.4249 1732.0923
2713 136.4706 1694(50) 1772.1567 1736.4702
2714 136.5206 1700(50) 1779.3125 1740.8480
2715 136.5706 1677(50) 1787.0994 1745.2246
2716 136.6206 1737(51) 1796.0240 1749.6025
2717 136.6706 1808(52) 1807.3971 1753.9805
2718 136.7206 1803(52) 1824.4351 1758.3584
2719 136.7706 1932(54) 1854.0387 1762.7363
2720 136.8206 2061(56) 1908.5924 1767.1129
2721 136.8706 2267(59) 2005.5635 1771.4908
2722 136.9206 2515(62) 2162.0303 1775.8688
2723 136.9706 2892(67) 2382.6372 1780.2467
2724 137.0206 3229(71) 2645.7551 1784.6246
2725 137.0706 3404(73) 2896.6787 1789.0012
2726 137.1206 3450(73) 3057.3203 1793.3792
2727 137.1706 3381(73) 3066.8823 1797.7571
2728 137.2206 3109(70) 2927.8389 1802.1350
2729 137.2706 2916(68) 2698.9441 1806.5129
2730 137.3206 2683(65) 2452.5964 1810.8895
2731 137.3706 2493(63) 2243.0073 1815.2675
2732 137.4206 2151(58) 2093.7466 1819.6454
2733 137.4706 2000(56) 2002.8827 1824.0233
2734 137.5206 1962(56) 1955.4268 1828.4011
2735 137.5706 1879(55) 1934.7455 1832.7778
2736 137.6206 1878(55) 1928.4441 1837.1558
2737 137.6706 1705(53) 1929.1543 1841.5337
2738 137.7206 1731(53) 1933.2131 1845.9116
2739 137.7706 1743(53) 1939.0269 1850.2896
2740 137.8206 1644(52) 1941.0745 1849.7808
2741 137.8706 1645(52) 1941.1768 1846.4285
2742 137.9206 1675(53) 1942.0984 1843.0762
2743 137.9706 1645(52) 1943.8381 1839.7240
2744 138.0206 1729(54) 1946.4341 1836.3717
2745 138.0706 1610(52) 1949.9421 1833.0204
2746 138.1206 1687(53) 1954.4636 1829.6682
2747 138.1706 1775(55) 1960.1146 1826.3159
2748 138.2206 1722(54) 1967.0634 1822.9636
2749 138.2706 1769(55) 1975.5249 1819.6113
2750 138.3206 1770(55) 1985.7460 1816.2601
2751 138.3706 1743(55) 1998.0681 1812.9078
2752 138.4206 1929(58) 2012.8832 1809.5557
2753 138.4706 1992(59) 2030.7229 1806.2034
2754 138.5206 1913(58) 2052.3003 1802.8511
2755 138.5706 2103(61) 2078.5989 1799.4999
2756 138.6206 2228(62) 2111.3193 1796.1476
2757 138.6706 2401(65) 2153.4922 1792.7953
2758 138.7206 2455(66) 2211.1516 1789.4431
2759 138.7706 2475(66) 2296.0891 1786.0908
2760 138.8206 2830(71) 2429.9373 1782.7396
2761 138.8706 3119(75) 2650.0464 1779.3873
2762 138.9206 3295(77) 3013.4741 1776.0350
2763 138.9706 3719(82) 3598.5728 1772.6827
2764 139.0206 4296(88) 4497.7656 1769.3306
2765 139.0706 5213(97) 5796.4644 1765.9792
2766 139.1206 6784(112) 7547.6313 1762.6270
2767 139.1706 9147(130) 9728.5996 1759.2748
2768 139.2206 12586(153) 12211.5938 1755.9225
2769 139.2706 15692(171) 14732.5166 1752.5702
2770 139.3206 18481(186) 16882.5547 1749.2190
2771 139.3706 20062(194) 18192.1523 1745.8667
2772 139.4206 19783(193) 18315.6016 1742.5144
2773 139.4706 18055(185) 17227.4707 1739.1622
2774 139.5206 15030(169) 15212.8896 1735.8099
2775 139.5706 12232(153) 12713.7910 1732.4587
2776 139.6206 9553(135) 10158.0098 1729.1064
2777 139.6706 7630(121) 7871.6426 1725.7542
2778 139.7206 5988(107) 6033.7544 1722.4019
2779 139.7706 4797(96) 4696.6089 1719.0497
2780 139.8206 4310(91) 3827.3574 1715.6984
2781 139.8706 4049(89) 3344.6069 1712.3462
2782 139.9206 4030(89) 3150.5962 1708.9939
2783 139.9706 3798(86) 3139.2080 1705.6416
2784 140.0206 3685(85) 3200.1348 1702.2893
2785 140.0706 3495(83) 3228.5659 1698.9381
2786 140.1206 3320(81) 3155.3730 1695.5858
2787 140.1706 3134(79) 2975.1003 1692.2336
2788 140.2206 2914(76) 2730.5037 1688.8813
2789 140.2706 2616(72) 2477.3760 1685.5291
2790 140.3206 2288(68) 2258.6401 1682.1779
2791 140.3706 2155(66) 2093.5249 1678.8256
2792 140.4206 1958(63) 1980.9974 1675.4733
2793 140.4706 1903(62) 1909.0071 1672.1211
2794 140.5206 1854(61) 1863.5580 1668.7688
2795 140.5706 1851(62) 1833.5197 1665.4175
2796 140.6206 1791(61) 1811.7686 1662.0653
2797 140.6706 1812(61) 1794.4611 1658.7130
2798 140.7206 1704(59) 1779.6993 1655.3607
2799 140.7706 1710(60) 1766.5953 1652.0085
2800 140.8206 1659(59) 1754.7240 1648.6572
2801 140.8706 1615(58) 1743.8278 1645.3049
2802 140.9206 1653(59) 1733.7513 1641.9528
2803 140.9706 1634(59) 1724.3674 1638.6005
2804 141.0206 1647(59) 1715.5768 1635.2482
2805 141.0706 1575(58) 1707.3069 1631.8970
2806 141.1206 1669(60) 1699.4839 1628.5447
2807 141.1706 1641(59) 1692.0583 1625.1924
2808 141.2206 1629(59) 1684.9811 1621.8402
2809 141.2706 1627(59) 1678.2106 1618.4879
2810 141.3206 1745(62) 1671.7181 1615.1367
2811 141.3706 1577(59) 1665.4683 1611.7844
2812 141.4206 1559(58) 1659.4401 1608.4321
2813 141.4706 1576(59) 1653.6095 1605.0798
2814 141.5206 1540(58) 1647.9563 1601.7277
2815 141.5706 1656(61) 1644.3734 1600.2828
2816 141.6206 1653(61) 1643.1385 1601.0406
2817 141.6706 1688(61) 1642.0380 1601.7985
2818 141.7206 1730(62) 1641.0591 1602.5564
2819 141.7706 1661(61) 1640.1901 1603.3142
2820 141.8206 1539(59) 1639.4236 1604.0719
2821 141.8706 1652(61) 1638.7499 1604.8297
2822 141.9206 1650(61) 1638.1626 1605.5875
2823 141.9706 1638(61) 1637.6544 1606.3455
2824 142.0206 1620(61) 1637.2183 1607.1033
2825 142.0706 1604(61) 1636.8501 1607.8610
2826 142.1206 1623(61) 1636.5438 1608.6188
2827 142.1706 1541(60) 1636.2959 1609.3766
2828 142.2206 1657(62) 1636.1017 1610.1345
2829 142.2706 1603(61) 1635.9568 1610.8923
2830 142.3206 1575(61) 1635.8586 1611.6499
2831 142.3706 1642(62) 1635.8037 1612.4078
2832 142.4206 1689(63) 1635.7896 1613.1656
2833 142.4706 1550(61) 1635.8131 1613.9236
2834 142.5206 1580(62) 1635.8716 1614.6814
2835 142.5706 1563(61) 1635.9633 1615.4390
2836 142.6206 1543(61) 1636.0861 1616.1969
2837 142.6706 1620(63) 1636.2382 1616.9547
2838 142.7206 1671(64) 1636.4176 1617.7125
2839 142.7706 1559(62) 1636.6226 1618.4705
2840 142.8206 1627(63) 1636.8517 1619.2280
2841 142.8706 1664(64) 1637.1038 1619.9860
2842 142.9206 1645(64) 1637.3776 1620.7438
2843 142.9706 1582(63) 1637.6715 1621.5016
2844 143.0206 1640(64) 1637.9846 1622.2595
2845 143.0706 1722(66) 1638.3158 1623.0171
2846 143.1206 1744(66) 1638.6643 1623.7750
2847 143.1706 1679(65) 1639.0291 1624.5328
2848 143.2206 1631(65) 1639.4093 1625.2906
2849 143.2706 1597(64) 1639.8040 1626.0486
2850 143.3206 1628(65) 1640.2124 1626.8062
2851 143.3706 1618(65) 1640.6340 1627.5640
2852 143.4206 1683(66) 1641.0686 1628.3219
2853 143.4706 1613(65) 1641.5148 1629.0797
2854 143.5206 1560(64) 1641.8240 1629.8376
2855 143.5706 1646(66) 1642.2944 1630.5952
2856 143.6206 1664(66) 1642.7751 1631.3530
2857 143.6706 1698(67) 1643.2657 1632.1110
2858 143.7206 1582(65) 1643.7656 1632.8688
2859 143.7706 1639(66) 1644.2742 1633.6266
2860 143.8206 1575(65) 1644.7913 1634.3843
2861 143.8706 1639(66) 1645.3163 1635.1421
2862 143.9206 1613(66) 1645.8494 1635.9000
2863 143.9706 1547(65) 1646.3896 1636.6578
2864 144.0206 1681(68) 1646.9370 1637.4156
2865 144.0706 1697(68) 1647.4910 1638.1733
2866 144.1206 1574(66) 1648.0515 1638.9312
2867 144.1706 1644(67) 1648.6184 1639.6891
2868 144.2206 1618(67) 1649.1912 1640.4469
2869 144.2706 1732(70) 1649.7695 1641.2047
2870 144.3206 1657(68) 1650.3533 1641.9624
2871 144.3706 1581(67) 1650.9424 1642.7202
2872 144.4206 1656(68) 1651.5366 1643.4780
2873 144.4706 1513(66) 1652.1357 1644.2360
2874 144.5206 1686(69) 1652.7394 1644.9938
2875 144.5706 1661(69) 1653.3474 1645.7515
2876 144.6206 1731(71) 1653.9597 1646.5093
2877 144.6706 1697(70) 1654.5764 1647.2671
2878 144.7206 1617(69) 1655.1970 1648.0250
2879 144.7706 1717(71) 1655.8214 1648.7828
2880 144.8206 1699(71) 1656.4493 1649.5405
2881 144.8706 1611(69) 1657.0809 1650.2983
2882 144.9206 1689(71) 1657.7161 1651.0562
2883 144.9706 1714(71) 1658.3545 1651.8141
2884 145.0206 1613(69) 1658.9960 1652.5719
2885 145.0706 1555(68) 1659.6405 1653.3296
2886 145.1206 1684(71) 1660.2881 1654.0874
2887 145.1706 1577(69) 1660.9386 1654.8452
2888 145.2206 1640(71) 1661.5919 1655.6031
2889 145.2706 1687(72) 1662.2478 1656.3610
2890 145.3206 1676(72) 1662.9060 1657.1185
2891 145.3706 1592(70) 1663.5670 1657.8765
2892 145.4206 1623(71) 1664.2305 1658.6343
2893 145.4706 1569(70) 1664.8962 1659.3922
2894 145.5206 1666(72) 1665.5642 1660.1500
2895 145.5706 1600(71) 1666.2341 1660.9076
2896 145.6206 1746(74) 1666.9065 1661.6655
2897 145.6706 1729(74) 1667.5808 1662.4233
2898 145.7206 1615(72) 1668.3066 1663.1812
2899 145.7706 1565(71) 1668.9855 1663.9391
2900 145.8206 1692(74) 1669.6659 1664.6967
2901 145.8706 1681(74) 1670.3484 1665.4546
2902 145.9206 1686(74) 1671.0326 1666.2124
2903 145.9706 1658(73) 1671.7185 1666.9702
2904 146.0206 1777(76) 1672.4061 1667.7281
2905 146.0706 1733(75) 1673.0951 1668.4857
2906 146.1206 1739(76) 1673.7859 1669.2437
2907 146.1706 1722(75) 1674.4781 1670.0015
2908 146.2206 1590(73) 1675.1719 1670.7593
2909 146.2706 1647(74) 1675.8671 1671.5172
2910 146.3206 1652(74) 1676.5634 1672.2748
2911 146.3706 1604(73) 1677.2614 1673.0327
2912 146.4206 1739(77) 1677.9604 1673.7905
2913 146.4706 1699(76) 1678.6609 1674.5483
2914 146.5206 1712(76) 1679.3627 1675.3063
2915 146.5706 1664(75) 1680.0653 1676.0638
2916 146.6206 1607(74) 1680.6277 1676.8217
2917 146.6706 1620(75) 1681.3352 1677.5796
2918 146.7206 1661(76) 1682.0436 1678.3374
2919 146.7706 1620(75) 1682.7531 1679.0952
2920 146.8206 1696(77) 1683.4633 1679.8529
2921 146.8706 1753(79) 1684.1747 1680.6107
2922 146.9206 1579(75) 1684.8872 1681.3687
2923 146.9706 1637(76) 1685.6005 1682.1265
2924 147.0206 1666(77) 1686.3147 1682.8843
2925 147.0706 1776(80) 1687.0297 1683.6420
2926 147.1206 1607(76) 1687.7456 1684.3998
2927 147.1706 1780(80) 1688.4624 1685.1577
2928 147.2206 1669(78) 1689.1801 1685.9155
2929 147.2706 1790(81) 1689.8984 1686.6733
2930 147.3206 1519(75) 1690.6176 1687.4310
2931 147.3706 1608(77) 1691.3375 1688.1888
2932 147.4206 1586(77) 1692.0583 1688.9468
2933 147.4706 1699(79) 1692.7798 1689.7046
2934 147.5206 1764(81) 1693.5018 1690.4624
2935 147.5706 1660(79) 1694.2246 1691.2201
2936 147.6206 1672(79) 1694.9481 1691.9779
2937 147.6706 1635(79) 1695.6722 1692.7357
2938 147.7206 1755(82) 1696.3972 1693.4937
2939 147.7706 1786(83) 1697.1227 1694.2515
2940 147.8206 1713(81) 1697.8486 1695.0092
2941 147.8706 1757(82) 1698.5753 1695.7670
2942 147.9206 1767(83) 1699.3026 1696.5248
2943 147.9706 1611(79) 1700.0306 1697.2827
2944 148.0206 1716(82) 1700.7590 1698.0405
2945 148.0706 1724(82) 1698.8900 1698.7982
2946 148.1206 1592(79) 1699.6493 1699.5560
2947 148.1706 1695(82) 1700.4086 1700.3138
2948 148.2206 1798(85) 1701.1680 1701.0718
2949 148.2706 1653(81) 1701.9272 1701.8296
2950 148.3206 1846(86) 1702.6864 1702.5872
2951 148.3706 1733(84) 1703.4459 1703.3451
2952 148.4206 1712(83) 1704.2054 1704.1029
2953 148.4706 1743(84) 1704.9651 1704.8608
2954 148.5206 1673(83) 1705.7246 1705.6187
2955 148.5706 1721(84) 1706.4839 1706.3762
2956 148.6206 1767(86) 1707.2437 1707.1342
2957 148.6706 1688(84) 1708.0034 1707.8920
2958 148.7206 1718(85) 1708.7632 1708.6499
2959 148.7706 1668(84) 1709.5229 1709.4077
2960 148.8206 1705(85) 1710.2826 1710.1653
2961 148.8706 1677(84) 1711.0426 1710.9232
2962 148.9206 1749(86) 1711.8025 1711.6810
2963 148.9706 1725(86) 1712.5625 1712.4388
2964 149.0206 1787(88) 1713.3226 1713.1968
2965 149.0706 1673(85) 1714.0825 1713.9543
2966 149.1206 1723(87) 1714.8428 1714.7123
2967 149.1706 1720(87) 1715.6030 1715.4701
2968 149.2206 1634(85) 1716.3634 1716.2279
2969 149.2706 1638(85) 1717.1239 1716.9858
2970 149.3206 1747(88) 1717.8840 1717.7434
2971 149.3706 1750(88) 1718.6447 1718.5012
2972 149.4206 1809(90) 1719.4054 1719.2592
2973 149.4706 1691(87) 1720.1660 1720.0170
2974 149.5206 1609(85) 1720.9270 1720.7749
2975 149.5706 1790(90) 1721.6876 1721.5325
2976 149.6206 1811(91) 1722.4485 1722.2903
2977 149.6706 1647(87) 1723.2097 1723.0482
2978 149.7206 1760(90) 1723.9708 1723.8060
2979 149.7706 1714(89) 1724.7323 1724.5640
2980 149.8206 1708(89) 1725.4934 1725.3215
2981 149.8706 1748(90) 1726.2549 1726.0793
2982 149.9206 1818(92) 1727.0166 1726.8373
2983 149.9706 1693(89) 1727.7783 1727.5951
2984 150.0206 1721(90) 1728.5402 1728.3529
2985 150.0706 1714(90) 1729.3020 1729.1106
2986 150.1206 1692(90) 1729.3566 1729.1608
2987 150.1706 1853(95) 1729.3610 1729.1608
2988 150.2206 1805(93) 1729.3656 1729.1608
2989 150.2706 1726(92) 1729.3705 1729.1608
2990 150.3206 1778(93) 1729.3754 1729.1608
2991 150.3706 1843(95) 1729.3805 1729.1608
2992 150.4206 1709(92) 1729.3859 1729.1608
2993 150.4706 1774(94) 1729.3914 1729.1608
2994 150.5206 1842(96) 1729.3971 1729.1608
2995 150.5706 1800(95) 1729.4031 1729.1608
2996 150.6206 1645(91) 1729.4092 1729.1608
2997 150.6706 1736(94) 1729.4155 1729.1608
2998 150.7206 1753(94) 1729.4222 1729.1608
2999 150.7706 1808(96) 1729.4292 1729.1608
3000 150.8206 2021(102) 1729.4364 1729.1608
3001 150.8706 1761(95) 1729.4438 1729.1608
3002 150.9206 1784(96) 1729.4517 1729.1608
3003 150.9706 1735(95) 1729.4597 1729.1608
3004 151.0206 1653(93) 1729.4683 1729.1608
3005 151.0706 1821(98) 1729.4771 1729.1608
3006 151.1206 1701(95) 1729.4863 1729.1608
3007 151.1706 1656(94) 1729.4958 1729.1608
3008 151.2206 1831(99) 1729.5060 1729.1608
3009 151.2706 1799(98) 1729.5165 1729.1608
3010 151.3206 1894(101) 1729.5275 1729.1608
3011 151.3706 1836(100) 1729.5391 1729.1608
3012 151.4206 1846(100) 1729.5511 1729.1608
3013 151.4706 1765(99) 1729.5637 1729.1608
3014 151.5206 1744(98) 1729.5770 1729.1608
3015 151.5706 1789(100) 1729.5911 1729.1608
3016 151.6206 1705(98) 1729.6057 1729.1608
3017 151.6706 1749(99) 1729.6211 1729.1608
3018 151.7206 1807(101) 1729.6373 1729.1608
3019 151.7706 1888(103) 1729.6545 1729.1608
3020 151.8206 1896(104) 1729.1608 1729.1608
loop_
_refln_index_h
_refln_index_k
_refln_index_l
_refln_mult
_pd_refln_phase_id
_refln_observed_status
_refln_F_squared_meas
_refln_F_squared_calc
_refln_phase_calc
_refln_d_spacing
1 1 1 8 1 o 5.3709 4.9752 0.00 3.42904
2 0 0 6 1 o 6.8088 6.6647 0.00 2.96964
1 1 0 12 2 o 0.0000 458.1821 0.00 2.33478
2 2 0 12 1 o 0.3877 0.3594 0.00 2.09985
3 1 1 24 1 o 3.1485 3.1897 0.00 1.79076
2 2 2 8 1 o 4.8327 4.8265 0.00 1.71452
2 0 0 6 2 o 0.0000 918.0421 0.00 1.65094
4 0 0 6 1 o 0.2731 0.3466 0.00 1.48482
3 3 1 24 1 o 2.0516 2.0941 0.00 1.36256
2 1 1 24 2 o 0.0000 403.9021 0.00 1.34798
4 2 0 24 1 o 3.2500 3.4286 0.00 1.32806
4 2 2 24 1 o 0.3312 0.3026 0.00 1.21235
2 2 0 12 2 o 0.0000 329.4553 0.00 1.16739
3 3 3 8 1 o 1.3798 1.3994 0.00 1.14301
5 1 1 24 1 o 1.3798 1.3994 0.00 1.14301
4 4 0 12 1 o 0.2184 0.2491 0.00 1.04992
3 1 0 24 2 o 0.0000 408.4778 0.00 1.04414
5 3 1 48 1 o 0.9181 0.9473 0.00 1.00392
4 4 2 24 1 o 1.5615 1.6719 0.00 0.98988
6 0 0 6 1 o 1.5615 1.6719 0.00 0.98988
2 2 2 8 2 o 0.0000 589.9741 0.00 0.95317
6 2 0 24 1 o 0.2387 0.1976 0.00 0.93908
5 3 3 24 1 o 0.7778 0.6473 0.00 0.90573
6 2 2 24 1 o 1.1941 1.1559 0.00 0.89538
3 2 1 48 2 o 0.0000 367.9325 0.00 0.88246
4 4 4 8 1 o 0.1830 0.1529 0.00 0.85726
5 5 1 24 1 o 0.5034 0.4452 0.00 0.83166
7 1 1 24 1 o 0.5034 0.4452 0.00 0.83166
4 0 0 6 2 o 0.0000 891.4425 0.00 0.82547
6 4 0 24 1 o 0.8686 0.7962 0.00 0.82363
