#------------------------------------------------------------------------------
#$Date: 2019-11-03 13:40:16 +0200 (Sun, 03 Nov 2019) $
#$Revision: 221547 $
#$URL: file:///home/coder/svn-repositories/cod/cif/4/12/84/4128443.cif $
#------------------------------------------------------------------------------
#
# This file is available in the Crystallography Open Database (COD),
# http://www.crystallography.net/
#
# All data on this site have been placed in the public domain by the
# contributors.
#
data_4128443
loop_
_publ_author_name
'Wehrmann, Caleb M.'
'Charlton, Ryan T.'
'Chen, Mark S.'
_publ_section_title
;
 A Concise Synthetic Strategy for Accessing Ambient Stable Bisphenalenyls
 toward Achieving Electroactive Open-Shell \p-Conjugated Materials.
;
_journal_issue                   7
_journal_name_full               'Journal of the American Chemical Society'
_journal_page_first              3240
_journal_page_last               3248
_journal_paper_doi               10.1021/jacs.8b13300
_journal_volume                  141
_journal_year                    2019
_chemical_formula_moiety         '2(C H Cl3), C44 H24'
_chemical_formula_sum            'C46 H26 Cl6'
_chemical_formula_weight         791.37
_chemical_name_systematic        Ph2-IDPL
_space_group_crystal_system      triclinic
_space_group_IT_number           2
_space_group_name_Hall           '-P 1'
_space_group_name_H-M_alt        'P -1'
_atom_sites_solution_hydrogens   geom
_audit_creation_date             2018-08-31
_audit_creation_method
;
Olex2 1.2
(compiled 2018.05.29 svn.r3508 for OlexSys, GUI svn.r5506)
;
_audit_update_record
;
2018-07-12 # Formatted by publCIF
;
_cell_angle_alpha                106.928(5)
_cell_angle_beta                 111.639(6)
_cell_angle_gamma                92.186(5)
_cell_formula_units_Z            1
_cell_length_a                   9.0833(6)
_cell_length_b                   9.8014(6)
_cell_length_c                   11.3650(7)
_cell_measurement_reflns_used    4306
_cell_measurement_temperature    150
_cell_measurement_theta_max      27.48
_cell_measurement_theta_min      3.153
_cell_volume                     887.63(11)
_computing_molecular_graphics    'Olex2 (Dolomanov et al., 2009)'
_computing_publication_material  'Olex2 (Dolomanov et al., 2009)'
_computing_structure_refinement  'ShelXL (Sheldrick, 2015)'
_diffrn_ambient_temperature      150
_diffrn_detector                 'CCD area detector'
_diffrn_detector_area_resol_mean 7.9
_diffrn_detector_type            'Bruker SMART CCD 1K area detector'
_diffrn_measured_fraction_theta_full 1.000
_diffrn_measured_fraction_theta_max 0.875
_diffrn_measurement_device       'three-circle diffractometer'
_diffrn_measurement_device_type  'Bruker SMART CCD 1K area detector'
_diffrn_measurement_method       '\w scans'
_diffrn_radiation_monochromator  graphite
_diffrn_radiation_probe          x-ray
_diffrn_radiation_type           MoK\a
_diffrn_radiation_wavelength     0.71073
_diffrn_reflns_av_R_equivalents  0.0401
_diffrn_reflns_av_unetI/netI     0.0352
_diffrn_reflns_Laue_measured_fraction_full 1.000
_diffrn_reflns_Laue_measured_fraction_max 0.875
_diffrn_reflns_limit_h_max       12
_diffrn_reflns_limit_h_min       -13
_diffrn_reflns_limit_k_max       13
_diffrn_reflns_limit_k_min       -14
_diffrn_reflns_limit_l_max       15
_diffrn_reflns_limit_l_min       -15
_diffrn_reflns_number            17956
_diffrn_reflns_point_group_measured_fraction_full 1.000
_diffrn_reflns_point_group_measured_fraction_max 0.875
_diffrn_reflns_theta_full        25.242
_diffrn_reflns_theta_max         30.811
_diffrn_reflns_theta_min         2.041
_diffrn_source                   'sealed X-ray tube'
_diffrn_source_target            Mo
_exptl_absorpt_coefficient_mu    0.520
_exptl_absorpt_correction_type   none
_exptl_crystal_colour            'metallic dark green'
_exptl_crystal_colour_lustre     metallic
_exptl_crystal_colour_modifier   dark
_exptl_crystal_colour_primary    green
_exptl_crystal_density_diffrn    1.480
_exptl_crystal_description       block
_exptl_crystal_F_000             404
_exptl_crystal_recrystallization_method 'evaporated from chloroform'
_exptl_crystal_size_max          0.54
_exptl_crystal_size_mid          0.401
_exptl_crystal_size_min          0.399
_refine_diff_density_max         1.330
_refine_diff_density_min         -1.085
_refine_diff_density_rms         0.127
_refine_ls_extinction_method     none
_refine_ls_goodness_of_fit_ref   1.068
_refine_ls_hydrogen_treatment    constr
_refine_ls_matrix_type           full
_refine_ls_number_parameters     235
_refine_ls_number_reflns         4865
_refine_ls_number_restraints     0
_refine_ls_restrained_S_all      1.068
_refine_ls_R_factor_all          0.0943
_refine_ls_R_factor_gt           0.0822
_refine_ls_shift/su_max          0.000
_refine_ls_shift/su_mean         0.000
_refine_ls_structure_factor_coef Fsqd
_refine_ls_weighting_details
'w=1/[\s^2^(Fo^2^)+(0.1440P)^2^+1.2111P] where P=(Fo^2^+2Fc^2^)/3'
_refine_ls_weighting_scheme      calc
_refine_ls_wR_factor_gt          0.2435
_refine_ls_wR_factor_ref         0.2561
_reflns_Friedel_coverage         0.000
_reflns_number_gt                4011
_reflns_number_total             4865
_reflns_threshold_expression     'I > 2\s(I)'
_iucr_refine_instructions_details
;
TITL a in P-1
    a.res
    created by SHELXL-2018/3 at 19:05:09 on 11-Jul-2018
CELL 0.71073 9.0833 9.8014 11.365 106.928 111.639 92.186
ZERR 1 0.0006 0.0006 0.0007 0.005 0.006 0.005
LATT 1
SFAC C H Cl
UNIT 46 26 6

L.S. 100
PLAN  20
SIZE 0.54 0.399 0.401
TEMP -123.15
BOND
fmap 2
ACTA
REM <olex2.extras>
REM <HklSrc "%.\\a.hkl">
REM </olex2.extras>

WGHT    0.144000    1.211100
FVAR       6.80720
CLL3  3    0.199419    0.799853    0.378053    11.00000    0.08264    0.07749 =
         0.05393    0.03050    0.04052    0.04387
CLL2  3    0.436947    0.701980    0.572899    11.00000    0.04065    0.12005 =
         0.04768    0.03450    0.00974    0.00308
CLL1  3    0.188028    0.496994    0.342710    11.00000    0.05310    0.07484 =
         0.11012    0.03909    0.00804   -0.01214
C     1    0.313502    0.663789    0.404020    11.00000    0.03959    0.05644 =
         0.04495    0.02487    0.02078    0.01052
AFIX  13
H     2    0.383490    0.657007    0.352858    11.00000   -1.20000
AFIX   0

C21   1    0.568739    0.141960    0.078415    11.00000    0.01594    0.01315 =
         0.01778    0.00394    0.00381    0.00102
C22   1    0.299616    0.535649    0.057298    11.00000    0.02199    0.01805 =
         0.02218    0.00695    0.01045    0.00623
C20   1    0.449466    0.496321    0.121541    11.00000    0.02099    0.01449 =
         0.01991    0.00510    0.00848    0.00338
C19   1    0.838153    0.074531    0.183682    11.00000    0.01716    0.01192 =
         0.02121    0.00330    0.00422    0.00184
C18   1    0.335492    0.239449   -0.003592    11.00000    0.01686    0.01460 =
         0.02072    0.00511    0.00611    0.00197
C17   1    0.666562    0.037044    0.089341    11.00000    0.01526    0.01395 =
         0.01666    0.00332    0.00406    0.00095
C16   1    0.462882    0.351084    0.089194    11.00000    0.01952    0.01325 =
         0.01917    0.00359    0.00713    0.00250
C15   1    0.587841    0.599253    0.213307    11.00000    0.02469    0.01495 =
         0.02014    0.00335    0.00948    0.00197
C14   1    0.402566    0.105930   -0.010100    11.00000    0.01611    0.01351 =
         0.01986    0.00458    0.00530    0.00191
C13   1    0.425140    0.786550    0.180080    11.00000    0.03354    0.01577 =
         0.02489    0.00558    0.01437    0.00611
AFIX  43
H13   2    0.416371    0.886268    0.201726    11.00000   -1.20000
AFIX   0
C12   1    0.170653    0.422886   -0.036505    11.00000    0.01988    0.01867 =
         0.02736    0.00728    0.00973    0.00606
AFIX  43
H12   2    0.069961    0.447831   -0.081459    11.00000   -1.20000
AFIX   0
C11   1    0.742994    0.399949    0.234012    11.00000    0.02049    0.01575 =
         0.02255    0.00489    0.00502    0.00204
AFIX  43
H11   2    0.841510    0.368511    0.273505    11.00000   -1.20000
AFIX   0
C10   1    0.607204    0.299254    0.141843    11.00000    0.01901    0.01372 =
         0.01936    0.00416    0.00608    0.00189
C9    1    0.186213    0.277881   -0.064896    11.00000    0.01781    0.01784 =
         0.02466    0.00699    0.00669    0.00411
AFIX  43
H9    2    0.096329    0.205286   -0.125424    11.00000   -1.20000
AFIX   0
C8    1    0.733498    0.546065    0.267693    11.00000    0.02425    0.01548 =
         0.02156    0.00245    0.00459   -0.00088
AFIX  43
H8    2    0.827469    0.613498    0.329332    11.00000   -1.20000
AFIX   0
C7    1    0.290809    0.684457    0.088405    11.00000    0.02746    0.01774 =
         0.02882    0.00809    0.01421    0.00922
AFIX  43
H7    2    0.192692    0.715202    0.046582    11.00000   -1.20000
AFIX   0
C6    1    0.571616    0.745911    0.240574    11.00000    0.03111    0.01430 =
         0.02399    0.00334    0.01172    0.00229
AFIX  43
H6    2    0.661919    0.818071    0.301097    11.00000   -1.20000
AFIX   0
C5    1    0.880006    0.086647    0.317379    11.00000    0.02126    0.02262 =
         0.02257    0.00633    0.00373   -0.00086
AFIX  43
H5    2    0.798596    0.071367    0.348029    11.00000   -1.20000
AFIX   0
C4    1    0.958507    0.098054    0.140520    11.00000    0.02021    0.02920 =
         0.02924    0.00951    0.00934    0.00290
AFIX  43
H4    2    0.931494    0.091435    0.049714    11.00000   -1.20000
AFIX   0
C3    1    1.118373    0.131258    0.230098    11.00000    0.01945    0.04555 =
         0.04394    0.01751    0.00990    0.00148
AFIX  43
H3    2    1.200560    0.146585    0.200272    11.00000   -1.20000
AFIX   0
C2    1    1.039415    0.120806    0.406138    11.00000    0.02661    0.03090 =
         0.02451    0.00772   -0.00196   -0.00418
AFIX  43
H2    2    1.066814    0.129591    0.497466    11.00000   -1.20000
AFIX   0
C1    1    1.158036    0.142031    0.362702    11.00000    0.01838    0.04104 =
         0.03952    0.01343   -0.00264   -0.00267
AFIX  43
H1    2    1.267416    0.164125    0.423654    11.00000   -1.20000
AFIX   0
HKLF 4




REM  a in P-1
REM wR2 = 0.2561, GooF = S = 1.068, Restrained GooF = 1.068 for all data
REM R1 = 0.0822 for 4011 Fo > 4sig(Fo) and 0.0943 for all 4865 data
REM 235 parameters refined using 0 restraints

END  
     
WGHT      0.1440      1.2111 

REM Highest difference peak  1.330,  deepest hole -1.085,  1-sigma level  0.127
Q1    1   0.3977  0.8821  0.5009  11.00000  0.05    1.33
Q2    1   0.3044  0.8404  0.4345  11.00000  0.05    1.06
Q3    1   0.1581  0.6049  0.3755  11.00000  0.05    0.91
Q4    1   0.1598  0.5346  0.4173  11.00000  0.05    0.69
Q5    1   0.4471  0.7960  0.5777  11.00000  0.05    0.59
Q6    1   1.0973  0.1518  0.3929  11.00000  0.05    0.54
Q7    1   0.8972  0.0823  0.1623  11.00000  0.05    0.52
Q8    1   0.3668  0.6568  0.5570  11.00000  0.05    0.51
Q9    1   0.9541  0.1126  0.3589  11.00000  0.05    0.47
Q10   1   0.4798  0.5977  0.5619  11.00000  0.05    0.46
Q11   1   1.1449  0.1258  0.3085  11.00000  0.05    0.44
Q12   1   0.6596  0.5708  0.2429  11.00000  0.05    0.44
Q13   1   0.8511  0.1027  0.2620  11.00000  0.05    0.43
Q14   1   0.4518  0.5805  0.5060  11.00000  0.05    0.41
Q15   1   0.1821  0.3475 -0.0520  11.00000  0.05    0.40
Q16   1   0.4991  0.7665  0.1979  11.00000  0.05    0.40
Q17   1   1.0239  0.1007  0.1753  11.00000  0.05    0.39
Q18   1   0.7347  0.4780  0.2550  11.00000  0.05    0.37
Q19   1   0.3835  0.5196  0.0888  11.00000  0.05    0.36
Q20   1   0.5776  0.6805  0.2169  11.00000  0.05    0.34

  REM The information below was added by Olex2.
  REM
  REM R1 = 0.0822 for 4011 Fo > 4sig(Fo) and 0.0943 for all 17956 data
  REM n/a parameters refined using n/a restraints
  REM Highest difference peak 1.33, deepest hole -1.09
  REM Mean Shift 0, Max Shift 0.000.

  REM +++ Tabular Listing of Refinement Information +++
  REM R1_all = 0.0943
  REM R1_gt = 0.0822
  REM wR_ref = 0.2561
  REM GOOF = 1.068
  REM Shift_max = 0.000
  REM Shift_mean = 0
  REM Reflections_all = 17956
  REM Reflections_gt = 4011
  REM Parameters = n/a
  REM Hole = -1.09
  REM Peak = 1.33
  REM Flack = n/a

  
;
_cod_data_source_file            ja8b13300_si_002.cif
_cod_data_source_block           a
_cod_database_code               4128443
_shelx_shelxl_version_number     2018/3
_audit_contact_letter
;
Please consider this CIF for publication. I certify that this contibution is the
original work of those listed as authors; that it has not been published
before (in any language or medium) and is not being considered for publication
elsewhere; that all authors concur with and are aware of the submission; that
all workers involved in the study are listed as authors or given proper credit
in the acknowledgements; that I have obtained permission for and acknowledged
the source of any excerpts from other copyright works; and that to the best of
my knowledge the paper contains no statements which are libellous, unlawful or
in any way actionable. All coauthors have made significant scientific
contributions to the work reported, including the ideas and their execution,
and share responsibility and accountability for the results.
;
_shelx_space_group_comment
;
The symmetry employed for this shelxl refinement is uniquely defined
by the following loop, which should always be used as a source of
symmetry information in preference to the above space-group names.
They are only intended as comments.
;
_shelx_estimated_absorpt_t_max   0.819
_shelx_estimated_absorpt_t_min   0.767
_olex2_refinement_description
;
1. Others
 Fixed Uiso: H(0.053) H13(0.029) H12(0.026) H11(0.025) H9(0.025) H8(0.027)
 H7(0.028) H6(0.028) H5(0.029) H4(0.032) H3(0.044) H2(0.038) H1(0.045)
 Fixed X: H(0.38349) H13(0.416371) H12(0.069961) H11(0.84151) H9(0.096329)
 H8(0.827469) H7(0.192692) H6(0.661919) H5(0.798596) H4(0.931494) H3(1.20056)
 H2(1.066814) H1(1.267416)
 Fixed Y: H(0.657007) H13(0.886268) H12(0.447831) H11(0.368511) H9(0.205286)
 H8(0.613498) H7(0.715202) H6(0.818071) H5(0.071367) H4(0.091435) H3(0.146585)
 H2(0.129591) H1(0.164125)
 Fixed Z: H(0.352858) H13(0.201726) H12(-0.081459) H11(0.273505) H9(-0.125424)
 H8(0.329332) H7(0.046582) H6(0.301097) H5(0.348029) H4(0.049714) H3(0.200272)
 H2(0.497466) H1(0.423654)
;
_olex2_exptl_crystal_mounting_method 'paratone oil '
_olex2_submission_original_sample_id Ph2-IDPL
_olex2_submission_special_instructions 'No special instructions were received'
_publcif_funding_html
;
;
loop_
_space_group_symop_operation_xyz
'x, y, z'
'-x, -y, -z'
loop_
_atom_site_label
_atom_site_type_symbol
_atom_site_fract_x
_atom_site_fract_y
_atom_site_fract_z
_atom_site_U_iso_or_equiv
_atom_site_adp_type
_atom_site_occupancy
_atom_site_site_symmetry_order
_atom_site_calc_flag
_atom_site_refinement_flags_posn
ClL3 Cl 0.19942(15) 0.79985(13) 0.37805(11) 0.0643(4) Uani 1 1 d .
ClL2 Cl 0.43695(12) 0.70198(17) 0.57290(11) 0.0705(4) Uani 1 1 d .
ClL1 Cl 0.18803(15) 0.49699(16) 0.34271(17) 0.0854(5) Uani 1 1 d .
C C 0.3135(4) 0.6638(4) 0.4040(4) 0.0438(8) Uani 1 1 d .
H H 0.383490 0.657007 0.352858 0.053 Uiso 1 1 calc R
C21 C 0.5687(3) 0.1420(2) 0.0784(2) 0.0168(4) Uani 1 1 d .
C22 C 0.2996(3) 0.5356(2) 0.0573(2) 0.0201(4) Uani 1 1 d .
C20 C 0.4495(3) 0.4963(2) 0.1215(2) 0.0185(4) Uani 1 1 d .
C19 C 0.8382(3) 0.0745(2) 0.1837(2) 0.0183(4) Uani 1 1 d .
C18 C 0.3355(3) 0.2394(2) -0.0036(2) 0.0180(4) Uani 1 1 d .
C17 C 0.6666(3) 0.0370(2) 0.0893(2) 0.0164(4) Uani 1 1 d .
C16 C 0.4629(3) 0.3511(2) 0.0892(2) 0.0179(4) Uani 1 1 d .
C15 C 0.5878(3) 0.5993(2) 0.2133(2) 0.0204(5) Uani 1 1 d .
C14 C 0.4026(3) 0.1059(2) -0.0101(2) 0.0173(4) Uani 1 1 d .
C13 C 0.4251(3) 0.7865(3) 0.1801(3) 0.0241(5) Uani 1 1 d .
H13 H 0.416371 0.886268 0.201726 0.029 Uiso 1 1 calc R
C12 C 0.1707(3) 0.4229(2) -0.0365(3) 0.0218(5) Uani 1 1 d .
H12 H 0.069961 0.447831 -0.081459 0.026 Uiso 1 1 calc R
C11 C 0.7430(3) 0.3999(2) 0.2340(2) 0.0210(5) Uani 1 1 d .
H11 H 0.841510 0.368511 0.273505 0.025 Uiso 1 1 calc R
C10 C 0.6072(3) 0.2993(2) 0.1418(2) 0.0182(4) Uani 1 1 d .
C9 C 0.1862(3) 0.2779(2) -0.0649(2) 0.0206(5) Uani 1 1 d .
H9 H 0.096329 0.205286 -0.125424 0.025 Uiso 1 1 calc R
C8 C 0.7335(3) 0.5461(2) 0.2677(2) 0.0228(5) Uani 1 1 d .
H8 H 0.827469 0.613498 0.329332 0.027 Uiso 1 1 calc R
C7 C 0.2908(3) 0.6845(3) 0.0884(3) 0.0235(5) Uani 1 1 d .
H7 H 0.192692 0.715202 0.046582 0.028 Uiso 1 1 calc R
C6 C 0.5716(3) 0.7459(2) 0.2406(3) 0.0236(5) Uani 1 1 d .
H6 H 0.661919 0.818071 0.301097 0.028 Uiso 1 1 calc R
C5 C 0.8800(3) 0.0866(3) 0.3174(3) 0.0241(5) Uani 1 1 d .
H5 H 0.798596 0.071367 0.348029 0.029 Uiso 1 1 calc R
C4 C 0.9585(3) 0.0981(3) 0.1405(3) 0.0264(5) Uani 1 1 d .
H4 H 0.931494 0.091435 0.049714 0.032 Uiso 1 1 calc R
C3 C 1.1184(3) 0.1313(4) 0.2301(3) 0.0366(7) Uani 1 1 d .
H3 H 1.200560 0.146585 0.200272 0.044 Uiso 1 1 calc R
C2 C 1.0394(3) 0.1208(3) 0.4061(3) 0.0316(6) Uani 1 1 d .
H2 H 1.066814 0.129591 0.497466 0.038 Uiso 1 1 calc R
C1 C 1.1580(3) 0.1420(4) 0.3627(3) 0.0375(7) Uani 1 1 d .
H1 H 1.267416 0.164125 0.423654 0.045 Uiso 1 1 calc R
loop_
_atom_site_aniso_label
_atom_site_aniso_U_11
_atom_site_aniso_U_22
_atom_site_aniso_U_33
_atom_site_aniso_U_23
_atom_site_aniso_U_13
_atom_site_aniso_U_12
ClL3 0.0826(8) 0.0775(7) 0.0539(6) 0.0305(5) 0.0405(6) 0.0439(6)
ClL2 0.0407(5) 0.1200(11) 0.0477(6) 0.0345(6) 0.0097(4) 0.0031(6)
ClL1 0.0531(7) 0.0748(8) 0.1101(11) 0.0391(8) 0.0080(7) -0.0121(6)
C 0.0396(17) 0.056(2) 0.0449(18) 0.0249(16) 0.0208(15) 0.0105(15)
C21 0.0159(10) 0.0131(9) 0.0178(10) 0.0039(7) 0.0038(8) 0.0010(7)
C22 0.0220(11) 0.0180(10) 0.0222(11) 0.0070(8) 0.0105(9) 0.0062(8)
C20 0.0210(10) 0.0145(9) 0.0199(10) 0.0051(8) 0.0085(8) 0.0034(8)
C19 0.0172(10) 0.0119(9) 0.0212(10) 0.0033(7) 0.0042(8) 0.0018(7)
C18 0.0169(10) 0.0146(9) 0.0207(10) 0.0051(8) 0.0061(8) 0.0020(8)
C17 0.0153(9) 0.0140(9) 0.0167(9) 0.0033(7) 0.0041(8) 0.0010(7)
C16 0.0195(10) 0.0132(9) 0.0192(10) 0.0036(7) 0.0071(8) 0.0025(8)
C15 0.0247(11) 0.0149(10) 0.0201(11) 0.0034(8) 0.0095(9) 0.0020(8)
C14 0.0161(10) 0.0135(9) 0.0199(10) 0.0046(8) 0.0053(8) 0.0019(7)
C13 0.0335(13) 0.0158(10) 0.0249(12) 0.0056(8) 0.0144(10) 0.0061(9)
C12 0.0199(10) 0.0187(10) 0.0274(12) 0.0073(9) 0.0097(9) 0.0061(8)
C11 0.0205(10) 0.0157(10) 0.0226(11) 0.0049(8) 0.0050(9) 0.0020(8)
C10 0.0190(10) 0.0137(9) 0.0194(10) 0.0042(8) 0.0061(8) 0.0019(8)
C9 0.0178(10) 0.0178(10) 0.0247(11) 0.0070(8) 0.0067(9) 0.0041(8)
C8 0.0243(11) 0.0155(10) 0.0216(11) 0.0024(8) 0.0046(9) -0.0009(8)
C7 0.0275(12) 0.0177(10) 0.0288(12) 0.0081(9) 0.0142(10) 0.0092(9)
C6 0.0311(12) 0.0143(10) 0.0240(11) 0.0033(8) 0.0117(10) 0.0023(8)
C5 0.0213(11) 0.0226(11) 0.0226(11) 0.0063(9) 0.0037(9) -0.0009(8)
C4 0.0202(11) 0.0292(12) 0.0292(12) 0.0095(10) 0.0093(10) 0.0029(9)
C3 0.0194(12) 0.0456(16) 0.0439(17) 0.0175(13) 0.0099(12) 0.0015(11)
C2 0.0266(13) 0.0309(13) 0.0245(12) 0.0077(10) -0.0020(10) -0.0042(10)
C1 0.0184(12) 0.0410(15) 0.0395(16) 0.0134(13) -0.0026(11) -0.0027(10)
loop_
_atom_type_symbol
_atom_type_description
_atom_type_scat_dispersion_real
_atom_type_scat_dispersion_imag
_atom_type_scat_source
C C 0.0033 0.0016 'International Tables Vol C Tables 4.2.6.8 and 6.1.1.4'
H H 0.0000 0.0000 'International Tables Vol C Tables 4.2.6.8 and 6.1.1.4'
Cl Cl 0.1484 0.1585 'International Tables Vol C Tables 4.2.6.8 and 6.1.1.4'
loop_
_geom_angle_atom_site_label_1
_geom_angle_atom_site_label_2
_geom_angle_atom_site_label_3
_geom_angle
_geom_angle_site_symmetry_1
_geom_angle_site_symmetry_3
ClL3 C ClL1 110.3(2) . .
ClL2 C ClL3 111.8(2) . .
ClL2 C ClL1 110.2(2) . .
C17 C21 C14 121.59(19) . .
C17 C21 C10 130.4(2) . .
C14 C21 C10 107.98(19) . .
C20 C22 C12 117.8(2) . .
C7 C22 C20 117.3(2) . .
C7 C22 C12 124.8(2) . .
C22 C20 C15 122.9(2) . .
C16 C20 C22 118.5(2) . .
C16 C20 C15 118.6(2) . .
C5 C19 C17 119.9(2) . .
C4 C19 C17 121.0(2) . .
C4 C19 C5 119.1(2) . .
C16 C18 C14 105.62(19) . .
C9 C18 C16 117.9(2) . .
C9 C18 C14 136.5(2) . .
C21 C17 C19 121.39(19) . .
C21 C17 C14 117.6(2) . 2_655
C14 C17 C19 120.96(19) 2_655 .
C20 C16 C18 123.8(2) . .
C20 C16 C10 123.7(2) . .
C18 C16 C10 112.5(2) . .
C20 C15 C8 117.6(2) . .
C6 C15 C20 117.2(2) . .
C6 C15 C8 125.2(2) . .
C21 C14 C18 108.33(18) . .
C17 C14 C21 120.8(2) 2_655 .
C17 C14 C18 130.8(2) 2_655 .
C6 C13 C7 121.5(2) . .
C9 C12 C22 122.6(2) . .
C8 C11 C10 119.7(2) . .
C16 C10 C21 105.51(19) . .
C11 C10 C21 136.5(2) . .
C11 C10 C16 118.0(2) . .
C12 C9 C18 119.5(2) . .
C11 C8 C15 122.5(2) . .
C13 C7 C22 120.3(2) . .
C13 C6 C15 120.7(2) . .
C2 C5 C19 120.5(2) . .
C19 C4 C3 120.1(3) . .
C1 C3 C4 120.1(3) . .
C1 C2 C5 120.2(3) . .
C2 C1 C3 120.0(3) . .
loop_
_geom_bond_atom_site_label_1
_geom_bond_atom_site_label_2
_geom_bond_distance
_geom_bond_site_symmetry_2
ClL3 C 1.746(4) .
ClL2 C 1.745(4) .
ClL1 C 1.751(4) .
C21 C17 1.387(3) .
C21 C14 1.431(3) .
C21 C10 1.464(3) .
C22 C20 1.416(3) .
C22 C12 1.423(3) .
C22 C7 1.410(3) .
C20 C16 1.385(3) .
C20 C15 1.417(3) .
C19 C17 1.486(3) .
C19 C5 1.390(3) .
C19 C4 1.390(3) .
C18 C16 1.407(3) .
C18 C14 1.458(3) .
C18 C9 1.400(3) .
C17 C14 1.396(3) 2_655
C16 C10 1.409(3) .
C15 C8 1.429(3) .
C15 C6 1.405(3) .
C13 C7 1.392(4) .
C13 C6 1.388(4) .
C12 C9 1.388(3) .
C11 C10 1.395(3) .
C11 C8 1.385(3) .
C5 C2 1.384(4) .
C4 C3 1.390(4) .
C3 C1 1.384(5) .
C2 C1 1.372(4) .
loop_
_refln_index_h
_refln_index_k
_refln_index_l
_refln_F_squared_meas
_refln_F_squared_sigma
_refln_scale_group_code
0 0 1 425.776 42.4871 1
0 0 -1 334.519 36.6877 1
0 0 -2 3600.99 174.788 1
0 0 -2 4075.03 145.191 3
0 0 -2 3500.49 196.791 4
0 0 2 3751.55 183.082 1
0 0 2 2986.45 184.697 4
0 0 2 4116.2 199.563 2
0 0 2 3726.26 142.577 3
0 0 -2 3730.19 188.694 2
0 0 3 51815.8 875.65 2
0 0 3 48403.8 808.327 1
0 0 3 51412.6 670.492 3
0 0 -3 47765.1 821.24 2
0 0 -3 50806.5 790.148 1
0 0 -3 50901.3 620.776 3
0 0 3 48005.2 870.664 4
0 0 -3 50137 913.059 4
0 0 4 86520.7 1247.62 1
0 0 -4 90807.6 957.715 3
0 0 -4 91439.4 1318.74 2
0 0 4 91996.4 1081.84 3
0 0 4 91283.9 1348.69 2
0 0 4 87426.4 1377.38 4
0 0 -4 91094.1 1228.07 1
0 0 -4 90316.1 1436.6 4
0 0 -5 39275.7 707.688 3
0 0 5 37519.9 922.695 1
0 0 5 37510.6 1011.32 4
0 0 5 37982.9 1001.19 2
0 0 -5 40173.4 911.948 1
0 0 -5 38172.4 955.747 2
0 0 -5 36163 1042.8 4
0 0 -6 28368.9 898.263 2
0 0 -6 29548.1 673.344 3
0 0 6 27785.3 977.815 4
0 0 6 26022.9 732.252 3
0 0 6 27400.7 866.646 1
0 0 -6 29297.1 868.093 1
0 0 7 4206.4 328.529 3
0 0 -7 5228.15 422.915 2
0 0 7 5390.87 479.053 4
0 0 -7 5750.91 319.975 3
0 0 7 5465.24 421.635 1
0 0 8 344.403 122.187 4
0 0 8 298.415 94.1142 3
0 0 -8 441.448 92.7195 3
0 0 8 379.226 132.925 1
0 0 -8 50.8244 103.02 2
0 0 -9 679.866 172.867 2
0 0 -9 761.901 129.96 3
0 0 9 711.192 200.977 4
0 0 9 688.321 174.694 1
0 0 9 476.287 116.871 3
0 0 10 383.209 128.985 1
0 0 -10 396.262 146.834 2
0 0 10 310.374 127.404 4
0 0 -10 528.107 117.529 3
0 0 11 26.8289 34.6332 1
0 0 11 11.3821 34.4142 4
0 0 -12 3246.82 478.492 2
0 0 12 3700.95 498.937 1
0 0 12 3048.43 445.206 4
0 0 -13 520.504 90.074 2
0 0 13 574.442 117.984 4
0 0 14 694.359 238.64 1
0 -1 14 159.074 98.8999 1
0 -1 13 1534.03 363.835 4
0 1 -13 1370.03 320.071 2
0 -1 13 1733.83 366.859 1
0 -1 12 894.385 242.995 1
0 1 -12 783.686 224.81 2
0 -1 12 899.676 257.604 4
0 -1 11 454.886 170.616 1
0 -1 11 475.103 187.242 4
0 1 -11 413.46 161.802 2
0 -1 10 26184.9 1253.93 4
0 -1 10 25067.9 1096.89 1
0 1 -10 23681.4 681.003 3
0 1 -9 9158.01 637.69 2
0 -1 9 9918.17 710.055 4
0 1 -9 10318.3 421.862 3
0 -1 9 10331.8 673.348 1
0 1 -8 93.768 49.6394 3
0 -1 8 274.545 146.705 4
0 1 -8 166.232 85.2166 2
0 -1 7 1334.06 244.288 1
0 1 -7 491.751 111.734 2
0 1 -7 870.093 108.879 3
0 -1 7 955.386 205.833 4
0 1 -6 15082.8 647.235 1
0 1 -6 15505.3 682.623 2
0 1 -6 14149.6 388.739 3
0 -1 6 16544.7 739.74 4
0 -1 6 16161.6 715.973 1
0 1 -5 9239.51 270.163 3
0 -1 5 8565.34 469.112 2
0 -1 5 10460.1 528.21 4
0 -1 5 8684.73 320.318 3
0 -1 5 9498.36 463.751 1
0 1 -5 9010.37 456.77 2
0 1 -5 10090.6 462.882 1
0 1 -5 10415.3 541.688 4
0 -1 5 10369.8 522.534 4
0 1 -4 37887.1 836.322 2
0 1 -4 38600.9 803.445 1
0 1 -4 38780.1 923.5 4
0 -1 4 38970.4 884.735 4
0 -1 4 38801.7 871.962 2
0 -1 4 37365.6 810.732 1
0 1 -4 38148.7 463.057 3
0 -1 4 37789.7 873.943 4
0 -1 3 800.615 119.191 4
0 1 -3 780.745 115.731 4
0 -1 3 765.847 111.088 4
0 -1 3 681.586 95.5218 1
0 -1 3 523.357 100.776 2
0 1 -3 641.157 98.9699 1
0 1 -3 557.654 44.1426 3
0 1 -3 587.98 93.1235 2
0 -1 2 1790.37 127.001 1
0 1 -2 1771.55 125.284 1
0 -1 2 1765.78 135.694 2
0 -1 2 1878.36 136.535 4
0 1 -2 1717.3 132.301 2
0 1 -2 1808.73 140.184 4
0 -1 2 1842.84 136.988 4
0 1 -2 1749.78 132.537 4
0 1 -1 475.151 68.1035 4
0 1 -1 479.675 60.8091 2
0 -1 1 423.518 65.2017 4
0 -1 1 682.339 67.6616 1
0 1 0 2318.22 104.753 3
0 -1 0 14315.3 254.13 3
0 1 0 2830.62 112.893 1
0 1 0 15977.1 315.79 4
0 -1 0 5558.25 161.857 1
0 1 1 95.3133 37.8128 4
0 1 1 60.0741 25.1233 3
0 -1 -1 58.5739 20.6708 3
0 1 1 95.0666 17.9728 2
0 1 1 58.0451 24.3831 1
0 -1 -1 9.8172 1.49999 2
0 -1 -1 49.0894 18.636 1
0 -1 -1 93.2115 38.8469 4
0 1 2 646.999 82.802 3
0 -1 -2 661.666 86.4489 2
0 1 2 654.51 102.498 4
0 -1 -2 646.409 80.0856 3
0 1 2 588.651 83.1681 1
0 1 2 677.327 83.0954 2
0 -1 -2 751.091 91.0676 1
0 -1 -2 668.222 105.621 4
0 -1 -3 26762.5 619.564 1
0 -1 -3 24703.8 600.883 2
0 1 3 24196.1 689.412 4
0 1 3 26684 596.253 3
0 1 3 25586.9 622.189 2
0 -1 -3 24482.5 541.495 3
0 -1 -3 24909.3 705.543 4
0 1 3 24009.3 596.071 1
0 -1 -4 10283 523.287 4
0 1 4 10028.4 507.735 4
0 -1 -4 9769.41 380.493 3
0 1 4 10282.4 462.314 2
0 1 4 9759.93 409.339 3
0 1 4 10128.7 450.004 1
0 -1 -4 10412.8 440.058 1
0 -1 -4 10192.9 446.886 2
0 1 5 3800.29 350.565 4
0 1 5 4057.18 339.91 2
0 -1 -5 3823.57 292.746 1
0 -1 -5 3815.67 318.301 2
0 -1 -5 4144.68 272.137 3
0 1 5 3830.15 316.055 1
0 1 5 3514.06 285.28 3
0 -1 -6 78444.3 1260.6 3
0 1 6 76153.1 1673.69 4
0 1 6 76872.1 1496.42 1
0 -1 -6 73961.4 1417.61 1
0 -1 -6 77084.9 1511.31 2
0 1 7 389.006 143.754 1
0 -1 -7 462.867 109.501 3
0 1 7 281.456 112.097 3
0 1 7 375.61 156.247 4
0 -1 -7 377.756 142.884 2
0 1 8 106.086 69.06 4
0 -1 -8 74.6499 41.5791 3
0 -1 -8 102.214 61.9908 2
0 1 8 127.878 76.2329 1
0 1 9 811.417 198.734 1
0 -1 -9 926.503 164.704 3
0 -1 -9 256.004 71.3561 2
0 1 9 508.915 129.728 4
0 1 10 144.774 82.553 1
0 1 10 173.951 111.188 4
0 -1 -10 135.899 66.0538 3
0 -1 -10 109.513 68.9421 2
0 -1 -11 8658.98 722.972 2
0 1 11 9940.73 852.174 4
0 1 11 10227.9 789.378 1
0 1 12 1631.66 386.737 4
0 1 12 1605.19 333.607 1
0 -1 -12 791.311 70.8825 2
0 1 13 1849.06 424.181 4
0 1 13 1943.45 383.833 1
0 -1 -13 1827.27 396.931 2
0 -2 14 5184.34 690.96 4
0 -2 14 5108.34 653.82 1
0 2 -13 1214.88 305.858 2
0 -2 13 1545.42 349.883 1
0 -2 13 1354.88 336.23 4
0 -2 12 6108.37 632.188 1
0 -2 12 4738.84 599.437 4
0 2 -12 4348.11 534.61 2
0 -2 11 903.192 236.289 4
0 -2 11 1497.61 314.991 1
0 2 -10 1201.09 220.228 2
0 -2 10 1552.52 296.139 4
0 -2 9 251.791 131.586 4
0 2 -9 118.327 50.5118 3
0 2 -9 211.766 52.8898 3
0 2 -8 2549.31 151.55 3
0 -2 8 2417.7 301.185 1
0 -2 8 2338.18 317.398 4
0 2 -8 2120.58 281.556 2
0 2 -7 1579.22 108.427 3
0 -2 7 1787.48 273.496 4
0 -2 7 1522.4 226.851 1
0 2 -7 1027.61 111.28 3
0 2 -7 1560.02 248.472 2
0 2 -6 50847.8 1161.75 1
0 -2 6 51474.6 1185.58 1
0 -2 6 52353.7 1268.37 4
0 2 -6 51718.3 1199.32 2
0 2 -6 49524.5 1315.28 4
0 2 -6 48632.7 497.637 3
0 2 -5 50133.6 1187.98 4
0 2 -5 49576.6 1039.65 1
0 2 -5 48319.5 1051.87 2
0 -2 5 47308.9 1018.17 1
0 -2 5 49404.9 1130.79 4
0 -2 5 46068.9 1099.78 2
0 2 -4 44956.9 897.096 1
0 -2 4 44808.5 894.291 1
0 2 -4 45839.2 1019.24 4
0 2 -4 44740.9 949.222 4
0 -2 4 45329 963.032 2
0 -2 4 45372.1 976.687 4
0 2 -4 44507.3 909.625 2
0 -2 4 43978 954.818 4
0 2 -3 22654.2 567.894 1
0 -2 3 22973.2 605.676 4
0 -2 3 23660.3 589.948 2
0 2 -3 23541.5 578.125 2
0 -2 3 22784.2 609.698 4
0 2 -3 22015.8 595.482 4
0 -2 3 23139.5 573.722 1
0 -2 2 11006.3 228.845 3
0 2 -2 9573.27 316.831 2
0 2 -2 11712.4 377.058 1
0 -2 2 11634.8 365.22 1
0 -2 2 10307.7 359.758 2
0 -2 2 13733.8 442.739 4
0 2 -2 14183.9 444.67 4
0 2 -2 9595.02 211.936 3
0 2 -1 202197 1383.43 1
0 -2 1 202919 1343.81 1
0 -2 1 207277 1360.66 1
0 -2 1 187868 1121.21 3
0 2 -1 193979 1515.26 4
0 -2 1 192915 1175.43 2
0 -2 1 206334 1550.34 4
0 2 -1 202589 1173.01 3
0 2 -1 204022 1142.48 2
0 -2 0 19195.8 324.543 2
0 2 0 19701.7 321.721 2
0 -2 0 18472.4 414.538 3
0 2 0 17767.2 396.027 1
0 2 0 18624.5 325.555 2
0 -2 0 18798.3 410.269 1
0 -2 0 18498.9 500.027 4
0 2 0 20368.5 433.755 3
0 -2 0 18460.9 410.157 1
0 2 0 19332.3 496.279 4
0 -2 -1 25081.4 462.886 2
0 -2 -1 25171.2 545.207 3
0 2 1 22342.5 493.466 1
0 -2 -1 22797 493.265 1
0 2 1 26726.3 566.484 3
0 2 1 26479.7 437.423 2
0 -2 -1 23987.8 615.289 4
0 2 1 22366.6 597.779 4
0 -2 -2 71648.8 975.819 1
0 2 2 73107 1044.33 3
0 2 2 68955.7 1167.08 4
0 -2 -2 70974.9 1003.74 3
0 -2 -2 72802 1196.17 4
0 -2 -2 71622.1 930.243 2
0 2 2 75544.5 922.68 2
0 2 2 67588.4 959.591 1
0 2 3 1075.66 185.272 4
0 -2 -3 948.357 142.689 1
0 2 3 837.432 142.179 3
0 2 3 1154.65 160.857 1
0 -2 -3 978.691 138.412 2
0 -2 -3 1093.97 193.989 4
0 2 3 834.074 125.581 2
0 -2 -3 852.603 131.301 3
0 -2 -4 5118.07 330.158 2
0 -2 -4 5362.75 336.874 1
0 -2 -4 4989.82 392.866 4
0 -2 -4 5549.77 329.713 3
0 2 4 5192.56 335.967 1
0 2 4 5280.99 328.905 2
0 2 4 5523.12 348.708 3
0 2 4 4940.28 394.375 4
0 2 5 38565.2 1014.52 3
0 -2 -5 39654.1 1017.09 2
0 2 5 39808.9 1194.17 4
0 2 5 41420.5 1048.33 1
0 -2 -5 41214.1 965.366 3
0 -2 -5 41652.8 1035.93 1
0 -2 -6 460.772 126.502 2
0 2 6 531.849 130.432 1
0 -2 -6 450.318 108.157 3
0 2 6 502.122 153.357 4
0 -2 -6 273.153 65.007 1
0 2 7 4540.49 411.492 1
0 2 7 4343.1 464.598 4
0 -2 -7 4525.64 353.114 3
0 -2 -7 4319.92 402.92 2
0 -2 -8 -20.4499 34.4534 3
0 2 8 -31.0172 56.8986 1
0 2 8 26.7026 69.5316 4
0 2 9 3548.42 478.08 4
0 -2 -9 3486.28 343.981 3
0 2 9 3603.58 419.308 1
0 -2 -9 2759.18 359.519 2
0 -2 -10 223.312 98.8609 3
0 2 10 312.319 151.668 1
0 2 10 273.26 177.092 4
0 2 11 408.478 196.557 4
0 -2 -11 269.558 132.782 2
0 2 11 270.077 134.954 1
0 2 12 125.017 135.204 1
0 2 12 173.968 170.244 4
0 -3 14 4365.98 600.191 1
0 -3 14 4513.99 641.731 4
0 -3 13 2058.87 434.684 4
0 3 -13 1762.31 375.669 2
0 -3 12 1253.77 346.639 1
0 -3 12 -31.2742 98.1382 4
0 -3 11 600.659 205.061 4
0 3 -11 208.143 17.558 2
0 3 -10 2103.81 286.191 2
0 -3 10 2889.7 397.842 4
0 -3 10 2964.3 405.418 1
0 -3 9 1511.89 249.531 1
0 -3 9 1553.94 277.059 4
0 3 -9 1162.16 209.465 2
0 3 -8 47934.7 1366.23 2
0 -3 8 47526.2 1416.64 4
0 -3 8 48499.3 1356.49 1
0 -3 7 606.508 145.264 1
0 3 -7 446.369 121.064 2
0 -3 7 639.603 161.772 4
0 -3 6 11266.3 553.337 1
0 -3 6 11193.5 584.134 4
0 3 -6 11034.4 552.77 2
0 -3 5 42863 1080.14 4
0 3 -5 40318.8 990.685 1
0 -3 5 43081.1 1067.03 2
0 -3 5 43419 1019.09 1
0 3 -5 43638.3 1007.61 2
0 3 -5 42939.6 1074.1 4
0 -3 5 43010.8 1079.88 4
0 3 -4 13672.3 234.433 3
0 -3 4 14617.2 580.276 4
0 -3 4 14444.5 572.682 4
0 3 -4 14816.5 579.666 4
0 -3 4 13067.9 249.723 3
0 3 -4 14652.1 536.961 2
0 -3 4 14535.7 533.911 1
0 3 -4 14779.8 552.495 1
0 -3 4 14338.9 568.279 2
0 3 -3 66484.7 663.325 3
0 3 -3 65404.6 977.939 2
0 3 -3 65873.6 1077.69 1
0 -3 3 69352.4 1075.64 1
0 -3 3 69759.1 1186.35 4
0 -3 3 67325.6 1053.07 2
0 -3 3 63666.8 638.076 3
0 3 -3 63914.9 1125.11 4
0 3 -2 52114.8 691.184 3
0 3 -2 49724.7 741.588 2
0 3 -2 50746.8 897.748 1
0 -3 2 50613.1 788.271 2
0 -3 2 51441 969.854 4
0 -3 2 49702.6 840.468 1
0 3 -2 47054.8 918.887 4
0 -3 2 48492.6 662.077 3
0 3 -1 193921 1890.73 4
0 3 -1 199244 1306.81 2
0 -3 1 201539 1390.82 2
0 -3 1 196757 1498.64 3
0 -3 1 198999 1639.47 1
0 -3 1 203244 1675.71 1
0 -3 1 203271 1895.2 4
0 3 -1 200718 1529.6 3
0 3 -1 197925 1674.43 1
0 3 0 78774.5 772.318 2
0 -3 0 80783.9 1242.83 4
0 3 0 75268.2 1199.48 4
0 -3 0 79382.2 1058.18 1
0 -3 0 79457.4 1055.98 3
0 3 0 76424.3 1006.18 1
0 3 0 77265.7 818.544 2
0 -3 0 77921.4 1025.68 1
0 3 0 79340.3 1065.42 3
0 3 1 43689.4 633.482 2
0 3 1 41111.5 777.71 1
0 -3 -1 42291.4 978.182 4
0 -3 -1 43276.8 812.871 1
0 -3 -1 42380.7 843.786 3
0 -3 -1 41411.4 667.578 2
0 3 1 41467.5 844.133 3
0 3 1 44869 1001.92 4
0 3 2 2770.28 249.925 3
0 3 2 3721.63 271.062 1
0 3 2 3102.23 205.222 2
0 -3 -2 3770.52 330.185 4
0 -3 -2 2526.1 234.854 3
0 -3 -2 3520.6 263.951 1
0 3 2 3413.62 324.231 4
0 -3 -2 3604.06 247.458 2
0 3 3 42090.9 1135.03 4
0 3 3 43498.7 884.021 2
0 -3 -3 43327 913.088 2
0 -3 -3 40268.6 1120.49 4
0 -3 -3 41299.7 955.754 3
0 3 3 42246 937.799 1
0 3 3 42314.2 1007.44 3
0 -3 -3 43528.2 942.996 1
0 3 4 662.923 131.362 1
0 -3 -4 699.464 107.707 2
0 3 4 578.473 158.571 4
0 3 4 432.629 50.7263 2
0 -3 -4 524.554 113.848 3
0 -3 -4 859.768 159.047 1
0 -3 -5 510.613 120.18 3
0 3 5 749.499 159.941 1
0 -3 -5 568.316 129.557 2
0 3 5 780.396 191.599 4
0 -3 -6 22749.9 883.201 2
0 3 6 23771.9 920.653 1
0 3 6 22311.3 1018.3 4
0 -3 -6 21678 808.557 3
0 -3 -7 7799.54 504.98 3
0 3 7 8123.6 656.966 4
0 3 7 8813.69 600.032 1
0 -3 -7 8069.14 574.347 2
0 3 8 79.7939 69.9356 1
0 -3 -8 11.4367 13.6385 3
0 3 8 82.4653 68.5943 4
0 -3 -9 4068.09 403.44 3
0 -3 -9 3002.94 373.105 2
0 3 9 4128.33 477.197 1
0 3 9 3715.89 509.789 4
0 -3 -10 3627.45 401.749 3
0 3 10 3605.34 523.558 4
0 3 10 3688.75 480.243 1
0 -3 -10 3855.57 502.101 2
0 -3 -11 600.386 208.731 2
0 3 11 619.56 237.756 1
0 3 11 644.694 297.855 4
0 -3 -12 1171.77 181.336 2
0 -4 14 2068.38 479.382 1
0 -4 14 75.2289 80.1299 4
0 -4 13 3364.1 512.902 4
0 4 -13 2945.91 434.786 2
0 4 -12 702.423 220.46 2
0 -4 12 759.366 224.941 4
0 -4 11 595.822 199.325 4
0 -4 11 517.961 191.005 1
0 4 -11 67.9079 154.128 2
0 4 -10 3204.72 389.62 2
0 -4 10 2677.32 357.296 1
0 -4 10 3228.21 419.189 4
0 4 -9 270.403 126.299 2
0 -4 9 205.427 102.559 1
0 -4 9 571.396 162.586 4
0 -4 8 10502.2 661.145 4
0 -4 8 10654.1 639.121 1
0 4 -8 10330.7 633.676 2
0 -4 7 5059.51 420.424 1
0 -4 7 4798.18 437.329 4
0 4 -7 4784.08 430.2 4
0 4 -7 4525.65 410.486 2
0 -4 6 3478.52 344.662 4
0 4 -6 2830.75 292.817 2
0 -4 6 3184.84 310.53 1
0 4 -6 3572.3 349.721 4
0 4 -5 11882.8 594.174 4
0 -4 5 10283.3 262.848 3
0 4 -5 11443.8 565.573 1
0 -4 5 12007.3 556.767 1
0 4 -5 11076.6 249.813 3
0 -4 5 11450 581.995 4
0 -4 5 10857 570.979 2
0 4 -5 12527.4 554.748 2
0 -4 5 11038.6 587.699 4
0 -4 4 38789.1 928.896 1
0 -4 4 37354.3 566.682 3
0 -4 4 36763.7 1001.68 4
0 4 -4 37487.8 999.264 4
0 4 -4 37604.7 864.496 2
0 4 -4 38941.2 581.212 3
0 4 -4 36849.7 940.214 1
0 -4 4 34453.7 897.908 2
0 4 -3 65965.1 869.786 3
0 4 -3 63427.5 999.912 2
0 -4 3 66367.8 1138.86 1
0 4 -3 66076.9 1278.69 4
0 -4 3 68133.5 1309.94 4
0 4 -3 68795.2 1240.29 1
0 -4 3 63207.2 838.677 3
0 -4 3 64349.2 1087.88 2
0 4 -2 311.218 108.428 4
0 -4 2 609.772 121.589 1
0 -4 2 232.401 64.8204 3
0 4 -2 232.845 67.2815 2
0 -4 2 162.19 85.2204 4
0 -4 2 113.53 47.1207 1
0 -4 2 285.686 90.2821 2
0 4 -2 204.419 60.4652 3
0 4 -2 660.403 118.352 1
0 -4 1 115809 1487.26 1
0 4 -1 111615 1663.37 4
0 4 -1 112035 1474.85 1
0 4 -1 111823 1107.8 2
0 4 -1 112981 1400.57 1
0 -4 1 111031 1159.15 2
0 -4 1 113178 1409.27 1
0 4 -1 109713 1351.61 3
0 -4 1 111452 1342.5 3
0 4 0 55.5363 21.1367 1
0 4 0 269.72 90.2961 4
0 -4 0 231.904 76.8042 3
0 -4 0 117.043 53.3145 1
0 -4 0 114.907 55.606 1
0 -4 0 98.4065 61.3547 4
0 4 0 148.467 44.9807 2
0 4 0 137.969 35.8861 2
0 4 0 229.115 71.4656 3
0 -4 -1 77259.1 1507.61 4
0 4 1 73463.5 1458.29 4
0 -4 -1 71787.9 998.632 2
0 4 1 72903.2 1187 1
0 4 1 75591.7 917.347 2
0 -4 -1 77484.8 1256.59 1
0 4 1 71318 1268.89 3
0 4 1 72277.4 1013.12 2
0 -4 -1 71900 1238.33 3
0 4 2 1264.13 168.453 1
0 -4 -2 1243.46 171.184 1
0 -4 -2 1119.38 165.529 3
0 4 2 1020.67 192.794 4
0 4 2 932.16 98.5649 2
0 -4 -2 1146.19 145.401 2
0 4 3 1677.05 204.925 1
0 4 3 1480.77 158.808 2
0 -4 -3 1590.71 204.603 3
0 4 3 1534.2 242.003 4
0 -4 -3 1506 197.442 1
0 -4 -3 1637.26 189.031 2
0 -4 -4 465.464 146.173 2
0 -4 -4 383.907 126.468 1
0 -4 -4 306.68 104.496 3
0 4 4 310.154 90.7254 2
0 4 4 392.678 158.603 4
0 4 4 396.605 120.073 1
0 4 5 197.496 143.404 4
0 -4 -5 411.625 170.152 1
0 -4 -5 114.716 82.6816 3
0 -4 -5 -124.204 95.3744 2
0 4 5 109.804 73.9174 1
0 4 6 297.272 102.041 1
0 4 6 323.466 135.251 4
0 -4 -6 257.794 96.097 3
0 -4 -7 28.9908 36.4226 3
0 4 7 61.0875 63.8795 4
0 4 7 30.8039 37.6625 1
0 4 8 2043.82 318.846 1
0 -4 -8 1744.01 273.931 3
0 4 8 2041.22 379.005 4
0 -4 -8 919.249 40.1877 2
0 -4 -9 30.1109 4.82874 3
0 4 9 94.6215 74.1756 1
0 4 9 26.4106 3.21024 4
0 4 10 621.226 225.368 4
0 -4 -10 667.525 182.729 3
0 -4 -10 181.161 106.008 2
0 4 10 714.26 203.523 1
0 -4 -11 109.265 97.1493 2
0 4 11 124.759 134.96 4
0 -4 -11 90.8854 65.6267 3
0 -4 -12 474.393 203.711 2
0 -5 14 1584.23 377.297 4
0 5 -13 1736.76 310.216 2
0 -5 13 2792.31 459.864 4
0 -5 12 4066.08 543.513 4
0 -5 12 3216.38 425.692 1
0 5 -12 3591.73 491.059 2
0 -5 11 9551.6 763.283 4
0 5 -11 8766.58 693.043 2
0 -5 11 9480.29 740.767 1
0 -5 10 3794.59 459.75 4
0 5 -10 3750.11 435.442 2
0 -5 10 3638.41 420.808 1
0 -5 9 14136.7 820.405 4
0 -5 9 13761.6 784.206 1
0 5 -9 13644.7 779.975 2
0 -5 8 9383.3 655.258 4
0 5 -8 9708.79 675.281 4
0 5 -8 8403.52 584.087 2
0 -5 8 8594.29 597.396 1
0 -5 7 9459.35 587.707 1
0 -5 7 9026.1 607.788 4
0 5 -7 9129.72 557.251 2
0 5 -7 9366.53 624.632 4
0 5 -6 9102.13 520.836 2
0 -5 6 9246.08 542.491 1
0 5 -6 8613.45 248.794 3
0 -5 6 8518.5 558.422 4
0 -5 6 7758.87 241.606 3
0 5 -6 9012.9 576.986 4
0 -5 5 1913.25 240.535 2
0 5 -5 1984.17 147.618 3
0 5 -5 1890.39 220.222 2
0 -5 5 1795.22 233.18 1
0 -5 5 1602.07 129.359 3
0 5 -5 1968.13 262.663 4
0 5 -4 2442.04 267.337 1
0 5 -4 3029.81 205.985 3
0 -5 4 2554.66 255.835 2
0 -5 4 2944.61 194.9 3
0 5 -4 2840.53 302.741 4
0 -5 4 2689.98 305.248 4
0 5 -4 2786.45 245.534 2
0 -5 4 2693.22 264.686 1
0 5 -3 1658.72 249.875 4
0 5 -3 1008.93 132.65 3
0 -5 3 1205.31 190.042 2
0 5 -3 943.807 136.54 2
0 5 -3 946.745 174.886 1
0 -5 3 890.075 168.613 1
0 -5 3 1518.09 259.135 4
0 -5 3 1041.64 140.59 3
0 -5 3 1058.07 164.755 1
0 -5 2 25888.1 894.747 4
0 5 -2 27585.2 839.567 1
0 -5 2 31051.9 760.434 3
0 5 -2 29281.5 951.3 4
0 -5 2 27892.3 835.083 1
0 5 -2 29907.9 756.281 3
0 -5 2 29615.6 808.947 1
0 5 -2 30596.4 666.09 2
0 -5 2 30378.7 722.498 2
0 -5 1 25931.3 609.931 2
0 5 -1 27038.4 932.426 4
0 5 -1 26100.6 762.262 3
0 5 -1 27434.6 610.69 2
0 -5 1 26812 768.201 1
0 -5 1 24796.8 903.47 4
0 5 -1 26271.2 754.875 1
0 5 -1 26285.3 583.498 2
0 -5 1 24321.5 778.338 1
0 -5 1 27746.7 764.21 3
0 -5 0 77218.3 1397.91 1
0 -5 0 77890.2 1356.06 3
0 -5 0 78262.4 1322.56 1
0 5 0 77465.7 1602 4
0 5 0 79166.8 967.792 2
0 5 0 77194.2 1302.94 1
0 5 0 75334.8 1025.03 2
0 5 1 6906.24 334.706 2
0 -5 -1 6909.36 429.804 3
0 -5 -1 7031.86 426.073 1
0 5 1 7252.06 302.93 2
0 5 1 6618.24 496.21 4
0 -5 -1 7304.35 421.757 1
0 5 1 7174.74 410.025 1
0 5 2 420.876 58.3657 2
0 -5 -2 620.612 140.299 1
0 -5 -2 703.264 131.514 2
0 5 2 641.519 121.979 2
0 -5 -2 620.813 139.173 3
0 5 2 690.375 177.063 4
0 5 2 657.937 134.654 1
0 -5 -3 -3.78465 19.4335 2
0 5 3 16.2284 16.4848 1
0 5 3 -14.8576 48.6376 4
0 -5 -3 -33.5133 47.091 1
0 -5 -3 -4.38761 22.9104 3
0 5 3 -34.9208 61.2126 2
0 5 4 22118.3 760.179 2
0 -5 -4 22982.1 891.228 3
0 5 4 22784.9 861.958 1
0 -5 -4 22573.9 805.283 2
0 -5 -4 19683.6 801.924 1
0 5 4 21449.8 1019.7 4
0 -5 -5 34237.1 1092.4 2
0 5 5 34844 1138.62 1
0 -5 -5 32411.2 1104 3
0 5 5 33013.1 1332.85 4
0 5 6 1593.24 315.082 4
0 -5 -6 1696.08 263.481 2
0 5 6 1772.01 279.985 1
0 -5 -6 1698.55 268.103 3
0 -5 -7 9989.13 668.641 3
0 5 7 10207.6 832.953 4
0 5 7 11256.1 737.886 1
0 -5 -7 10686.6 708.7 2
0 5 8 859.12 215.871 1
0 -5 -8 706.55 188.244 3
0 5 8 744.845 237.318 4
0 -5 -8 701.361 188.873 2
0 -5 -9 144.042 96.3559 2
0 5 9 130.81 92.2349 1
0 5 9 63.9931 59.4249 4
0 -5 -9 198.943 108.894 3
0 -5 -10 207.99 119.512 3
0 -5 -10 156.522 109.539 2
0 5 10 92.8185 60.0381 4
0 -5 -11 75.408 99.6618 2
0 -6 14 -89.8313 123.959 4
0 -6 13 237.165 142.19 1
0 6 -13 0.7542 184.994 2
0 -6 12 284.447 133.648 4
0 -6 12 178.653 68.7326 1
0 -6 11 -21.7246 120.661 1
0 6 -11 -198.076 222.008 2
0 -6 11 257.699 104.702 4
0 6 -10 993.588 208.408 2
0 -6 10 1195.29 249.528 1
0 -6 10 1125.62 249.54 4
0 -6 9 995.902 236.065 1
0 6 -9 1166.04 278.714 2
0 6 -9 1171.17 286.984 4
0 -6 9 1013.08 270.766 4
0 6 -8 1982.83 253.748 2
0 -6 8 2634.94 363.75 4
0 6 -8 2817.68 379.35 4
0 -6 8 2637.33 342.814 1
0 -6 7 670.424 77.4239 3
0 6 -7 578.488 74.3637 3
0 6 -7 704.137 181.438 4
0 -6 7 621.283 167.328 4
0 -6 7 759.845 180.292 1
0 6 -7 641.091 137.754 2
0 -6 6 15737.5 736.491 1
0 6 -6 16769.4 468.998 3
0 6 -6 15522.5 797.108 4
0 6 -6 15764.8 688.27 2
0 -6 6 15717.9 450.679 3
0 6 -5 1516.57 158.078 3
0 -6 5 1317.63 203.386 1
0 -6 5 1218.66 199.816 2
0 6 -5 1362.25 191.858 2
0 6 -5 1299.42 229.483 4
0 -6 5 1431.02 145.219 3
0 6 -4 3857.6 275.569 3
0 6 -4 3880.2 391.089 4
0 6 -4 3850.86 295.309 2
0 -6 4 4470.98 291.718 3
0 -6 4 3530.05 324.683 1
0 -6 4 3764.79 329.864 2
0 6 -3 816.278 170.706 1
0 -6 3 734.913 133.7 1
0 6 -3 590.212 114.338 3
0 -6 3 447.295 100.319 2
0 6 -3 346.258 76.5986 4
0 -6 3 551.04 114.441 3
0 -6 3 620.171 146.658 1
0 6 -3 458.391 90.1576 2
0 -6 2 59888.2 1367.11 1
0 6 -2 63040.8 1537.43 4
0 -6 2 62026.3 1093.86 2
0 6 -2 58059.6 977.058 2
0 -6 2 58840.6 1189.89 3
0 -6 2 62787.8 1282.15 1
0 6 -2 58497.1 1360.08 1
0 -6 1 54426.4 929.716 2
0 6 -1 53588.4 893.114 2
0 -6 1 50920 1245.37 1
0 6 -1 54215.7 1451.5 4
0 -6 1 51812.3 1161.51 3
0 -6 1 56551.1 1223.21 1
0 6 -1 54113.3 894.88 2
0 6 0 191.369 90.8518 1
0 6 0 199.161 73.4851 2
0 -6 0 240.797 103.796 3
0 6 0 215.223 125.556 4
0 -6 0 110.984 65.3748 1
0 6 0 101.978 32.1887 2
0 -6 0 33.3913 9.11719 1
0 -6 -1 376.217 110.86 3
0 -6 -1 290.503 103.839 1
0 6 1 300.534 114.425 4
0 -6 -1 243.03 74.2488 1
0 6 1 292.323 85.6844 1
0 6 1 300.732 71.8486 2
0 6 1 423.705 68.3192 2
0 -6 -2 5169.06 420.553 1
0 6 2 4656.28 285.671 2
0 -6 -2 5111.11 343.552 2
0 6 2 5117.42 503.706 4
0 6 2 5328.43 347.742 2
0 -6 -2 4305.19 382.539 3
0 6 2 5680.99 419.418 1
0 6 3 3336.81 265.804 2
0 -6 -3 3641.36 319.898 2
0 -6 -3 2880.22 327.698 1
0 6 3 3713.4 438.31 4
0 6 3 3686.9 351.702 1
0 -6 -3 3074.46 339.331 3
0 6 3 3875.19 330.755 2
0 6 4 97424.2 1887.5 1
0 6 4 91684.6 2248.12 4
0 -6 -4 95555.1 1747.38 2
0 6 4 98020.1 1815.22 2
0 -6 -4 89523.8 1896.76 3
0 -6 -5 39758.4 1216.85 2
0 6 5 40408.4 1284.39 1
0 -6 -5 38638.6 1298.63 3
0 6 5 37606.7 1503.04 4
0 6 6 1825.01 349.732 4
0 6 6 2105.35 316.97 1
0 -6 -6 2042.49 317.364 3
0 -6 -6 2130.61 303.009 2
0 6 7 557.129 205.304 4
0 6 7 593.12 169.403 1
0 -6 -7 522.133 155.112 3
0 -6 -7 69.7068 112.272 2
0 6 8 411.257 194.016 4
0 -6 -8 351.125 95.7275 2
0 -6 -8 529.186 175.48 3
0 -6 -9 44.0912 63.365 3
0 -6 -9 -212.595 233.815 2
0 6 9 -32.7513 90.1893 4
0 -6 -10 1124.78 267.673 3
0 -7 14 7134.07 803.307 4
0 7 -13 -30.0617 160.465 2
0 -7 13 71.6617 93.8454 4
0 -7 13 -110.422 140.762 1
0 7 -12 2004.91 266.088 2
0 -7 12 2437.38 363.149 1
0 -7 11 3362.05 468.156 4
0 7 -11 2782.17 389.719 2
0 -7 11 3596.26 463.963 1
0 -7 10 -10.8991 72.5687 4
0 -7 10 36.22 36.5618 1
0 7 -9 144.8 75.2714 4
0 7 -9 142.288 65.0004 2
0 -7 9 156.362 93.3447 1
0 -7 9 169.548 88.8332 4
0 7 -8 7056.9 616.248 4
0 -7 8 6707.63 558.675 1
0 7 -8 5620.39 466.847 2
0 -7 8 6619.31 587.546 4
0 -7 7 3995.25 406.597 1
0 7 -7 4468.4 471.139 4
0 -7 7 4078 262.059 3
0 7 -7 3375.02 222.679 3
0 7 -7 3558.84 357.027 2
0 -7 7 4210.82 452.204 4
0 7 -6 31804.2 783.691 3
0 7 -6 32385.9 1232.16 4
0 -7 6 30951.1 1073.14 1
0 7 -6 30813.2 974.031 2
0 -7 6 32056.6 757.933 3
0 7 -5 442.288 146.169 4
0 7 -5 411.869 107.213 2
0 -7 5 386.561 121.303 1
0 -7 5 290.299 116.166 2
0 -7 5 411.738 84.5064 3
0 7 -5 367.417 84.7627 3
0 7 -4 12344.5 738.135 4
0 7 -4 12221 530.642 2
0 -7 4 13225.1 556.423 3
0 -7 4 12468 638.967 1
0 -7 4 11534.2 577.12 2
0 -7 3 4151.07 331.864 3
0 -7 3 4199.4 370.894 1
0 7 -3 3800.13 418.244 4
0 7 -3 3880.12 281.615 2
0 -7 3 3667.55 311.241 2
0 7 -2 18613.6 590.387 2
0 -7 2 18708.1 758.968 1
0 -7 2 18160.5 614.404 2
0 7 -2 19065 580.922 2
0 7 -2 18129.7 904.262 4
0 -7 2 19457.6 751.601 3
0 -7 1 242.475 91.973 3
0 -7 1 -6.00404 33.4673 1
0 7 -1 229.571 83.9907 4
0 7 -1 193.843 58.5091 2
0 7 -1 144.702 40.7243 2
0 7 0 1682.8 223.296 1
0 -7 0 1552.34 234.117 3
0 7 0 1784.17 176.893 2
0 -7 0 1934.7 251.238 1
0 7 0 1892.59 308.41 4
0 7 0 1899.2 167.861 2
0 7 1 5153.53 409.26 1
0 7 1 4711.03 488.043 4
0 7 1 5113.47 321.963 2
0 7 1 5215.83 281.479 2
0 -7 -1 4836.69 418.977 3
0 -7 -1 5228.35 418.899 1
0 7 2 78.2105 67.8133 1
0 -7 -2 8.11751 35.7393 3
0 -7 -2 100.692 79.813 1
0 7 2 8.59071 16.0354 2
0 7 2 92.1389 106.827 4
0 -7 -3 21.0188 2.35335 2
0 7 3 77.9524 80.3882 1
0 7 3 66.4834 88.7732 4
0 -7 -3 49.8525 55.9879 3
0 7 3 16.9021 19.8256 2
0 7 4 7801.58 527.557 2
0 -7 -4 6360.14 549.518 3
0 -7 -4 7717.73 520.921 2
0 7 4 6979.34 667.532 4
0 7 4 7950.23 570.21 1
0 -7 -5 82.3713 49.9505 2
0 7 5 88.9181 44.7239 2
0 7 5 65.7058 9.58395 1
0 -7 -5 56.2267 45.3873 3
0 7 5 85.6397 71.9725 4
0 7 6 6488.87 573.472 1
0 -7 -6 6107.66 574.292 3
0 -7 -6 5735.13 516.092 2
0 7 6 6659.51 569.088 2
0 7 6 6131.05 696.02 4
0 7 7 835.247 258.501 4
0 -7 -7 973.973 242.177 3
0 7 8 313.574 173.121 4
0 -7 -8 547.302 198.379 3
0 -7 -9 645.714 225.975 3
0 -8 14 1473.59 352.829 4
0 8 -13 1087.56 270.163 2
0 -8 13 1045.2 297.89 4
0 -8 12 1858 311.324 1
0 8 -12 1509.04 239.993 2
0 8 -11 1668.42 308.285 2
0 -8 11 1768.15 332.557 1
0 -8 11 996.336 207.417 4
0 8 -10 1589.03 326.795 4
0 -8 10 1370.01 279.377 1
0 8 -10 830.696 108.056 2
0 -8 10 1475.12 311.174 4
0 8 -9 13685 941.227 4
0 -8 9 13174 900.214 4
0 -8 9 13282.5 853.996 1
0 8 -9 12327.3 768.122 2
0 -8 8 7108.59 595.388 1
0 8 -8 5960.81 484.566 2
0 -8 8 6172.21 313.463 3
0 -8 8 7024.68 633.6 4
0 8 -8 7541.63 669.128 4
0 8 -7 9826.61 605.476 2
0 8 -7 11195.6 775.972 4
0 -8 7 10473.2 685.508 1
0 -8 7 9766.47 440.188 3
0 8 -6 3469.68 302.334 3
0 8 -6 4286.96 479.543 4
0 -8 6 3830.3 295.033 3
0 8 -6 3603.46 336.827 2
0 -8 6 3875.05 400.87 1
0 -8 5 684.645 130.017 3
0 8 -5 540.595 162.757 4
0 -8 5 621.634 163.376 1
0 8 -5 664.513 136.956 2
0 -8 4 422.207 106.863 3
0 -8 4 335.999 111.499 1
0 8 -4 407.896 105.924 2
0 8 -4 303.269 117.905 4
0 -8 4 317.255 105.57 2
0 -8 3 9349.14 585.431 1
0 8 -3 8906.75 675.777 4
0 8 -3 8645.17 422.97 2
0 -8 3 9040.74 537.608 3
0 -8 3 8338.36 470.057 2
0 8 -2 2348.04 359.994 4
0 8 -2 2267.31 207.482 2
0 8 -2 2179.35 202.413 2
0 -8 2 2594.04 310.184 1
0 -8 2 2031.37 266.396 3
0 -8 2 2295.67 219.466 2
0 8 -1 2369.91 202.794 2
0 8 -1 2374.15 360.479 4
0 8 -1 2286.17 188.527 2
0 -8 1 2393.91 292.913 1
0 -8 1 2290.59 293.351 3
0 -8 0 1079.56 196.693 1
0 8 0 929.698 161.366 1
0 8 0 819.029 69.7457 2
0 8 0 1127.04 141.955 2
0 8 0 963.361 224.749 4
0 -8 0 1062.34 203.492 3
0 8 1 184.886 77.6704 1
0 8 1 183.521 58.1921 2
0 -8 -1 201.691 88.5368 1
0 8 1 245.241 106.542 4
0 -8 -1 127.914 47.6911 3
0 8 2 144.547 66.4972 2
0 8 2 177.239 91.3117 1
0 -8 -2 165.11 102.933 3
0 8 2 146.598 123.08 4
0 -8 -2 178.199 98.3246 1
0 8 3 123.816 81.0472 1
0 -8 -3 150.887 104.257 3
0 -8 -3 97.1289 69.3338 1
0 8 3 131.468 77.5838 2
0 8 3 167.092 146.48 4
0 8 4 1711.26 275.825 1
0 -8 -4 1639.35 264.929 1
0 -8 -4 1427.88 278.539 3
0 8 4 1426.31 331.153 4
0 8 5 -45.5902 95.9823 4
0 -8 -5 5.45596 33.3329 3
0 8 5 -46.1913 84.7846 1
0 -8 -6 495.76 188.36 3
0 8 6 350.885 138.105 4
0 8 7 436.407 173.903 4
0 -8 -7 653.791 220.505 3
0 -8 -8 940.921 264.219 3
0 9 -13 472.891 54.993 2
0 -9 13 640.416 215.907 4
0 9 -12 1205.73 159.117 2
0 -9 12 698.216 153.377 4
0 9 -11 7899.24 701.2 2
0 -9 11 8213.81 791.519 4
0 9 -11 8708.54 817.978 4
0 -9 11 8137.81 730.47 1
0 9 -10 1012.87 281.006 4
0 -9 10 949.255 250.969 1
0 9 -10 285.936 156.699 2
0 -9 10 922.184 265.483 4
0 9 -9 6057.06 550.399 2
0 9 -9 6336.07 661.886 4
0 -9 9 6425.71 618.279 1
0 -9 9 5848.41 623.244 4
0 -9 8 1535.48 281.652 1
0 9 -8 852.437 48.3886 2
0 9 -8 1530.48 313.438 4
0 -9 7 108.702 56.1073 1
0 9 -7 153.637 108.362 4
0 9 -7 -41.6877 114.555 2
0 -9 6 6400.77 549.78 1
0 9 -6 6345.68 460.853 2
0 -9 6 6456.45 427.644 3
0 9 -6 6351.32 613.242 4
0 9 -5 1912.44 240.153 2
0 9 -5 1812.72 333.973 4
0 -9 5 1769.28 281.446 1
0 -9 5 1978.37 245.68 3
0 9 -4 8950.76 471.772 2
0 -9 4 9728.68 590.083 3
0 9 -4 8857.69 719.118 4
0 -9 4 9428.34 627.589 1
0 -9 3 12664.2 718.799 1
0 9 -3 12696.3 519.574 2
0 9 -3 12182.7 854.044 4
0 -9 3 13677 713.336 3
0 9 -2 2600.66 216.399 2
0 -9 2 2330.63 291.137 1
0 9 -2 2457.72 386.011 4
0 -9 2 2885.45 345.31 3
0 -9 1 264.309 107.786 3
0 9 -1 225.671 57.6218 2
0 9 -1 230.343 112.498 4
0 -9 0 232.315 108.388 3
0 -9 0 -32.468 96.6263 1
0 9 0 237.213 130.456 4
0 -9 -1 93.66 62.1539 1
0 9 1 15.9657 98.329 1
0 9 1 42.3278 29.9972 4
0 -9 -1 148.177 99.2891 3
0 9 2 1408.03 260.654 1
0 -9 -2 1298.36 270.689 3
0 -9 -2 1460.12 260.927 1
0 9 2 1308.91 326.231 4
0 9 3 1880.06 302.281 1
0 -9 -3 1767.33 322.64 3
0 -9 -3 1767.99 290.452 1
0 9 3 1772.87 381.797 4
0 9 4 530.228 221.559 4
0 -9 -4 494.892 178.612 3
0 9 5 485.092 226.776 4
0 -9 -5 400.172 183.342 3
0 -9 -6 210.16 136.033 3
0 9 6 305.679 188.76 4
0 -10 13 1023.26 314.252 4
0 10 -13 1125.49 301.708 2
0 10 -12 6156.78 718.976 4
0 10 -12 5047.89 506.394 2
0 -10 12 7124.34 782.894 4
0 10 -11 8916.62 868.624 4
0 -10 11 8630.3 830.41 4
0 -10 11 8645.88 771.224 1
0 10 -11 7201.17 653.863 2
0 -10 10 955.277 260.886 1
0 -10 10 889.659 256.552 4
0 10 -10 942.888 271.144 4
0 10 -10 345.556 72.3479 2
0 -10 9 925.748 250.063 4
0 10 -9 1014.96 226.985 2
0 10 -9 1020.04 267.122 4
0 -10 9 1150.03 265.98 1
0 10 -8 -34.4728 81.2225 4
0 -10 8 -23.9633 66.4766 1
0 -10 7 347.265 111.416 3
0 10 -7 673.092 206.597 4
0 -10 7 706.22 194.747 1
0 10 -7 558.17 101.826 2
0 10 -6 7752.92 724.127 4
0 -10 6 7904.39 517.511 3
0 10 -6 7617.15 501.025 2
0 -10 6 7654.67 624.051 1
0 10 -5 11669.2 882.784 4
0 10 -5 10617.7 550.96 2
0 -10 5 11256.5 646.944 3
0 -10 5 11179.9 737.363 1
0 -10 4 1562.24 273.423 1
0 -10 4 1391.27 243.26 3
0 10 -4 1753.86 346.991 4
0 10 -3 -18.2795 64.8156 4
0 -10 3 4.03082 30.8248 1
0 -10 3 26.5379 20.8954 3
0 -10 2 1383.1 248.152 1
0 -10 2 1489.04 268.484 3
0 10 -2 1384.44 320.671 4
0 -10 1 2124.98 318.002 1
0 10 -1 1714.87 357.286 4
0 -10 1 1492.36 280.935 3
0 -10 0 3392.65 380.8 1
0 -10 0 3337.55 426.641 3
0 10 0 3485.78 517.382 4
0 10 1 -12.8171 70.2953 4
0 -10 -1 31.8991 40.889 3
0 10 2 9.30335 117.464 1
0 10 2 412.01 159.723 4
0 -10 -2 532.66 176.314 3
0 10 3 2942.12 508.954 4
0 -10 -3 3382.19 472.166 3
0 -10 -4 3112.62 469.574 3
0 10 4 3177.7 555.381 4
0 -11 12 1457.11 372.758 4
0 11 -12 1483.65 379.27 4
0 11 -11 986.703 301.434 4
0 -11 11 924.098 271.63 4
0 -11 10 3003.19 487.77 4
0 11 -10 3257.97 528.884 4
0 -11 10 3300.37 474.117 1
0 -11 9 416.09 149.43 4
0 11 -9 519.508 194.623 4
0 -11 9 561.374 195.499 1
0 11 -8 175.954 143.02 4
0 -11 8 -16.5429 60.8888 1
0 11 -7 104.199 103.504 4
0 -11 7 8.16642 38.8133 1
0 11 -6 1112.07 291.004 4
0 -11 6 976.383 193.124 3
0 -11 6 1012.79 242.033 1
0 -11 5 50.2433 75.3732 1
0 11 -5 12.5236 46.6451 4
0 -11 5 -44.0558 64.164 3
0 -11 4 193.203 91.481 3
0 -11 4 220.353 106.98 1
0 11 -4 293.786 151.793 4
0 -11 3 54.9435 39.4884 3
0 -11 3 81.107 66.9344 1
0 11 -3 40.5021 57.7345 4
0 11 -2 236.582 139.435 4
0 -11 2 267.91 116.847 3
0 -11 2 391.502 174.45 1
0 11 -1 69.2146 83.4822 4
0 -11 1 164.915 109.996 3
0 -11 1 87.8808 64.9183 1
0 11 0 2802.06 496.14 4
0 -11 0 2796.53 416.709 3
0 -11 0 3401.26 420.197 1
0 11 1 346.696 188.644 4
0 -11 -1 582.682 205.023 3
0 11 2 -66.8294 154.206 4
0 -11 -2 253.552 147.524 3
0 11 3 932.572 294.346 4
0 -11 -3 1173.91 301.128 3
0 -12 11 245.27 160.067 4
0 12 -11 169.681 133.053 4
0 -12 10 -54.815 135.311 4
0 12 -10 -52.658 111.945 4
0 -12 9 470.137 185.451 1
0 12 -9 346.129 139.255 4
0 -12 8 120.504 88.6977 1
0 12 -8 173.977 151.618 4
0 -12 7 -6.59432 71.8334 1
0 12 -7 55.9401 67.9904 4
0 12 -6 251.063 130.562 4
0 -12 6 250.323 110.019 1
0 -12 6 271.404 98.3769 3
0 -12 5 66.2407 87.0915 1
0 -12 5 -5.64642 44.7722 3
0 12 -5 20.0829 32.0612 4
0 -12 4 393.377 152.665 1
0 12 -4 398.553 180.209 4
0 -12 4 419.856 144.016 3
0 -12 3 372.635 140.602 3
0 -12 3 313.2 132.414 1
0 12 -3 323.649 171.124 4
0 12 -2 36.3108 25.2933 4
0 -12 2 20.4302 54.8609 1
0 -12 2 -33.2247 50.6359 3
0 12 -1 421.807 203.049 4
0 -12 1 385.674 154.404 3
0 12 0 -10.1963 71.9602 4
0 -12 0 -41.3379 93.4181 3
0 -12 -1 290.281 147.147 3
0 12 1 260.455 162.672 4
0 13 -8 337.696 189.937 4
0 13 -7 1001.99 302.149 4
0 -13 7 1082.08 272.291 1
0 -13 6 4.17299 43.5774 1
0 13 -6 -94.6451 132.449 4
0 -13 5 378.292 141.882 3
0 -13 5 358.681 156.071 1
0 13 -5 521.342 225.74 4
0 13 -4 892.072 287.88 4
0 -13 4 693.203 195.463 3
0 -13 4 891.423 244.111 1
0 -13 3 1272.98 277.899 3
0 13 -3 1387.54 378.101 4
0 -13 2 2749.45 441.664 3
0 -14 4 4875.01 583.243 3
1 -14 4 14781.9 1041.71 3
-1 13 -1 2643.54 526.985 4
1 -13 1 3528.75 515.492 3
1 -13 2 166.506 116.511 3
-1 13 -2 170.642 114.8 4
-1 13 -3 1491.08 378.568 4
1 -13 3 1500.19 317.778 3
1 -13 4 849.452 220.342 3
-1 13 -4 856.595 272.064 4
-1 13 -5 213.662 128.451 4
1 -13 5 331.889 150.654 1
1 -13 5 236.424 113.45 3
1 -13 6 898.096 240.154 1
-1 13 -6 915.327 281.219 4
-1 13 -7 38.935 57.1329 4
1 -13 7 65.3119 61.2524 1
-1 13 -8 262.669 141.932 4
-1 13 -9 2063.6 450.853 4
1 -13 9 1891.36 421.698 4
-1 12 1 2996.58 532.525 4
1 -12 -1 2942.21 459.784 3
-1 12 0 2359.79 469.167 4
1 -12 0 2432.35 405.888 3
1 -12 1 3530.45 469.663 3
-1 12 -1 3762.9 585.508 4
1 -12 2 -37.1989 68.278 3
-1 12 -2 -23.269 52.0671 4
-1 12 -3 934.051 279.478 4
1 -12 3 989.084 235.521 1
1 -12 3 987.036 232.472 3
1 -12 4 360.235 136.642 1
1 -12 4 339.71 122.363 3
-1 12 -4 267.566 122.683 4
1 -12 5 859.776 206.329 3
1 -12 5 811.3 204.913 1
-1 12 -5 802.887 249.87 4
1 -12 6 774.382 209.256 1
-1 12 -6 697.631 235.098 4
-1 12 -7 587.998 224.882 4
1 -12 7 616.509 193.777 1
1 -12 8 1135.54 270.965 1
-1 12 -8 1064.03 296.969 4
1 -12 9 34.6483 42.5918 1
1 -12 9 -60.2879 79.9289 4
-1 12 -9 68.6526 96.1502 4
1 -12 10 -114.807 137.136 4
-1 12 -10 117.235 128.593 4
-1 12 -11 342.602 168.914 4
1 -11 -3 2270.87 405.833 3
-1 11 3 1901.46 410.104 4
1 -11 -2 239.264 124.882 3
-1 11 2 57.851 90.035 4
1 -11 -1 118.685 75 3
-1 11 1 165.64 107.627 4
1 -11 0 -10.7058 54.8199 3
-1 11 0 74.8361 95.1993 4
-1 11 -1 1265.63 315.755 4
1 -11 1 1079.5 247.649 3
1 -11 1 1230.29 234.735 1
1 -11 2 760.723 198.246 3
-1 11 -2 893.251 260.082 4
1 -11 2 812.316 198.356 1
1 -11 3 2125.86 325.593 1
-1 11 -3 2240.08 406.125 4
1 -11 3 2172.7 327.86 3
-1 11 -4 93.836 79.5079 4
1 -11 4 93.0758 79.0221 1
1 -11 4 60.1319 59.0116 3
-1 11 -5 1837.71 358.804 4
1 -11 5 1798.83 278.074 3
1 -11 5 1862.64 314.532 1
-1 11 -6 415.938 170.349 4
1 -11 6 408.123 151.246 1
1 -11 7 1763.17 327.877 1
-1 11 -7 1874.97 374 4
-1 11 -8 3572.87 517.689 4
-1 11 -8 2591.52 322.722 2
1 -11 8 3792.42 485.394 1
1 -11 9 -10.0244 27.6116 4
-1 11 -9 20.0666 30.1949 4
-1 11 -10 189.136 65.9954 2
-1 11 -10 362.793 182.495 4
1 -11 10 293.205 161.155 4
1 -11 10 212.817 101.053 1
1 -11 11 100.873 120.808 4
-1 11 -11 164.401 129.979 4
-1 11 -12 786.638 257.715 2
1 -10 -5 164.928 140.421 3
-1 10 5 65.1633 109.55 4
1 -10 -4 5019.04 588.637 3
-1 10 4 5044.33 671.579 4
-1 10 3 3652.95 554.563 4
1 -10 -3 3663.65 483.564 3
1 -10 -2 49.6302 58.1033 3
-1 10 2 -55.4355 90.7474 4
1 -10 -1 445.022 167.98 3
-1 10 1 534.48 205.916 4
1 -10 -1 522.29 141.251 1
1 -10 0 682.087 196.173 1
1 -10 0 509.564 165.563 3
-1 10 0 514.592 189.467 4
1 -10 1 38.1242 16.3537 1
-1 10 -1 86.4047 83.5962 4
1 -10 1 48.9922 43.0469 3
1 -10 2 539.871 143.436 1
-1 10 -2 520.704 180.2 4
1 -10 2 535.214 159.57 3
-1 10 -3 1346.11 294.146 4
1 -10 3 1533.75 260.087 1
-1 10 -3 1386.29 203.571 2
1 -10 3 1557.08 257.541 3
1 -10 4 1559.76 251.52 3
1 -10 4 1754.66 285.855 1
-1 10 -4 1631.48 240.065 2
-1 10 -4 1708.77 332.296 4
1 -10 5 879.739 161.985 3
-1 10 -5 1011.73 195.918 2
-1 10 -5 1132.91 272.914 4
1 -10 5 1111.42 238.483 1
-1 10 -6 403.382 126.615 2
1 -10 6 402.73 146.222 1
-1 10 -6 336.105 134.411 4
-1 10 -7 113.422 87.9232 4
1 -10 7 61.0036 53.0474 1
-1 10 -7 43.1699 50.6729 2
1 -10 8 549.753 160.406 4
-1 10 -8 646.789 197.048 4
1 -10 8 750.629 212.588 1
-1 10 -8 566.647 131.616 2
-1 10 -9 401.283 160.742 4
1 -10 9 428.684 165.481 1
-1 10 -9 303.389 124.642 2
1 -10 9 393.451 141.087 4
-1 10 -10 1269.95 78.0552 2
1 -10 10 2644.21 438.42 4
1 -10 10 2815.48 424.7 1
-1 10 -10 2743.92 455.115 4
1 -10 11 63.0903 53.3089 1
-1 10 -11 130.073 103.73 4
1 -10 11 206.185 146.14 4
-1 10 -11 42.367 161.638 2
-1 10 -12 561.867 206.394 2
1 -10 12 654.401 240.759 4
1 -9 -7 401.442 170.577 3
1 -9 -6 437.499 181.066 3
-1 9 6 347.505 195.538 4
-1 9 5 264.301 172.755 4
1 -9 -5 203.611 129.396 3
-1 9 4 1108.52 303.559 4
1 -9 -4 1080.65 265.277 3
1 -9 -3 148.027 106.792 3
-1 9 3 92.1804 70.3781 4
-1 9 2 514.39 192.098 4
1 -9 -2 370.042 97.4157 1
1 -9 -2 499.697 166.977 3
-1 9 1 209.171 123.417 4
-1 9 1 196.064 69.4443 2
1 -9 -1 205.491 111.67 3
1 -9 0 8558.24 628.631 3
-1 9 0 8764.52 743.005 4
1 -9 0 9236.62 566.865 1
-1 9 0 8672.48 503.186 2
-1 9 -1 8324.58 707.895 4
-1 9 -1 8559.4 494.395 2
1 -9 1 8736.13 555.926 1
1 -9 1 9166.73 641.621 3
-1 9 -2 44175.4 1598.96 4
1 -9 2 45191.1 1277.89 1
-1 9 -2 44341.9 1140.42 2
1 -9 2 44921.3 1339.98 3
1 -9 3 5313.67 447.532 1
1 -9 3 5909.65 466.013 3
-1 9 -3 5838.17 434.124 2
-1 9 -3 5068.47 535.634 4
1 -9 4 5751.54 446.352 3
-1 9 -4 5600.69 428.615 2
1 -9 4 5619.52 475.928 1
-1 9 -4 5678.15 561.453 4
1 -9 5 -6.27522 50.7902 3
-1 9 -5 78.3242 59.6806 2
1 -9 5 50.1394 2.09767 1
-1 9 -5 82.239 54.5783 4
-1 9 -6 1705.08 313.714 4
1 -9 6 910.981 105.246 3
-1 9 -6 1575.19 251.967 2
1 -9 6 1626.37 273.059 1
-1 9 -7 1053.6 247.321 4
1 -9 7 1032.61 229.529 1
-1 9 -7 1024.2 217.34 2
-1 9 -8 22742.2 1181.24 4
1 -9 8 21910.4 1145.29 4
-1 9 -8 22481.2 1048.08 2
1 -9 8 23122.5 1131.46 1
-1 9 -9 20182.9 1164.27 4
1 -9 9 19325 1121.6 4
-1 9 -9 19135.1 1014.6 2
1 -9 9 19626.8 1083.08 1
1 -9 10 3842.68 491.962 1
-1 9 -10 4013.56 525.345 4
-1 9 -10 2365.78 286.867 2
1 -9 10 3895.38 519.621 4
1 -9 11 502.534 121.994 1
-1 9 -11 1001.52 263.939 2
1 -9 11 763.812 115.478 4
-1 9 -12 58.9072 73.8865 2
1 -9 12 -52.7798 96.8498 4
1 -9 13 9.71875 21.5383 4
-1 8 8 84.0352 118.522 4
1 -8 -8 87.4197 99.9667 3
-1 8 7 1075.05 306.921 4
1 -8 -7 1210.68 281.26 3
-1 8 6 294.461 140.851 4
1 -8 -6 309.597 154.324 3
1 -8 -5 35.0645 65.2041 3
-1 8 5 21.3806 37.7534 2
-1 8 5 -33.2976 81.4412 4
1 -8 -5 34.9574 39.4933 2
1 -8 -4 3450.1 429.054 3
-1 8 4 3745.91 358.525 1
-1 8 4 3353.32 482.371 4
-1 8 4 3518.01 384.817 2
1 -8 -4 3779.08 364.873 1
-1 8 3 306.556 148.457 4
1 -8 -3 364.246 144.678 3
1 -8 -3 374.454 114.496 1
-1 8 3 281.084 93.4595 2
-1 8 3 352.283 107.377 1
-1 8 2 717.784 152.747 2
1 -8 -2 676.238 147.52 1
1 -8 -2 743.068 180.594 3
-1 8 2 611.813 190.707 4
-1 8 2 445.195 94.1772 1
-1 8 1 84.3269 37.01 2
1 -8 -1 32.629 31.8234 1
-1 8 1 58.0907 39.8814 2
1 -8 -1 20.5593 29.6063 3
-1 8 1 22.4848 41.276 4
-1 8 0 643.94 133.472 2
1 -8 0 808.86 161.721 1
1 -8 0 720.879 176.693 3
-1 8 0 653.75 126.237 2
-1 8 0 792.838 216.318 4
-1 8 -1 31385.7 907.196 2
-1 8 -1 33913.8 953.751 2
-1 8 -1 34996.2 1346.27 4
1 -8 1 36031.3 1056.5 1
1 -8 1 32824.7 975.471 2
1 -8 1 34711.1 1139.72 3
-1 8 -2 882.274 147.942 2
-1 8 -2 896.06 210.774 4
1 -8 2 923.052 166.888 1
1 -8 2 1272.33 211.679 3
-1 8 -2 1042.56 169.341 2
1 -8 2 784.307 156.951 2
1 -8 3 105.825 46.5529 2
1 -8 3 147.828 69.9999 1
-1 8 -3 74.7899 52.4194 4
-1 8 -3 123.503 46.9841 2
1 -8 3 192.125 72.0399 3
1 -8 4 11508.4 583.778 3
1 -8 4 11404.2 642.698 1
-1 8 -4 11146.4 595.217 2
-1 8 -4 11023.3 725.712 4
-1 8 -5 8975.33 563.038 2
-1 8 -5 9170.49 675.295 4
1 -8 5 8980.57 592.275 1
1 -8 5 8924.58 490.228 3
-1 8 -6 3890.93 444.898 4
1 -8 6 3851.21 408.531 1
1 -8 6 3588.37 292.203 3
-1 8 -6 3807.82 308.734 3
-1 8 -6 3899.33 392.142 2
1 -8 7 23259 1048.16 1
1 -8 7 21858.3 731.46 3
-1 8 -7 22900.8 992.036 2
1 -8 7 22467 1075.07 4
-1 8 -7 23335 1109.25 4
1 -8 8 21261.3 1084.01 4
-1 8 -8 22313.5 1126.46 4
1 -8 8 21277.9 1043.45 1
-1 8 -8 21505.8 1014.01 2
-1 8 -9 4177.67 461.088 2
-1 8 -9 5230.31 558.686 4
1 -8 9 5147.59 542.171 1
1 -8 9 4897.85 535.58 4
-1 8 -10 5256.81 518.492 2
1 -8 10 6979.5 658.737 4
-1 8 -10 6478.57 636.99 4
1 -8 10 6992.46 662.611 1
1 -8 11 -19.7459 87.4575 1
-1 8 -11 77.3523 99.4877 2
1 -8 11 -20.4029 77.8794 4
1 -8 12 2803.39 451.512 4
1 -8 12 2132.46 372.247 1
-1 8 -12 2792.33 462.319 2
-1 8 -13 1260.52 276.968 2
1 -8 13 1503.12 346.094 4
1 -7 -9 179.714 107.949 3
-1 7 9 60.2985 60.9516 4
-1 7 8 -72.6236 125.059 4
1 -7 -8 77.6244 95.6817 3
-1 7 7 261.054 124.492 2
1 -7 -7 278.829 116.238 2
1 -7 -7 402.502 165.11 3
-1 7 7 160.805 81.2927 4
-1 7 6 148.368 91.1789 2
1 -7 -6 148.714 90.4226 3
-1 7 6 101.301 35.8825 1
1 -7 -6 140.585 82.3371 2
-1 7 6 36.5798 80.6891 4
-1 7 5 1603.02 272.369 2
1 -7 -5 1557.24 281.902 3
1 -7 -5 1675.89 273.616 2
-1 7 5 1436.22 302.188 4
-1 7 5 1661.29 239.529 1
1 -7 -4 1027.72 221.8 3
-1 7 4 991.049 198.995 2
1 -7 -4 1032.85 186.718 1
1 -7 -4 994.96 195.886 2
-1 7 4 1047.84 185.084 1
-1 7 4 1095.68 267.485 4
1 -7 -3 7609.65 492.649 1
-1 7 3 8564.44 692.638 4
-1 7 3 8799.44 494.278 1
1 -7 -3 9048.82 520.408 1
-1 7 3 8515.74 537.479 2
1 -7 -3 8562.56 602.959 3
-1 7 2 1354.79 202.295 2
-1 7 2 1292.06 269.399 4
1 -7 -2 1513.22 243.267 3
-1 7 2 1107.13 129.598 2
1 -7 -2 1313.01 209.157 1
-1 7 2 1436.79 194.43 1
1 -7 -2 1440.25 203.459 1
1 -7 -1 254.804 88.806 1
1 -7 -1 180.172 80.5416 1
-1 7 1 200.199 71.4587 2
1 -7 -1 155.818 71.7328 3
-1 7 1 185.852 99.3399 4
-1 7 1 64.189 103.984 2
-1 7 0 19937 706.341 2
1 -7 0 19536.6 789.944 1
1 -7 0 21640.7 748.891 1
1 -7 0 20381.6 834.658 3
-1 7 0 19566.2 668.853 2
-1 7 0 20649.1 972.709 4
1 -7 1 1094.47 177.503 2
-1 7 -1 1206.08 171.024 2
1 -7 1 1313.03 195.058 1
1 -7 1 1528.83 223.004 3
1 -7 1 997.791 192.427 1
-1 7 -1 1063.25 227.885 4
-1 7 -1 1317.85 184.651 2
-1 7 -2 24533.5 793.978 2
1 -7 2 26552.6 875.493 3
-1 7 -2 26324.1 1055.19 4
1 -7 2 26506.2 858.225 1
1 -7 2 24606.3 863.517 2
1 -7 3 635.877 133.499 1
-1 7 -3 563.317 123.435 2
1 -7 3 950.279 154.012 3
-1 7 -3 527.166 136.269 4
1 -7 3 563.009 133.887 2
1 -7 4 32666.2 1028.72 1
1 -7 4 32892.5 896.461 3
-1 7 -4 32485.2 980.979 2
-1 7 -4 33687.8 1175.32 4
-1 7 -5 4179.55 380.152 2
1 -7 5 3775 285.848 3
-1 7 -5 4133.19 306.983 3
-1 7 -5 4948.41 459.209 4
1 -7 5 4323.74 397.179 1
-1 7 -6 6054.5 340.927 3
1 -7 6 6942.49 388.624 3
1 -7 6 6326.34 510.342 1
-1 7 -6 6618.66 543.74 4
-1 7 -6 5894.58 480.671 2
1 -7 7 513.457 182.936 1
-1 7 -7 535.277 187.873 4
-1 7 -7 621.17 205.75 2
1 -7 7 451.598 171.53 4
1 -7 7 390.867 110.786 3
-1 7 -8 927.762 216.605 2
1 -7 8 970.834 214.047 1
1 -7 8 1042.79 231.826 4
-1 7 -8 1012.86 222.011 4
1 -7 8 580.23 95.1851 3
-1 7 -9 438.17 146.455 4
1 -7 9 416.656 148.426 4
-1 7 -9 352.352 81.8494 2
1 -7 9 352.878 119.758 1
1 -7 10 4455.04 500.834 1
1 -7 10 4817.92 519.768 4
-1 7 -10 3628.35 420.984 2
-1 7 -11 72.0917 142.998 2
1 -7 11 367.497 142.715 4
1 -7 11 322.51 128.039 1
1 -7 12 404.24 143.689 1
1 -7 12 554.086 195.569 4
-1 7 -12 751.543 246.483 2
-1 7 -13 1880.43 287.65 2
1 -7 13 3968.22 569.005 4
1 -7 14 4653.03 629.183 4
1 -6 -11 99.9994 87.3193 3
1 -6 -10 37.0338 35.4086 2
-1 6 10 45.9728 63.2151 4
1 -6 -10 168.465 94.8111 3
1 -6 -9 2837.84 426.956 2
1 -6 -9 3069.61 419.048 3
-1 6 9 2835.25 497.648 4
1 -6 -8 513.065 171.842 2
-1 6 8 451.06 178.09 4
1 -6 -8 484.332 176.193 3
1 -6 -7 689.091 182.125 2
-1 6 7 707.385 165.845 1
-1 6 7 522.127 174.493 4
1 -6 -7 730.239 190.973 3
1 -6 -6 12251 757.417 3
1 -6 -6 12309.6 756.028 2
-1 6 6 11965.4 875.898 4
-1 6 6 12906.2 684.682 1
1 -6 -5 2186.57 310.752 2
-1 6 5 2196.52 272.272 1
1 -6 -5 3132.31 350.085 1
1 -6 -5 3010.07 379.86 3
-1 6 5 2143.31 323.644 2
-1 6 5 2143.79 372.775 4
1 -6 -4 33220.2 1138.75 3
-1 6 4 35970.1 1146.64 2
1 -6 -4 35536.6 1133.81 2
-1 6 4 34240.2 1332.43 4
-1 6 4 37172.4 1023.12 1
1 -6 -4 31913.5 958.454 1
1 -6 -3 1143.68 189.447 2
-1 6 3 1114.63 169.578 1
-1 6 3 1174.28 166.91 2
1 -6 -3 1045.23 167.402 1
1 -6 -3 1011.85 165.942 1
1 -6 -3 1193.35 201.069 3
-1 6 3 1046.34 185.749 2
-1 6 3 927.405 230.874 4
1 -6 -2 2706.98 253.139 1
-1 6 2 2498.43 264.533 2
-1 6 2 2745.59 248.667 1
-1 6 2 2445.35 228.73 2
1 -6 -2 2595.11 262.736 1
-1 6 2 2461.07 335.885 4
1 -6 -2 2381.2 282.572 3
-1 6 1 37410.2 1223.77 4
1 -6 -1 36783.3 1074.81 3
-1 6 1 37526 887.434 2
1 -6 -1 35857.2 978.867 1
1 -6 -1 39105.5 932.848 1
-1 6 1 38698.3 902.048 1
-1 6 1 38886.1 992.617 2
-1 6 0 36535.7 1177.06 4
-1 6 0 34025.7 885.251 2
1 -6 0 34474.6 946.466 1
1 -6 0 34762.1 1004.59 3
-1 6 0 34425.5 855.977 2
1 -6 0 37918.4 909.572 1
1 -6 0 35115.6 907.713 2
-1 6 -1 56347.1 1122.26 2
1 -6 1 58807.4 1151.66 1
-1 6 -1 55734 1406.81 4
-1 6 -1 53998 1200.8 1
1 -6 1 59822.3 1249.8 3
-1 6 -1 61208.5 1201.42 2
1 -6 1 56061.7 1225.95 1
1 -6 1 56027.3 1198.47 2
1 -6 2 12323.6 582.171 1
-1 6 -2 13130 679.145 4
1 -6 2 13575.8 565.984 3
1 -6 2 13579.7 567.693 1
-1 6 -2 13329.7 562.575 2
1 -6 2 12727.8 598.061 2
-1 6 -2 12559.2 590.207 1
-1 6 -2 11922 546.114 3
1 -6 3 4084.2 362.275 2
-1 6 -3 4000.18 349.691 1
1 -6 3 3591.46 321.688 1
-1 6 -3 4045.6 372.229 4
1 -6 3 4888.66 321.684 3
-1 6 -3 4490.97 341.629 2
-1 6 -3 4444.06 313.286 3
1 -6 3 4430.31 342.689 1
-1 6 -4 237.836 66.82 3
-1 6 -4 236.569 86.3077 2
1 -6 4 191.609 76.2978 1
-1 6 -4 216.882 82.7535 4
1 -6 4 192.628 43.7998 3
1 -6 4 182.051 82.8809 2
-1 6 -5 5332.81 411.981 2
-1 6 -5 5423.66 301.922 3
1 -6 5 5405.57 314.152 3
-1 6 -5 5406.7 446.741 4
1 -6 5 5452.07 427.57 1
-1 6 -6 5913.23 290.828 3
-1 6 -6 6032.68 473.72 2
1 -6 6 5884.33 474.625 1
1 -6 6 5498.9 466.6 4
-1 6 -6 5966.6 487.02 4
1 -6 6 5591.9 302.288 3
1 -6 7 6344.89 523.204 4
-1 6 -7 6356.78 502.328 2
1 -6 7 5213.96 292.978 3
-1 6 -7 6558.06 535.698 4
1 -6 7 6270.67 507.868 1
-1 6 -7 6264.98 246.859 3
1 -6 8 890.23 207.65 1
-1 6 -8 1042.74 229.459 4
-1 6 -8 1017.87 228.092 2
1 -6 8 960.514 224.679 4
1 -6 9 68.0277 5.61766 1
1 -6 9 60.4788 40.8331 4
1 -6 10 117.635 52.5623 1
1 -6 10 151.157 72.7765 4
-1 6 -10 124.677 12.2024 2
1 -6 11 5574.96 591.953 4
1 -6 11 5422.89 585.804 1
-1 6 -11 4669.29 521.929 2
1 -6 12 2003.25 394.141 1
1 -6 12 1605.39 343.026 4
1 -6 13 3478.87 533.489 1
1 -6 13 2237.76 417.648 4
1 -6 14 56.8154 61.1795 4
1 -5 -12 43.1956 91.2334 2
1 -5 -11 463.694 164.014 3
1 -5 -11 559.14 211.507 2
-1 5 10 1212 328.457 4
1 -5 -10 1202.34 295.142 2
1 -5 -10 1269.36 269.694 3
-1 5 9 825.077 265.654 4
1 -5 -9 861.673 210.067 3
1 -5 -9 903.631 243.924 2
1 -5 -8 26242 1198.51 2
-1 5 8 24385.2 1328.49 4
-1 5 8 26788.9 1097.16 1
1 -5 -8 25203.3 1090.86 3
-1 5 7 9116.88 766.26 4
1 -5 -7 10087.2 661.913 3
-1 5 7 10473.6 641.025 1
1 -5 -7 10060.2 699.161 2
1 -5 -6 3201.3 363.333 2
1 -5 -6 3581.07 380.677 3
1 -5 -6 3531.18 331.904 1
-1 5 6 3180.82 437.013 4
-1 5 6 3515.4 340.628 1
-1 5 5 7413.62 466.002 1
1 -5 -5 7695.89 466.259 1
1 -5 -5 7600.05 540.5 2
1 -5 -5 7769.7 539.035 3
-1 5 5 7256.71 622.847 4
1 -5 -4 1393.33 184.062 1
1 -5 -4 1123.7 195.544 3
-1 5 4 1431.58 189.143 1
1 -5 -4 1291.13 192.59 2
-1 5 4 1424.08 258.263 4
1 -5 -3 16427.8 601.841 1
1 -5 -3 16477.2 717.823 3
-1 5 3 16268.4 600.102 2
-1 5 3 17368.3 705.168 2
-1 5 3 17888 616.525 1
-1 5 3 16436 817.045 4
1 -5 -3 17503.5 706.748 2
1 -5 -2 2074.9 248.052 3
-1 5 2 2119.49 228.552 2
1 -5 -2 2189.8 234.023 2
-1 5 2 2218.4 216.693 2
1 -5 -2 2162.31 203.874 1
-1 5 2 2015.72 273.432 4
1 -5 -2 2220.09 213.084 1
-1 5 2 2177.67 200.826 1
-1 5 1 1565.9 162.128 1
1 -5 -1 1301.25 189.198 3
-1 5 1 1547.46 186.982 2
-1 5 1 1507.48 170.46 2
1 -5 -1 1500.38 179.935 1
1 -5 -1 1682.14 177.098 1
-1 5 1 1559.7 239.514 4
-1 5 0 396.003 89.0971 2
1 -5 0 386.14 119.512 4
-1 5 0 423.788 91.0409 2
1 -5 0 481.469 93.2059 1
1 -5 0 411.578 88.6567 1
-1 5 0 466.985 125.795 4
-1 5 0 354.453 86.5479 3
1 -5 0 405.283 97.25 3
1 -5 0 411.859 98.5998 2
1 -5 1 8276.38 414.086 1
1 -5 1 9337.88 414.674 1
1 -5 1 8705.38 498.688 4
-1 5 -1 8521.11 423.559 1
-1 5 -1 9369.34 437.804 2
-1 5 -1 9648.42 452.768 3
1 -5 1 10210.2 465.643 3
1 -5 1 9056.73 451.928 2
-1 5 -1 8767.07 502.711 4
-1 5 -2 117966 1645.13 1
1 -5 2 118784 1626.14 1
1 -5 2 115867 1691.82 2
1 -5 2 122633 1579.28 1
-1 5 -2 120928 1856.87 4
1 -5 2 124486 1865.88 4
-1 5 -2 122459 1525.06 3
1 -5 2 123805 1511.76 3
-1 5 -2 124787 1638.6 2
1 -5 3 668.076 137.842 2
-1 5 -3 715.04 145.273 4
1 -5 3 691.331 106.787 3
-1 5 -3 688.601 106.699 3
1 -5 3 687.131 128.327 1
1 -5 3 742.236 150.762 4
-1 5 -3 723.59 140.415 2
-1 5 -3 922.682 166.584 1
1 -5 4 37752.9 995.636 1
-1 5 -4 36915.8 990.742 2
-1 5 -4 37162 1041.89 4
1 -5 4 32812.4 1025 2
-1 5 -4 38642.8 751.04 3
1 -5 4 38360.8 777.825 3
-1 5 -4 35777.1 1003.26 1
1 -5 4 34297.6 1039.66 4
1 -5 5 6746.37 485.916 4
1 -5 5 8212.03 346.647 3
1 -5 5 8059.18 498.481 1
1 -5 5 7599.78 492.425 4
-1 5 -5 8587.38 323.492 3
-1 5 -5 7989.7 490.004 2
-1 5 -5 7953.67 502.104 4
1 -5 6 14520.4 443.441 3
-1 5 -6 16251.2 769.055 4
-1 5 -6 15037.6 716.272 2
1 -5 6 16018.9 754.555 4
1 -5 6 15295.1 722.625 1
-1 5 -6 15633.2 387.278 3
-1 5 -7 27669.3 408.139 3
1 -5 7 32008.4 1121.54 4
-1 5 -7 32132.7 1115.23 4
1 -5 7 30614 1085.81 1
-1 5 -7 30010.3 1065.14 2
1 -5 8 2234.84 315.627 1
-1 5 -8 1984.88 286.989 2
1 -5 8 2312.92 312.813 4
1 -5 9 12.0427 14.5726 1
1 -5 9 3.3649 16.3369 4
-1 5 -10 97.0124 47.4644 2
1 -5 10 24.5274 84.9823 1
1 -5 10 241.703 117.059 4
1 -5 11 1209.05 309.115 1
-1 5 -11 595.386 197.023 2
1 -5 11 705.106 216.17 4
-1 5 -12 -130.923 182.467 2
1 -5 12 17.3627 39.0321 4
1 -5 13 325.386 171.597 4
-1 5 -13 192.906 107.298 2
1 -5 14 1513.38 365.911 4
1 -4 -12 182.972 121.419 2
1 -4 -11 452.706 144.774 3
1 -4 -11 445.918 181.453 2
1 -4 -10 685.334 177.823 3
1 -4 -10 693.387 201.888 2
-1 4 10 821.87 267.204 4
-1 4 9 2118.06 317.775 1
-1 4 9 1911.62 373.278 4
1 -4 -9 2001.79 296.918 3
1 -4 -9 1730.71 309.235 2
-1 4 8 825.324 232.766 4
1 -4 -8 942.41 199.028 3
-1 4 8 831.673 183.3 1
1 -4 -8 811.375 197.61 2
-1 4 7 6964.29 498.85 1
1 -4 -7 7099.62 571.035 2
1 -4 -7 7057.3 515.592 3
-1 4 7 6391.03 604.184 4
1 -4 -6 5.2492 15.1455 2
1 -4 -6 -20.722 39.472 3
-1 4 6 -14.6102 35.2797 1
1 -4 -6 14.3576 28.7804 1
-1 4 6 8.23762 29.2059 4
1 -4 -5 39.8371 33.9051 2
1 -4 -5 -11.0288 53.9549 3
-1 4 5 47.9318 40.2716 1
1 -4 -4 429.368 111.123 3
-1 4 4 82.7578 110.988 2
-1 4 4 525.084 108.817 1
1 -4 -4 444.749 101.883 2
1 -4 -4 516.672 108.386 1
-1 4 4 487.634 146.382 4
1 -4 -3 18171.2 688.743 3
1 -4 -3 18870.1 567.254 1
-1 4 3 18331 613.68 2
-1 4 3 19007.3 573.491 1
-1 4 3 18659 803.271 4
1 -4 -3 18603.1 677.202 2
-1 4 2 10244 499.762 3
-1 4 2 9529.37 377.562 1
1 -4 -2 10081.9 485.835 2
-1 4 2 10411.8 440.956 2
1 -4 -2 10855.9 511.601 3
1 -4 -2 9417.69 387.991 1
-1 4 2 8926.37 527.045 4
1 -4 -2 8494.38 518.876 4
-1 4 2 9151.89 453.125 2
-1 4 1 6848.34 357.818 2
-1 4 1 6985.03 297.607 1
1 -4 -1 7349.21 331.445 1
1 -4 -1 7483.04 315.274 1
1 -4 -1 6843.94 427.691 4
-1 4 1 6778.2 426.117 4
-1 4 1 6794.3 376.554 3
1 -4 -1 6645.9 374.288 3
-1 4 1 6987.77 336.714 2
-1 4 0 92625.8 1314 3
1 -4 0 92213.9 1468.47 4
-1 4 0 89126.3 1264.15 2
1 -4 0 90528.5 1299.73 2
1 -4 0 93931.8 1189.36 1
-1 4 0 91023 1460.2 4
1 -4 0 94816.9 1336.21 3
-1 4 0 90418.6 1169.89 1
1 -4 0 90971.3 1093.01 1
-1 4 0 93141.5 1240.13 2
1 -4 1 25808.9 721.557 2
1 -4 1 25692 751.114 4
-1 4 -1 26081.3 650.147 3
1 -4 1 25547.4 631.206 1
1 -4 1 26526.9 660.194 3
-1 4 -1 25499 748.313 4
1 -4 1 26276.9 617.409 1
-1 4 -1 26489.5 688.401 2
-1 4 -1 26112 650.917 1
1 -4 2 20782.8 652.959 2
1 -4 2 22521.7 619.042 1
-1 4 -2 21735.4 552.188 3
1 -4 2 22888.1 711.619 4
1 -4 2 21365.6 556.35 3
-1 4 -2 21328.5 618.545 1
-1 4 -2 22532.9 694.764 4
-1 4 -2 21742.9 650.453 2
-1 4 -3 22368.4 522.401 3
1 -4 3 21174.8 724.775 2
1 -4 3 20331 515.396 3
1 -4 3 21354.9 699.411 4
-1 4 -3 21659.1 694.415 2
1 -4 3 21351 656.322 1
-1 4 -3 19999.8 665.232 4
-1 4 -3 21418.6 668.136 1
-1 4 -4 1576.86 130.1 3
1 -4 4 1284.91 185.291 1
1 -4 4 1514.94 144.584 3
-1 4 -4 1237.27 178.665 1
-1 4 -4 1085.54 167.465 4
1 -4 4 1206.91 181.042 4
1 -4 4 1109.55 201.533 2
-1 4 -4 1387.43 191.694 2
-1 4 -5 1188.12 103.994 3
1 -4 5 832.82 118.196 3
1 -4 5 1175.08 189.062 4
-1 4 -5 1089.81 184.694 2
-1 4 -5 1277.62 192.208 4
1 -4 5 1250.01 193.046 4
1 -4 5 1223.12 186.093 1
-1 4 -6 79.759 64.0856 4
-1 4 -6 74.3105 62.2886 2
1 -4 6 178.436 79.8975 1
-1 4 -6 94.9419 27.4419 3
1 -4 6 70.1328 56.9904 4
-1 4 -7 59642.3 560.525 3
1 -4 7 73549.8 1626.64 4
1 -4 7 75660.1 1697.06 1
-1 4 -7 73667.6 1652.06 2
-1 4 -7 60084.5 586.13 3
-1 4 -8 2264.3 311.415 2
1 -4 8 2345.43 303.837 1
1 -4 8 2826.02 347.75 4
1 -4 9 886.416 217.417 1
1 -4 9 931.558 212.736 4
-1 4 -9 727.437 180.502 2
-1 4 -10 1008.61 211.783 2
1 -4 10 2063 389.464 1
1 -4 10 1742.36 315.988 4
-1 4 -11 5856.73 577.359 2
1 -4 11 8024.7 730.453 1
1 -4 11 7297.68 665.925 4
-1 4 -12 1135.88 117.668 2
1 -4 12 2292.26 389.513 4
-1 4 -13 6515.47 689.119 2
1 -4 13 7797.53 785.059 4
1 -4 14 469.843 205.196 4
-1 3 12 180.656 174.544 4
1 -3 -12 56.2452 70.0135 2
-1 3 11 500.75 179.85 1
1 -3 -11 300.232 114.253 3
-1 3 11 450.038 197.018 4
1 -3 -10 2023.69 291.498 3
-1 3 10 1755.45 353.038 4
-1 3 10 2015.83 322.794 1
-1 3 9 3584.23 404.041 1
-1 3 9 3245.53 461.11 4
1 -3 -9 2246.81 296.939 2
1 -3 -9 3453.58 363.783 3
1 -3 -8 535.667 149.88 3
-1 3 8 520.458 155.415 1
-1 3 8 457.302 176.798 4
-1 3 7 61.5936 60.8691 1
1 -3 -7 61.7087 43.3481 1
-1 3 7 40.0642 43.4952 4
1 -3 -7 69.3912 27.4972 3
-1 3 6 607.768 174.454 4
1 -3 -6 344.602 52.5616 2
-1 3 6 758.057 146.642 1
1 -3 -6 402.991 58.6306 1
1 -3 -6 633.477 126.419 3
-1 3 5 20051 678.895 1
1 -3 -5 18994 707.879 3
1 -3 -5 19447.5 630.941 1
1 -3 -5 19322.4 772.789 2
-1 3 5 18392.7 846.483 4
1 -3 -4 25975 787.172 3
1 -3 -4 24518.2 633.652 1
-1 3 4 25090.7 747.765 2
1 -3 -4 24561.2 801.48 2
-1 3 4 24360.1 658.857 1
-1 3 4 24054 764.649 3
-1 3 4 22918.1 863.84 4
-1 3 3 27387.9 768.766 3
1 -3 -3 27338.1 759.336 3
1 -3 -3 26978.2 762.605 2
-1 3 3 26479.4 859.823 4
-1 3 3 26743.1 704.266 2
-1 3 3 27151.7 617.25 1
1 -3 -3 26716.2 589.21 1
1 -3 -3 26988.7 883.954 4
1 -3 -2 73253.4 890.473 1
-1 3 2 69450 850.498 1
-1 3 2 72585.2 1160.14 3
1 -3 -2 69693 1289.48 4
1 -3 -2 71733.6 1144.58 2
-1 3 2 75062 1095.98 2
1 -3 -2 69988.9 1140.04 3
-1 3 2 72460.3 1154.61 2
-1 3 2 73282.9 1312.4 4
1 -3 -1 147394 1136.15 1
1 -3 -1 145724 1702.54 4
-1 3 1 141494 1505.88 3
1 -3 -1 143961 1528.67 3
-1 3 1 142272 1652.22 4
-1 3 1 143286 1496.66 2
1 -3 -1 137321 1467.19 2
-1 3 1 143299 1113.02 1
1 -3 -1 141069 1181.43 1
-1 3 1 145767 1423.59 2
-1 3 0 68622.1 961.355 3
1 -3 0 67759 1060.47 4
1 -3 0 67970.6 831.119 1
1 -3 0 66180.8 782.911 1
-1 3 0 65229.1 811.576 1
1 -3 0 68338.3 978.942 3
-1 3 0 62402.5 1014.36 4
-1 3 0 68384.2 969.323 2
1 -3 0 67907 1028.65 2
-1 3 0 64842.1 985.233 2
-1 3 -1 326000 1952.2 1
1 -3 1 321439 1960.13 3
1 -3 1 326540 2221.66 4
-1 3 -1 329670 2263.53 2
1 -3 1 315875 1905.19 1
-1 3 -1 333197 1961.96 3
1 -3 1 329364 2328.92 2
-1 3 -1 325161 2247.29 4
1 -3 2 92591.6 1164.49 1
1 -3 2 103291 1282.8 4
1 -3 2 89377.3 991.377 3
-1 3 -2 98008.4 995.564 3
-1 3 -2 97319 1182.13 1
-1 3 -2 95422.7 1272.74 2
1 -3 2 96097 1340.92 2
-1 3 -2 94819.6 1209.67 4
1 -3 3 61510 1050.9 4
-1 3 -3 61933.7 731.697 3
1 -3 3 61787.6 1173.5 2
-1 3 -3 58431.2 1008.75 4
-1 3 -3 60622.1 1050.77 1
1 -3 3 59562.1 1047.41 1
-1 3 -3 62072.2 1114.35 2
1 -3 3 58409.4 782.204 3
-1 3 -4 5607.79 347.448 1
-1 3 -4 5228.89 366.538 2
1 -3 4 5578.89 355.042 1
1 -3 4 5155.91 369.332 2
-1 3 -4 5873.37 358.467 4
-1 3 -4 5807.26 217.269 3
1 -3 4 5791.95 358.542 4
1 -3 4 5635.16 349.218 4
1 -3 4 5232.48 246.38 3
-1 3 -5 20953.4 760.079 2
1 -3 5 19115.8 694.27 4
1 -3 5 20834.6 742.783 4
1 -3 5 21162.4 755.436 1
-1 3 -5 19519.4 714.894 1
-1 3 -5 20245 409.091 3
-1 3 -6 40872.4 610.749 3
-1 3 -6 41804.5 620.383 3
1 -3 6 42736.1 1181.32 1
1 -3 6 43445.2 1158.03 4
-1 3 -6 41710.1 1158.28 2
-1 3 -7 2297.29 156.767 3
-1 3 -7 1802.77 268.234 2
1 -3 7 2079.44 284.764 4
1 -3 7 1951.25 268.328 1
-1 3 -7 2249.66 135.255 3
-1 3 -8 6459.05 233.607 3
-1 3 -8 4984.23 237.579 3
-1 3 -8 5644.57 470.508 2
1 -3 8 6567.72 531.395 4
1 -3 8 6956.11 566.655 1
-1 3 -9 669.044 77.1577 3
-1 3 -9 387.358 98.1111 2
1 -3 9 801.203 202.304 4
1 -3 10 3806.34 455.961 4
-1 3 -10 3514.68 431.555 2
1 -3 10 4700.93 540.189 1
1 -3 11 448.312 163.376 4
-1 3 -11 -207.821 269.949 2
1 -3 12 10287.8 873.881 4
1 -3 12 11684.8 909.081 1
-1 3 -12 8695.22 764.84 2
-1 3 -13 7658.87 734.276 2
1 -3 13 9956.4 893.327 1
1 -3 13 10051.1 896.039 4
1 -3 14 401.263 191.903 4
-1 2 12 543.856 236.196 4
-1 2 12 518.056 177.98 1
-1 2 11 4937.31 522.005 1
1 -2 -11 5072.17 595.155 2
-1 2 11 4847.75 609.607 4
1 -2 -11 5016.64 438.23 3
1 -2 -10 202.357 87.2663 3
-1 2 10 125.194 58.2374 1
-1 2 10 208.732 121.004 4
1 -2 -10 -6.98807 153.452 2
-1 2 9 4387.93 432.596 1
-1 2 9 3726.36 460.255 4
1 -2 -9 4568.73 386.885 3
1 -2 -9 3492.87 395.198 2
1 -2 -8 5947.96 420.564 3
-1 2 8 5894.34 553.576 4
-1 2 8 5843.56 459.949 1
1 -2 -8 5355.01 489.369 2
1 -2 -7 18072.9 692.691 1
1 -2 -7 19031 711.773 3
-1 2 7 19215.6 760.015 1
-1 2 7 18251.7 900.295 4
1 -2 -7 18432.4 844.116 2
-1 2 6 2892.32 329.357 4
1 -2 -6 3053.21 269.642 3
1 -2 -6 2740.61 294.504 2
-1 2 6 3207.24 282.101 1
1 -2 -6 3130.93 261.316 1
1 -2 -5 27346.5 889.408 2
-1 2 5 26673.2 840.937 2
-1 2 5 27889.4 797.039 3
-1 2 5 24734 910.285 4
-1 2 5 26128.6 721.709 1
1 -2 -5 28087.8 775.718 3
1 -2 -5 27056 696.333 1
1 -2 -4 34805.1 1000.17 4
1 -2 -4 35899.4 822.547 3
-1 2 4 35238 732.742 1
1 -2 -4 35748.3 917.706 2
-1 2 4 35631.1 862.093 2
-1 2 4 38059.7 855.89 3
-1 2 4 35326.8 992.036 4
1 -2 -4 37508 723.234 1
1 -2 -3 16379.9 403.889 1
-1 2 3 16490.8 610.142 4
1 -2 -3 16965.2 638.437 4
-1 2 3 15693.2 413.588 1
1 -2 -3 15153.9 495.063 3
-1 2 3 15740.2 507.33 2
1 -2 -3 15847.5 547.863 2
-1 2 3 15477.1 500.208 3
1 -2 -2 583.555 60.1624 1
-1 2 2 554.777 86.4145 3
1 -2 -2 529.382 87.774 3
1 -2 -2 582.152 106.873 4
-1 2 2 682.715 67.3456 1
1 -2 -2 566.117 94.0483 2
-1 2 2 474.093 73.0578 2
-1 2 2 592.505 103.216 4
1 -2 -1 242395 1033.04 1
1 -2 -1 238814 1095.12 1
-1 2 1 243950 1669.22 2
1 -2 -1 242615 1819.35 4
-1 2 1 235303 1018.13 1
1 -2 -1 242183 1744.43 2
-1 2 1 236502 1752.84 2
-1 2 1 248158 1669.65 3
1 -2 -1 239720 1674.5 3
-1 2 1 244146 1803.72 4
1 -2 0 101747 759.968 1
1 -2 0 101343 990.775 3
-1 2 0 107011 994.566 3
-1 2 0 100962 1009.38 4
-1 2 0 99719.3 1099.9 2
-1 2 0 102930 773.498 1
1 -2 0 105180 1132.49 2
-1 2 -1 25099 450.057 3
-1 2 -1 24573.7 465.993 1
1 -2 1 24374 463.374 3
1 -2 1 22554.7 458.345 1
1 -2 1 25329 486.984 4
-1 2 -1 22986.9 459.388 4
-1 2 -1 24561.6 567.848 2
1 -2 1 24562.5 574.955 2
1 -2 2 106.963 36.687 4
-1 2 -2 167.313 31.0551 3
-1 2 -2 91.0306 34.9438 1
1 -2 2 92.3265 34.4451 1
1 -2 2 99.3015 30.8871 3
-1 2 -2 125.885 56.4962 2
-1 2 -2 92.1813 31.8226 4
1 -2 2 82.7657 44.8536 2
-1 2 -3 3291.68 233.571 1
-1 2 -3 3041.51 238.833 2
1 -2 3 3124.9 182.447 3
1 -2 3 2851.23 243.723 2
-1 2 -3 3363.38 171.475 3
1 -2 3 3278.34 239.325 1
1 -2 3 3310.9 224.163 4
1 -2 3 3400.35 223.959 4
-1 2 -3 2982.8 208.389 4
-1 2 -4 10187.5 467.427 1
-1 2 -4 10726.8 491.688 4
-1 2 -4 10447.8 490.139 2
-1 2 -4 10160.4 331.791 3
1 -2 4 10507.7 468.751 4
1 -2 4 9549.59 436.499 4
1 -2 4 9349.22 495.807 2
1 -2 4 9863.25 472.142 1
-1 2 -5 16804.7 467.717 3
1 -2 5 15238.2 620.387 4
-1 2 -5 15920.9 641.29 1
-1 2 -5 17463 710.675 4
-1 2 -5 16070.7 418.089 3
1 -2 5 16550.3 679.588 1
1 -2 5 17303.7 686.521 4
-1 2 -5 16200.6 656.434 2
-1 2 -6 691.062 111.584 3
1 -2 6 771.021 159.501 4
-1 2 -6 747.542 144.947 2
-1 2 -6 802.927 94.903 3
1 -2 6 976.911 190.091 1
-1 2 -6 749.068 162.441 4
-1 2 -7 5733.84 342.157 3
1 -2 7 6039.84 470.757 4
-1 2 -7 6880.16 292.151 3
1 -2 7 6909.6 521.679 1
-1 2 -7 5577.22 450.149 2
-1 2 -8 2516.35 324.3 2
-1 2 -8 2828.04 197.199 3
1 -2 8 3406.17 413.083 1
-1 2 -8 2168.41 231.745 3
1 -2 8 2701.29 361.467 4
-1 2 -9 7118.09 332.78 3
1 -2 9 7697.86 634.227 1
1 -2 9 7050 595.716 4
-1 2 -9 6957.84 588.589 2
-1 2 -10 989.486 180.76 2
1 -2 10 1822.29 335.18 1
1 -2 10 2035.38 351.127 4
1 -2 11 -9.54322 26.2418 4
1 -2 11 85.7278 101.282 1
-1 2 -11 5.81839 100.012 2
-1 2 -12 11585.4 869.888 2
1 -2 12 14820.4 1038.46 1
1 -2 12 14458.1 1027.52 4
-1 2 -13 3094.42 500.139 2
1 -2 13 3529.61 547.963 1
1 -2 13 3231.27 525.822 4
1 -2 14 1828.57 351.797 4
1 -1 -13 5526.01 685.59 2
-1 1 13 5062.62 679.097 4
-1 1 13 5522.53 616.237 1
-1 1 12 42.6793 60.2161 1
-1 1 12 83.8638 112.89 4
1 -1 -11 4522.84 537.28 2
1 -1 -11 4690.65 386.653 3
-1 1 11 3939.64 518.539 4
-1 1 11 4772.73 505.826 1
1 -1 -10 60.5048 43.4218 3
-1 1 10 100.903 77.6966 1
-1 1 10 33.3531 22.1646 4
1 -1 -9 9316.23 500.808 3
-1 1 9 8663.12 591.719 1
1 -1 -9 8128.38 619.912 2
-1 1 9 8274.5 675.416 4
-1 1 8 5537.94 437.758 1
1 -1 -8 5091.48 454.404 2
-1 1 8 5293.31 510.098 4
1 -1 -8 6073.67 385.344 3
1 -1 -7 3113.15 290.373 1
-1 1 7 2812.3 269.556 3
-1 1 7 2872.59 360.856 4
-1 1 7 3003.18 294.767 1
1 -1 -7 2546.86 293.153 2
1 -1 -7 3267.8 268.55 3
-1 1 6 747.833 122.617 3
1 -1 -6 821.579 136.496 1
1 -1 -6 733.577 113.71 3
1 -1 -6 589.048 108.525 2
-1 1 6 905.551 149.844 1
-1 1 6 795.486 175.426 4
1 -1 -5 33354.7 736.426 3
1 -1 -5 32421.1 1006.39 4
-1 1 5 34043.3 1026.86 4
-1 1 5 33844.2 756.535 3
1 -1 -5 32310.5 900.081 2
1 -1 -5 33658.4 749.183 1
-1 1 5 31556 739.57 1
-1 1 5 32119.1 904.063 2
1 -1 -4 2513.69 269.627 4
-1 1 4 3801.04 355.495 4
1 -1 -4 2550.45 197.757 3
1 -1 -4 2127.03 219.444 2
-1 1 4 3431.25 223.28 1
-1 1 4 2705.74 198.906 3
1 -1 -4 2388.62 179.88 1
-1 1 4 2461.55 220.419 2
-1 1 3 2085.96 283.568 4
-1 1 3 2447.29 183.573 3
1 -1 -3 2844.95 323.344 2
1 -1 -3 1721.82 174.72 3
1 -1 -3 2218.04 254.089 4
-1 1 3 1712.62 179.387 2
-1 1 3 2176.52 167.841 1
1 -1 -3 1844.85 141.689 1
1 -1 -2 56131.8 749.888 3
1 -1 -2 88815 1160.04 4
-1 1 2 60874.4 761.828 3
-1 1 2 75894.3 569.184 1
-1 1 2 63062.6 867.602 2
-1 1 2 94305.7 1242.7 4
1 -1 -2 57675.8 486.067 1
1 -1 -2 59851.7 877.746 2
-1 1 1 188.037 42.6454 4
-1 1 1 138.359 39.6393 2
-1 1 1 76.2778 27.3737 3
-1 1 1 194.767 44.1632 2
1 -1 -1 182.263 42.6737 4
1 -1 -1 81.0561 30.3963 3
1 -1 -1 98.6856 32.841 2
-1 1 0 2609.91 157.964 2
1 -1 0 365.764 65.9213 2
-1 1 0 2357.27 123.671 3
1 -1 0 1819.56 111.838 3
1 -1 0 2624.53 106.478 1
-1 1 0 795.346 56.9491 1
1 -1 1 113750 944.753 3
1 -1 1 122779 774.981 4
1 -1 1 122582 1035.53 1
-1 1 -1 118475 924.917 3
-1 1 -1 118462 976.996 1
1 -1 1 119448 747.497 4
-1 1 -1 117160 744.44 4
-1 1 -1 117765 1120.02 2
1 -1 1 119953 1146.09 2
-1 1 -2 888.23 141.38 4
-1 1 -2 703.017 107.19 3
1 -1 2 728.517 141.673 2
1 -1 2 668.334 93.5321 3
-1 1 -2 672.877 117.52 2
-1 1 -2 1596.18 189.176 1
1 -1 2 1567.78 180.338 4
-1 1 -3 49511.1 926.486 2
1 -1 3 51888.2 995.143 1
-1 1 -3 48672.7 738.617 3
1 -1 3 53271 885.489 4
-1 1 -3 52810.1 910.464 4
1 -1 3 48022.1 859.688 4
1 -1 3 50420 993.194 2
-1 1 -3 48883.8 784.124 3
-1 1 -3 49400.4 893.955 1
1 -1 4 89944 1350.64 4
-1 1 -4 89435.7 1037.48 3
-1 1 -4 90528.1 1200.5 3
-1 1 -4 93297.4 1418.96 4
-1 1 -4 93096.1 1381.29 1
1 -1 4 87603.4 1453.01 2
1 -1 4 92075.6 1455.17 1
-1 1 -4 86051.8 1356.01 2
-1 1 -5 38423.8 986.636 1
-1 1 -5 38286.4 1031.64 4
-1 1 -5 37425 691.762 3
-1 1 -5 37704.4 994.644 2
1 -1 5 37919.7 1024.06 1
1 -1 5 38199.4 994.222 4
-1 1 -5 37092.7 852.504 3
-1 1 -6 3370.65 224.977 3
-1 1 -6 2643.29 287.325 3
1 -1 6 3366.14 345.214 1
-1 1 -6 2764.03 296.417 2
1 -1 6 3082.55 318.945 4
1 -1 7 21527.6 901.454 1
-1 1 -7 22621.4 607.322 3
1 -1 7 21710 913.802 4
-1 1 -7 19258.2 737.541 3
-1 1 -7 20766.1 860.268 2
-1 1 -8 1543.05 251.014 2
1 -1 8 1759.09 294.893 4
-1 1 -8 1639.01 175.28 3
1 -1 8 2164.97 331.448 1
-1 1 -8 1235.91 205.525 3
-1 1 -9 808.209 131.747 3
1 -1 9 863.249 212.344 4
1 -1 9 896.857 226.244 1
-1 1 -9 296.694 119.858 2
-1 1 -10 165.206 87.7801 2
1 -1 10 450.864 212.702 4
1 -1 10 492.622 209.647 1
1 -1 11 519.303 189.379 1
1 -1 11 448.25 174.748 4
1 -1 12 1101.79 293.089 1
-1 1 -12 991.401 262.979 2
1 -1 12 473.312 105.941 4
1 -1 13 1376.69 260.675 4
-1 1 -13 1419.4 334.601 2
1 -1 13 1712.94 383.798 1
-1 0 14 1784.23 363.95 1
1 0 -13 372.09 167.115 2
-1 0 13 408.338 209.101 4
-1 0 13 436.056 175.143 1
-1 0 12 4331.18 570.319 4
1 0 -12 3438.9 454.386 2
-1 0 12 4468.47 512.715 1
-1 0 11 17.4013 32.9438 1
-1 0 11 4.08335 33.9129 4
-1 0 10 12082.8 845.003 4
1 0 -10 12775.9 545.896 3
1 0 -10 11979.5 780.631 2
-1 0 10 12045.6 722.78 1
-1 0 9 5471.13 548.443 4
-1 0 9 4172.99 337.136 3
1 0 -9 5273.29 483.339 2
1 0 -9 6066.89 362.039 3
-1 0 9 5611.31 471.503 1
-1 0 8 106.448 91.5365 4
1 0 -8 92.0489 44.8228 3
1 0 -8 -80.9239 109.635 2
-1 0 7 26395.3 705.897 3
1 0 -7 28583.8 685.804 3
1 0 -7 27749.2 851.29 1
1 0 -7 27121.8 945.884 2
-1 0 7 27750.3 875.979 1
-1 0 7 25801.1 987.403 4
-1 0 6 111811 1640.99 1
1 0 -6 105236 1711.67 2
-1 0 6 107887 1282.3 3
1 0 -6 110530 1536.3 1
1 0 -6 108238 1231.31 3
-1 0 6 103096 1835.31 4
-1 0 5 76114.2 1167.99 1
-1 0 5 78584.4 1351.64 2
1 0 -5 75169.6 1457.11 4
1 0 -5 76022.8 1317.31 2
1 0 -5 77914.6 948.555 3
-1 0 5 77083.7 956.735 3
-1 0 5 75818.1 1420.45 4
1 0 -5 79984.2 1161.38 1
1 0 -4 8741.62 298.002 3
-1 0 4 7370.17 324.494 1
1 0 -4 8598.99 436.903 2
1 0 -4 7957.34 464.977 4
1 0 -4 8328.32 337.379 1
-1 0 4 7511.18 429.929 4
-1 0 4 8518.04 282.296 3
-1 0 4 8045.8 395.971 2
-1 0 3 309688 1453.25 3
1 0 -3 286251 1421.61 3
1 0 -3 294941 1995.95 2
-1 0 3 322282 2060.09 2
1 0 -3 318839 2238.53 4
1 0 -3 312338 1640.05 1
-1 0 3 296865 1564.75 1
-1 0 3 316358 2251.44 4
1 0 -2 439812 2108.95 2
-1 0 2 338660 1309.21 1
1 0 -2 356099 1441.7 3
-1 0 2 445963 2008.07 2
1 0 -2 360768 1415.1 1
-1 0 2 450204 2146.98 4
1 0 -2 463343 2169.68 4
1 0 -1 42584.1 418.135 1
1 0 -1 38458.2 460.537 3
1 0 -1 41882.3 459.579 4
1 0 -1 35557.9 478.107 2
1 0 -1 18262.9 323.986 4
-1 0 1 21579.8 341.979 4
1 0 0 46924.7 583.041 3
-1 0 0 29017.1 488.828 3
-1 0 0 54894.6 578.344 2
1 0 0 70532.9 670.979 1
1 0 0 36593.2 497.747 2
1 0 1 79130.7 852.655 2
-1 0 -1 79669.7 841.956 2
1 0 1 80589.4 723.649 4
-1 0 -1 79167.6 855.127 1
-1 0 -1 81689.6 921.251 3
1 0 1 79246.3 898.214 1
-1 0 -2 57917.8 893.726 1
-1 0 -2 58171.4 831.206 4
1 0 2 52386 870.801 1
-1 0 -2 55191.8 829.127 2
1 0 2 54922.4 807.448 4
1 0 2 58854.6 889.943 2
-1 0 -2 55699.8 781.28 3
1 0 3 1236.62 152.381 2
-1 0 -3 1195.28 151.577 1
1 0 3 1087.31 147.514 1
1 0 3 1110.42 142.698 4
-1 0 -3 1127.01 146.563 4
-1 0 -3 1143.91 117.939 3
-1 0 -3 1108.81 135.054 2
1 0 4 8010.46 425.675 1
-1 0 -4 8434.47 430.156 1
-1 0 -4 8387.75 347.164 3
1 0 4 8358.47 447.351 2
-1 0 -4 8683.73 458.275 4
1 0 4 8764.51 454.823 4
-1 0 -4 7763.71 407.527 2
-1 0 -5 51628.1 917.563 3
-1 0 -5 49730.1 1240.05 4
1 0 5 47585.1 1156.28 1
-1 0 -5 48713.2 1139.04 1
1 0 5 49404.1 1189.16 4
-1 0 -5 49471.4 1131.47 2
-1 0 -6 427.222 106.069 2
1 0 6 586.644 143.527 4
-1 0 -6 675.272 115.301 3
1 0 6 571.021 143.413 1
1 0 7 125.657 86.8917 4
-1 0 -7 -115.781 123.921 2
1 0 7 102.015 78.8149 1
-1 0 -7 106.33 53.6783 3
1 0 8 4490.15 470.091 4
-1 0 -8 4636.9 328.488 3
1 0 8 4530.11 455.506 1
-1 0 -8 3688.21 378.106 2
1 0 9 9361.06 713.318 4
-1 0 -9 9697.26 500.077 3
-1 0 -9 8947.94 647.981 2
1 0 9 9660.48 713.339 1
-1 0 -10 187.066 87.7976 2
1 0 10 377.873 138.396 1
1 0 10 210.788 123.351 4
-1 0 -10 397.894 100.936 3
-1 0 -11 4701.87 541.262 2
1 0 11 5096.25 592.596 1
1 0 11 4462.04 544.066 4
-1 0 -12 1019.47 195.866 2
1 0 12 1419.32 319.948 1
1 0 12 1339.54 317.342 4
1 0 13 129.059 78.9055 4
1 0 13 40.883 59.61 1
-1 -1 14 257.951 149.729 4
-1 -1 14 376.517 184.112 1
-1 -1 13 -46.1877 85.4953 1
-1 -1 13 11.2269 57.7026 4
-1 -1 12 2996.93 419.896 1
-1 -1 12 2651.1 441.209 4
1 1 -12 2160.18 352.473 2
1 1 -11 -92.8998 162.462 2
-1 -1 11 96.4692 101.046 4
1 1 -10 1312.8 151.045 3
1 1 -10 1191.64 245.107 2
-1 -1 10 1147.37 256.851 4
1 1 -9 6359.86 318.005 3
-1 -1 9 7314.44 545.49 1
-1 -1 9 6031.98 556.171 4
1 1 -9 5984.5 518.32 2
-1 -1 8 2652.05 344.329 4
1 1 -8 2372.92 303.196 2
-1 -1 8 2533.92 287.525 1
1 1 -8 2740.59 189.375 3
-1 -1 8 1841.51 176.573 3
-1 -1 7 239.086 99.7331 1
-1 -1 7 317.565 141.831 4
1 1 -7 278.058 109.39 1
1 1 -7 215.707 56.6042 3
-1 -1 7 48.4404 29.5573 3
1 1 -6 114.415 59.0518 1
1 1 -6 70.7608 21.8848 3
-1 -1 6 47.7998 38.7463 4
-1 -1 6 47.943 21.4477 1
-1 -1 6 58.5465 26.2811 3
1 1 -5 24859.8 411.236 3
-1 -1 5 27062.2 834.926 4
-1 -1 5 27248.6 847.91 4
-1 -1 5 26472.9 790.134 2
-1 -1 5 24926 411.287 3
1 1 -5 28049.6 882.033 4
1 1 -5 25406.7 688.71 1
-1 -1 5 26177.7 677.786 1
1 1 -5 26394.8 767.761 2
-1 -1 4 524136 3246.49 4
1 1 -4 439518 1498.49 3
-1 -1 4 550666 3063.54 2
-1 -1 4 421587 1399.89 3
1 1 -4 513961 2939.27 2
-1 -1 4 543621 3321.4 4
-1 -1 4 476584 2585.51 1
1 1 -4 536870 2806.48 1
1 1 -4 546569 3437.64 4
-1 -1 3 629982 2561.98 1
-1 -1 3 769187 3098.16 2
1 1 -3 654187 2837.72 2
-1 -1 3 730048 3380.5 4
1 1 -3 768212 3608.21 4
1 1 -3 729967 3318.57 4
-1 -1 3 775092 3423.29 4
1 1 -3 680777 2808.13 1
-1 -1 2 26394.8 540.804 4
-1 -1 2 23962.5 360.855 3
1 1 -2 27167.4 466.431 2
-1 -1 2 25059.8 468.795 1
1 1 -2 26484 499.351 1
1 1 -2 27964.5 397.166 3
-1 -1 2 26687 453.021 2
-1 -1 2 27279.6 491.049 1
-1 -1 2 24567.8 530.152 4
1 1 -2 25576.4 537.045 4
1 1 -1 66305.2 752.948 1
-1 -1 1 30895 514.1 1
-1 -1 1 22675.6 301.052 2
1 1 -1 65571.9 744.423 4
-1 -1 1 26034.5 477.735 4
-1 -1 1 25919.2 441.042 3
1 1 -1 65467.1 512.663 2
-1 -1 0 295650 1666.9 3
-1 -1 0 296776 1720.4 1
1 1 0 292841 1620.03 4
1 1 1 140782 1065.14 2
1 1 1 130053 1326.04 1
-1 -1 -1 134941 999.975 2
-1 -1 -1 136619 1343.28 1
1 1 1 131045 1275.89 4
-1 -1 -1 139898 1293.73 3
1 1 1 141672 1361.75 3
-1 -1 -1 137406 1290.53 4
-1 -1 -2 13784.3 428.48 3
-1 -1 -2 13567.4 399.369 2
-1 -1 -2 14016 478.861 1
1 1 2 14626.4 433.088 2
-1 -1 -2 13042.2 468.576 4
1 1 2 13235.1 464.944 4
1 1 2 13076.8 474.048 1
-1 -1 -3 68162.3 1229.09 4
-1 -1 -3 65714.1 1034.5 2
-1 -1 -3 66022.8 1143.34 1
-1 -1 -3 67856.5 1033.09 3
1 1 3 65876.3 1187.14 1
1 1 3 66290 1201.75 4
1 1 3 70200.4 1127.52 2
1 1 4 18604.4 690.544 1
1 1 4 18677.6 704.139 4
-1 -1 -4 19637.7 592.532 3
-1 -1 -4 20864.6 725.462 1
1 1 4 17350.7 646.992 3
-1 -1 -4 18908.9 724.647 4
-1 -1 -4 19541.5 644.929 2
1 1 4 19782.3 686.108 2
-1 -1 -5 99.9402 28.9281 1
-1 -1 -5 303.134 85.2176 3
1 1 5 180.167 79.1214 3
-1 -1 -5 42.4664 58.5786 2
1 1 5 204.232 87.6708 4
1 1 5 196.999 84.2903 1
1 1 6 36307.5 1179.45 4
-1 -1 -6 37853.4 931.855 3
-1 -1 -6 35730.3 1052.87 2
1 1 6 36483.4 1143.51 1
1 1 7 3629.43 401.877 4
-1 -1 -7 3093.3 341.754 2
-1 -1 -7 3579.14 301.097 3
1 1 7 3713.48 393.039 1
-1 -1 -8 1473.69 225.988 2
1 1 8 2283.1 341.19 1
1 1 8 2105.94 322.711 4
-1 -1 -8 2265.33 257.324 3
-1 -1 -9 14134.1 662.762 3
1 1 9 13896.6 874.177 1
1 1 9 13475.1 895.347 4
-1 -1 -9 13031.1 802.604 2
1 1 10 244.423 156.174 4
-1 -1 -10 136.426 95.4349 2
-1 -1 -10 180.771 77.1254 3
1 1 10 128.395 110.28 1
-1 -1 -11 6181.35 610.563 2
1 1 11 7475.8 753.751 4
1 1 11 7462.59 716.949 1
1 1 12 97.7686 78.9718 1
1 1 12 166.534 135.544 4
1 1 13 -58.5798 114.466 1
1 2 -14 1667.82 229.071 2
-1 -2 14 3181.66 482.418 1
-1 -2 14 2967.85 511.302 4
-1 -2 13 662.743 219.213 4
1 2 -13 537.041 180.885 2
-1 -2 12 1414.82 342.088 1
-1 -2 12 128.59 68.4818 4
1 2 -11 4688.11 515.788 2
-1 -2 11 5735.5 550.477 1
-1 -2 11 4888.08 545.753 4
-1 -2 10 19976.5 1042.02 4
1 2 -10 20123 979.537 2
-1 -2 10 21824.5 1000.39 1
1 2 -9 159.952 9.58692 3
1 2 -9 315.394 58.1847 2
-1 -2 9 437.914 147.616 4
-1 -2 9 259.391 64.6013 1
1 2 -9 73.7748 34.0551 3
1 2 -8 2534.29 306.547 2
-1 -2 8 2564.99 282.678 1
1 2 -8 2098.35 114.546 3
-1 -2 8 2995.03 363.837 4
1 2 -7 33406.7 1017.48 2
-1 -2 7 34618.4 971.125 1
-1 -2 7 34462.9 1118.26 4
-1 -2 6 1830.62 240.84 1
1 2 -6 2242.03 302.664 2
1 2 -6 2097.2 269.398 1
1 2 -6 1114.06 227.04 4
-1 -2 6 1955.16 280.201 4
-1 -2 5 649.197 135.645 4
1 2 -5 541.488 118.235 1
-1 -2 5 608.543 117.413 1
1 2 -5 362.162 67.5393 2
1 2 -5 903.174 159.526 4
-1 -2 5 856.928 167.92 4
1 2 -5 694.08 142.033 4
-1 -2 5 537.559 112.023 2
-1 -2 4 4872.85 319.651 4
1 2 -4 4487.63 269.62 2
1 2 -4 4753.41 324.91 4
-1 -2 4 4509.61 275.624 2
-1 -2 4 4602.95 318.371 4
-1 -2 4 4625.43 275.972 1
1 2 -4 4703.79 284.491 1
-1 -2 3 35978 427.653 3
-1 -2 3 38022.8 470.58 3
-1 -2 3 38502 825.373 4
-1 -2 3 35985.5 710.477 1
-1 -2 3 40979.2 698.072 2
1 2 -3 34761.5 736.371 1
1 2 -3 37547.8 662.246 2
1 2 -3 36038.6 799.102 4
-1 -2 2 15218.9 319.928 2
1 2 -2 15444.5 452.891 1
1 2 -2 14556 468.682 4
1 2 -2 14097.9 303.717 2
1 2 -2 15191.7 371.65 3
-1 -2 2 15494.7 447.841 1
-1 -2 2 13935.4 422.637 1
-1 -2 2 15086.1 475.529 4
-1 -2 2 14847.1 336.016 3
1 2 -2 14601.3 432.398 1
1 2 -1 26836.4 565.501 3
-1 -2 1 18653.2 528.039 4
-1 -2 1 24684.7 517 3
-1 -2 1 17717.5 495.532 1
1 2 -1 18664.8 495.691 1
-1 -2 1 18535.2 499.194 1
1 2 -1 18231.1 525.733 4
-1 -2 0 82410.6 1131.31 4
1 2 0 79961.8 1114.84 4
-1 -2 0 83264.3 1121.13 1
1 2 0 78493.7 1073.82 1
-1 -2 0 81637.9 1004.31 3
-1 -2 -1 31215.5 678.699 3
1 2 1 31061.2 728.382 1
-1 -2 -1 32899.1 777.28 4
1 2 1 31256.7 747.704 3
-1 -2 -1 33569.9 765.95 1
-1 -2 -1 31129.5 471.703 2
1 2 1 31113.5 751.084 4
1 2 1 32058.2 499.676 2
1 2 2 1680.16 231.983 3
1 2 2 1583.43 170.522 2
-1 -2 -2 1584.88 157.594 2
-1 -2 -2 2551.69 263.197 1
1 2 2 2642.54 282.01 4
-1 -2 -2 1693.94 197.062 3
1 2 2 2739.26 271.404 1
-1 -2 -2 2435.7 269.616 4
-1 -2 -3 21417.4 766.478 4
1 2 3 23628.3 662.27 2
-1 -2 -3 22742.6 671.329 3
1 2 3 22051.4 745.483 1
-1 -2 -3 22807.9 621.056 2
-1 -2 -3 22031.9 720.548 1
1 2 3 22036.5 774.613 4
1 2 3 22311.9 751.686 3
1 2 4 138.676 57.7803 1
-1 -2 -4 134.472 60.2692 3
1 2 4 99.6468 43.3479 2
1 2 4 109.811 62.632 3
-1 -2 -4 31.2429 8.13419 2
1 2 4 123.028 64.4585 4
-1 -2 -5 2189.74 238.657 2
-1 -2 -5 2616.2 259.169 3
1 2 5 2081.09 285.598 4
1 2 5 2115.01 270.468 1
-1 -2 -6 10585.1 582.039 2
-1 -2 -6 10586.5 540.454 3
1 2 6 11578.9 671.54 1
1 2 6 11019 700.046 4
-1 -2 -7 2067.13 286.785 2
-1 -2 -7 2029.85 249.739 3
1 2 7 2375.3 356.976 4
1 2 7 2401.23 333.572 1
1 2 8 16568.6 966.7 4
1 2 8 17404.2 940.768 1
-1 -2 -8 16808.5 864.938 2
-1 -2 -8 17758.6 770.074 3
-1 -2 -9 1204.66 236.7 2
1 2 9 2072.98 378.523 1
-1 -2 -9 1923.24 272.656 3
1 2 9 1921.44 387.584 4
-1 -2 -10 7176.09 636.88 2
1 2 10 8232.24 735.609 1
-1 -2 -10 7422.53 540.189 3
1 2 10 8000.85 762.886 4
-1 -2 -11 2372.61 374.261 2
1 2 11 3776.64 539.957 1
1 2 11 3572.35 541.945 4
-1 -2 -12 2376.2 395.962 2
1 2 12 2763.74 484.45 1
1 2 12 2596.13 502.045 4
1 3 -14 2229.1 423.462 2
-1 -3 14 2656.45 486.136 4
-1 -3 13 1221.15 305.541 4
1 3 -13 502.286 67.1065 2
1 3 -12 488.887 172.431 2
-1 -3 12 580.344 198.386 4
-1 -3 11 178.766 16.6024 1
1 3 -11 402.569 151.483 2
-1 -3 11 332.867 137.189 4
-1 -3 10 3472.34 438.025 4
-1 -3 10 2962.53 347.631 1
1 3 -10 2685.83 332.143 2
1 3 -9 2820.27 341.687 2
-1 -3 9 3052.02 345.319 1
-1 -3 9 3275.87 395.174 4
-1 -3 8 1580.23 226.007 1
1 3 -8 1265.26 214.413 2
-1 -3 8 1596.15 263.577 4
1 3 -7 1160.47 198.384 2
-1 -3 7 1494.62 218.832 1
-1 -3 7 1181.59 197.547 4
-1 -3 6 606.655 138.9 2
-1 -3 6 773.106 171.834 4
1 3 -6 762.508 167.454 4
1 3 -6 514.539 98.3773 2
1 3 -6 1166.52 188.684 1
-1 -3 6 704.028 148.187 1
-1 -3 5 10190.1 469.803 1
1 3 -5 10311.3 542.803 4
-1 -3 5 9231.04 523.781 4
1 3 -5 10254.2 499.068 1
-1 -3 5 10772.3 495.178 2
1 3 -5 10295.6 471.201 2
-1 -3 5 10057.8 530.649 4
-1 -3 4 13809.4 511.428 1
1 3 -4 13183.4 568.822 4
1 3 -4 13592.5 463.535 2
-1 -3 4 12735.8 558.407 4
1 3 -4 13977.8 548.682 1
-1 -3 4 14119.2 489.898 2
1 3 -3 12881.8 375.039 2
1 3 -3 13220.3 511.902 1
-1 -3 3 13185.9 489.539 1
-1 -3 3 12850.1 533.753 4
-1 -3 3 14416.5 500.117 1
-1 -3 3 13868.5 408.509 2
1 3 -3 13676.9 545.5 4
-1 -3 3 13834.8 337.759 3
1 3 -3 13599.5 371.157 3
1 3 -2 2409.48 204.988 1
1 3 -2 3012.99 204.387 3
1 3 -2 2992.57 136.653 2
-1 -3 2 2599.6 243.96 4
-1 -3 2 3260.78 155.287 2
-1 -3 2 2824.72 180.61 3
1 3 -2 2600.34 219.849 1
-1 -3 2 2594.57 213.552 1
-1 -3 2 2686.52 217.412 1
1 3 -2 2438.44 231.05 4
-1 -3 1 69731.8 1145.05 1
-1 -3 1 70851.9 1203.57 4
1 3 -1 69638.9 1110.3 1
-1 -3 1 69696.8 1122.08 1
1 3 -1 69712.5 1061.55 3
-1 -3 1 66713.5 962.772 3
1 3 -1 66135.5 1177.91 4
-1 -3 0 70318.8 1071.57 3
1 3 0 71303.3 1159.92 1
-1 -3 0 72110.4 1260.07 4
1 3 0 72456.4 1270.43 4
-1 -3 0 71891.9 1196.42 1
-1 -3 -1 178975 2117.47 4
-1 -3 -1 165650 1893.16 1
-1 -3 -1 165376 1764.73 3
1 3 1 170814 1908.2 1
-1 -3 -1 165365 1181.63 2
1 3 1 173332 1189.81 2
1 3 1 165347 1924.3 3
1 3 1 173335 2086.03 4
1 3 2 3385.74 295.009 3
-1 -3 -2 4308.51 307.61 3
1 3 2 4347.79 246.725 2
-1 -3 -2 4243.09 361.628 4
-1 -3 -2 4190.3 324.984 1
-1 -3 -2 4361.67 250.535 2
1 3 2 4027.85 324.195 1
1 3 2 4250.41 363.816 4
-1 -3 -3 253.225 86.4001 3
-1 -3 -3 327.68 109.515 1
1 3 3 356.395 126.236 4
-1 -3 -3 81.4003 21.076 2
1 3 3 274.169 78.0329 2
1 3 3 370.4 112.609 1
1 3 4 41679.8 1156.51 1
-1 -3 -4 38149.7 1076.64 1
1 3 4 40860.2 1264.33 4
-1 -3 -4 41033.1 1057.28 3
1 3 4 39596.4 1000.39 2
-1 -3 -4 40554 960.312 2
1 3 5 18421.7 826.967 1
-1 -3 -5 17075.4 688.264 2
-1 -3 -5 17147 714.785 3
1 3 5 18163.4 885.716 4
-1 -3 -6 16838 738.634 3
-1 -3 -6 16583.3 744.36 2
1 3 6 16166.3 894.122 4
1 3 6 17269.8 856.133 1
-1 -3 -7 1837.92 255.143 3
1 3 7 1710.69 310.259 4
-1 -3 -7 1737.88 250.322 2
1 3 7 1850.75 303.479 1
-1 -3 -8 9507.56 606.481 3
-1 -3 -8 8586.16 617.353 2
1 3 8 9173.42 765.049 4
1 3 8 9608.62 727.059 1
-1 -3 -9 876.806 192.065 3
1 3 9 518.67 128.562 4
1 3 9 987.387 258.777 1
-1 -3 -9 460.095 19.6062 2
-1 -3 -10 758.451 224.999 2
1 3 10 752.756 240.849 1
1 3 10 362.498 100.795 4
-1 -3 -10 748.452 187.342 3
1 3 11 7.9367 48.354 1
1 3 11 103.933 123.338 4
-1 -3 -12 402.84 185.62 2
-1 -4 14 553.406 227.86 4
-1 -4 14 1286.54 362.082 1
-1 -4 13 25.9662 58.8919 4
1 4 -13 -19.0342 51.1348 2
-1 -4 12 176.665 118.201 4
-1 -4 12 4.6961 101.25 1
1 4 -12 154.383 92.8796 2
-1 -4 11 14737.9 859.844 1
-1 -4 11 14202.6 937.378 4
1 4 -11 14119.8 853.437 2
-1 -4 10 1940.52 307.84 1
1 4 -10 1622.09 295.998 2
-1 -4 10 1947.24 340.632 4
-1 -4 9 20068.6 977.345 4
-1 -4 9 20090.4 884.485 1
1 4 -9 19455.1 888.139 2
-1 -4 8 16338.4 835.752 4
-1 -4 8 16982.3 770.993 1
1 4 -8 15676.5 755.491 2
1 4 -7 6611.95 513.81 4
-1 -4 7 6363.62 451.136 1
-1 -4 7 6429.08 501.543 4
1 4 -7 6172.14 444.785 2
-1 -4 6 11003.8 566.744 2
-1 -4 6 12290.4 655.389 4
1 4 -6 13046.2 678.64 4
1 4 -6 12384.9 561.9 2
-1 -4 6 12220.9 583.193 1
-1 -4 5 106716 1856.31 4
1 4 -5 109066 1497.95 2
1 4 -5 108241 1847.61 4
-1 -4 5 96197.3 773.235 3
1 4 -5 97035.1 1687.93 1
-1 -4 5 107647 1631.3 1
-1 -4 5 110633 1598.29 2
-1 -4 4 55838.2 1154.94 1
-1 -4 4 58643.9 1013.7 2
1 4 -4 57410 833.981 3
1 4 -4 57354.3 1217 1
1 4 -4 54584.6 924.211 2
1 4 -4 57302.8 1284.49 4
-1 -4 4 55052.9 734.333 3
-1 -4 4 56927.8 1299.29 4
-1 -4 4 55199.2 1124.5 1
-1 -4 3 769.032 149.471 1
-1 -4 3 1741.14 189.716 2
1 4 -3 1118.09 141.361 3
1 4 -3 1390.93 229.439 4
-1 -4 3 1006.09 136.892 3
1 4 -3 1183.18 133.929 2
-1 -4 3 1055.93 205.178 4
-1 -4 3 786.512 159.032 1
1 4 -3 635.772 147.706 1
1 4 -2 1328.91 159.234 3
-1 -4 2 1099.42 133.634 3
-1 -4 2 1181.76 162.096 1
1 4 -2 1030.34 146.945 1
-1 -4 2 965.286 152.835 1
-1 -4 2 1156.49 179.667 4
1 4 -2 1040.4 80.1216 2
1 4 -2 1094.63 173.129 4
-1 -4 2 1090.39 92.2487 2
1 4 -1 24041.3 735.366 1
-1 -4 1 24947 679.364 3
1 4 -1 24247 822.339 4
1 4 -1 25272.7 723.254 3
-1 -4 1 23459.8 745.657 1
-1 -4 1 24410.2 744.843 1
-1 -4 1 25263.9 826.91 4
1 4 0 946.42 75.5996 2
-1 -4 0 1094.06 153.942 3
-1 -4 0 1126.64 192.622 4
1 4 0 1202.22 169.176 1
1 4 0 1155.18 190.659 4
-1 -4 0 1276.07 182.593 1
1 4 0 1429.07 204.154 3
1 4 0 865.317 58.7312 2
1 4 1 463.774 133.799 4
1 4 1 528.997 63.8711 2
-1 -4 -1 627.293 136.752 3
-1 -4 -1 457.278 67.1789 2
1 4 1 429.698 107.563 1
-1 -4 -1 359.14 125.289 4
1 4 1 802.694 171.45 3
-1 -4 -1 425.669 114.322 1
-1 -4 -2 6280.03 428.757 1
1 4 2 6822.63 310.403 2
-1 -4 -2 6454.71 311.234 2
1 4 2 6435.16 431.764 1
-1 -4 -2 6723.53 423.533 3
1 4 2 6630.81 486.259 4
-1 -4 -3 4738.62 319.306 2
1 4 3 4539.89 303.655 2
1 4 3 4565.35 385.171 1
-1 -4 -3 4117.38 347.763 3
1 4 3 4241.99 414.969 4
-1 -4 -3 4425.13 374.591 1
1 4 4 3841.23 324.442 2
-1 -4 -4 4067.42 317.207 2
1 4 4 4434.4 401.844 1
-1 -4 -4 3822.22 353.344 3
1 4 4 4292.2 450.434 4
1 4 5 227.867 114.847 4
1 4 5 200.741 88.4078 1
-1 -4 -5 199.59 12.4566 2
-1 -4 -5 151.106 78.0714 3
1 4 6 1222.19 238.491 1
-1 -4 -6 1047.59 165.202 2
-1 -4 -6 1192.57 212.888 3
1 4 6 1200.92 264.548 4
1 4 7 5031.14 512.29 1
-1 -4 -7 4788.11 446.56 3
-1 -4 -7 4275.23 412.675 2
1 4 7 4539.23 537.903 4
-1 -4 -8 1650.89 252.225 2
1 4 8 2428.78 371.75 1
-1 -4 -8 2252.25 314.952 3
1 4 8 2253.82 403.912 4
1 4 9 34.7071 8.78878 1
1 4 9 8.40167 44.6058 4
-1 -4 -9 83.8222 76.9739 2
-1 -4 -9 59.601 48.1094 3
-1 -4 -10 316.457 137.572 3
1 4 10 220.166 119.061 4
1 4 10 230.112 122.943 1
-1 -5 14 2765.14 445.247 1
1 5 -14 2009.54 401.068 2
-1 -5 14 2198.67 428.451 4
-1 -5 13 911.439 235.021 1
1 5 -13 875.822 251.119 2
-1 -5 13 1071.07 297.09 4
-1 -5 12 141.276 101.03 4
-1 -5 12 -0.45472 67.9181 1
1 5 -11 338.784 168.479 2
-1 -5 11 226.911 122.661 1
-1 -5 11 284.455 182.416 4
1 5 -10 12135.1 755.735 2
-1 -5 10 11757.8 731.236 1
-1 -5 10 11995.6 807.268 4
1 5 -9 41.3941 72.3026 2
-1 -5 9 316.325 159.162 1
-1 -5 9 184.481 107.763 4
1 5 -9 328.297 135.431 4
1 5 -8 5080.98 496.461 4
1 5 -8 4467.34 404.152 2
-1 -5 8 4882.78 432.922 1
-1 -5 8 4786.54 474.659 4
1 5 -7 3822.48 410.31 4
-1 -5 7 3610.02 386.597 4
1 5 -7 3697.62 333.196 2
-1 -5 7 3561.85 346.366 1
-1 -5 6 5604.05 424.095 2
-1 -5 6 6471.62 449.222 1
-1 -5 6 5468.45 197.522 3
1 5 -6 6368.63 403.739 2
1 5 -6 6513.82 503.839 4
1 5 -5 1584.63 152.559 3
-1 -5 5 2025.74 150.176 3
1 5 -5 1397.32 229.884 4
1 5 -5 1632.68 171.85 2
-1 -5 5 1656.19 216.252 1
-1 -5 5 1802.41 210.689 2
1 5 -4 39112.9 839.55 3
-1 -5 4 38821.4 1024.13 1
1 5 -4 38879.8 1155.09 4
-1 -5 4 38516.7 855.453 2
1 5 -4 38683.2 783.637 2
-1 -5 4 38561.4 746.887 3
-1 -5 4 34261.1 1028.7 1
1 5 -4 33680.8 1030.08 1
1 5 -3 319.212 105.884 1
-1 -5 3 300.177 97.7377 1
1 5 -3 585.369 124.59 3
-1 -5 3 471.84 102.662 3
1 5 -3 358.83 56.6066 2
-1 -5 3 419.724 76.3904 2
-1 -5 3 330.318 101.869 1
1 5 -3 232.759 74.9144 4
1 5 -2 36687.7 964.424 1
1 5 -2 37247.8 920.748 3
-1 -5 2 38582.1 1002.1 1
-1 -5 2 35505.5 570.279 2
1 5 -2 36947.9 1120.37 4
-1 -5 2 34223.9 999.181 1
1 5 -2 36333.7 503.247 2
-1 -5 2 36638.2 867.287 3
-1 -5 1 206.311 69.3232 3
-1 -5 1 326.888 91.1895 1
-1 -5 1 239.689 91.9591 1
1 5 -1 365.471 111.984 3
1 5 -1 127.632 48.0411 1
1 5 -1 217.457 90.7414 4
1 5 0 317.336 96.6052 1
1 5 0 221.652 33.6813 2
1 5 0 257.675 43.2544 2
-1 -5 0 310.504 109.653 1
-1 -5 0 251.519 84.6551 3
1 5 0 328.766 118.499 4
1 5 1 149.595 52.3787 2
1 5 1 124.127 72.4282 1
1 5 1 176.571 109.965 4
-1 -5 -1 133.757 51.5641 2
1 5 1 18.3169 34.2838 2
-1 -5 -1 62.1977 52.5209 3
-1 -5 -1 133.483 71.8556 1
1 5 2 1662.47 233.998 1
-1 -5 -2 1272.71 207.785 3
-1 -5 -2 1545.76 239.849 1
1 5 2 1633.17 269.692 4
1 5 2 1435.37 140.397 2
-1 -5 -2 1482.07 155.316 2
-1 -5 -3 1588.48 187.033 2
1 5 3 1523.79 180.658 2
1 5 3 1743.17 252.426 1
1 5 3 1610.1 277.517 4
-1 -5 -3 1411.46 221.971 3
1 5 4 1072.41 163.92 2
-1 -5 -4 1180.01 183.337 2
1 5 4 904.003 222.823 4
1 5 4 1000.9 201.39 1
-1 -5 -4 1138.36 201.98 3
-1 -5 -5 208.7 81.1301 3
1 5 5 258.094 107.484 1
-1 -5 -5 197.768 67.6727 2
1 5 5 228.485 94.6255 4
1 5 6 180.721 89.5455 1
-1 -5 -6 -85.4687 128.944 2
-1 -5 -6 220.597 90.5354 3
1 5 6 124.006 94.6499 4
-1 -5 -7 383.916 137.371 3
1 5 7 272.205 129.473 1
-1 -5 -7 -65.7613 127.223 2
1 5 7 270.364 130.244 4
1 5 8 197.488 103.289 1
-1 -5 -8 155.992 80.2821 3
-1 -5 -8 159.445 47.3437 2
1 5 8 159.848 92.2409 4
-1 -5 -9 939.05 242.262 2
1 5 9 836.385 257.94 4
1 5 9 927.574 236.926 1
-1 -5 -9 1117.83 245.63 3
1 5 10 1091.18 318.823 4
-1 -5 -10 1223.73 269.425 3
-1 -6 14 311.409 54.788 1
-1 -6 14 1227.45 337.714 4
1 6 -14 1027.77 288.134 2
-1 -6 13 904.826 263.67 4
-1 -6 13 430.123 88.1566 1
1 6 -13 792.329 230.013 2
-1 -6 12 -101.421 141.176 1
-1 -6 12 28.5026 54.4488 4
-1 -6 11 1008.97 238.605 4
-1 -6 11 1068.31 231.529 1
1 6 -11 858.944 168.453 2
-1 -6 10 2823.74 377.443 1
1 6 -10 2020.05 284.547 2
-1 -6 10 2460.4 378.48 4
-1 -6 9 2001.72 328.378 1
1 6 -9 2156.2 371.294 4
1 6 -9 1590.85 258.49 2
-1 -6 9 2064.35 360.056 4
1 6 -8 20825.7 1042.46 4
1 6 -8 19496.9 854.057 2
-1 -6 8 19554.5 982.456 4
-1 -6 8 19056.9 870.941 1
1 6 -7 1049.43 228.555 4
1 6 -7 709.388 138.122 2
-1 -6 7 956.202 211.09 4
-1 -6 7 554.041 54.6103 3
-1 -6 7 893.215 182.514 1
-1 -6 6 10898.5 608.631 1
1 6 -6 11569.5 445.221 3
-1 -6 6 11809.3 386.305 3
1 6 -6 11241.8 698.817 4
-1 -6 6 10555.2 579.619 2
1 6 -6 11355.8 544.157 2
-1 -6 5 38188.8 789.846 3
-1 -6 5 35267.9 1066.03 1
1 6 -5 35723.2 861.852 2
-1 -6 5 35007.7 954.601 2
1 6 -5 36302.2 866.878 3
1 6 -5 34792.5 1212.55 4
-1 -6 4 13321.4 646.023 1
1 6 -4 14324.8 481.716 2
1 6 -4 12955 549.96 3
-1 -6 4 14205 540.917 2
1 6 -4 13017 725.413 4
-1 -6 4 14568.8 530.788 3
-1 -6 3 32748.7 857.961 3
-1 -6 3 34435.1 1032.72 1
1 6 -3 33726.4 624.913 2
-1 -6 3 33748.2 720.253 2
1 6 -3 34634.8 1177.62 4
1 6 -3 33685.5 943.067 3
-1 -6 2 22408.5 754.484 3
1 6 -2 23052.7 829.077 1
1 6 -2 23303.7 973.831 4
1 6 -2 20237 424.272 2
-1 -6 2 23640.9 855.93 1
-1 -6 2 20836 448.996 2
1 6 -2 21895.6 402.789 2
1 6 -1 9202.85 620.379 4
1 6 -1 6206.04 167.025 2
-1 -6 1 9300.08 514.951 3
-1 -6 1 9339.59 539.72 1
1 6 -1 9332.04 538.97 1
1 6 -1 6803.71 177.865 2
-1 -6 1 6957.26 505.28 1
1 6 0 2564.9 288.699 1
1 6 0 2618.19 347.71 4
-1 -6 0 2536.25 291.563 1
-1 -6 0 2185.91 259.22 3
1 6 0 1679.35 99.4747 2
1 6 0 1985.12 124.181 2
1 6 1 69536.8 948.471 2
-1 -6 -1 72690.6 1564.3 3
1 6 1 75722.5 1635.01 1
1 6 1 72626.5 1828.31 4
1 6 1 67471.4 840.376 2
1 6 2 13153.7 822.119 4
1 6 2 13603.1 718.297 1
1 6 2 13122.7 499.99 2
-1 -6 -2 13775.2 711.13 3
1 6 2 13421.1 459.708 2
-1 -6 -2 14025.4 513.487 2
-1 -6 -3 3245.08 358.592 3
1 6 3 3352.04 271.598 2
-1 -6 -3 3554.3 282.536 2
1 6 3 3454.21 433.83 4
1 6 3 3663.08 388.229 1
-1 -6 -4 9004.6 618.673 3
1 6 4 9285.93 643.33 1
-1 -6 -4 9626.61 533.371 2
1 6 4 8705.3 722.937 4
-1 -6 -5 7421.21 580.833 3
1 6 5 8700.78 657.926 1
-1 -6 -5 8769.18 554.672 2
1 6 5 8009.92 724.766 4
1 6 6 1212.05 301.658 4
-1 -6 -6 1289.63 261.114 3
1 6 6 1289.54 273.771 1
-1 -6 -6 1321.18 246.01 2
-1 -6 -7 5926.65 562.749 3
1 6 7 6870.2 648.385 1
-1 -6 -7 6239.07 555.745 2
1 6 7 6575.8 717.519 4
-1 -6 -8 4376.15 504.137 3
1 6 8 4791.06 571.652 1
1 6 8 4253.03 611.122 4
-1 -6 -9 49.7619 56.8279 3
1 6 9 -64.5783 122.052 4
-1 -6 -10 101.722 76.4457 3
1 7 -14 480.69 191.574 2
-1 -7 14 489.744 198.414 4
1 7 -13 737.967 142.598 2
-1 -7 13 516.592 117.499 1
1 7 -12 554.781 195.526 2
-1 -7 12 359.03 141.261 1
-1 -7 12 357.194 146.616 4
-1 -7 11 1810.72 308.103 1
1 7 -11 1718.95 302.271 2
-1 -7 11 1619.47 294.333 4
1 7 -10 689.315 208.597 4
-1 -7 10 774.153 194.75 1
1 7 -10 83.482 195.162 2
-1 -7 10 675.613 199.553 4
1 7 -9 2612.35 399.58 4
1 7 -9 1837.59 256.16 2
-1 -7 9 2449.95 375.354 4
-1 -7 9 2451.3 341.442 1
1 7 -8 793.03 210.71 4
-1 -7 8 543.103 72.7326 3
1 7 -8 724.851 153.398 2
-1 -7 8 786.767 186.013 1
-1 -7 8 711.756 85.9671 3
-1 -7 8 719.212 194.262 4
-1 -7 7 89.6984 62.4733 1
1 7 -7 -11.6978 82.4933 2
1 7 -7 70.4526 39.6311 3
-1 -7 7 57.8192 19.6717 3
1 7 -7 104.27 75.7223 4
1 7 -6 12651.7 786.482 4
1 7 -6 11589.4 523.499 3
-1 -7 6 12841.3 481.248 3
1 7 -6 12050.9 559.721 2
-1 -7 6 12134.8 683.256 1
1 7 -5 3484.44 413.671 4
1 7 -5 2903.09 233.451 2
-1 -7 5 3743.09 282.551 3
1 7 -5 2918.47 264.118 3
-1 -7 5 3449.64 354.522 1
-1 -7 5 3421.44 313.139 2
1 7 -4 709.53 100.332 2
1 7 -4 531.562 181.455 4
-1 -7 4 850.219 147.016 3
-1 -7 4 598.329 156.557 1
-1 -7 4 670.853 123.452 2
-1 -7 3 7525.06 516.349 1
1 7 -3 7309.26 596.193 4
-1 -7 3 6565.03 427.54 3
1 7 -3 6427.06 273.279 2
-1 -7 3 6602.47 323.041 2
-1 -7 2 26910.7 907.962 3
1 7 -2 22801.1 408.081 2
1 7 -2 29125.9 1012.16 1
-1 -7 2 29272.9 1018.31 1
1 7 -2 21145 414.715 2
1 7 -2 28052.4 1170.89 4
1 7 -1 2765.48 319.636 1
-1 -7 1 2536.48 295.928 3
-1 -7 1 2924.82 330.144 1
1 7 -1 2772.52 378.167 4
1 7 0 6857.06 212.77 2
1 7 0 5780.46 179.372 2
-1 -7 0 9579.47 589.343 3
1 7 0 8560.28 667.694 4
-1 -7 0 9316.74 597.908 1
1 7 0 8633.12 561.691 1
1 7 1 72837 1990.72 4
1 7 1 76991.7 1746.71 1
-1 -7 -1 77612 1767.89 1
1 7 1 66092.6 925.689 2
1 7 1 63430.8 823.193 2
-1 -7 -1 70876.7 1660.25 3
-1 -7 -2 15129.9 805.723 3
1 7 2 13475.3 894.631 4
1 7 2 13414.8 505.164 2
1 7 2 15298.8 819.706 1
-1 -7 -3 6154.17 532.486 3
-1 -7 -3 7107.77 424.731 2
1 7 3 6619.32 413.361 2
1 7 3 6753.27 555.285 1
1 7 3 6377.14 641.594 4
1 7 4 458.883 122.257 2
1 7 4 509.417 157.605 1
-1 -7 -4 420.829 146.656 3
-1 -7 -4 499.836 128.705 2
1 7 4 491.181 191.229 4
-1 -7 -5 2183.14 272.341 2
-1 -7 -5 2329.97 354.586 3
1 7 5 2549.88 372.154 1
1 7 5 2297.66 421.378 4
1 7 6 203.717 135.583 4
1 7 6 138.281 60.0904 1
-1 -7 -6 79.9698 57.9986 3
-1 -7 -7 2815.78 415.973 3
1 7 7 2784.6 504.41 4
1 7 8 261.885 170.841 4
-1 -7 -8 264.828 129.945 3
1 8 -14 87.8521 79.9547 2
-1 -8 14 94.7751 86.4489 4
-1 -8 13 709.211 217.712 1
-1 -8 13 778.721 259.151 4
1 8 -12 8874.37 727.967 2
-1 -8 12 9226.28 769.577 1
-1 -8 12 7387.18 712.229 4
1 8 -11 -83.3659 153.447 2
-1 -8 11 115.743 113.926 4
-1 -8 11 115.715 95.7525 1
1 8 -11 118.979 106.819 4
-1 -8 10 474.82 170.819 1
-1 -8 10 458.767 177.437 4
1 8 -10 477.999 177.658 4
-1 -8 9 7376.01 675.536 4
1 8 -9 7817.24 711.34 4
-1 -8 9 7566.85 629.277 1
1 8 -9 6764.51 529.176 2
-1 -8 8 1797.91 298.529 1
-1 -8 8 1009.89 101.328 3
1 8 -8 2079.55 361.405 4
1 8 -8 1696.12 257.622 2
1 8 -7 7438.51 487.336 2
-1 -8 7 7765.31 386.187 3
-1 -8 7 7597.34 590.747 1
1 8 -7 8196.45 692.653 4
-1 -8 6 2238.1 229.778 3
-1 -8 6 2098.77 296.102 1
1 8 -6 2066.99 344.44 4
1 8 -6 2178.27 242.226 2
-1 -8 5 5568.74 388.658 3
1 8 -5 4626.51 301.341 2
-1 -8 5 4973.04 369.656 2
-1 -8 5 5398.4 475.006 1
1 8 -5 5607.33 550.5 4
-1 -8 4 12.726 13.8957 2
-1 -8 4 14.0175 8.05775 3
1 8 -4 23.3464 39.6141 4
-1 -8 4 -16.6158 59.2662 1
-1 -8 3 9981.29 573.717 3
-1 -8 3 10228.2 643.571 1
1 8 -3 9506.61 736.206 4
-1 -8 3 8192.57 344.675 2
1 8 -3 9225.69 318.393 2
1 8 -3 8364.72 332.911 2
1 8 -2 4252.51 506.336 4
1 8 -2 2406.88 117.989 2
1 8 -2 2767.22 122.524 2
-1 -8 2 4712.59 446.979 1
-1 -8 2 4271.94 392.665 3
-1 -8 1 2851.6 343.597 1
1 8 -1 2439.55 302.76 1
-1 -8 1 2681.54 323.832 3
1 8 -1 2695.17 402.002 4
-1 -8 0 2786.23 354.775 1
1 8 0 2759.3 420.215 4
-1 -8 0 3166.8 366.416 3
1 8 0 2833.3 354.275 1
1 8 1 3032.07 444.406 4
-1 -8 -1 3203.31 378.158 3
1 8 1 3301.72 371.257 1
-1 -8 -1 3465.1 399.705 1
1 8 2 1085.04 229.066 1
-1 -8 -2 1010.02 226.228 3
1 8 2 1000.36 266.038 4
-1 -8 -2 1006.45 215.319 1
-1 -8 -3 912.256 220.498 3
1 8 3 999.427 220.516 1
1 8 3 985.696 264.953 4
1 8 4 128.702 59.8426 1
-1 -8 -4 124.061 84.8472 3
1 8 4 128.806 92.4916 4
1 8 5 7.24341 42.9788 1
1 8 5 19.2504 68.8703 4
-1 -8 -5 -6.27383 17.6092 3
-1 -8 -6 277.488 155.999 3
1 8 6 173.817 134.534 4
1 8 7 3071.33 558.288 4
-1 -8 -7 3305.93 478.804 3
1 9 -14 153.018 88.7567 2
-1 -9 13 3814.52 568.879 4
1 9 -13 2319.14 324.593 2
-1 -9 12 8658.22 847.098 4
1 9 -12 8784.75 743.716 2
1 9 -12 9095.96 883.036 4
-1 -9 12 8909.11 777.466 1
1 9 -11 11620.3 969.424 4
-1 -9 11 11336.4 853.178 1
1 9 -11 10982.2 777.919 2
-1 -9 11 10775 908.767 4
1 9 -10 105.68 94.9028 4
-1 -9 10 25.2485 34.4358 4
-1 -9 10 41.0221 31.5814 1
-1 -9 9 90.783 54.016 1
1 9 -9 73.3327 52.7345 4
-1 -9 9 61.8758 29.2943 4
1 9 -8 40.5577 58.679 2
1 9 -8 -68.8592 108.799 4
-1 -9 8 -34.7136 64.5912 1
1 9 -7 1770.07 225.637 2
-1 -9 7 2030.04 220.107 3
-1 -9 7 2104 325.54 1
1 9 -7 2114.47 373.196 4
1 9 -6 59.6883 51.6711 4
-1 -9 6 36.9531 8.83546 1
-1 -9 6 38.7109 27.0798 3
1 9 -5 149.666 97.8313 4
1 9 -5 54.0033 7.32065 2
-1 -9 5 73.4258 46.559 1
-1 -9 5 145.62 78.4322 3
1 9 -4 6287.9 625.336 4
-1 -9 4 6660.45 487 3
-1 -9 4 6339.34 537.5 1
1 9 -4 5942.34 298.35 2
1 9 -3 993.187 259.028 4
-1 -9 3 1004.97 200.522 3
-1 -9 3 1205.15 257.319 1
-1 -9 2 888.024 206.215 1
1 9 -2 824.637 239.686 4
-1 -9 2 985.283 200.282 3
-1 -9 1 1397.43 248.116 3
1 9 -1 1584.98 323.941 4
-1 -9 1 1677.13 284.147 1
1 9 -1 1543.38 258.374 1
-1 -9 0 7105.26 590.945 1
1 9 0 6745.84 684.194 4
1 9 0 7067.07 584.621 1
-1 -9 0 6441.51 553.909 3
-1 -9 -1 3.82997 41.7015 1
-1 -9 -1 39.6004 56.0996 3
1 9 1 30.0567 48.2965 1
1 9 1 6.81916 27.9781 4
1 9 2 1676.88 394.133 4
-1 -9 -2 1411.57 299.363 3
1 9 2 826.398 148.731 1
-1 -9 -2 1822.06 318.948 1
1 9 3 960.563 292.514 4
-1 -9 -3 1047.95 242.966 1
-1 -9 -3 726.702 214.33 3
1 9 3 993.085 238.78 1
1 9 4 619.034 228.21 4
1 9 4 718.309 212.106 1
-1 -9 -4 509.873 186.715 3
-1 -9 -5 3495.04 488.881 3
1 9 5 3407.14 564.334 4
1 10 -13 4456.29 534.537 2
-1 -10 13 3962.17 573.849 4
1 10 -12 7727.06 686.48 2
1 10 -12 8799.53 901.894 4
-1 -10 12 8243.83 856.893 4
1 10 -11 1798.63 277.255 2
-1 -10 11 2299.16 395.672 1
-1 -10 11 2141.33 420.675 4
1 10 -11 2372.5 457.178 4
-1 -10 10 2012.35 383.754 4
-1 -10 10 2337.45 388.778 1
1 10 -10 2364.06 431.691 4
1 10 -10 1131.14 96.757 2
1 10 -9 -70.7234 216.181 2
1 10 -9 600.259 209.898 4
-1 -10 9 462.621 178.182 4
-1 -10 9 493.046 159.128 1
1 10 -8 213.925 112.021 4
-1 -10 8 208.768 102.333 1
-1 -10 7 13688.6 865.688 1
1 10 -7 13903.5 995.918 4
-1 -10 7 13546.1 645.627 3
1 10 -6 5541.88 633.863 4
-1 -10 6 7000.93 495.065 3
-1 -10 6 6015.34 564.39 1
-1 -10 5 17436.1 822.829 3
-1 -10 5 17005.4 929.11 1
1 10 -5 16840.4 1086.7 4
1 10 -4 2316.46 411.416 4
-1 -10 4 2386.44 317.473 3
-1 -10 4 2376.17 351.181 1
1 10 -3 2030.55 381.773 4
-1 -10 3 2061.82 303.704 3
-1 -10 3 2134.1 340.441 1
-1 -10 2 523.385 166.589 3
1 10 -2 563.924 206.883 4
-1 -10 2 585.025 206.485 1
1 10 -1 92.3923 69.2123 4
-1 -10 1 105.135 90.0819 3
-1 -10 0 56.2719 65.035 3
-1 -10 0 54.7614 54.7866 1
1 10 0 57.2601 73.6326 4
-1 -10 -1 70.9309 21.9425 1
-1 -10 -1 74.7172 61.479 3
1 10 1 143.25 78.4793 4
1 10 1 64.6621 96.4709 1
-1 -10 -2 773.51 207.349 1
1 10 2 632.868 227.225 4
1 10 2 661.028 194.208 1
-1 -10 -2 570.129 186.207 3
-1 -10 -3 53.3229 66.3914 3
1 10 3 25.009 69.7966 4
1 10 4 946.591 311.166 4
-1 -10 -4 896.715 254.696 3
1 11 -12 748.127 277.748 4
-1 -11 12 702.269 258.536 4
-1 -11 11 494.957 175.992 4
1 11 -11 595.191 225.268 4
-1 -11 10 50.0758 56.575 1
-1 -11 10 -61.1623 140.924 4
1 11 -10 -88.7575 123.815 4
-1 -11 9 610.337 195.807 1
1 11 -9 503.686 184.684 4
1 11 -8 396.758 201.237 4
-1 -11 8 231.185 136.772 1
1 11 -7 85.7509 95.4917 4
-1 -11 7 85.3596 86.8575 1
-1 -11 7 -2.42164 50.4219 3
-1 -11 6 354.148 152.135 1
-1 -11 6 414.391 122.351 3
1 11 -6 259.34 136.314 4
1 11 -5 649.487 224.469 4
-1 -11 5 737.91 183.186 3
-1 -11 5 714.592 199.958 1
-1 -11 4 1054.3 242.076 1
1 11 -4 1101.59 301.788 4
-1 -11 4 1111.2 236.068 3
-1 -11 3 89.1332 73.4734 3
-1 -11 3 54.8317 19.4221 1
1 11 -3 35.7823 18.5277 4
1 11 -2 2401.3 445.892 4
-1 -11 2 2021.4 330.963 3
-1 -11 2 2654.19 399.038 1
1 11 -1 478.824 207.421 4
-1 -11 1 594.858 181.372 3
-1 -11 1 154.583 142.066 1
-1 -11 0 6990.43 658.458 3
1 11 0 6879.77 796.397 4
-1 -11 0 6977.93 623.123 1
1 11 1 7039.64 813.368 4
1 11 1 8161.44 703.014 1
-1 -11 -1 6890.04 681.764 3
-1 -11 -2 678.936 215.73 3
1 11 2 745.253 259.036 4
1 12 -10 313.843 165.817 4
-1 -12 10 116.905 82.5758 4
1 12 -9 127.845 137.336 4
-1 -12 9 145.777 113.101 1
1 12 -8 55.5488 105.881 4
-1 -12 8 -17.4764 63.4955 1
-1 -12 7 515.046 195.718 1
1 12 -7 500.098 210.995 4
-1 -12 6 31.3354 23.4116 3
1 12 -6 -29.8718 98.8427 4
-1 -12 6 34.1434 43.7624 1
-1 -12 5 174.028 97.5382 1
1 12 -5 166.591 77.8401 4
-1 -12 5 266.849 110.154 3
1 12 -4 195.593 143.027 4
-1 -12 4 146.16 103.976 1
-1 -12 4 225.696 120.015 3
1 12 -3 1427.43 358.517 4
-1 -12 3 1506.03 298.8 3
-1 -12 3 2236.46 389.643 1
1 12 -2 226.671 149.847 4
-1 -12 2 178.351 103.246 1
-1 -12 2 180.552 123.193 3
1 12 -1 1921.85 437.76 4
-1 -12 1 1902.26 353.548 3
-1 -12 1 2666.24 414.747 1
-1 -12 0 1448.33 324.433 3
1 12 0 1101.44 343.7 4
1 13 -7 192.071 125.474 4
-1 -13 7 225.243 139.73 1
1 13 -6 358.14 178.647 4
-1 -13 6 421.079 182.37 1
1 13 -5 156.022 136.375 4
-1 -13 5 78.1094 90.4973 1
-1 -13 5 60.5153 50.8934 3
1 13 -4 2751.57 527.344 4
-1 -13 4 3401.67 462.606 3
-1 -13 4 3457.88 481.425 1
-1 -13 3 1937.3 369.016 3
-1 -13 3 1759.98 340.317 1
-1 -13 2 810.31 243.678 3
2 -13 1 5293.68 648.033 3
-2 13 -1 5755.32 746.142 4
-2 13 -2 22.0181 59.949 4
2 -13 2 35.9093 25.5697 3
-2 13 -3 427.287 194.859 4
2 -13 3 363.598 128.579 3
-2 13 -4 2108.98 432.558 4
2 -13 4 170.211 292.451 3
-2 13 -5 2598.04 464.444 4
-2 13 -6 10.4656 27.9122 4
2 -13 6 79.8099 73.292 1
-2 13 -7 244.895 151.71 4
2 -13 7 125.021 80.3924 1
-2 12 2 412.018 190.302 4
2 -12 -1 2353.57 410.916 3
-2 12 1 2437.65 475.531 4
-2 12 0 55.6361 31.5139 4
2 -12 0 13.8119 50.7254 3
2 -12 1 4406.41 539.695 3
-2 12 -1 4757.38 636.258 4
-2 12 -2 151.103 86.445 4
2 -12 2 67.1073 28.5434 3
2 -12 3 10.9119 63.4346 3
-2 12 -3 71.5942 35.1751 4
2 -12 4 98.7363 64.4516 1
-2 12 -4 58.8093 57.0029 4
2 -12 5 2074.6 333.603 1
-2 12 -5 1766.16 369.396 4
-2 12 -6 832.413 255.877 4
2 -12 6 990.575 242.583 1
2 -12 7 2023.26 349.494 1
-2 12 -7 2073.73 400.052 4
2 -12 8 651.095 206.312 1
2 -12 8 537.017 194.418 4
-2 12 -8 603.539 221.516 4
-2 12 -9 5.8003 26.992 4
-2 11 4 270.786 150.953 4
-2 11 3 2300.34 450.102 4
2 -11 -3 2251.26 398.987 3
2 -11 -2 88.242 46.9946 3
-2 11 2 40.6582 55.23 4
-2 11 1 488.815 203.015 4
2 -11 -1 325.535 134.012 3
2 -11 0 1294.58 272.795 3
-2 11 0 1455.92 339.683 4
-2 11 -1 6067.26 676.082 4
2 -11 1 5792.82 579.12 3
2 -11 2 1459.55 251.611 1
-2 11 -2 1515.85 327.91 4
2 -11 2 1304.51 264.977 3
-2 11 -3 94.1746 88.9433 4
2 -11 3 107.612 81.8745 1
2 -11 3 40.6913 23.8355 3
-2 11 -4 -21.637 52.1202 4
2 -11 4 -17.5122 49.5421 1
2 -11 5 1087.78 236.976 1
-2 11 -5 1014.08 259.048 4
-2 11 -5 964.32 216.667 2
2 -11 6 1934.95 328.887 1
2 -11 6 807.903 69.1252 3
-2 11 -6 1600.78 287.217 2
-2 11 -6 1931.14 361.738 4
-2 11 -7 116.767 113.491 4
-2 11 -7 -11.5579 36.4376 2
2 -11 7 77.3542 70.305 1
2 -11 8 742.043 228.184 4
-2 11 -8 513.993 63.3735 2
2 -11 8 906.785 235.917 1
-2 11 -8 802.08 251.55 4
2 -11 9 1214.73 300.707 4
-2 11 -9 1196.74 306.652 4
-2 11 -9 741.263 110.204 2
2 -11 9 1022.49 249.935 1
-2 11 -10 254.743 147.773 4
-2 11 -10 0.89927 169.432 2
-2 10 5 130.582 134.739 4
2 -10 -5 55.2428 69.5695 3
2 -10 -4 626.647 200.237 3
-2 10 4 562.862 216.058 4
2 -10 -3 1646.91 323.575 3
-2 10 3 1804.25 386.171 4
-2 10 2 807.37 245.094 4
2 -10 -2 839.056 216.423 3
-2 10 1 104.29 70.8572 4
2 -10 -1 123.627 74.8814 3
2 -10 0 4146.76 383.243 1
-2 10 0 4061.04 530.04 4
2 -10 0 4017.25 464.393 3
-2 10 0 3994.75 400.959 2
-2 10 -1 955.022 248.09 4
2 -10 1 1072.56 236.282 3
-2 10 -1 1046.56 203.004 2
2 -10 1 1074.52 200.062 1
-2 10 -2 -4.4059 27.1213 4
2 -10 2 62.9186 65.3206 1
-2 10 -2 -11.2841 42.554 2
2 -10 2 -5.99487 31.1535 3
-2 10 -3 6045.17 499.246 2
2 -10 3 6455.38 517.267 1
2 -10 3 6221.38 532.547 3
-2 10 -3 6277.6 622.563 4
-2 10 -4 144.134 99.6899 4
2 -10 4 123.121 80.7527 1
-2 10 -4 89.5004 50.7303 2
-2 10 -5 648.031 197.073 4
-2 10 -5 583.636 166.039 2
2 -10 5 582.171 170.034 1
-2 10 -6 68.4621 71.9487 4
-2 10 -6 54.9096 69.1941 2
2 -10 6 77.192 80.5926 1
2 -10 7 2976.4 406.536 1
-2 10 -7 2714.14 378.537 2
-2 10 -7 3040.57 433.32 4
2 -10 8 2031.84 345.65 1
2 -10 8 1934.61 346.909 4
-2 10 -8 1877.49 329.258 2
-2 10 -8 2161.77 371.438 4
-2 10 -9 643.077 199.609 4
-2 10 -9 698.418 212.682 2
2 -10 9 772.439 211.657 1
2 -10 9 695.822 218.922 4
2 -10 10 -262.918 186.267 1
-2 10 -10 140.14 87.8844 4
-2 10 -10 -258.444 250.419 2
2 -10 10 181.788 123.63 4
2 -9 -7 4771.17 588.942 3
-2 9 7 4992.06 697.271 4
-2 9 6 69.5454 99.7619 4
2 -9 -6 68.4545 82.567 3
2 -9 -5 121.459 91.5229 3
-2 9 5 176.178 128.029 4
-2 9 4 1086.17 293.297 4
2 -9 -4 1032.26 254.484 3
-2 9 3 919.996 211.272 2
2 -9 -3 838.578 219.609 3
-2 9 3 993.92 269.027 4
2 -9 -2 4935.48 507.657 3
-2 9 2 5324.9 592.133 4
2 -9 -2 5620.35 396.799 1
-2 9 2 5051.78 463.563 2
-2 9 1 2110.54 361.706 4
2 -9 -1 2249.53 329.149 3
-2 9 1 2082.32 284.221 2
2 -9 -1 2247.63 252.588 1
2 -9 0 4771.04 381.181 1
2 -9 0 4593.77 458.788 3
-2 9 0 4629.69 420.021 2
-2 9 0 4606.74 520.943 4
2 -9 1 10.6939 41.0268 3
-2 9 -1 24.6857 21.9536 2
-2 9 -1 95.0822 63.0806 4
2 -9 1 45.7042 28.7333 1
-2 9 -2 282.596 108.623 2
-2 9 -2 288.499 131.81 4
2 -9 2 196.224 63.8985 3
2 -9 2 311.275 104.6 1
2 -9 3 -8.32725 37.8418 1
-2 9 -3 -6.33701 52.515 2
-2 9 -3 12.7502 45.6641 4
-2 9 -4 2494.85 329.056 2
2 -9 4 2465.1 319.299 1
2 -9 4 1865.61 240.596 3
-2 9 -4 2282.14 346.668 4
2 -9 5 977.052 209.547 1
2 -9 5 581.85 59.3512 3
-2 9 -5 954.085 202.316 2
-2 9 -5 869.744 209.895 4
2 -9 6 1328.39 225.313 3
-2 9 -6 852.993 213.776 4
-2 9 -6 847.253 204.022 2
2 -9 6 745.795 190.338 1
2 -9 7 5207 533.981 4
-2 9 -7 5081.06 504.883 2
2 -9 7 5513.29 539.813 1
-2 9 -7 5482.46 550.575 4
2 -9 7 5455.23 407.919 3
-2 9 -8 6565.7 600.055 2
2 -9 8 6576.15 621.469 1
-2 9 -8 6546.1 626.659 4
2 -9 8 6222.95 604.795 4
-2 9 -9 3770.15 482.589 4
2 -9 9 3292.27 427.817 1
2 -9 9 3714.77 478.472 4
-2 9 -9 3814.77 482.816 2
-2 9 -10 -358.877 225.933 2
2 -9 10 -121.286 195.499 4
2 -9 10 -52.1587 116.241 1
2 -9 11 229.001 109.326 4
2 -9 11 -190.836 174.356 1
-2 9 -12 -24.1058 49.6185 2
2 -8 -8 21.9692 12.6973 3
-2 8 8 -146.492 146.564 4
2 -8 -7 755.397 229.037 2
2 -8 -7 709.208 211.6 3
-2 8 7 726.809 250.123 4
2 -8 -6 24.0633 53.4421 3
-2 8 6 45.808 65.4933 4
-2 8 6 29.2926 44.3473 2
2 -8 -6 67.0134 45.281 2
2 -8 -5 81.1953 80.0791 3
2 -8 -5 69.2655 65.5599 2
-2 8 5 6.16676 51.2476 4
-2 8 5 70.2214 64.8458 2
-2 8 4 770.399 186.533 2
2 -8 -4 827.155 208.744 3
-2 8 4 718.956 214.246 4
-2 8 3 138.749 74.5006 2
2 -8 -3 170.833 99.1366 3
-2 8 3 141.261 93.2395 4
2 -8 -2 2256.87 229.732 1
2 -8 -2 2154.75 312.476 3
-2 8 2 2158.73 293.72 2
-2 8 2 2110.22 340.452 4
2 -8 -1 35832.9 935.88 1
2 -8 -1 33458.6 1192.16 3
-2 8 1 33610.5 1110.21 2
-2 8 1 33881.3 1344.7 4
2 -8 0 41921.9 1297.66 3
-2 8 0 40406.1 1195.02 2
2 -8 0 41950.2 1045.22 1
-2 8 0 40721 1453.29 4
-2 8 -1 610.537 144.846 2
-2 8 -1 625.813 174.574 4
2 -8 1 574.971 120.256 1
2 -8 1 576.541 147.459 3
-2 8 -2 4207.53 445.387 4
2 -8 2 4272.49 391.111 3
-2 8 -2 4247.18 389.866 2
2 -8 2 4123.21 354.685 1
2 -8 3 4400.83 382.366 1
2 -8 3 4699.11 401.775 3
-2 8 -3 4335.03 444.355 4
-2 8 -3 4412.61 402.481 2
-2 8 -4 11245.7 671.484 2
2 -8 4 11501.2 658.663 1
-2 8 -4 11105.9 703.774 4
2 -8 4 10619.2 580.671 3
2 -8 5 4775.79 452.703 1
-2 8 -5 4819.14 454.017 2
2 -8 5 4881.02 395.669 3
-2 8 -5 4423.97 455.715 4
2 -8 6 23069 1018.08 1
-2 8 -6 22069.9 991.942 2
-2 8 -6 23702.6 1058.85 4
2 -8 6 24589.1 859.771 3
-2 8 -7 1135.52 238.263 2
2 -8 7 980.904 225.473 4
2 -8 7 1152.96 243.157 1
2 -8 7 1207.24 190.481 3
-2 8 -7 1088.37 237.454 4
2 -8 8 11654.2 786.293 4
2 -8 8 11716.3 812.13 1
-2 8 -8 10706.5 757.224 2
-2 8 -8 12142.7 806.11 4
2 -8 9 1931.92 331.56 4
-2 8 -9 1623.78 273.686 4
-2 8 -9 1440.89 302.056 2
2 -8 9 1372.6 260.028 1
-2 8 -10 452.814 70.8585 2
2 -8 10 512.618 80.0344 1
2 -8 11 688.989 212.408 4
2 -8 11 325.44 66.6185 1
-2 8 -12 983.654 237.651 2
2 -7 -10 784.864 217.874 3
2 -7 -9 -102.218 90.6431 2
-2 7 9 -113.042 134.872 4
2 -7 -9 27.1093 54.9324 3
-2 7 9 -8.02194 40.1485 2
-2 7 8 8.5708 86.0217 4
2 -7 -8 67.6968 56.1086 3
-2 7 8 113.462 91.9672 2
2 -7 -8 83.7705 81.3837 2
-2 7 7 1705.42 347.07 4
2 -7 -7 1814.21 319.287 3
-2 7 7 1907.87 344.374 2
2 -7 -7 1927.58 337.45 2
-2 7 6 1359.14 275.545 2
2 -7 -6 1240.28 257.667 3
-2 7 6 1032.4 260.885 4
2 -7 -6 1353.81 271.229 2
-2 7 5 282.954 77.1898 1
2 -7 -5 333.139 130.092 3
2 -7 -5 249.426 104.02 2
-2 7 5 266.711 121.067 2
-2 7 5 155.346 78.5222 4
2 -7 -4 4082.93 294.791 1
2 -7 -4 3729.98 403.764 2
2 -7 -4 3541.2 407.798 3
-2 7 4 3755.64 269.491 1
-2 7 4 3801.48 410.607 2
-2 7 4 3857.6 473.78 4
2 -7 -3 2703.29 342.354 3
2 -7 -3 2927.41 244.717 1
-2 7 3 2719.96 324.197 2
-2 7 3 2791.63 384.405 4
2 -7 -3 2621.67 245.436 1
2 -7 -2 9690.98 436.774 1
-2 7 2 9354.93 587.393 2
2 -7 -2 8934.39 598.591 3
2 -7 -2 8487.96 460.964 1
-2 7 2 9156.67 665.144 4
-2 7 1 230.744 121.071 4
2 -7 -1 124.444 66.0235 1
2 -7 -1 123.934 86.785 3
-2 7 1 186.566 98.4342 2
2 -7 -1 113.422 46.8316 1
-2 7 0 22887.5 844.285 2
2 -7 0 23193.5 804.286 1
-2 7 0 21354.1 821.543 2
-2 7 0 24900.4 1038.07 4
2 -7 0 25046.9 743.333 1
2 -7 0 21847.1 877.189 2
2 -7 0 23173.8 897.681 3
-2 7 -1 2069.78 294.308 4
2 -7 1 1926.64 236.655 1
-2 7 -1 1870.76 252.673 2
2 -7 1 1692.7 232.206 3
-2 7 -1 1921.29 241.338 1
2 -7 1 1837.81 210.655 1
2 -7 1 1757.92 252.615 2
2 -7 2 4737.72 358.012 1
2 -7 2 4850.18 384.906 3
-2 7 -2 4696.72 398.513 2
-2 7 -2 4575.3 428.371 4
-2 7 -2 3887.78 353.511 1
2 -7 3 3667.43 335.204 1
-2 7 -3 3741.92 375.372 4
2 -7 3 3109.33 292.656 3
-2 7 -3 3262.63 335.237 2
2 -7 4 3921.83 327.091 3
-2 7 -4 3667.77 372.53 4
2 -7 4 3996.42 371.977 1
-2 7 -4 3968.9 386.376 2
-2 7 -5 26677.9 1018.32 4
2 -7 5 28110.2 877.326 3
2 -7 5 26737.5 1005.71 1
-2 7 -5 25699 787.777 3
-2 7 -5 26344.9 1020.71 2
2 -7 6 13672.7 757.555 4
2 -7 6 13568.2 582.852 3
-2 7 -6 14054.8 767.702 4
2 -7 6 13671.9 761.799 1
-2 7 -6 13589.2 537.436 3
-2 7 -6 13438.1 761.986 2
2 -7 7 136.046 84.1495 4
-2 7 -7 121.665 67.0579 4
-2 7 -7 95.7544 68.184 2
2 -7 7 73.4361 40.7108 3
2 -7 7 83.0538 56.8056 1
2 -7 8 541.68 164.84 4
-2 7 -8 519.056 176.162 2
2 -7 8 272.805 53.2379 1
-2 7 -8 501.61 153.84 4
2 -7 9 13134.8 819.637 4
-2 7 -9 12575 855.474 2
2 -7 9 12909.4 872.99 1
-2 7 -10 0.77203 100.859 2
2 -7 10 -84.9205 146.788 1
2 -7 10 -24.5412 86.3813 4
2 -7 11 127.81 176.164 1
2 -7 11 152.732 78.9167 4
2 -7 12 2450.5 417.301 4
2 -7 12 3048.99 521.659 1
2 -6 -11 188.129 108.252 3
2 -6 -11 136.697 41.2569 2
2 -6 -10 80.3724 60.4809 3
2 -6 -10 36.118 23.7042 2
-2 6 10 -7.27315 95.4155 4
2 -6 -9 233.808 109.976 3
-2 6 9 184.284 86.1165 4
2 -6 -9 265.967 143.584 2
2 -6 -8 832.558 208.969 3
2 -6 -8 226.541 75.7779 2
-2 6 8 715.32 221.234 4
2 -6 -7 12960.5 807.523 3
2 -6 -7 12786.6 848.528 2
-2 6 7 13841.6 902.676 2
-2 6 7 12835.7 940.276 4
2 -6 -6 374.952 138.244 2
-2 6 6 344.11 139.321 2
2 -6 -6 489.576 157.751 3
-2 6 6 309.836 80.8845 1
-2 6 6 307.223 142.723 4
2 -6 -5 346.832 128.039 2
-2 6 5 310.353 120.568 2
2 -6 -5 489.227 159.37 3
-2 6 5 330.819 162.235 4
-2 6 5 339.416 81.0667 1
2 -6 -5 321.03 83.5126 1
2 -6 -4 12919.6 489.853 1
-2 6 4 14817 509.665 1
2 -6 -4 13846.6 754.975 2
-2 6 4 14039.4 763.414 2
2 -6 -4 14789.7 519.428 1
2 -6 -4 14017.3 762.049 3
-2 6 4 13394.3 816.057 4
2 -6 -3 158.053 59.2415 1
-2 6 3 119.438 78.5424 4
2 -6 -3 138.57 52.6324 1
2 -6 -3 171.548 78.8012 3
-2 6 3 138.164 78.5453 2
-2 6 3 64.8046 30.5598 1
2 -6 -3 167.4 89.0224 2
2 -6 -2 5571.68 297.411 1
2 -6 -2 5021.61 418.273 3
-2 6 2 4666.61 364.28 2
-2 6 2 5004.95 462.12 4
-2 6 2 4943.08 407.677 2
2 -6 -2 4969.07 314.161 1
-2 6 1 73874.4 1652.22 4
2 -6 -1 72195.3 1505.91 3
-2 6 1 72494 1406.77 2
2 -6 -1 71969.2 1228.4 1
2 -6 -1 77118.1 1129.21 1
-2 6 1 75976.9 1539.37 2
2 -6 0 46368.6 1032.36 1
2 -6 0 45313.4 1157.37 3
-2 6 0 45524.9 1133.38 2
2 -6 0 47896.9 935.455 1
-2 6 0 48544.2 1308.64 4
-2 6 0 45700.9 1155.97 2
2 -6 0 47726.8 1241.76 2
-2 6 -1 513.628 108.458 1
2 -6 1 743.489 130.953 1
-2 6 -1 587.787 148.676 4
2 -6 1 648.444 132.542 3
2 -6 1 501.913 106.552 1
2 -6 1 486.275 122.458 4
2 -6 1 481.268 112.057 2
-2 6 -1 689.096 154.22 2
2 -6 2 2345.07 298.061 2
2 -6 2 2339.72 280.581 4
-2 6 -2 2544.07 265.586 1
2 -6 2 2817.63 268.606 3
-2 6 -2 2720.31 288.575 2
2 -6 2 2769.23 257.004 1
-2 6 -2 2532.52 283.531 4
2 -6 3 18021.8 763.672 4
-2 6 -3 19385.5 775.047 4
2 -6 3 19671.6 737.648 1
2 -6 3 18911.5 683.6 3
-2 6 -3 18371.1 775.561 2
-2 6 -3 18055.6 643.604 3
2 -6 4 6304.19 466.173 4
-2 6 -4 7189.17 480.359 4
2 -6 4 6850.49 463.486 1
-2 6 -4 6721.98 491.463 2
-2 6 -4 6409.83 367.661 3
2 -6 4 7283.05 422.282 3
2 -6 5 13511 554.712 3
-2 6 -5 13534.3 513.974 3
2 -6 5 13225.9 688.529 1
-2 6 -5 13240.9 707.995 2
-2 6 -5 14290.1 696.723 4
-2 6 -6 3019.96 361.552 2
2 -6 6 3101 267.747 3
2 -6 6 3155.83 351.688 1
-2 6 -6 3107.64 233.396 3
-2 6 -6 3496.19 362.983 4
2 -6 6 3412.52 359.052 4
2 -6 7 1059.39 209.404 4
-2 6 -7 1004.25 193.177 4
-2 6 -7 964.503 201.914 2
-2 6 -7 977.684 117.286 3
2 -6 7 722.196 141.113 3
2 -6 7 1043.96 214.328 1
-2 6 -8 1230.51 248.053 2
2 -6 8 1141.02 228.247 4
2 -6 8 952.091 215.334 1
2 -6 9 6633.32 608.952 1
2 -6 9 7503.26 617.041 4
-2 6 -9 6874.07 616.989 2
-2 6 -10 133.691 129.255 2
2 -6 10 702.369 233.756 1
2 -6 10 629.907 191.231 4
2 -6 11 17933.9 1154.32 1
2 -6 11 15968.9 1011.92 4
-2 6 -11 15070.5 1013.28 2
-2 6 -12 0.74506 165.113 2
2 -6 12 630.435 221.667 4
2 -5 -12 319.005 146.08 2
2 -5 -11 1705.75 365.144 2
2 -5 -11 1817.33 327.253 3
-2 5 11 1801.71 429.481 4
-2 5 10 916.282 286.836 4
2 -5 -10 873.625 212.237 3
2 -5 -10 850.049 240.581 2
-2 5 9 13933.5 1036.36 4
2 -5 -9 14322.2 962.389 2
2 -5 -9 14742.2 850.966 3
-2 5 8 45352.3 1769.92 4
-2 5 8 49998.6 1304.66 1
2 -5 -8 47717.1 1659.7 2
2 -5 -8 47290.2 1490.45 3
2 -5 -7 18964.2 912.418 3
2 -5 -7 19254.4 991.324 2
-2 5 7 20126.1 758.11 1
-2 5 7 17655.3 1037.94 4
2 -5 -6 1251.71 233.033 3
-2 5 6 1543.91 190.379 1
2 -5 -6 1327.82 248.717 2
2 -5 -6 775.256 73.3253 1
-2 5 6 1367.91 282.923 4
2 -5 -5 21279.7 605.057 1
2 -5 -5 21269.1 909.27 3
-2 5 5 22967.3 657.886 1
-2 5 5 21305.9 1022.27 4
-2 5 5 22804.1 981.628 2
2 -5 -5 21847.3 945.814 2
-2 5 4 423.875 139.767 4
-2 5 4 458.334 131.61 2
-2 5 4 422.357 78.5555 1
2 -5 -4 404.955 130.135 2
2 -5 -4 355.695 124.121 3
2 -5 -4 843.465 136.312 1
2 -5 -4 453.46 82.6771 1
2 -5 -3 2100.3 264.855 2
2 -5 -3 2044.18 258.063 3
-2 5 3 2173.88 159.422 1
-2 5 3 2051.21 280.563 4
-2 5 3 2124.68 268.294 2
2 -5 -3 2180.7 168.053 1
2 -5 -3 2029.71 166.599 1
-2 5 3 1474.89 185.437 2
2 -5 -2 10483.3 390.557 1
2 -5 -2 11326.6 365.985 1
2 -5 -2 11358.4 579.165 3
-2 5 2 10380.4 591.376 4
-2 5 2 10803.2 565.764 2
-2 5 2 10733.9 529.511 2
-2 5 1 38508.4 1081.94 4
2 -5 -1 39117.6 708.482 1
2 -5 -1 38443.8 1004.97 3
2 -5 -1 38154.6 777.047 1
2 -5 -1 38637.9 1047.01 2
-2 5 1 38802.5 993.61 2
-2 5 1 36284.6 1016.28 2
-2 5 0 53732.2 1215.6 2
2 -5 0 55558.9 1247.07 4
2 -5 0 52808.7 1146.76 3
-2 5 0 54346.8 959.067 1
2 -5 0 55344.1 970.104 1
-2 5 0 54694.1 1230.28 4
2 -5 0 54579.8 905.053 1
2 -5 0 53505.5 1239.09 2
-2 5 0 53105.8 1159 2
-2 5 -1 4829.7 311.363 1
2 -5 1 4976.57 357.119 4
2 -5 1 4373.33 320.009 3
2 -5 1 4695.2 287.653 1
-2 5 -1 4450.43 351.741 2
-2 5 -1 4232.17 308.98 3
2 -5 1 4994.91 390.893 2
-2 5 -1 5179.23 373.537 4
-2 5 -2 4175.14 323.57 4
2 -5 2 4165.76 303.772 3
-2 5 -2 4218.18 302.373 1
-2 5 -2 3880.74 279.195 3
2 -5 2 4358.15 328.766 4
2 -5 2 3722.3 346.909 2
2 -5 2 4175.98 300.19 1
-2 5 -2 3902.72 335.28 2
-2 5 -3 1833.34 215.555 4
2 -5 3 1692.66 217.082 4
-2 5 -3 1967.68 243.194 2
-2 5 -3 2274.45 208.366 3
2 -5 3 2017.5 203.052 3
2 -5 3 2048.54 226.535 1
2 -5 3 1455.19 234.326 2
-2 5 -3 1918.57 220.996 1
2 -5 4 131.598 73.3325 4
-2 5 -4 125.427 58.8634 4
-2 5 -4 100.176 67.6183 2
2 -5 4 122.631 61.6958 1
-2 5 -4 96.1382 40.9504 3
2 -5 4 233.205 77.7548 3
-2 5 -5 15586.1 742.855 2
-2 5 -5 16391.9 512.085 3
2 -5 5 16504.7 706.285 4
2 -5 5 16530.6 585.89 3
-2 5 -5 16918.6 715.322 4
2 -5 5 15361.1 700.838 4
2 -5 5 15840.4 733.321 1
-2 5 -6 1018.13 183.505 4
2 -5 6 1022.92 191.167 4
-2 5 -6 845.135 190.616 2
-2 5 -6 788.444 109.391 3
2 -5 6 768.351 134.806 3
2 -5 6 640.853 133.567 1
2 -5 7 23.7766 38.8074 4
-2 5 -7 -6.8647 48.3297 2
2 -5 7 1.82168 34.228 1
-2 5 -7 25.3336 27.4349 3
-2 5 -8 927.2 120.984 3
-2 5 -8 796.549 172.066 2
2 -5 8 1254.02 233.911 4
2 -5 8 884.661 181.152 1
2 -5 9 2502.73 354.772 4
-2 5 -9 2222.06 340.318 2
2 -5 9 2639.93 403.481 1
2 -5 10 2947.65 403.897 4
2 -5 10 3502.93 490.347 1
2 -5 11 243.8 135.544 4
-2 5 -11 239.789 148.178 2
-2 5 -12 1190 311.233 2
2 -5 12 1093.23 263.507 4
2 -5 13 3362.73 525.773 4
2 -4 -12 154.23 111.09 2
-2 4 11 226.639 158.002 4
2 -4 -11 272.465 139.504 2
2 -4 -11 211.563 75.0866 3
2 -4 -10 2255.17 325.526 3
2 -4 -10 2296.46 393.675 2
-2 4 10 2219.49 413.075 4
2 -4 -9 6891.37 551.494 3
-2 4 9 6637.11 689.136 4
2 -4 -9 6741.54 644.991 2
-2 4 9 7231.01 527.781 1
-2 4 8 13172.9 650.714 1
2 -4 -8 13685.7 747.992 3
2 -4 -8 13051.2 841.578 2
-2 4 8 10844.3 800.938 4
-2 4 7 1423.02 275.699 4
-2 4 7 1858.05 222.79 1
2 -4 -7 1680.52 188.265 1
2 -4 -7 1733.84 290.977 2
2 -4 -7 1739.18 262.442 3
-2 4 6 7387.18 403.046 1
2 -4 -6 6706.93 526.282 2
2 -4 -6 7354.89 513.797 3
2 -4 -6 6858.23 343.189 1
-2 4 6 6609.06 557.409 4
2 -4 -5 325.149 107.901 2
-2 4 5 315.737 126.209 4
-2 4 5 422.408 82.8292 1
2 -4 -5 335.109 103.138 3
2 -4 -5 169.858 29.0694 1
2 -4 -4 3518.81 325.943 3
2 -4 -4 3816.05 210.487 1
-2 4 4 3411.69 358.931 4
2 -4 -4 3319.87 332.068 2
-2 4 4 3648.2 209.053 1
-2 4 4 3896.21 365.155 2
2 -4 -3 23489.6 467.923 1
2 -4 -3 25479.3 827.145 3
-2 4 3 25819.1 801.45 2
-2 4 3 26538.6 473.466 1
-2 4 3 27055 899.647 2
2 -4 -3 26314.9 486.592 1
2 -4 -3 26618.7 889.69 2
-2 4 3 26232.3 918.559 4
-2 4 2 67131.5 1349.58 4
-2 4 2 67657.2 1246.32 2
2 -4 -2 64174 706.495 1
-2 4 2 56767.5 1152.16 3
2 -4 -2 66064.4 1252.43 3
2 -4 -2 63362.2 1335.63 4
2 -4 -2 68363.5 1351.51 2
2 -4 -2 58058 739.23 1
-2 4 2 67445.8 1337.61 2
2 -4 -1 25419.6 476.082 1
-2 4 1 25962.7 780.78 4
-2 4 1 25567.8 733.795 3
-2 4 1 25640.4 763.733 2
2 -4 -1 26025.2 535.512 1
-2 4 1 25515.7 794.74 2
2 -4 -1 25342.3 796.502 2
2 -4 -1 26020.6 778.86 4
2 -4 -1 25952.1 760.706 3
-2 4 0 13502 531.819 4
2 -4 0 12841.1 587.693 2
2 -4 0 13408.1 395.435 1
2 -4 0 12742.3 517.849 3
-2 4 0 14552.1 528.868 3
2 -4 0 13523.8 539.76 4
-2 4 0 13514.9 551.234 2
-2 4 0 14200 591.301 2
-2 4 0 13917 422.167 1
2 -4 1 58165.5 1047.9 4
2 -4 1 58593.9 1069.97 3
-2 4 -1 59608.5 1021.17 3
-2 4 -1 57690.6 1055.01 4
-2 4 -1 57850.2 939.353 1
2 -4 1 58546.7 1260.3 2
2 -4 1 56782.8 933.89 1
-2 4 -1 58176.6 1198.93 2
2 -4 2 27380.6 721.804 3
-2 4 -2 26732.2 655.832 3
2 -4 2 28127.8 737.142 4
-2 4 -2 25119.1 812.991 2
-2 4 -2 27078.7 706.001 4
2 -4 2 24546.2 682.828 1
2 -4 2 25549.8 849.578 2
-2 4 -2 27922.5 719.019 1
2 -4 3 17903 610.768 4
-2 4 -3 16807.5 570.706 4
-2 4 -3 17385.3 624.745 1
-2 4 -3 17401.8 517.142 3
2 -4 3 17514.8 569.239 3
-2 4 -3 17510.9 706.788 2
2 -4 3 17324.1 630.668 1
2 -4 3 14873.9 703.463 2
-2 4 -4 32559.5 863.863 4
2 -4 4 30553.9 847.132 4
-2 4 -4 29947.7 887.383 1
-2 4 -4 31299.8 683.772 3
2 -4 4 32178 776.211 3
2 -4 4 31365.3 850.161 4
2 -4 4 30860.2 933.833 1
-2 4 -4 31194.7 980.509 2
2 -4 5 30594.8 925.54 4
2 -4 5 31055 908.304 4
-2 4 -5 28665.5 982.605 2
-2 4 -5 30576.2 888.404 4
2 -4 5 29389.9 987.261 1
2 -4 5 29759.7 763.479 3
-2 4 -5 28880.9 651.129 3
2 -4 6 27911.9 921.991 4
-2 4 -6 25791 614.589 3
2 -4 6 26768.6 683.121 3
2 -4 6 27307.4 1025.78 1
-2 4 -6 26399.5 994.535 2
-2 4 -7 6513.5 338.492 3
-2 4 -7 5270.39 263.662 3
2 -4 7 6327.09 535.046 1
2 -4 7 6395.37 480.343 4
-2 4 -7 6180.63 512.239 2
-2 4 -8 812.887 128.787 3
-2 4 -8 440.061 172.748 2
2 -4 8 743.765 249.669 1
2 -4 8 521.016 167.876 4
2 -4 9 946.664 270.142 1
-2 4 -9 348.76 77.3398 2
2 -4 9 692.959 186.138 4
-2 4 -10 910.194 223.267 2
2 -4 10 1107.4 246.413 4
-2 4 -11 1704.68 312.65 2
2 -4 11 2361.59 375.451 4
2 -4 12 1407.77 310.465 4
-2 4 -12 563.727 130.095 2
2 -4 13 1545.04 346.178 4
2 -3 -13 282.146 161.867 2
2 -3 -12 79.9073 38.261 2
-2 3 12 236.384 162.603 4
-2 3 11 376.568 174.948 4
2 -3 -11 385.502 123.858 3
2 -3 -11 285.87 109.093 2
2 -3 -10 -6.51531 49.6208 2
2 -3 -10 8.51184 38.5611 3
-2 3 10 22.3158 21.3659 1
-2 3 10 68.0555 79.4312 4
2 -3 -9 2258.64 289.62 3
2 -3 -9 2088.06 350.641 2
-2 3 9 1974.98 370.925 4
-2 3 9 2299.24 292.985 1
-2 3 8 6780.82 461.36 1
-2 3 8 6032.91 580.699 4
2 -3 -8 5881.6 392.694 1
2 -3 -8 6589 578.213 2
2 -3 -8 6468.55 473.119 3
2 -3 -7 2083.78 209.486 1
2 -3 -7 2138.97 310.326 2
2 -3 -7 2178.45 265.388 3
-2 3 7 2129.51 321.409 4
-2 3 7 2254.39 242.083 1
2 -3 -6 10933.6 569.875 3
2 -3 -6 10925.2 427.33 1
2 -3 -6 10844.7 651.15 2
-2 3 6 11230.5 480.881 1
-2 3 6 10181.7 664.109 4
2 -3 -5 6923.82 435.78 3
2 -3 -5 6870.59 486.598 2
-2 3 5 7747.69 340.348 1
2 -3 -5 7269.62 297.635 1
-2 3 5 7295.73 525.198 4
-2 3 4 20787.8 721.006 2
2 -3 -4 20472.6 707.658 3
-2 3 4 19319.1 678.066 3
-2 3 4 21591.5 469.319 1
2 -3 -4 20809.1 415.522 1
2 -3 -4 21186.8 787.727 2
-2 3 4 20831.2 820.92 4
2 -3 -3 98904.6 1682.67 4
2 -3 -3 93548.4 1424.17 3
-2 3 3 97212.5 1424.31 3
-2 3 3 100478 1495.65 2
-2 3 3 83340.9 683.83 1
2 -3 -3 97416.7 1594.78 2
-2 3 3 98867.1 1602.67 2
-2 3 3 95835.3 1561.39 4
2 -3 -3 77354 647.462 1
-2 3 2 39253.7 896.468 2
-2 3 2 41866.3 889.15 3
2 -3 -2 37776.1 905.842 4
2 -3 -2 39842.8 891.312 3
2 -3 -2 38659.9 950.849 2
-2 3 2 39098.5 909.901 4
-2 3 2 38136.8 943.271 2
-2 3 1 106142 1333.42 4
2 -3 -1 108209 1413.53 3
-2 3 1 104866 820.72 1
-2 3 1 105186 1504.27 2
-2 3 1 106572 1453.44 2
2 -3 -1 105280 778.406 1
2 -3 -1 107666 832.992 1
2 -3 -1 109827 1552.17 2
-2 3 1 108364 1354.22 3
2 -3 -1 112789 1394.15 4
-2 3 0 4545.01 261.494 3
-2 3 0 5490.45 277.041 4
2 -3 0 5096.72 219.511 1
2 -3 0 5555.17 350.185 2
2 -3 0 4878.97 289.199 3
2 -3 0 5807.46 290.007 4
-2 3 0 5458.71 222.742 1
-2 3 0 5044.97 332.03 2
2 -3 1 23549.5 563.194 1
2 -3 1 23984.8 635.157 3
-2 3 -1 24908.8 557.016 4
-2 3 -1 23989.3 589.524 3
2 -3 1 25184.4 557.444 4
2 -3 1 24427.4 757.664 2
-2 3 -1 24975.7 741.882 2
-2 3 -1 24568.4 553.691 1
-2 3 -2 5464.65 263.331 4
2 -3 2 5767.19 309.736 3
2 -3 2 5681.54 317.964 1
2 -3 2 5134.12 364.646 2
-2 3 -2 5750.29 308.845 1
-2 3 -2 5607.48 280.451 3
-2 3 -2 5884.9 377.497 2
2 -3 2 6035.91 286.147 4
2 -3 3 79482.9 1142.62 4
-2 3 -3 78376.2 1069.31 3
-2 3 -3 79167.5 1285.61 1
2 -3 3 78439.6 1338 1
-2 3 -3 72410.1 1076.34 4
2 -3 3 77098.6 1120.53 4
2 -3 3 77759.4 1158.94 3
2 -3 3 71711.8 1442.57 2
-2 3 -3 80571.7 1452.28 2
-2 3 -4 43480.2 1136.91 2
-2 3 -4 40955.5 1024.82 1
-2 3 -4 44440.5 838.669 3
2 -3 4 44379.4 904.584 3
2 -3 4 40817.2 901.849 4
2 -3 4 43088 1112.49 1
2 -3 4 43515.7 967.951 4
2 -3 5 195.923 82.3132 4
-2 3 -5 387.24 100.598 3
-2 3 -5 195.172 101.017 2
2 -3 5 191.14 67.0331 3
2 -3 5 179.55 70.5435 4
2 -3 5 54.171 41.4424 1
2 -3 6 845.846 169.542 4
2 -3 6 848.382 185.758 1
-2 3 -6 930.046 129.514 3
-2 3 -6 789.679 141.1 3
-2 3 -6 859.306 186.983 2
2 -3 6 970.253 171.91 4
-2 3 -7 11107.5 464.45 3
2 -3 7 12491.4 742.233 1
-2 3 -7 12761.4 473.042 3
-2 3 -7 11431.1 683.559 2
2 -3 7 11966 653.821 4
2 -3 8 6741.3 533.474 4
-2 3 -8 5729.78 341.738 3
2 -3 8 7394.96 620.778 1
-2 3 -8 6104.45 528.023 2
-2 3 -8 6800.49 331.607 3
2 -3 9 440.071 149.456 4
-2 3 -9 450.99 92.0551 3
2 -3 10 13987.1 934.762 1
2 -3 10 14086.5 892.44 4
-2 3 -10 12636.2 854.023 2
2 -3 11 1570.67 353.654 1
-2 3 -11 1199.71 258.481 2
2 -3 11 1586.94 331.239 4
2 -3 12 1628.84 372.015 1
2 -3 12 1611.5 342.918 4
2 -3 13 1347.73 332.615 4
2 -2 -13 4735.31 639.271 2
-2 2 13 4853.16 686.405 4
2 -2 -12 1100.68 305.59 2
-2 2 12 862.623 272.003 4
2 -2 -11 -37.6912 67.6046 3
-2 2 11 51.9791 49.7225 1
-2 2 10 -5.17687 50.3366 4
-2 2 10 22.4791 20.0167 1
2 -2 -10 53.2775 36.0927 3
-2 2 9 8484.72 692.286 4
2 -2 -9 8195.64 647.169 2
2 -2 -9 8950.82 535.654 3
-2 2 9 9130.8 565.707 1
2 -2 -8 808.163 147.259 1
-2 2 8 916.778 163.886 1
2 -2 -8 377.012 70.5177 2
2 -2 -8 842.892 152.915 3
-2 2 8 837.138 217.334 4
2 -2 -7 3464.94 301.696 3
2 -2 -7 2881.95 337.356 2
-2 2 7 3364.42 282.351 1
2 -2 -7 3195.5 261.564 1
-2 2 7 3119.29 375.154 4
2 -2 -6 8477.73 372.727 1
2 -2 -6 8669.1 552.936 2
-2 2 6 7472.61 424.645 3
2 -2 -6 8518.52 453.184 3
-2 2 6 8287.95 561.388 4
-2 2 6 8708.57 402.124 1
2 -2 -5 192.625 102.574 2
2 -2 -5 135.255 57.3354 3
-2 2 5 165.827 58.0445 1
2 -2 -5 149.098 48.6618 1
-2 2 5 120.75 53.95 3
-2 2 5 157.061 102.757 4
2 -2 -4 12087.7 565.8 2
-2 2 4 11750.9 516.597 2
2 -2 -4 12129.7 483.183 3
-2 2 4 12381.7 481.803 3
2 -2 -4 11672.1 568.804 4
-2 2 4 11667.2 319.527 1
-2 2 4 11666.5 560.994 4
2 -2 -4 11068 282.733 1
-2 2 3 4923.99 282.506 3
-2 2 3 4633.84 311.829 4
-2 2 3 4456.76 297.304 2
2 -2 -3 4879.16 292.821 3
2 -2 -3 4861.01 326.223 2
2 -2 -3 4726.5 321.712 4
-2 2 2 7660.76 348.602 3
2 -2 -2 7319.03 344.83 3
-2 2 2 7780.63 382.972 2
2 -2 -2 7402.66 359.201 4
-2 2 2 7868.83 409.738 2
2 -2 -2 8656.26 432.959 2
-2 2 2 7060.75 349.822 4
2 -2 -1 2187.93 105.725 1
-2 2 1 2256.02 199.619 2
-2 2 1 2487.85 188.543 3
-2 2 1 2110.29 88.6003 1
2 -2 -1 1928.91 201.781 2
-2 2 1 2459.77 174.538 4
-2 2 1 2001.99 200.998 2
2 -2 -1 2229.77 185.784 3
2 -2 -1 2486.78 186.888 4
-2 2 0 79990.1 767.339 4
2 -2 0 76036.5 756.083 4
-2 2 0 82056.8 1034.91 3
2 -2 0 78106.4 1076.57 3
2 -2 0 81933.8 881.266 1
2 -2 0 84456.3 1279.53 2
-2 2 0 82709.2 1235.93 2
-2 2 0 82074.2 799.967 1
2 -2 1 21586.8 376.062 4
-2 2 -1 20211.8 354.611 4
2 -2 1 22056.7 565.589 1
-2 2 -1 20922.3 498.671 1
-2 2 -1 20612.4 534.188 3
2 -2 1 19810.6 534.394 3
-2 2 -1 21197.6 651.151 2
2 -2 1 18425.3 604.383 2
2 -2 2 20180.6 440.246 4
-2 2 -2 18867.7 412.591 4
2 -2 2 18447.8 548.053 3
-2 2 -2 19915.6 545.19 3
-2 2 -2 19250.5 559.268 1
2 -2 2 21093.3 637.282 1
-2 2 -2 19591.8 646.535 2
2 -2 2 19348.1 426.005 4
2 -2 2 17572.5 650.916 2
2 -2 3 26604.1 865.175 2
-2 2 -3 28781.4 892.292 2
2 -2 3 27124.6 814.616 1
-2 2 -3 26327.4 738.667 1
2 -2 3 27663.6 697.053 3
-2 2 -3 29717.3 707.439 3
2 -2 3 30298.3 682.966 4
-2 2 -3 31137.2 724.722 4
2 -2 3 25309.3 610.696 4
-2 2 -4 45305.7 930.493 3
2 -2 4 41214.6 858.129 3
-2 2 -4 42466.4 1079.49 2
2 -2 4 45331.8 960.704 4
2 -2 4 43879.1 938.716 4
-2 2 -4 42464.4 1023.55 1
-2 2 -4 45153.2 1002.68 4
2 -2 4 42469.4 1092.37 1
2 -2 5 4325.45 347.273 4
-2 2 -5 4172.46 363.233 2
-2 2 -5 4262.76 359.509 4
-2 2 -5 4304.16 307.25 3
2 -2 5 4294.42 379.759 1
2 -2 5 3688.41 304.509 4
-2 2 -5 4092.54 299.61 3
-2 2 -6 343.742 133 2
-2 2 -6 358.406 113.712 3
2 -2 6 543.512 179.285 1
-2 2 -6 325.06 96.3938 3
2 -2 6 323.234 111.585 4
-2 2 -7 40289.1 1264.22 2
-2 2 -7 42516.7 888.278 3
2 -2 7 40844.2 1321.57 1
2 -2 7 40922.3 1223.87 4
2 -2 8 25081.8 1098.07 1
-2 2 -8 23956.2 1030.38 2
-2 2 -8 24775.2 692.229 3
2 -2 8 26399.8 1086.9 4
2 -2 9 5015.94 511.063 4
-2 2 -9 4767.75 492.2 2
-2 2 -9 5413.14 335.368 3
2 -2 9 4774.13 514.988 1
-2 2 -10 13459.2 898.295 2
2 -2 10 14038.9 970.205 1
2 -2 10 14044.4 911.322 4
2 -2 11 2069.64 372.31 4
-2 2 -11 883.683 40.1716 2
2 -2 11 2145.37 407.371 1
-2 2 -12 9160.63 811.557 2
2 -2 12 10118.2 856.709 4
2 -2 12 11186.8 969.462 1
2 -2 13 -551.951 351.802 4
-2 1 13 16.3323 52.0029 4
2 -1 -12 2210.96 354.798 2
-2 1 12 2843.3 471.025 4
-2 1 12 3116.07 407.083 1
-2 1 11 1586.42 334.039 4
-2 1 11 1762.57 290.936 1
2 -1 -11 1720.09 231.33 3
2 -1 -11 1674.52 339.789 2
2 -1 -10 6965.35 648.288 2
2 -1 -10 7089.69 463.131 3
-2 1 10 7063.53 534.917 1
-2 1 10 6892.81 661.118 4
-2 1 9 56.0403 86.8511 4
2 -1 -9 9.04573 22.5879 3
-2 1 9 96.5253 73.6901 1
2 -1 -9 86.5674 94.3907 2
2 -1 -8 29023.7 889.418 1
-2 1 8 28564.4 1178.18 4
2 -1 -8 29967.7 856.721 3
2 -1 -8 30591.4 1156.73 2
-2 1 8 27731.9 861.212 1
2 -1 -7 54.2829 41.7409 3
-2 1 7 73.1576 44.1936 3
-2 1 7 242.651 139.919 4
2 -1 -7 53.2083 38.6771 1
2 -1 -7 93.4073 73.8711 2
-2 1 6 7060.61 368.123 3
2 -1 -6 6532.48 462.482 2
2 -1 -6 6732.69 364.071 3
-2 1 6 6421.5 341.765 1
-2 1 6 5840.23 459.497 4
2 -1 -6 6366.81 333.779 1
-2 1 5 2308.45 277.599 4
2 -1 -5 2343.45 176.333 1
-2 1 5 2362.87 199.68 3
2 -1 -5 1956.39 227.506 2
2 -1 -5 2046.83 264.122 4
-2 1 5 2420.45 181.782 1
2 -1 -5 2170.75 195.18 3
-2 1 5 2136.7 239.204 2
2 -1 -4 2066.68 187.034 3
2 -1 -4 2287.02 254.689 2
-2 1 4 2191.11 180.346 3
-2 1 4 2013.39 131.296 1
-2 1 4 1941.55 208.255 2
2 -1 -4 2056.19 235.348 4
2 -1 -4 1952.07 132.324 1
-2 1 4 2479.14 265.771 4
2 -1 -3 99375.3 749.61 1
-2 1 3 91113.5 661.172 1
-2 1 3 101856 1139.78 3
2 -1 -3 108720 1486.26 2
-2 1 3 104343 1370.9 2
2 -1 -3 104206 1218.1 3
-2 1 3 119278 1459.71 4
2 -1 -3 112827 1434.33 4
-2 1 2 140003 1281.09 3
2 -1 -2 144007 1320.72 4
2 -1 -2 134345 1338.83 3
-2 1 2 137483 1453.21 2
2 -1 -2 134821 1505.29 2
-2 1 2 134868 1504.26 2
-2 1 2 141336 1275.11 4
-2 1 1 85407.6 1102.82 2
2 -1 -1 81133.5 722.548 1
-2 1 1 82322.8 736.583 4
2 -1 -1 82163.5 1039.04 3
-2 1 1 80066.5 692.299 1
2 -1 -1 88167.7 1164.07 2
-2 1 1 85783.9 1018.7 3
-2 1 1 85696.6 1141.07 2
2 -1 -1 80269.8 718.904 4
-2 1 0 184578 1312.29 1
-2 1 0 189116 1705.45 2
-2 1 0 196506 1587.26 3
2 -1 0 181303 1593.68 3
2 -1 0 195947 1787.58 2
2 -1 0 188778 1402.82 1
2 -1 1 45038.2 438.959 4
-2 1 -1 43875.2 865.884 2
-2 1 -1 45956.3 794.493 1
-2 1 -1 44912.8 448.457 4
2 -1 1 44865.4 893.243 2
2 -1 1 43405.3 782.797 1
2 -1 1 46176.4 863.007 3
2 -1 1 42321.7 430.694 4
2 -1 2 37624.8 821.864 1
2 -1 2 40728.8 918.293 2
-2 1 -2 41807.6 641.856 4
2 -1 2 38457.7 811.372 3
-2 1 -2 44933.9 898.36 3
2 -1 2 38930.8 617.319 4
-2 1 -2 42217.5 881.254 1
-2 1 -2 41586.3 898.208 2
-2 1 -3 46005.7 1006.74 2
2 -1 3 46022.8 842.036 4
-2 1 -3 48897.2 1037.55 1
2 -1 3 45280.2 1010.42 1
-2 1 -3 49221.2 884.504 4
2 -1 3 48575.2 1107.57 2
-2 1 -3 51778.7 1057.03 3
-2 1 -4 18621.2 681.39 3
2 -1 4 16735 746.553 2
-2 1 -4 17868.6 695.173 2
2 -1 4 17598.6 705.051 1
2 -1 4 19739.5 664.839 4
-2 1 -4 18143.9 616.14 3
-2 1 -4 16620.8 673.681 1
-2 1 -4 18010.6 643.545 4
-2 1 -5 10766.4 560.482 4
-2 1 -5 10357.5 567.485 2
-2 1 -5 8954.41 514.789 3
-2 1 -5 10815.5 475.823 3
2 -1 5 11367.9 569.821 4
2 -1 5 9778.96 565.371 1
2 -1 6 20431.9 832.538 4
-2 1 -6 20399.2 644.505 3
-2 1 -6 17754.3 746.761 3
-2 1 -6 19976.5 825.598 2
2 -1 6 19508.4 871.029 1
2 -1 7 351.776 133.083 1
2 -1 7 362.242 113.841 4
-2 1 -7 307.672 79.9342 3
-2 1 -7 -57.4273 159.354 2
-2 1 -7 325.735 108.565 3
-2 1 -8 1938.37 300.842 2
2 -1 8 2174.78 345.501 1
2 -1 8 2289.96 333.139 4
-2 1 -8 2079.24 221.715 3
-2 1 -9 15212 617.657 3
-2 1 -9 14145.5 857.147 2
2 -1 9 14831.5 942.381 1
2 -1 9 14500.8 885.539 4
-2 1 -10 2873.49 371.687 2
2 -1 10 3210.58 425.534 4
2 -1 10 4084.45 532.087 1
-2 1 -11 7502.17 691.503 2
2 -1 11 8881.97 817.021 1
2 -1 11 8584.96 756.101 4
2 -1 12 475.327 171.568 4
2 -1 12 407.03 163.953 1
2 -1 13 1047 315.498 4
-2 0 14 4913.22 681.344 4
2 0 -14 4563.52 609.62 2
-2 0 13 1900.23 398.13 4
2 0 -13 1896.15 394.519 2
-2 0 13 1951.47 339.487 1
-2 0 12 879.965 263.248 4
-2 0 12 814.574 202.857 1
2 0 -11 2210.57 348.66 2
-2 0 11 2704.32 428.317 4
2 0 -11 2069.24 208.097 3
2 0 -10 3645.05 445.013 2
-2 0 10 4806.61 445.198 1
-2 0 10 3870.81 492.411 4
2 0 -10 3856.79 310.824 3
-2 0 9 21581.8 851.136 1
2 0 -9 22176.8 701.182 3
-2 0 9 19124 675.312 3
-2 0 9 19848.3 1003.59 4
2 0 -9 21069.2 984.757 2
2 0 -8 11872.1 578.281 1
-2 0 8 13172.7 624.936 1
-2 0 8 11191.8 467.938 3
2 0 -8 11284.1 675.338 2
-2 0 8 11627.6 722.549 4
2 0 -8 12325.3 492.883 3
2 0 -7 556.595 147.432 1
2 0 -7 414.032 155.977 2
-2 0 7 527.562 193.593 4
-2 0 7 340.004 103.411 1
2 0 -7 433.284 104.859 3
-2 0 7 439.396 105.275 3
2 0 -6 3725.48 272.552 1
-2 0 6 4150.33 392.911 4
-2 0 6 4444.26 257.019 3
-2 0 6 4076.14 276.442 1
2 0 -6 4029.61 357.783 2
2 0 -6 3953.56 252.685 3
2 0 -5 -29.7061 63.2137 2
2 0 -5 12.7841 7.37162 1
2 0 -5 -58.3117 51.493 3
2 0 -5 -46.203 104.162 4
-2 0 5 -30.2397 69.4296 2
-2 0 5 19.3123 29.8024 4
-2 0 4 16413.5 580.533 4
-2 0 4 16805.6 558.312 2
2 0 -4 17161.8 612.972 4
2 0 -4 17424.9 605.394 2
-2 0 4 18736.1 440.379 3
2 0 -4 16324.5 448.801 3
-2 0 4 16690.5 596.812 4
2 0 -4 17967.9 453.489 1
-2 0 4 16639.8 403.048 1
-2 0 3 166606 1608.39 2
-2 0 3 164116 1291.04 3
2 0 -3 159292 1615.41 2
-2 0 3 156113 1105.6 1
-2 0 3 164608 1194.58 1
2 0 -3 166315 1651.28 4
-2 0 3 157891 1581.9 4
-2 0 3 161271 1569.55 4
2 0 -3 159186 1212.89 1
-2 0 2 113546 1103.26 4
-2 0 2 118505 1000.45 1
2 0 -2 114912 966.827 1
-2 0 2 121460 1144.2 4
2 0 -2 116142 1271.03 2
2 0 -2 116071 1183.15 3
-2 0 2 119432 1153.9 3
-2 0 2 114868 956.356 1
-2 0 2 113537 1260.4 2
-2 0 2 117225 1220.32 2
2 0 -2 121534 1182.27 4
-2 0 1 97776.2 786.895 4
2 0 -1 93147.8 977.183 1
-2 0 1 101175 1148.37 3
2 0 -1 98981.5 1148.47 3
-2 0 1 99689.9 1080.29 2
-2 0 1 97431 992.871 1
2 0 -1 101704 1127.17 2
-2 0 1 97190.3 1100.09 2
2 0 -1 94501.1 769.96 4
-2 0 1 96882.7 791.799 4
2 0 0 44858.5 772.549 1
-2 0 0 45262.1 492.931 4
-2 0 0 45732.3 764.073 2
2 0 0 47198.7 504.468 4
-2 0 0 49543.9 880.504 3
2 0 0 48495.9 808.403 2
2 0 0 45984.9 824.078 3
-2 0 0 45280.6 770.199 1
2 0 1 39058.9 586.686 4
2 0 1 40061 827.629 3
-2 0 -1 39204.4 752.167 2
-2 0 -1 41267.4 812.851 1
2 0 1 40648.1 831.884 1
-2 0 -1 39623.4 836.892 3
2 0 1 40531.3 804.61 2
-2 0 -1 40577.1 584.676 4
-2 0 -2 157744 1641.39 2
-2 0 -2 160239 1849.6 3
-2 0 -2 167781 1777.74 3
2 0 2 163215 1773.68 2
2 0 2 162836 1851.84 1
-2 0 -2 163543 1469.12 4
-2 0 -2 155767 1725.89 1
2 0 2 153906 1449.95 4
-2 0 -3 138234 1658.5 3
2 0 3 135868 1814.09 2
-2 0 -3 141457 1713.2 2
2 0 3 139061 1612.93 4
-2 0 -3 142238 1877.74 3
-2 0 -3 142705 1849.45 1
-2 0 -3 141689 1646.33 4
2 0 3 139717 1889.28 1
-2 0 -4 7823.52 411.852 3
2 0 4 7792.52 435.527 4
-2 0 -4 7554.11 468.233 3
2 0 4 7700.48 491.805 1
-2 0 -4 7710.01 439.132 2
2 0 4 6902.61 457.174 2
-2 0 -4 8455.25 474.296 4
-2 0 -4 8097.3 494.548 1
2 0 5 497.789 104.904 4
-2 0 -5 437.513 104.79 2
-2 0 -5 762.061 138.077 3
2 0 5 591.778 149.735 1
-2 0 -5 589.071 138.946 4
-2 0 -5 616.251 143.981 3
-2 0 -6 7567.37 526.087 3
-2 0 -6 9145.33 464.437 3
2 0 6 8938.11 614.873 1
2 0 6 8544.39 554.279 4
-2 0 -6 8093.03 521.806 2
-2 0 -7 56138 1481.21 2
-2 0 -7 59448.3 1224.87 3
2 0 7 57831.9 1655.19 1
2 0 7 56990.5 1550.61 4
2 0 8 49.6027 64.0556 1
2 0 8 -81.8461 134.376 4
-2 0 -8 55.5579 32.3566 3
-2 0 -8 -77.7318 116.658 2
-2 0 -9 270.945 87.1087 3
2 0 9 266 97.3066 4
2 0 9 229.289 105.377 1
2 0 10 58.3714 42.4369 4
2 0 10 115.134 94.7299 1
2 0 11 388.408 165.554 1
-2 0 -11 53.3596 173.788 2
2 0 11 319.405 124.028 4
-2 0 -12 38.336 8.85002 2
2 0 12 -17.3699 113.227 1
2 0 12 106.525 111.59 4
-2 -1 14 7.27302 38.5031 1
-2 -1 14 8.89339 29.4446 4
2 1 -13 1301.51 267.068 2
-2 -1 13 1451.71 342.693 4
2 1 -12 -317.144 223.978 2
-2 -1 12 22.3644 29.4048 4
-2 -1 11 242.973 135.572 4
2 1 -11 101.391 108.426 2
2 1 -10 5054.53 497.18 2
2 1 -10 5372.94 309.768 3
-2 -1 10 6462.3 596.7 4
-2 -1 10 6431.94 519.109 1
2 1 -9 2031.47 284.001 2
2 1 -9 2369.68 186.791 3
-2 -1 9 2557.45 358.894 4
-2 -1 9 3291.26 246.249 3
-2 -1 9 2908.96 302.824 1
-2 -1 8 36996.6 1018.54 1
2 1 -8 36299.1 1166.21 2
-2 -1 8 36654.5 717.831 3
2 1 -8 37758.1 758.123 3
-2 -1 8 37320.1 1268.89 4
2 1 -7 58959.6 884.991 3
-2 -1 7 60824.4 850.378 3
2 1 -7 58726.1 1376.77 2
2 1 -7 61873.4 1260.09 1
-2 -1 7 59847.5 1164.5 1
-2 -1 7 61034.1 1507.51 4
2 1 -6 49801.5 1169.51 2
-2 -1 6 50054.5 982.208 1
-2 -1 6 50871.5 703.435 3
2 1 -6 47953.2 751.654 3
2 1 -6 50275.8 1048.84 1
-2 -1 6 50208.8 1254.18 4
-2 -1 5 71966.4 1052.28 1
-2 -1 5 76789.7 812.159 3
-2 -1 5 71861.6 1421.9 4
-2 -1 5 75221 1276.48 2
2 1 -5 66498 849.032 3
2 1 -5 66686.7 1244.73 2
2 1 -5 72459.7 1146.88 1
-2 -1 5 72284 1371.97 4
2 1 -5 71023.5 1458.72 4
-2 -1 4 234208 1992.44 2
2 1 -4 234435 2079.35 2
-2 -1 4 238906 1437.54 3
2 1 -4 230183 1594.86 3
-2 -1 4 228424 2164.99 4
2 1 -4 234193 2266.35 4
2 1 -4 230708 2171.14 4
-2 -1 4 232940 2232.89 4
-2 -1 4 230065 1723.36 1
-2 -1 3 992890 3601.18 2
-2 -1 3 929072 3065.24 3
-2 -1 3 989781 3617.65 1
2 1 -3 916464 3333.94 3
2 1 -3 974662 4078.76 4
2 1 -3 989522 3701.54 1
2 1 -3 901503 3613.33 2
-2 -1 3 898955 3347.95 1
-2 -1 3 976366 4094.75 4
-2 -1 2 19954.7 506.134 4
2 1 -2 19967.1 502.441 1
-2 -1 2 22066.4 536.968 3
2 1 -2 17877 439.45 2
2 1 -2 20293.1 520.662 3
2 1 -2 19801.8 502.187 4
-2 -1 2 20955 518.625 1
-2 -1 2 19625.6 501.579 1
-2 -1 2 19921.9 453.922 2
-2 -1 1 28123.5 567.147 4
-2 -1 1 29067.4 648.08 1
-2 -1 1 27535 504.365 2
-2 -1 1 29621.6 663.069 3
2 1 -1 28061.9 652.505 3
2 1 -1 26592.7 616.027 1
2 1 -1 27643.2 517.755 2
-2 -1 1 27172.4 516.05 2
2 1 -1 26633.1 542.339 4
-2 -1 0 3644.56 195.887 2
-2 -1 0 3762.72 253.863 1
2 1 0 3600.2 201.36 2
-2 -1 0 3703.76 265.705 3
2 1 0 3650.85 210.361 4
2 1 0 3436.48 245.276 1
-2 -1 0 3391.67 215.194 4
2 1 1 11.6538 14.2821 2
2 1 1 10.871 1.49889 4
-2 -1 -1 6.30877 11.8023 2
2 1 1 57.8504 36.1442 1
-2 -1 -1 9.46995 12.433 1
-2 -1 -1 8.92214 17.8159 3
-2 -1 -1 11.9927 16.4381 4
2 1 2 28842.1 724.546 2
-2 -1 -2 28496.6 728.676 4
-2 -1 -2 28210.2 663.537 2
2 1 2 29108.1 744.46 4
2 1 2 28210.9 821.019 1
-2 -1 -2 28336.5 756.15 3
-2 -1 -2 27329.6 792.315 1
2 1 3 67549.9 1265.77 2
2 1 3 66362.8 1396.07 1
-2 -1 -3 70139.5 1256.15 3
-2 -1 -3 69560.8 1335.99 1
-2 -1 -3 71014.4 1186.7 2
2 1 3 69812.2 1293.67 4
2 1 4 707.833 152.564 2
-2 -1 -4 723.503 129.701 3
-2 -1 -4 673.36 120.505 2
2 1 4 762.081 148.653 4
2 1 4 764.027 164.512 1
-2 -1 -4 846.767 166.99 4
2 1 5 14622.3 754.818 1
-2 -1 -5 14426.8 603.089 3
2 1 5 14260.8 714.127 4
-2 -1 -5 14188.9 639.297 2
2 1 6 3622.5 390.07 4
2 1 6 3645.64 400.235 1
-2 -1 -6 3286.93 330.198 2
-2 -1 -6 3643.11 314.787 3
2 1 7 12547.1 788.177 4
-2 -1 -7 12148 598.807 3
2 1 7 12455.5 800.106 1
-2 -1 -7 11709.4 685.045 2
-2 -1 -8 1830.48 250.486 3
-2 -1 -8 1508.05 254.548 2
2 1 8 1810.58 328.142 4
2 1 8 1794.68 329.288 1
2 1 9 1049.71 280.952 1
-2 -1 -9 756.729 184.351 2
-2 -1 -9 902.489 181.789 3
2 1 9 942.919 263.798 4
-2 -1 -10 1400.49 226.754 3
2 1 10 1500.55 328.384 4
-2 -1 -10 1298.41 277.674 2
2 1 10 1510 331.928 1
-2 -1 -11 4.72891 47.946 2
2 1 11 -153.059 152.72 1
2 1 11 82.8701 114.656 4
2 1 12 139.513 154.879 4
-2 -1 -12 -420.858 276.169 2
2 1 12 -114.211 151.945 1
-2 -2 15 1765.49 365.104 1
-2 -2 14 -5.85217 45.051 4
2 2 -14 -187.136 182.593 2
-2 -2 13 2510.43 442.993 4
2 2 -13 1578.94 284.06 2
2 2 -12 11280.3 830.362 2
-2 -2 12 12140.1 903.257 4
-2 -2 11 -47.9154 100.141 1
2 2 -11 -58.0119 154.112 2
-2 -2 11 88.4751 65.1585 4
2 2 -10 -11.5164 49.5629 2
2 2 -10 14.6456 16.4292 3
-2 -2 10 -77.8728 80.149 1
-2 -2 10 -3.73525 36.3063 4
-2 -2 9 1955.45 316.646 4
2 2 -9 1261.19 108.936 3
2 2 -9 1588.4 238.775 2
-2 -2 9 1995.84 253.765 1
2 2 -8 10.2451 60.1717 2
-2 -2 8 63.6709 42.0289 3
-2 -2 8 295.068 114.745 1
2 2 -8 87.078 35.3303 3
-2 -2 8 368.743 167.952 4
-2 -2 7 13048 569.986 1
2 2 -7 12509.1 618.476 2
2 2 -7 7895.1 265.997 3
2 2 -7 12323 604.394 1
-2 -2 7 12052.9 660.725 4
-2 -2 7 8286.89 235.136 3
-2 -2 6 42128.3 939.422 1
2 2 -6 42465.1 1041.85 2
-2 -2 6 37143 475.079 3
-2 -2 6 40996.1 1134.8 4
-2 -2 6 43694.3 1081.19 2
2 2 -6 37296.5 600.48 3
2 2 -6 40178.7 1002.01 1
-2 -2 5 2729.04 225.559 1
2 2 -5 2661.86 237.51 2
-2 -2 5 2358.14 254.954 4
-2 -2 5 2402.41 130.811 3
2 2 -5 2639.58 271.905 4
-2 -2 5 2509.65 227.813 2
2 2 -5 2295.34 155.88 3
-2 -2 5 2531.48 269.267 4
2 2 -5 2665.2 245.22 1
2 2 -4 12690.7 543.286 4
-2 -2 4 13465 474.175 1
-2 -2 4 12587.8 532.275 4
2 2 -4 13492.1 468.75 2
-2 -2 4 13352.9 374.711 3
2 2 -4 13108.8 389.086 3
-2 -2 4 12367.6 530.634 4
-2 -2 4 12884.7 481.409 1
-2 -2 4 13696.2 466.181 2
2 2 -4 11964.2 495.105 1
-2 -2 3 3990.57 225.853 3
-2 -2 3 3867.63 273.063 4
2 2 -3 3705.43 272.885 4
-2 -2 3 4068.17 263.296 1
-2 -2 3 3974.05 207.734 2
2 2 -3 3585.94 207.846 2
-2 -2 3 3881.97 257.898 1
2 2 -3 3986.97 268.624 1
2 2 -3 4087.66 256.789 1
-2 -2 2 80784 1142.56 3
2 2 -2 72294.4 1120.45 4
2 2 -2 75081.8 1149.59 1
-2 -2 2 78993.6 1081.33 3
-2 -2 2 78707 1170.27 1
-2 -2 2 74873.8 1149.33 4
-2 -2 2 78401.3 773.204 2
-2 -2 2 76982.3 1152.94 1
2 2 -2 71178.1 770.468 2
-2 -2 1 681.383 111.334 3
-2 -2 1 561.905 111.089 1
-2 -2 1 638.284 63.8775 2
2 2 -1 615.827 112.491 1
2 2 -1 572.344 61.0875 2
2 2 -1 572.129 105.006 4
-2 -2 1 661.051 66.8456 2
-2 -2 1 567.113 106.758 4
2 2 0 1162.55 149.265 4
2 2 0 1352.5 177.362 3
2 2 0 1222.8 166.094 1
-2 -2 0 1221.12 169.442 1
2 2 0 1396.58 105.37 2
-2 -2 0 1430.16 167.612 3
-2 -2 0 1557.87 107.529 2
-2 -2 0 1255.33 156.507 4
2 2 1 26569.5 755.551 4
-2 -2 -1 26996.4 765.538 3
2 2 1 27137.3 850.854 3
-2 -2 -1 25972.6 795.724 1
-2 -2 -1 26925.8 528.588 2
2 2 1 26828.9 584.405 2
2 2 1 24306.9 753.036 1
-2 -2 -1 26775.2 750.787 4
2 2 2 64305.2 1066.16 2
2 2 2 61767.7 1311.59 1
2 2 2 66320.7 1451.94 3
-2 -2 -2 65888.6 1216.46 3
2 2 2 66194.7 1290.4 4
-2 -2 -2 64978.9 1273.22 4
-2 -2 -2 62411.6 958.538 2
-2 -2 -2 65846.1 1317.99 1
2 2 3 44324.5 1032.37 2
2 2 3 44994.1 1195.9 1
2 2 3 46330.3 1194.32 4
-2 -2 -3 44861.1 925.905 2
2 2 3 42011.6 1231.76 3
-2 -2 -3 42178.8 1130.77 1
-2 -2 -3 44108.8 1040.61 3
-2 -2 -3 44663 1160.37 4
-2 -2 -4 10892.7 540.729 3
2 2 4 12188.9 659.088 4
-2 -2 -4 10930.6 515.645 2
2 2 4 10999.6 574.906 2
2 2 4 11877.5 660.73 1
2 2 5 8938.55 611.358 1
-2 -2 -5 8143.91 489.572 3
-2 -2 -5 8039.4 482.283 2
2 2 5 9138.55 607.705 4
2 2 6 3504.68 424.129 1
-2 -2 -6 3744.1 344.736 3
-2 -2 -6 3134.61 318.21 2
2 2 6 3554.93 419.32 4
2 2 7 12446 815.891 1
-2 -2 -7 12598.9 706.047 2
-2 -2 -7 13557.4 687.158 3
2 2 7 12323.6 812.079 4
2 2 8 8069.86 703.921 1
-2 -2 -8 7820 598.208 2
-2 -2 -8 7952.63 542.076 3
2 2 8 8502.81 721.583 4
-2 -2 -9 96.0368 91.9258 2
-2 -2 -9 128.131 84.1559 3
2 2 9 152.39 146.961 4
2 2 9 120.001 127.527 1
2 2 10 526.78 66.9468 4
-2 -2 -10 1030.47 210.355 3
2 2 10 1293.54 316.471 1
-2 -2 -10 389.353 133.424 2
2 2 11 683.322 239.196 4
-2 -2 -11 650.674 210.519 2
2 2 11 721.36 240.721 1
-2 -2 -12 -792.122 319.043 2
-2 -3 15 2233.84 467.097 1
2 3 -14 718.092 160.113 2
-2 -3 14 868.546 259.045 4
-2 -3 13 2680.5 400.535 1
-2 -3 13 2175.19 407.475 4
2 3 -12 28.9929 59.203 2
-2 -3 12 -16.6289 30.3333 4
-2 -3 12 -116.617 115.365 1
-2 -3 11 788.027 217.538 4
2 3 -11 402.729 19.0003 2
-2 -3 11 901.214 202.597 1
2 3 -10 959.8 218.986 2
-2 -3 10 1035.7 198.189 1
-2 -3 10 964.484 228.89 4
2 3 -9 425.911 132.313 2
-2 -3 9 453.705 122.909 1
-2 -3 9 504.105 155.465 4
2 3 -8 221.44 130.718 2
-2 -3 8 197.643 100.593 1
-2 -3 8 202.275 111.445 4
2 3 -7 28335.2 1041.33 4
2 3 -7 28269.3 920.877 2
-2 -3 7 28191.2 869.577 1
-2 -3 7 27987.2 1031.75 4
-2 -3 6 15163.3 606.574 1
-2 -3 6 14384.3 608.165 2
2 3 -6 15376.9 731.924 4
2 3 -6 15171.4 611.615 2
-2 -3 6 15135.7 717.284 4
2 3 -6 14490.8 661.85 1
-2 -3 5 25464.9 751.73 1
-2 -3 5 23407.2 851.766 4
-2 -3 5 26652.3 735.249 2
2 3 -5 26311.3 839.77 1
-2 -3 5 24761.9 471.344 3
-2 -3 5 25277.3 774.416 1
-2 -3 5 25700.1 523.672 3
2 3 -5 25915.6 880.781 4
2 3 -5 25807.9 716.697 2
-2 -3 5 24915.9 855.865 4
2 3 -4 40580.4 1040.69 4
2 3 -4 42846.4 797.484 2
-2 -3 4 44713.4 817.958 2
-2 -3 4 43392 717.454 3
-2 -3 4 44208.6 766.136 3
-2 -3 4 40899.1 1042.04 4
-2 -3 4 41174 970.573 1
-2 -3 4 44946 974.401 1
2 3 -4 40189.3 992.578 1
-2 -3 3 621.791 140.216 1
2 3 -3 590.485 92.7727 2
-2 -3 3 592.786 125.93 4
-2 -3 3 873.205 105.374 2
2 3 -3 577.406 135.558 4
-2 -3 3 558.052 120.37 1
-2 -3 3 966.736 138.218 3
2 3 -3 587.303 119.285 1
-2 -3 2 38328.3 929.513 1
-2 -3 2 38052.6 439.524 2
2 3 -2 41436.4 922.665 3
-2 -3 2 40349.5 836.049 3
2 3 -2 41051.5 987.483 4
-2 -3 2 40890 948.543 1
-2 -3 2 40963.1 984.152 4
2 3 -2 40253.2 940.399 1
-2 -3 1 129887 1749.3 4
-2 -3 1 133326 1784.67 1
-2 -3 1 130976 1592.77 3
2 3 -1 133478 1786.18 4
2 3 -1 134011 1780.65 3
-2 -3 0 30533.2 886.657 1
2 3 0 31163.2 888.676 1
-2 -3 0 30314.4 379.744 2
-2 -3 0 29760.7 796.359 3
2 3 0 29084.1 878.814 3
2 3 0 28653.3 425.837 2
2 3 0 31615.6 892.283 4
-2 -3 0 32075.9 892.219 4
2 3 1 2296.24 272.715 4
2 3 1 2572.36 178.167 2
2 3 1 2265.99 274.185 1
-2 -3 -1 2779.4 266.526 3
2 3 1 2244.94 275.976 3
-2 -3 -1 2943.24 178.074 2
-2 -3 -1 2235.36 267.959 4
-2 -3 -1 2328.4 278.373 1
2 3 2 103001 1786.49 1
2 3 2 106267 1368.14 2
-2 -3 -2 102120 1631.39 3
-2 -3 -2 102444 1796.19 1
2 3 2 104693 1818.09 4
-2 -3 -2 103205 1219.88 2
2 3 3 2497.02 321.233 1
2 3 3 2412.26 248.857 2
-2 -3 -3 2346.67 216.794 2
-2 -3 -3 2449.37 273.489 3
2 3 3 2622.57 329.714 4
2 3 4 59.3792 66.9852 4
-2 -3 -4 -63.2935 38.708 2
-2 -3 -4 81.2098 66.2193 3
2 3 4 35.2348 47.7288 2
2 3 4 79.7049 81.6922 1
-2 -3 -5 337.147 123.377 3
2 3 5 226.839 128.34 4
-2 -3 -5 -70.2382 110.676 2
2 3 5 258.622 138.961 1
-2 -3 -6 32400.3 1090.88 3
-2 -3 -6 31929.5 1056.49 2
2 3 6 32572.7 1320.97 4
2 3 6 32975.8 1290.06 1
-2 -3 -7 620.449 166.586 3
2 3 7 659.571 206.868 1
-2 -3 -7 602.572 169.424 2
2 3 7 618.952 209.839 4
-2 -3 -8 15202.3 802.336 3
-2 -3 -8 14028.7 803.668 2
2 3 8 15991.6 1040.63 4
2 3 8 16023.5 1005.52 1
2 3 9 154.034 121.194 4
-2 -3 -9 165.446 84.6851 2
-2 -3 -9 203.157 100.591 3
2 3 9 117.668 109.516 1
-2 -3 -10 1405.81 270.963 3
2 3 10 1466.25 351.796 4
-2 -3 -10 538.057 111.175 2
2 3 10 1500.84 338.686 1
2 3 11 93.2019 63.7249 1
2 3 11 82.2755 57.6224 4
-2 -4 15 1560.25 368.484 1
-2 -4 14 4112.21 527.563 1
-2 -4 14 4283.59 599.388 4
2 4 -14 2844.44 417.237 2
-2 -4 13 89.1999 92.4887 4
2 4 -13 9.38833 16.9017 2
-2 -4 13 -9.02439 84.1977 1
-2 -4 12 270.815 143.832 4
-2 -4 12 15.5654 99.9258 1
-2 -4 11 12064.3 856.518 4
2 4 -11 11677.1 778.199 2
-2 -4 11 11818.9 738.859 1
-2 -4 10 3897.56 398.691 1
-2 -4 10 3970.6 462.65 4
2 4 -10 3758.2 421.062 2
2 4 -9 2273.13 301.231 2
-2 -4 9 2337.43 299.051 1
-2 -4 9 1982.88 285.245 4
2 4 -8 2350.84 332.86 4
-2 -4 8 2389.5 279.941 1
2 4 -8 2245.79 277.063 2
-2 -4 8 2218.66 323.404 4
2 4 -7 2006.79 297.415 4
2 4 -7 1883.99 225.102 2
-2 -4 7 1953.79 284.786 4
-2 -4 7 1931.87 244.184 1
2 4 -6 578.103 172.892 4
-2 -4 6 453.062 62.5414 3
-2 -4 6 607.776 148.148 2
-2 -4 6 567.105 138.48 1
2 4 -6 665.621 137.406 2
-2 -4 6 341.861 80.2304 3
-2 -4 6 516.11 160.849 4
-2 -4 5 885.948 149.953 2
2 4 -5 943.212 189.652 4
2 4 -5 837.852 170.608 1
2 4 -5 891.621 138.031 2
-2 -4 5 802.878 114.682 3
-2 -4 5 927.789 174.407 1
-2 -4 5 851.538 157.405 1
-2 -4 5 863.909 101.881 3
-2 -4 4 17393 762.649 4
2 4 -4 19186.2 776.89 4
-2 -4 4 20185.9 546.8 2
-2 -4 4 19139.2 521.555 3
2 4 -4 18763.1 514.6 2
2 4 -4 18736 754.256 1
-2 -4 4 19799.9 713.511 1
-2 -4 4 19064.7 741.778 1
2 4 -3 1903.18 233.149 3
-2 -4 3 2450.62 242.861 3
2 4 -3 2070.86 144.516 2
-2 -4 3 1780.83 302.256 4
-2 -4 3 2221.48 274.951 1
2 4 -3 2273.96 275.532 1
2 4 -3 1908.59 288.956 4
-2 -4 3 1942.18 163.077 2
-2 -4 3 1962.31 279.029 1
-2 -4 2 53300.7 1267.99 4
-2 -4 2 54425.5 1040.09 3
2 4 -2 54591 1155.23 3
2 4 -2 57422.3 1227.29 1
-2 -4 2 51757 1209.37 1
-2 -4 2 58088.9 1245.09 1
2 4 -2 57032.6 1314.82 4
-2 -4 1 23375.8 851.746 4
-2 -4 1 24238.5 858.28 1
2 4 -1 23782.9 861.422 4
2 4 -1 23683.7 811.377 1
-2 -4 1 22769.1 715.393 3
2 4 0 37453.2 1102.35 4
-2 -4 0 34942.8 1056.69 1
2 4 0 36816 1040.09 1
-2 -4 0 36691.2 1090.34 4
-2 -4 0 36231.9 945.233 3
2 4 1 48.6638 46.8717 1
2 4 1 49.1194 24.0283 2
-2 -4 -1 61.952 54.073 1
-2 -4 -1 42.1615 42.4124 3
-2 -4 -1 -59.2983 43.1487 2
2 4 1 48.1916 53.2349 4
2 4 2 4615.69 286.446 2
-2 -4 -2 4534.44 255.447 2
-2 -4 -2 4619.57 373.106 3
2 4 2 4257.63 412.065 4
2 4 2 4210.56 398.958 1
2 4 3 11892.2 530.244 2
2 4 3 12743 713.302 1
-2 -4 -3 12179.9 484.527 2
2 4 3 12545.9 730.054 4
-2 -4 -3 11796 612.199 3
2 4 4 15520.2 822.294 1
-2 -4 -4 15188.3 611.718 2
-2 -4 -4 15039.6 721.317 3
2 4 4 13975.2 651.759 2
2 4 4 15362.1 858.408 4
2 4 5 2082.46 321.271 1
2 4 5 2175.03 343.102 4
-2 -4 -5 2359.04 276.34 2
-2 -4 -5 2401.93 311.229 3
2 4 6 19545.9 1016.93 1
-2 -4 -6 19121.1 826.875 2
-2 -4 -6 18634.3 880.266 3
2 4 6 19641.6 1079.31 4
2 4 7 -27.6984 65.3402 1
-2 -4 -7 21.6614 12.1147 3
2 4 7 -45.0447 100.249 4
2 4 8 -38.8787 77.1714 1
2 4 8 -105.741 131.943 4
-2 -4 -8 12.0299 25.9419 3
-2 -4 -9 688.67 191.193 3
-2 -4 -9 584.788 119.134 2
2 4 9 617.314 206.652 4
2 4 9 685.356 214.826 1
2 4 10 3381.65 555.526 4
-2 -4 -10 2177.53 329.407 2
2 4 10 3472.32 525.858 1
-2 -4 -10 3285.74 423.166 3
2 5 -14 1416.97 331.452 2
-2 -5 14 789.893 181.702 1
-2 -5 14 1445.57 358.035 4
2 5 -13 2896.19 399.898 2
-2 -5 13 3271.37 412.696 1
-2 -5 13 3987.59 556.99 4
2 5 -12 532.398 233.546 2
-2 -5 12 637.694 214.729 1
-2 -5 12 566.121 260.518 4
-2 -5 11 10131.8 695.617 1
2 5 -11 9468.63 699.323 2
-2 -5 11 9872.71 785.865 4
-2 -5 10 2450.01 341.19 1
-2 -5 10 1864.11 299.073 4
2 5 -10 2374.39 347.499 2
2 5 -9 4742.81 503.334 4
2 5 -9 4110.86 399.663 2
-2 -5 9 4462.72 482.078 4
-2 -5 9 4376.77 416.229 1
-2 -5 8 1492.28 230.208 1
2 5 -8 1166.1 167.98 2
-2 -5 8 1376.7 264.208 4
2 5 -8 1577.68 282.353 4
-2 -5 7 11252.2 610.892 1
2 5 -7 10666.9 550.25 2
-2 -5 7 9282.08 312.577 3
-2 -5 7 10927.9 686.824 4
2 5 -7 11794.4 729.042 4
-2 -5 6 18253.8 757.954 1
-2 -5 6 15919.9 422.503 3
-2 -5 6 16649.9 515.643 3
2 5 -6 18256.2 854.8 4
2 5 -6 17588.8 637.719 2
-2 -5 6 18184 695.754 2
2 5 -5 256.337 137.011 4
-2 -5 5 166.901 92.4091 1
-2 -5 5 354.682 121.361 2
-2 -5 5 408.684 95.4176 3
2 5 -5 81.8046 62.8879 2
-2 -5 4 24958.8 615.258 2
2 5 -4 23097 933.977 4
2 5 -4 23661.4 778.142 3
2 5 -4 21830.5 529.523 2
-2 -5 4 24036 656.026 3
-2 -5 4 24489.3 865.587 1
2 5 -3 1730.79 253.209 4
-2 -5 3 1335.72 212.658 1
-2 -5 3 1740.83 191.047 3
2 5 -3 1520.07 102.961 2
2 5 -3 1679.24 209.851 3
2 5 -3 1631.52 224.527 1
-2 -5 3 1617 226.532 1
-2 -5 3 1628.46 113.956 2
2 5 -2 9836.32 608.193 4
-2 -5 2 10468.8 501.736 3
2 5 -2 9576.44 541.763 1
-2 -5 2 8963.59 566.663 1
-2 -5 2 10095.8 562.525 1
2 5 -2 8114.9 493.889 3
2 5 -1 5106.69 407.701 1
-2 -5 1 5202.23 371.59 3
-2 -5 1 4902.72 420.728 1
2 5 -1 4790.88 432.514 4
2 5 0 20.8454 7.3557 4
-2 -5 0 64.5607 48.9492 3
2 5 0 38.128 29.4148 1
2 5 1 84.0212 68.9457 1
2 5 1 85.9785 75.2584 4
2 5 1 64.9259 30.8834 2
-2 -5 -1 80.3926 70.2738 3
-2 -5 -1 29.8517 15.1036 2
-2 -5 -2 12850.6 662.412 3
2 5 2 14048.6 802.078 4
2 5 2 13931.8 751.637 1
-2 -5 -2 13840.3 461.033 2
2 5 2 13641 484.207 2
2 5 3 7208.95 416.612 2
2 5 3 7590.26 618.305 4
-2 -5 -3 7091.16 523.863 3
-2 -5 -3 7683.47 400.94 2
2 5 3 7343 574.855 1
2 5 4 169.81 77.6267 2
2 5 4 169.773 82.3368 1
-2 -5 -4 198.859 71.3765 2
-2 -5 -4 89.4387 29.8619 3
2 5 4 246.089 133.451 4
2 5 5 18.0587 44.4757 4
-2 -5 -5 48.7042 31.3433 3
-2 -5 -5 26.1787 54.9642 2
2 5 5 59.7317 55.0983 1
2 5 6 614.504 194.287 4
-2 -5 -6 822.057 182.861 2
-2 -5 -6 696.586 184.733 3
2 5 6 707.33 197.022 1
2 5 7 3447.84 469.673 1
-2 -5 -7 3218.79 404.105 3
2 5 7 3218.29 485.111 4
-2 -5 -7 3434.95 401.842 2
2 5 8 529.406 191.371 4
2 5 8 593.671 199.736 1
-2 -5 -8 623.555 183.694 3
-2 -5 -8 -25.563 234.128 2
2 5 9 333.828 161.658 4
-2 -5 -9 339.092 134.231 3
2 5 9 341.096 157.712 1
-2 -5 -10 353.357 140.387 3
-2 -6 14 6320.6 737.108 4
2 6 -14 5962.54 666.507 2
-2 -6 14 4824 546.566 1
2 6 -13 -57.262 183.181 2
-2 -6 13 61.0684 64.1501 4
-2 -6 13 16.6454 71.528 1
-2 -6 12 186.42 90.0169 1
-2 -6 12 212.33 112.411 4
2 6 -12 169.168 91.9939 2
2 6 -11 500.922 177.912 2
-2 -6 11 522.593 169.624 1
-2 -6 10 4896.75 483.253 1
2 6 -10 4989.44 554.368 4
2 6 -10 4729.51 467.985 2
-2 -6 10 4736.67 530.354 4
2 6 -9 2681.7 407.055 4
2 6 -9 1996.77 248.613 2
-2 -6 9 2508.9 325.965 1
-2 -6 9 2552.02 383.367 4
2 6 -8 2351.88 277.804 2
2 6 -8 2737.37 386.751 4
-2 -6 8 1628 97.3012 3
-2 -6 8 2468.66 353.728 4
-2 -6 8 2607.51 324.487 1
2 6 -7 5644.89 398.065 2
-2 -6 7 5674.34 253.656 3
-2 -6 7 4818.59 291.209 3
-2 -6 7 5538.56 456.361 1
2 6 -7 5895.06 539.08 4
2 6 -6 3820.57 428.621 4
-2 -6 6 3811.39 248.871 3
-2 -6 6 3737.65 332.796 2
2 6 -6 3807.05 300.158 2
-2 -6 6 3804.65 381.202 1
2 6 -5 41021.5 1366.57 4
2 6 -5 41990.6 1091.44 3
2 6 -5 40195.9 837.479 2
-2 -6 5 38511.7 861.71 3
-2 -6 5 41472.1 1193.23 1
-2 -6 5 40821.9 929.134 2
2 6 -4 7929.89 587.4 4
2 6 -4 7192.25 465.641 3
-2 -6 4 8192.72 429.327 3
2 6 -4 8061.15 306.628 2
-2 -6 4 8294.54 539.49 1
-2 -6 4 7854.86 331.274 2
2 6 -3 1705.57 281.679 4
-2 -6 3 920.535 77.0175 2
-2 -6 3 2018.9 237.244 3
2 6 -3 1018.07 70.3221 2
-2 -6 3 1719.83 256.307 1
2 6 -3 1596.97 238.835 1
2 6 -2 7548.22 576.119 4
2 6 -2 7692.15 526.88 1
-2 -6 2 7785.26 530.955 1
-2 -6 2 7023.04 453.521 3
-2 -6 1 1201.48 208.265 1
-2 -6 1 1274.25 204.687 3
2 6 -1 1249.08 213.397 1
2 6 -1 1128.05 232.045 4
-2 -6 0 12433.9 651.176 3
2 6 0 13002.5 791.804 4
2 6 0 13077.8 725.81 1
-2 -6 -1 5528.17 455.876 3
2 6 1 3513.6 167.398 2
2 6 1 4439.46 432.734 1
2 6 1 3170.46 161.977 2
-2 -6 -1 3131.45 163.491 2
2 6 1 4373.62 469.659 4
-2 -6 -2 22663.3 940.263 3
2 6 2 22627.3 603.206 2
2 6 2 24608.6 1048.88 1
2 6 2 24271.3 1138.58 4
-2 -6 -2 22866.1 594.591 2
2 6 3 339.806 133.482 4
-2 -6 -3 221.82 69.9385 3
2 6 3 418.766 138.734 1
-2 -6 -3 447.151 81.9527 2
-2 -6 -4 1650.18 214.568 2
2 6 4 1751.3 314.398 1
-2 -6 -4 1270.78 240.001 3
2 6 4 1606.27 320.951 4
-2 -6 -5 12596.6 661.054 2
-2 -6 -5 11595.7 763.871 3
2 6 5 12495.1 860.057 1
2 6 5 12660.9 941.583 4
-2 -6 -6 2945.84 400.431 3
-2 -6 -6 3285.39 374.155 2
2 6 6 3629.15 488.324 1
2 6 6 3422.08 522.961 4
-2 -6 -7 6847.29 628.25 3
2 6 7 6874.78 761.761 4
2 6 7 7158 711.191 1
2 6 8 189.887 171.703 4
-2 -6 -8 162.463 110.704 3
2 6 8 222.312 139.797 1
-2 -6 -9 99.8718 40.4787 3
-2 -7 14 -19.4515 75.7908 4
-2 -7 14 -286.914 201.488 1
2 7 -13 57.0068 47.9643 2
-2 -7 13 -52.3147 88.6575 1
-2 -7 13 15.5265 55.6588 4
-2 -7 12 412.241 86.7558 4
2 7 -12 757.686 212.546 2
-2 -7 12 733.625 196.208 1
-2 -7 11 971.139 231.979 1
-2 -7 11 893.353 255.386 4
2 7 -11 950.079 264.307 4
2 7 -11 760.271 196.325 2
2 7 -10 -12.2716 67.7267 4
2 7 -10 -152.928 143.315 2
-2 -7 10 49.6948 69.476 1
-2 -7 10 16.2052 25.3524 4
2 7 -9 13794.7 921.17 4
-2 -7 9 12390.2 849.837 4
2 7 -9 12242.5 682.369 2
-2 -7 9 12331.7 757.947 1
2 7 -8 40.2686 76.1624 4
2 7 -8 71.3778 59.9885 2
-2 -7 8 101.538 36.9151 3
-2 -7 8 46.4893 30.1178 3
-2 -7 8 108.919 90.8363 1
-2 -7 8 55.9699 76.2301 4
2 7 -7 13578 613.52 2
-2 -7 7 13981.8 479.847 3
2 7 -7 14285.1 879.723 4
-2 -7 7 13677.2 754.032 1
-2 -7 6 88.5579 118.102 1
2 7 -6 29.2157 57.7457 2
2 7 -6 33.8441 42.3758 3
-2 -7 6 71.8313 54.1887 3
-2 -7 6 28.153 49.9609 2
2 7 -6 86.504 85.3575 4
2 7 -5 19194.1 986.933 4
-2 -7 5 17564.4 655.717 3
-2 -7 5 17509.3 609.266 2
2 7 -5 18303.8 548.064 2
-2 -7 5 19211.8 869.424 1
2 7 -4 28359.5 532.973 2
-2 -7 4 28803.4 885.542 3
-2 -7 4 31956.6 1130.72 1
2 7 -4 30761.1 1231.91 4
2 7 -3 338.084 148.64 4
2 7 -3 394.186 143.596 1
-2 -7 3 200.948 93.1668 3
-2 -7 3 371.438 150.244 1
2 7 -2 1666.82 294.133 4
-2 -7 2 1587.64 237.078 3
-2 -7 2 1681.2 264.433 1
2 7 -2 1819.52 271.642 1
-2 -7 1 324.933 134.134 1
2 7 -1 251.009 137.181 4
-2 -7 1 286.06 129.219 3
2 7 -1 384.835 149.185 1
2 7 0 9673.69 667.226 1
-2 -7 0 9525.08 621.928 3
2 7 0 9482.9 752.226 4
-2 -7 0 9899.96 672.936 1
2 7 1 91676.4 2321.68 4
-2 -7 -1 91060.5 1938.44 3
2 7 1 97795.1 2151.96 1
-2 -7 -2 4545.5 458.979 3
-2 -7 -2 3985.26 244.391 2
2 7 2 4061.68 239.036 2
2 7 2 4824.45 557.29 4
2 7 2 4989.79 504.172 1
2 7 3 2566.12 423.514 4
-2 -7 -3 2569.01 359.336 3
-2 -7 -3 2970.27 255.185 2
2 7 3 2787.32 387.833 1
2 7 4 376.922 175.82 4
-2 -7 -4 335.922 144.012 3
2 7 4 354.774 149.062 1
2 7 5 10.9251 20.488 4
-2 -7 -5 28.1428 42.8337 3
2 7 6 22.2871 52.8512 1
-2 -7 -6 36.1296 60.3124 3
2 7 6 6.67279 78.9464 4
2 7 7 232.277 121.37 4
2 7 7 308.451 139.395 1
-2 -7 -7 397.755 161.227 3
-2 -7 -8 5.73627 46.3856 3
2 8 -14 419.061 234.22 2
-2 -8 14 2241.4 455.852 4
-2 -8 13 647.866 199.303 1
2 8 -13 743.498 218.592 2
-2 -8 13 752.729 249.598 4
2 8 -12 -118.16 229.287 4
2 8 -12 122.766 80.226 2
-2 -8 12 101.136 74.5419 1
-2 -8 12 149.823 110.464 4
-2 -8 11 1446.83 296.393 1
2 8 -11 1565.77 352.693 4
2 8 -11 1151.47 247.117 2
-2 -8 11 1424.87 325.609 4
2 8 -10 2459.9 430.495 4
2 8 -10 1797.07 267.346 2
-2 -8 10 2255.18 395.156 4
-2 -8 10 2133.43 344.364 1
2 8 -9 9815.5 810.533 4
2 8 -9 8217.58 550.228 2
-2 -8 9 8799.03 745.12 4
-2 -8 9 9305.54 688.312 1
2 8 -8 151.732 117.432 4
-2 -8 8 43.0152 56.4103 1
-2 -8 8 34.8812 31.3935 3
-2 -8 7 8483.62 428.235 3
2 8 -7 8948.98 737.315 4
2 8 -7 8030.6 462.924 2
-2 -8 7 8465.66 622.439 1
-2 -8 6 301.668 125.266 2
2 8 -6 -27.3078 55.0277 2
2 8 -6 470.529 243.156 4
-2 -8 6 359.21 123.639 3
-2 -8 6 440.42 212.127 1
2 8 -5 1013.2 241.156 4
2 8 -5 1126.09 127.591 2
-2 -8 5 1159.29 190.144 3
-2 -8 5 1008.14 235.353 1
-2 -8 5 1034.14 146.371 2
-2 -8 4 1120.56 210.053 1
2 8 -4 1326.96 293.601 4
-2 -8 4 1065.9 191.199 3
2 8 -4 654.84 61.1005 2
2 8 -4 726.422 79.488 2
-2 -8 4 605.288 73.782 2
2 8 -3 13295.5 884.653 4
2 8 -3 13807.5 790.358 1
-2 -8 3 13080.4 690.894 3
-2 -8 3 13693.6 789.946 1
-2 -8 2 3712.84 386.004 3
-2 -8 2 3713.04 413.237 1
2 8 -2 3626.54 402.626 1
2 8 -2 3517.85 458.081 4
-2 -8 1 299.584 156.038 3
2 8 -1 206.443 142.423 1
2 8 -1 174.308 178.8 4
-2 -8 1 249.653 156.557 1
2 8 0 1687.02 367.434 4
-2 -8 0 1433.68 279.264 3
2 8 0 1571.54 307.547 1
-2 -8 0 1587.62 316.014 1
-2 -8 -1 53.1251 29.0119 1
-2 -8 -1 71.3685 55.6782 3
2 8 1 80.3461 78.5748 4
2 8 1 73.1397 63.8165 1
2 8 2 444.569 147.999 1
-2 -8 -2 414.596 136.656 3
2 8 2 493.171 182.378 4
2 8 3 1104.92 294.493 4
2 8 3 1154 258.32 1
-2 -8 -3 1238.6 263.086 3
2 8 4 72.7872 80.5807 4
-2 -8 -4 16.5622 34.5959 3
2 8 4 25.6268 37.9878 1
2 8 5 3.07005 57.5831 4
-2 -8 -5 43.5284 73.507 3
2 8 5 -10.5984 40.0451 1
2 8 6 9630.8 965.009 4
-2 -8 -6 9574.91 798.835 3
2 9 -13 24.5763 32.4738 2
-2 -9 13 -581.389 326.775 4
2 9 -12 2708.3 492.155 4
-2 -9 12 2559.16 472.025 4
2 9 -12 2285.74 375.554 2
-2 -9 12 2380.32 400.801 1
2 9 -11 22.5063 58.5034 4
2 9 -11 37.9651 59.644 2
-2 -9 11 27.227 25.0857 1
-2 -9 11 4.98716 42.022 4
2 9 -10 2694.39 352.926 2
2 9 -10 2915.52 477.377 4
-2 -9 10 2808.76 453.771 4
-2 -9 10 2779.38 409.929 1
2 9 -9 188.531 108.926 4
-2 -9 9 162.125 101.769 1
-2 -9 9 97.5797 60.5217 4
2 9 -9 -92.1553 116.748 2
2 9 -8 547.27 206.6 4
2 9 -8 337.932 40.4396 2
-2 -9 8 744.89 135.523 3
-2 -9 8 665.556 205.845 1
2 9 -7 2502.03 253.653 2
-2 -9 7 2729.78 271.087 3
-2 -9 7 2577.86 363.746 1
2 9 -7 2641.01 425.142 4
2 9 -6 596.572 195.493 4
-2 -9 6 682.033 189.855 1
2 9 -6 702.584 117.023 2
-2 -9 6 724.906 148.14 3
2 9 -5 5895.22 625.464 4
-2 -9 5 6321.63 465.027 3
-2 -9 5 6046.8 543.206 1
2 9 -4 167.563 94.0017 4
-2 -9 4 319.462 158.44 1
-2 -9 4 207.994 93.8965 3
2 9 -3 2347.16 396.256 4
-2 -9 3 2587.81 358.468 1
-2 -9 3 2180.85 298.504 3
-2 -9 2 3099.53 374.007 3
2 9 -2 3581.69 427.853 1
2 9 -2 3581.39 502.416 4
-2 -9 2 3664.16 436.173 1
2 9 -1 276.686 155.299 4
-2 -9 1 290.177 127.053 3
2 9 -1 298.665 133.053 1
-2 -9 1 343.079 140.057 1
2 9 0 51.9831 47.6239 1
2 9 0 -30.4258 88.4425 4
-2 -9 0 38.6018 16.6422 3
-2 -9 0 70.0009 71.2222 1
2 9 1 1638.73 364.35 4
-2 -9 -1 1311.98 275.291 3
2 9 1 1670.5 309.218 1
-2 -9 -1 1714.15 306.736 1
-2 -9 -2 -12.3695 41.6777 1
-2 -9 -2 -7.53868 47.959 3
2 9 2 37.4008 57.0786 1
2 9 2 -44.1198 78.1633 4
2 9 3 109.604 111.681 4
2 9 3 63.5907 70.7065 1
-2 -9 -3 89.0287 84.1502 3
-2 -9 -3 7.84458 37.9666 1
2 9 4 61.0683 46.2381 1
-2 -9 -4 90.5722 112.21 3
2 9 4 127.669 109.692 4
2 9 5 19.2092 34.2862 4
-2 -9 -5 -21.9468 58.7909 3
2 10 -13 1027.07 344.367 4
-2 -10 13 1168.23 355.9 4
2 10 -12 546.833 232.84 4
-2 -10 12 540.697 236.901 4
2 10 -11 30.0147 39.8211 4
-2 -10 11 -39.0741 91.1155 1
-2 -10 11 -72.6469 127.217 4
2 10 -10 415.316 188.885 4
-2 -10 10 329.69 143.224 1
-2 -10 10 398.94 176.668 4
2 10 -9 -27.3936 68.5847 4
-2 -10 9 27.8559 30.9369 1
2 10 -8 2070.32 406.52 4
-2 -10 8 1931.43 344.656 1
-2 -10 7 12445.7 843.331 1
2 10 -7 12872.9 983.36 4
-2 -10 7 12455.2 646.23 3
2 10 -6 4679.67 600.759 4
-2 -10 6 5064.98 434.124 3
-2 -10 6 4815.56 511.068 1
2 10 -5 19.5103 12.1531 4
-2 -10 5 38.2577 47.9268 3
-2 -10 5 -82.7908 133.131 1
2 10 -4 45.8922 57.0502 4
-2 -10 4 70.863 33.6989 3
-2 -10 3 474.215 151.663 3
2 10 -3 523.432 193.005 4
-2 -10 3 564.087 180.598 1
2 10 -2 179.292 128.677 4
-2 -10 2 113.125 89.0996 3
-2 -10 2 204.2 129.562 1
-2 -10 1 348.654 150.906 1
2 10 -1 238.148 132.418 4
2 10 -1 74.2995 117.46 1
-2 -10 1 220.637 114.577 3
-2 -10 0 1854.37 325.858 3
-2 -10 0 2073.51 347.975 1
2 10 0 1863.54 341.86 1
2 10 0 1843.21 399.603 4
2 10 1 254.767 134.268 1
-2 -10 -1 240.128 125.521 1
-2 -10 -1 269.15 135.797 3
2 10 1 218.295 152.427 4
2 10 2 5072 694.588 4
-2 -10 -2 4105.28 514.613 3
2 10 2 3994.15 473.154 1
-2 -10 -2 5248.46 575.694 1
2 10 3 -61.4295 113.599 4
-2 -10 -3 54.1319 55.8632 3
2 10 3 9.31059 32.6361 1
2 11 -12 -8.21705 74.5179 4
-2 -11 12 -34.1169 95.3392 4
2 11 -11 543.6 232.478 4
-2 -11 11 506.091 196.599 4
-2 -11 10 23.4918 31.1399 4
2 11 -10 174.187 150.415 4
-2 -11 10 135.145 104.945 1
2 11 -9 7281.89 797.655 4
-2 -11 9 7260.34 698.665 1
2 11 -8 15244 1144.45 4
-2 -11 8 14571.3 964.758 1
2 11 -7 1585.58 363.536 4
-2 -11 7 1405.31 294.734 1
-2 -11 7 1415.49 234.422 3
2 11 -6 -61.5739 101.806 4
-2 -11 6 -18.1398 27.7949 1
-2 -11 6 109.04 87.4607 3
2 11 -5 -55.8927 93.6136 4
-2 -11 5 40.5305 64.6671 3
-2 -11 5 -13.1601 55.6513 1
2 11 -4 2337.93 445.632 4
-2 -11 4 2173.5 332.807 3
-2 -11 4 2517.28 405.744 1
2 11 -3 1962.19 408.767 4
-2 -11 3 1875.08 315.989 3
2 11 -2 176.449 122.106 4
-2 -11 2 258.223 120.159 1
-2 -11 2 245.387 118.116 3
2 11 -1 3963.22 597.692 4
-2 -11 1 3951.37 483.291 3
-2 -11 1 4603.84 525.901 1
-2 -11 0 2403.12 386.549 1
-2 -11 0 1995.21 355.668 3
2 11 0 2097.05 441.47 4
2 11 0 2227.66 381.597 1
-2 -11 -1 1078.31 268.085 1
-2 -11 -1 624.139 187.541 3
2 11 1 897.296 299.157 4
2 11 1 1025.16 273.779 1
2 12 -10 1465.04 389.115 4
-2 -12 9 201.411 127.649 1
2 12 -9 323.493 191.116 4
2 12 -8 641.834 246.642 4
-2 -12 8 646.225 225.803 1
2 12 -7 116.003 98.0718 4
-2 -12 7 93.2393 83.9387 1
-2 -12 6 5.35438 56.0843 1
-2 -12 6 100.616 87.4401 3
2 12 -6 -68.9619 133.633 4
2 12 -5 2783.03 501.501 4
-2 -12 5 3070.04 408.009 3
-2 -12 5 2957.87 445.667 1
2 12 -4 1602.47 396.599 4
-2 -12 4 1735.65 311.82 3
-2 -12 4 1643.05 330.456 1
2 12 -3 2546.59 491.262 4
-2 -12 3 2560.26 404.96 3
-2 -12 3 3621.01 499.868 1
2 12 -2 500.594 220.003 4
-2 -12 2 533.057 195.958 3
2 12 -1 674.878 266.805 4
-2 -12 1 1003.52 252.684 1
-2 -12 1 926.447 246.526 3
-2 -13 6 7.22918 37.0407 1
-2 -13 5 44.6424 80.2246 1
-2 -13 5 58.4873 78.806 3
-2 -13 4 1177.95 348.758 1
-2 -13 4 61.9011 93.9312 3
-2 -13 3 1227.05 295.327 1
-2 -13 3 1277.24 313.767 3
-3 13 0 10506.9 1007.2 4
-3 13 -1 7818.94 847.046 4
3 -13 1 6289.36 669.329 3
3 -13 2 1781.73 190.2 3
-3 13 -2 3864.93 584.656 4
-3 13 -3 1255.34 315.815 4
3 -13 3 -281.957 393.669 3
-3 13 -4 2031.92 403.441 4
3 -13 4 1326.64 32.8428 3
3 -13 7 660.379 162.587 1
-3 12 2 1226.76 334.919 4
-3 12 1 5081.98 679.072 4
3 -12 -1 4622.99 591.261 3
3 -12 0 1152.57 284.776 3
-3 12 0 1046.53 310.025 4
-3 12 -1 1419.05 335.728 4
3 -12 1 1314.48 298.945 3
3 -12 2 237.111 275.738 3
-3 12 -2 1631.67 349.131 4
-3 12 -3 -24.723 103.911 4
-3 12 -4 -68.5665 105.806 4
-3 12 -5 3852.09 523.947 4
3 -12 5 2540.23 342.823 3
3 -12 5 4160.64 477.603 1
3 -12 6 3815.29 474.531 1
-3 12 -6 3524.06 507.796 4
3 -12 7 1985.66 355.537 1
3 -12 8 -452.722 253.554 1
-3 11 4 3528.03 575.84 4
3 -11 -3 528.303 193.741 3
-3 11 3 602.458 226.437 4
-3 11 2 45.0078 47.7965 4
3 -11 -2 80.2102 63.6408 3
3 -11 -1 2992.67 449.193 3
-3 11 1 3054.42 493.332 4
-3 11 0 101.459 99.5551 4
3 -11 0 69.6507 49.2261 3
3 -11 1 525.72 173.309 3
-3 11 -1 463.72 178.583 4
-3 11 -2 32.275 50.7805 4
3 -11 3 4298.13 427.569 1
3 -11 3 2560.09 324.962 3
-3 11 -3 3978.28 508.049 4
-3 11 -3 3685.83 434.269 2
-3 11 -4 721.861 183.973 2
3 -11 4 940.492 202.679 1
-3 11 -4 898.525 232.446 4
-3 11 -5 1051.58 241.686 2
-3 11 -5 944.941 244.405 4
3 -11 5 654.315 177.286 3
3 -11 5 1130.7 236.558 1
-3 11 -6 878.975 223.376 2
3 -11 6 1193.18 256.948 1
-3 11 -6 1093.09 269.193 4
-3 11 -7 1293.44 293.266 4
-3 11 -7 920.429 240.566 2
3 -11 7 1170.02 282.233 4
3 -11 7 1159.61 260.315 1
-3 11 -8 2597.63 423.581 2
3 -11 8 1558.08 286.809 1
-3 11 -9 -313.5 278.064 2
3 -11 9 -365.305 226.612 1
-3 11 -10 -469.816 320.228 2
-3 10 6 64.0155 106.682 4
3 -10 -5 3.2791 106.678 3
-3 10 5 119.216 74.9434 4
-3 10 4 32.7267 62.0313 4
3 -10 -4 -64.5869 96.4003 3
-3 10 3 1443.23 340.989 4
3 -10 -3 1214.08 277.641 3
-3 10 2 16.3251 49.2306 4
3 -10 -2 -4.38415 45.0451 3
-3 10 1 1281.84 252.364 2
-3 10 1 1331.78 302.056 4
3 -10 -1 1299.54 272.223 3
-3 10 0 641.513 177.487 2
-3 10 0 610.042 201.667 4
3 -10 0 515.155 149.861 3
-3 10 -1 3866.84 433.069 2
3 -10 1 3809.05 458.237 3
3 -10 1 4279.38 381.04 1
-3 10 -1 4154.27 509.986 4
-3 10 -2 1460.59 269.54 2
3 -10 2 1591.65 249.706 1
-3 10 -2 1675.44 316.156 4
-3 10 -3 18.7051 29.5534 2
-3 10 -3 10.1343 30.8769 4
3 -10 3 6.15219 14.3271 1
-3 10 -4 273.367 117.478 4
-3 10 -4 244.525 111.386 2
3 -10 4 243.965 91.3391 1
-3 10 -5 3693.74 444.804 2
3 -10 5 4083.75 444.295 1
3 -10 5 5041.91 502.275 3
-3 10 -5 3946.13 470.34 4
-3 10 -6 451.412 166.173 4
-3 10 -6 505.261 175.304 2
3 -10 6 893.083 222.504 3
3 -10 6 479.151 153.68 1
3 -10 7 2569.06 390.261 4
3 -10 7 2263.54 350.182 1
-3 10 -7 2520.87 395.071 2
-3 10 -7 2574.45 387.922 4
-3 10 -8 1474.99 306.843 2
-3 10 -8 1464.42 295.171 4
3 -10 8 1550.1 312.598 4
3 -10 8 1091.16 222.803 1
-3 10 -9 286.757 152.968 2
3 -10 9 -240.983 168.71 1
-3 10 -10 138.356 109.33 2
3 -9 -7 2221.48 403.531 3
-3 9 7 2382.46 471.094 4
-3 9 6 3159.88 516.556 4
3 -9 -6 2993.2 445.657 3
3 -9 -5 1.52421 51.2669 3
-3 9 5 69.7755 93.0066 4
-3 9 5 -31.3508 74.1924 2
3 -9 -4 289.185 120.944 3
-3 9 4 249.323 134.452 4
-3 9 4 311.095 136.058 2
-3 9 3 284.578 132.388 2
-3 9 3 238.158 122.986 4
3 -9 -3 141.41 82.2545 3
-3 9 2 542.455 186.088 4
-3 9 2 593.993 178.043 2
3 -9 -2 478.059 154.461 3
3 -9 -1 3693.69 438.32 3
-3 9 1 3623.16 404.253 2
3 -9 -1 3801.71 299.284 1
-3 9 1 4007.25 489.648 4
3 -9 0 7308.92 439.838 1
-3 9 0 6952.98 622.633 4
3 -9 0 6847.11 581.14 3
-3 9 0 6863.29 556.675 2
-3 9 -1 1175.11 256.855 4
-3 9 -1 1047.01 217.237 2
3 -9 1 1204.65 193.299 1
3 -9 1 1021.97 215.891 3
3 -9 2 1664.82 244.813 1
-3 9 -2 1633.84 272.798 2
-3 9 -2 1656.89 294.698 4
3 -9 2 954.318 152.682 3
-3 9 -3 478.759 153.079 4
-3 9 -3 414.347 137.034 2
3 -9 3 458.408 131.786 1
-3 9 -4 282.7 100.429 2
3 -9 4 289.642 93.2411 1
3 -9 4 115.156 137.865 3
-3 9 -4 326.638 116.849 4
-3 9 -5 118.423 81.9295 4
-3 9 -5 72.6471 63.0973 2
3 -9 5 199.252 117.97 3
3 -9 5 55.6998 10.0582 1
-3 9 -6 1010.6 219.811 4
-3 9 -6 965.877 235.688 2
3 -9 6 874.249 188.484 3
3 -9 6 920.448 218.438 1
-3 9 -7 3891.08 477.781 2
-3 9 -7 4444.25 485.88 4
3 -9 7 3355.88 404.497 1
3 -9 7 4062.24 462.855 4
-3 9 -8 2759.64 393.115 4
-3 9 -8 2323.28 382.583 2
3 -9 8 2594.17 384.506 4
3 -9 8 2010.66 326.542 1
3 -9 9 156.557 106.029 1
3 -9 9 438.517 142.204 4
-3 9 -10 9.53991 24.2255 2
3 -9 10 -121.011 133.216 1
-3 9 -11 2032.62 400.532 2
3 -8 -9 428.011 173.112 3
-3 8 8 24.8308 67.9646 4
3 -8 -8 -27.1539 82.6963 3
3 -8 -8 16.9174 25.8002 2
-3 8 7 250.434 134.132 2
3 -8 -7 211.674 104.526 3
-3 8 7 123.539 48.331 4
3 -8 -7 279.097 158.324 2
3 -8 -6 1699.03 321.358 3
-3 8 6 1659.89 356.912 4
3 -8 -6 1823.31 345.897 2
-3 8 6 1743.87 338.371 2
3 -8 -5 247.192 102.462 3
-3 8 5 356.075 141.675 2
-3 8 5 238.638 111.946 4
-3 8 4 21.9546 48.3944 4
-3 8 4 97.1846 52.4149 2
3 -8 -4 93.9338 62.636 3
-3 8 3 40.22 37.4796 4
-3 8 3 38.7236 25.4683 2
3 -8 -3 -8.53462 51.2593 3
3 -8 -2 21261.4 608.723 1
-3 8 2 20716.9 1054.67 4
-3 8 2 21427.9 993.33 2
3 -8 -2 21445.8 1011.97 3
3 -8 -1 2555.06 231.453 1
-3 8 1 2346.17 318.081 2
3 -8 -1 2664.29 351.58 3
-3 8 1 2158.34 333.879 4
-3 8 0 29.4592 20.5083 2
-3 8 0 58.0959 62.025 4
3 -8 0 16.8062 70.4466 3
3 -8 0 12.3025 22.8731 1
3 -8 0 -48.134 81.1562 1
-3 8 -1 1286.36 234.194 2
3 -8 1 1280.46 188.169 1
3 -8 1 1256.38 222.459 3
-3 8 -1 1146.3 222.431 4
-3 8 -1 943.61 171.656 1
-3 8 -2 254.533 125.378 2
-3 8 -2 200.029 101.307 4
3 -8 2 271.299 100.931 1
3 -8 2 203.047 75.6385 3
-3 8 -3 6054.93 522.956 2
-3 8 -3 6649.26 524.901 4
3 -8 3 6496.11 479.605 1
3 -8 3 6219.54 489.424 3
-3 8 -4 40567.9 1372.17 2
3 -8 4 40741.5 1270.31 1
3 -8 4 43180.9 1292.12 3
-3 8 -4 41028.9 1298.57 4
-3 8 -5 39732 1284.5 4
3 -8 5 41243.5 1356.18 1
3 -8 5 43104.6 1260.02 3
-3 8 -5 41349.7 1417.8 2
3 -8 6 6133.97 543.092 1
3 -8 6 7261.14 507.393 3
-3 8 -6 6777.92 547.224 4
-3 8 -6 6815.37 603.455 2
3 -8 6 6453.86 538.008 4
-3 8 -7 8505.83 690.69 2
-3 8 -7 9847.17 684.138 4
3 -8 7 8790.1 681.575 1
3 -8 7 9556.84 566.438 3
3 -8 7 9675.13 680.038 4
3 -8 8 81.1313 54.5846 4
-3 8 -8 91.613 72.0087 2
3 -8 8 102.136 62.0573 1
-3 8 -9 1570.49 330.078 2
3 -8 9 1010.95 191.661 1
3 -8 9 1547.62 279.654 4
-3 8 -10 43.8918 53.0923 2
3 -8 10 780.543 278.621 1
-3 8 -11 881.255 199.303 2
-3 7 10 1270.77 326.403 2
3 -7 -10 1146.59 273.417 3
3 -7 -10 1316.74 342.628 2
-3 7 9 37.3241 115.535 4
-3 7 9 115.966 91.7873 2
3 -7 -9 82.3095 41.003 3
3 -7 -9 121.353 83.8797 2
-3 7 8 -7.71862 85.5142 4
3 -7 -8 -0.89984 53.0272 3
3 -7 -8 -0.49789 33.7694 2
-3 7 8 30.1526 56.2747 2
-3 7 7 556.495 200.195 4
-3 7 7 685.071 214.84 2
3 -7 -7 533.578 173.492 3
3 -7 -7 614.467 208.829 2
3 -7 -6 3728.76 448.332 3
-3 7 6 3859.85 508.035 4
-3 7 6 4165.89 499.466 2
3 -7 -6 4074.96 491.457 2
-3 7 5 1395.34 285.005 4
3 -7 -5 1242.31 243.523 3
3 -7 -5 1506.25 288.495 2
-3 7 5 1462.61 276.453 2
-3 7 4 17437 977.914 4
3 -7 -4 17297.2 904.399 3
-3 7 4 17656.2 928.401 2
3 -7 -3 578.397 84.5343 1
-3 7 3 540.492 172.559 4
3 -7 -3 370.925 79.1619 1
3 -7 -3 752.204 184.356 3
-3 7 3 574.669 171.212 2
-3 7 2 7750.78 597.92 4
3 -7 -2 7517.13 326.713 1
3 -7 -2 7028.42 366.794 1
3 -7 -2 7360.81 555.316 3
-3 7 2 7611.06 574.339 2
-3 7 1 1024.9 207.246 2
-3 7 1 930.006 196.43 4
3 -7 -1 1078.31 136.793 1
3 -7 -1 927.323 143.591 1
3 -7 -1 1143.39 207.451 3
-3 7 0 102.612 61.4545 2
-3 7 0 99.0912 50.7676 4
3 -7 0 104.988 43.5699 1
3 -7 0 164.484 55.4427 1
3 -7 0 45.7968 59.0686 3
-3 7 0 70.8437 40.0034 1
-3 7 -1 3770.01 376.901 4
3 -7 1 3923.6 312.133 1
3 -7 1 3836.04 371.376 3
3 -7 1 3775.33 321.243 1
-3 7 -1 3589.18 315.046 1
-3 7 -1 3845.93 392.757 2
-3 7 -2 6639.95 489.304 4
3 -7 2 6656.81 432.995 1
3 -7 2 6373.56 466.086 3
-3 7 -2 6479.97 516.258 2
-3 7 -3 1461 223.545 4
-3 7 -3 1365.63 257.477 2
3 -7 3 1538.6 234.386 1
3 -7 3 1282.58 214.714 3
-3 7 -4 65573.2 1695.14 2
-3 7 -4 64628.7 1497.84 4
3 -7 4 67688.1 1517.82 3
3 -7 4 64955 1547.62 1
-3 7 -5 13685.1 708.224 4
3 -7 5 13550 750.73 1
3 -7 5 13843.3 662.502 3
3 -7 5 13184.4 701.624 4
-3 7 -5 13712.5 800.648 2
-3 7 -6 630.806 155.842 4
-3 7 -6 476.509 163.894 2
3 -7 6 592.273 156.355 4
3 -7 6 536.176 126.375 3
3 -7 6 475.727 136.34 1
-3 7 -7 2413.37 357.59 2
3 -7 7 2077.13 303.769 1
3 -7 7 2406.72 286.469 3
3 -7 7 2664.77 340.061 4
-3 7 -7 2733.62 335.541 4
-3 7 -8 2586.52 390.102 2
3 -7 8 2288.43 321.004 4
3 -7 8 2036.4 323.744 1
-3 7 -9 6147.63 624.31 2
3 -7 9 6939.74 697.776 1
3 -7 9 6266.22 565.651 4
-3 7 -10 166.352 120.278 2
3 -7 10 668.389 177.131 4
-3 7 -11 -90.2631 292.175 2
3 -7 11 3913.73 603.381 1
-3 6 11 53.3924 100.099 2
3 -6 -11 -28.3284 54.3002 3
-3 6 10 1120.89 315.385 4
3 -6 -10 1199.86 266.913 3
3 -6 -10 692.162 148.79 2
-3 6 10 1354.84 342.737 2
3 -6 -9 510.512 160.43 3
3 -6 -9 664.408 221.221 2
-3 6 9 807.228 249.176 2
-3 6 9 628.102 222.561 4
-3 6 8 520.413 203.116 4
-3 6 8 620.585 213.504 2
3 -6 -8 557.725 169.792 3
3 -6 -8 500.66 179.085 2
3 -6 -7 133.767 75.2652 3
-3 6 7 175.461 109.892 4
-3 6 7 201.351 112.207 2
3 -6 -7 203.744 109.569 2
-3 6 6 13904.5 911.422 4
3 -6 -6 14557.1 898.606 2
3 -6 -6 13477.7 791.815 3
-3 6 6 14899.2 916.042 2
3 -6 -5 1464.32 253.937 3
-3 6 5 1305.98 265.752 2
-3 6 5 1279.43 269.992 4
3 -6 -5 1340.47 266.758 2
3 -6 -5 632.026 63.6013 1
3 -6 -4 760.68 75.55 1
-3 6 4 1704.37 279.779 2
3 -6 -4 1761.64 289.275 2
3 -6 -4 1598.2 256.316 3
3 -6 -4 975.082 77.4298 1
-3 6 4 1704.92 289.986 4
3 -6 -3 17187.6 815.276 3
-3 6 3 17353.4 859.037 4
-3 6 3 17442.6 853.236 2
3 -6 -3 11248.6 340.131 1
3 -6 -3 13339.4 323.628 1
3 -6 -2 6467.87 264.92 1
-3 6 2 7006.17 528.7 2
3 -6 -2 6194.56 478.047 3
3 -6 -2 6348.74 308.811 1
-3 6 2 6752.23 518.28 4
3 -6 -1 6161.69 297.429 1
-3 6 1 6407.24 473.5 4
3 -6 -1 5460.77 432.532 3
3 -6 -1 6311.15 329.924 1
-3 6 1 6115.28 480.343 2
-3 6 0 4572.03 387.366 4
3 -6 0 4723.07 289.729 1
3 -6 0 4432.46 380.927 3
3 -6 0 4650.47 307.338 1
-3 6 0 4141.94 377.966 2
-3 6 0 4417.83 293.538 1
3 -6 0 3870.73 353.06 4
3 -6 1 1018.25 177.459 4
-3 6 -1 1095.19 181.754 4
-3 6 -1 968.77 191.026 2
3 -6 1 997.902 146.289 1
3 -6 1 750.741 123.612 3
-3 6 -1 1073.98 156.025 1
-3 6 -2 18957.4 843.834 2
-3 6 -2 20022.3 752.18 4
3 -6 2 19060.1 702.436 1
3 -6 2 19148.6 779.392 3
3 -6 2 18751.2 740.817 4
-3 6 -2 18296.4 692.693 1
-3 6 -3 1746.76 221.46 4
-3 6 -3 1446.39 229.439 2
3 -6 3 1937.09 255.265 3
3 -6 3 1648.82 223.892 1
3 -6 3 1575.4 214.519 4
-3 6 -4 631.844 164.182 2
-3 6 -4 536.266 125.261 4
3 -6 4 498.816 118.446 4
3 -6 4 689.771 142.816 3
3 -6 4 440.665 104.103 1
3 -6 5 34.5248 41.3042 4
-3 6 -5 65.2105 43.8169 4
-3 6 -5 32.7759 44.118 2
-3 6 -5 46.3506 34.4607 3
3 -6 5 22.2888 8.2282 3
3 -6 5 27.448 9.66913 4
3 -6 5 3.71739 39.619 1
-3 6 -6 1054.07 185.153 4
-3 6 -6 909.573 216.103 2
3 -6 6 895.896 165.933 3
-3 6 -6 891.939 139.547 3
3 -6 6 838.682 184.208 1
3 -6 6 1045.92 196.804 4
3 -6 7 1121.02 206.083 4
3 -6 7 921.166 176.999 3
-3 6 -7 1117.21 249.973 2
3 -6 7 1083.41 236.719 1
3 -6 8 11909.4 859.721 1
3 -6 8 11099.2 693.093 4
-3 6 -8 11118.8 785.833 2
-3 6 -9 3031.58 414.749 2
3 -6 9 4374.33 549.89 1
3 -6 9 3709.76 426.635 4
-3 6 -10 7458.83 715.423 2
3 -6 10 7787.41 656.892 4
-3 6 -11 1500.32 191.126 2
3 -6 11 4951.07 661.503 1
-3 6 -12 77.8214 78.579 2
3 -5 -12 228.764 158.577 2
-3 5 11 1694.4 326.243 4
3 -5 -11 2514.37 384.536 3
3 -5 -11 2650.52 472.212 2
3 -5 -10 139.823 68.0453 3
3 -5 -10 199.404 128.027 2
3 -5 -9 3639.81 430.687 3
3 -5 -9 3963.7 522.278 2
-3 5 9 3799.89 532.287 4
-3 5 8 173.818 92.5592 4
3 -5 -8 101.548 43.614 3
3 -5 -8 93.6782 89.0618 2
3 -5 -7 3676.54 403.521 3
3 -5 -7 3579.91 444.629 2
-3 5 7 3616.8 242.076 1
-3 5 7 4316.97 503.603 2
-3 5 7 3452.96 448.536 4
3 -5 -6 1168.57 100.614 1
-3 5 6 1657.53 128.211 1
3 -5 -6 1999.75 285.303 3
3 -5 -6 2243.35 344.607 2
-3 5 6 2320.58 352.05 2
3 -5 -6 1669.49 128.223 1
-3 5 6 2220.4 356.469 4
-3 5 5 5179.15 492.908 4
3 -5 -5 5247.76 453.808 3
3 -5 -5 5158.5 497.437 2
-3 5 5 5219.18 491.687 2
3 -5 -4 36.9057 16.5218 3
-3 5 4 34.1984 40.5771 4
3 -5 -4 77.5162 78.7782 2
-3 5 4 55.7709 60.4709 2
-3 5 3 3606.37 359.347 4
3 -5 -3 3830.26 383.475 2
-3 5 3 3688.45 374.603 2
3 -5 -3 3790.27 358.6 3
3 -5 -2 759.574 74.3771 1
3 -5 -2 609.078 81.5713 1
3 -5 -2 818.207 154.879 3
-3 5 2 803.465 155.272 4
-3 5 2 801.896 169.371 2
-3 5 1 1906.67 231.937 4
3 -5 -1 1932.34 146.867 1
3 -5 -1 1824.25 152.01 1
3 -5 -1 2138.33 252.888 4
-3 5 1 1916.66 263.395 2
3 -5 -1 1949.16 241.054 3
3 -5 -1 1711.24 249.028 2
-3 5 1 1900.4 156.759 1
-3 5 0 1988.9 225.435 4
3 -5 0 1891.5 211.279 4
3 -5 0 2219.9 183.54 1
3 -5 0 2255.38 247.064 3
-3 5 0 2111.04 265.515 2
3 -5 0 1790.98 256.595 2
-3 5 0 2050.13 182.036 1
3 -5 1 83.2388 31.3227 4
-3 5 -1 146.664 77.114 2
-3 5 -1 123.433 51.4982 4
3 -5 1 15.5256 74.5196 3
3 -5 1 145.175 48.481 1
-3 5 -1 207.416 85.6187 1
-3 5 -2 1880.88 207.715 1
-3 5 -2 1677.87 189.089 4
3 -5 2 1621.91 192.033 1
-3 5 -2 1905.35 209.13 3
3 -5 2 2088.13 248.176 3
3 -5 2 1773.86 198.572 4
-3 5 -2 1830.42 259.493 2
3 -5 3 2768.37 254.984 4
3 -5 3 2596.99 272.538 1
-3 5 -3 2688.31 246.413 3
3 -5 3 2758.78 268.558 3
-3 5 -3 2768.22 245.325 4
-3 5 -3 2635.83 323.602 2
-3 5 -4 12380.8 702.559 2
3 -5 4 12272 548.611 4
-3 5 -4 12567.2 549.67 4
3 -5 4 11885.9 561.377 4
3 -5 4 12080.1 644.608 1
-3 5 -4 12010.1 511.827 3
3 -5 4 13094.5 601.233 3
-3 5 -5 3450.16 388.454 2
3 -5 5 3517.03 327.515 4
3 -5 5 3824.6 328.037 4
-3 5 -5 3796.13 318.496 4
-3 5 -5 3426.7 274.781 3
3 -5 5 3462.68 324.859 3
3 -5 5 3472.46 365.885 1
-3 5 -6 11773.8 732.651 2
-3 5 -6 11381.2 491.161 3
3 -5 6 12675.5 774.774 1
3 -5 6 12125.6 611.793 4
3 -5 6 11122.5 566.375 3
3 -5 7 28852.8 1235.46 1
3 -5 7 27787.1 1004.59 4
-3 5 -7 26293.2 1135.07 2
3 -5 8 22105.2 970.833 4
-3 5 -8 20573.8 1052.96 2
-3 5 -8 21397.6 731.482 3
3 -5 8 22517 1143.8 1
-3 5 -9 6749.54 638.477 2
3 -5 9 7847.61 610.12 4
-3 5 -10 7335.13 694.355 2
3 -5 10 9417.19 831.111 1
3 -5 10 7814.03 653.336 4
-3 5 -11 2256.61 367.082 2
3 -5 11 3209.04 446.229 4
-3 5 -12 -372.499 348.02 2
3 -4 -12 10067.8 932.397 2
-3 4 12 10038.1 972.971 4
3 -4 -11 29970.8 1529.04 2
3 -4 -11 30610.8 1291.59 3
-3 4 11 28853.2 1543.71 4
3 -4 -10 348.699 59.598 2
3 -4 -10 454.144 134.861 3
-3 4 10 495.044 190.042 4
-3 4 9 1202.67 285.186 4
3 -4 -9 1238.7 236.43 3
3 -4 -9 1120.34 267.613 2
-3 4 8 103.23 64.4339 4
-3 4 8 122.419 56.4594 1
3 -4 -8 5.84289 61.4862 3
3 -4 -8 112.06 79.5833 2
-3 4 7 650.611 193.039 4
3 -4 -7 691.854 98.0461 1
3 -4 -7 823.88 180.034 3
3 -4 -7 759.105 198.319 2
-3 4 7 755.008 118.293 1
3 -4 -6 746.845 81.0417 1
-3 4 6 949.808 205.913 4
-3 4 6 835.15 98.2245 1
3 -4 -6 945.275 180.592 3
3 -4 -6 819.152 173.983 2
3 -4 -5 24435.8 906.236 3
3 -4 -5 24719.1 1018.97 2
-3 4 5 24825.3 1019.07 2
-3 4 5 23424.3 965.209 4
3 -4 -4 17666.8 745.735 3
-3 4 4 17144.8 772.497 4
3 -4 -4 17859.6 823.459 2
-3 4 4 18149 832.977 2
3 -4 -3 9695.02 534.924 3
3 -4 -3 9090.77 567.534 2
-3 4 3 9073.34 561.183 2
3 -4 -3 9046.98 554.598 4
-3 4 3 9016.27 522.44 4
-3 4 2 1133.75 178.886 4
3 -4 -2 548.723 59.0985 1
3 -4 -2 897.575 70.9789 1
3 -4 -2 1272.45 189.699 3
-3 4 2 827.909 145.178 2
3 -4 -2 1048.53 186.829 2
3 -4 -2 1153.13 186.272 4
-3 4 2 1196.04 204.443 2
3 -4 -1 75481.5 867.366 1
3 -4 -1 76780 1425.83 3
-3 4 1 73893.4 1462.73 2
3 -4 -1 75433.5 1573.85 2
-3 4 1 78798.4 1569.21 2
-3 4 1 78320.7 1280.38 4
3 -4 -1 78782.4 1299.38 4
-3 4 1 76751.8 856.16 1
-3 4 0 34596.9 667.735 1
-3 4 0 34143.8 783.79 4
3 -4 0 33885.6 703.251 1
-3 4 0 31456.2 816.656 3
3 -4 0 33214.6 928.162 3
-3 4 0 33256.3 1003.11 2
3 -4 0 33586.3 1049 2
3 -4 0 35159.8 793.896 4
-3 4 -1 51575.7 901.105 4
3 -4 1 50939.3 1140.24 3
3 -4 1 50302.5 982.324 1
-3 4 -1 48404.8 1010.05 3
3 -4 1 51966 893.09 4
-3 4 -1 51872.1 1269.03 2
-3 4 -1 50326.6 917.909 1
3 -4 2 405.331 78.289 4
-3 4 -2 417.804 78.4017 4
-3 4 -2 429.658 94.3959 1
-3 4 -2 442.661 97.2931 3
3 -4 2 455.404 111.693 3
3 -4 2 362.763 79.6634 1
-3 4 -2 399.996 111.151 2
3 -4 3 3517.6 304.939 3
-3 4 -3 3536.7 302.631 1
-3 4 -3 4036.21 262.346 4
3 -4 3 3541.4 320.374 1
-3 4 -3 3407.12 347.164 2
-3 4 -3 3080.96 250.243 3
3 -4 3 4000.43 269.93 4
3 -4 3 4061.91 265.811 4
-3 4 -4 46961.9 1335.49 2
-3 4 -4 43627.8 964.405 3
3 -4 4 46710.1 1106.04 3
3 -4 4 49074.2 1321.03 1
3 -4 4 47998 1022.22 4
3 -4 4 47628.1 982.239 4
3 -4 5 1341.67 246.646 1
3 -4 5 1306.31 188.914 4
-3 4 -5 1091.2 218.715 2
3 -4 5 1135.82 178.096 3
-3 4 -5 976.763 126.691 3
3 -4 5 1553.04 195.921 4
3 -4 6 -43.6784 55.3193 4
-3 4 -6 -0.21418 14.2599 2
3 -4 6 -14.2309 24.9757 3
3 -4 6 -6.55505 43.6511 4
-3 4 -7 8186.27 489.675 3
-3 4 -7 7227.61 403.147 3
3 -4 7 9179.2 693.66 1
-3 4 -7 8316.09 632.015 2
3 -4 7 8286.39 542.19 4
-3 4 -8 986.77 221.568 2
-3 4 -8 853.39 148.913 3
3 -4 8 1061.61 204.554 4
-3 4 -9 63.8879 123.444 2
3 -4 9 432.46 151.493 4
-3 4 -10 3640.44 432.624 2
3 -4 10 5461.83 561.927 4
3 -4 10 5341.28 623.284 1
3 -4 11 2257.34 435.324 1
-3 4 -11 2477.99 431.251 2
3 -4 11 2428.93 392.81 4
-3 4 -12 6.60795 33.3029 2
3 -3 -13 -38.2495 99.3469 2
-3 3 12 2300.92 460.72 4
3 -3 -12 2299.25 442.083 2
-3 3 11 113.126 114.854 4
3 -3 -11 58.6865 34.2297 3
3 -3 -11 48.5744 26.7983 2
-3 3 10 4440.58 562.842 4
3 -3 -10 4566.95 443.831 3
3 -3 -10 4582.76 554.462 2
-3 3 9 1807.04 308.686 4
3 -3 -9 1964.64 277.899 3
3 -3 -9 1950.28 346.27 2
-3 3 9 2132.74 249.26 1
3 -3 -8 871.178 128.724 1
-3 3 8 495.594 131.672 4
3 -3 -8 791.188 162.102 3
3 -3 -8 814.123 206.878 2
-3 3 8 811.017 135.156 1
3 -3 -7 1041.41 123.514 1
-3 3 7 1166.72 144.237 1
-3 3 7 971.669 200.518 4
3 -3 -7 871.065 170.732 3
3 -3 -7 775.656 170.325 2
-3 3 6 24715.6 548.186 1
3 -3 -6 24856.6 887.305 3
3 -3 -6 25832.6 1036.45 2
-3 3 6 25047.1 1015.16 4
3 -3 -6 22616 481.598 1
-3 3 5 4018.42 153.413 1
3 -3 -5 6660.41 444.509 3
3 -3 -5 5977.86 484.069 2
3 -3 -5 3455.08 132.006 1
-3 3 5 5481.85 440.873 4
3 -3 -4 1636.76 236.629 4
3 -3 -4 1443.95 193.894 3
3 -3 -4 1695.98 246.154 2
-3 3 4 1843.28 256.341 2
-3 3 4 1730.8 228.392 4
-3 3 3 149.508 63.1604 4
3 -3 -3 148.583 64.068 4
-3 3 3 127.18 54.3256 2
-3 3 3 164.054 71.479 3
3 -3 -3 48.7788 34.8275 3
3 -3 -3 136.312 64.3941 2
-3 3 3 154.651 70.6676 2
-3 3 2 7259.75 390.38 3
3 -3 -2 7471.82 420.044 3
-3 3 2 7494.18 451.253 2
3 -3 -2 7557.59 470.492 2
-3 3 2 7913.97 478.163 2
3 -3 -2 8287.21 415.78 4
-3 3 2 7535.15 378.747 4
3 -3 -1 207.302 68.6257 4
-3 3 1 228.329 115.587 2
-3 3 1 344.423 90.876 4
-3 3 1 203.776 42.7242 1
3 -3 -1 399.113 74.6035 1
-3 3 1 157.95 71.9875 3
3 -3 -1 95.6536 45.2097 3
-3 3 1 280.479 98.6996 2
3 -3 -1 189.803 107.409 2
3 -3 0 95371.7 1484.85 3
-3 3 0 96488.2 1077.36 1
-3 3 0 91086.7 1348.13 3
3 -3 0 89171.8 1120.74 1
-3 3 0 91900.8 1010.52 4
-3 3 0 89288.1 1554.87 2
3 -3 0 94767.3 1007.25 4
3 -3 0 92855.3 1647.74 2
3 -3 1 17681.7 579.945 1
-3 3 -1 17219.7 530.044 1
-3 3 -1 16294.7 573.033 3
3 -3 1 17158.8 623.703 3
3 -3 1 16895.8 734.371 2
-3 3 -1 16125.5 378.799 4
3 -3 1 18035.8 404.076 4
3 -3 2 700.753 151.293 2
-3 3 -2 1161.9 106.713 4
3 -3 2 1144.43 108.49 4
3 -3 2 1055.58 162.047 3
3 -3 2 1246.63 184.131 1
-3 3 -2 683.919 114.215 3
-3 3 -2 1023.17 146.569 1
-3 3 -2 878.41 166.851 2
3 -3 2 1144.86 113.284 4
-3 3 -3 1265.86 205.432 2
-3 3 -3 1358.42 182.697 1
3 -3 3 1622.02 146.659 4
-3 3 -3 1634.01 198.826 3
3 -3 3 1632.31 153.403 4
3 -3 3 1471.2 194.947 3
3 -3 3 1520.72 212.857 1
-3 3 -4 105147 1587.34 3
3 -3 4 111148 1480.86 4
3 -3 4 106729 1899.01 1
3 -3 4 109011 1650.63 3
-3 3 -4 113295 2000.22 2
3 -3 4 109024 1442.04 4
3 -3 5 42524.8 1032.86 3
-3 3 -5 43131 1046.68 3
3 -3 5 44313.8 1306.25 1
3 -3 5 44759.2 1038.18 4
-3 3 -5 43472.4 1284.68 2
3 -3 5 44101.2 1050.95 4
-3 3 -6 14506.4 778.482 2
3 -3 6 14495.3 685.382 4
-3 3 -6 15685.2 664.525 3
-3 3 -6 13874.3 608.745 3
3 -3 6 15151.2 814.062 1
3 -3 6 15234.5 673.745 4
-3 3 -7 8025.07 623.419 2
-3 3 -7 8460.17 469.732 3
-3 3 -7 7289.38 450.958 3
3 -3 7 8839.03 671.549 1
3 -3 7 8502.61 550.859 4
-3 3 -8 11620 767.18 2
3 -3 8 12855.5 748.453 4
-3 3 -8 13073.9 567.567 3
3 -3 8 12320.5 824.494 1
-3 3 -9 1616.7 288.811 2
3 -3 9 1635.46 281.618 4
3 -3 9 1693.03 337.84 1
-3 3 -10 14408.5 951.797 2
3 -3 10 15157 1059.46 1
3 -3 10 15488.3 939.767 4
3 -3 11 67.8965 61.3065 1
3 -3 11 125.501 102 4
3 -3 12 294.946 67.9532 4
-3 3 -12 -51.2735 244.544 2
-3 2 13 243.771 134.316 4
3 -2 -13 222.648 140.947 2
-3 2 12 68.8447 63.2157 4
3 -2 -12 58.8074 25.6964 2
-3 2 11 153.288 67.5789 1
3 -2 -11 157.455 107.72 2
3 -2 -11 51.5896 122.624 3
-3 2 10 412.465 125.915 1
-3 2 10 372.704 157.201 4
3 -2 -10 380.047 148.706 2
3 -2 -10 370.199 110.087 3
-3 2 9 259.77 88.9759 1
3 -2 -9 100.293 14.5393 3
3 -2 -9 205.925 109.596 2
-3 2 9 210.854 125.066 4
3 -2 -8 6009.54 544.403 2
3 -2 -8 5806.47 355.821 1
3 -2 -8 6087.21 438.1 3
-3 2 8 6131.46 378.577 1
-3 2 8 5637.18 529.331 4
-3 2 7 239.281 108.036 4
3 -2 -7 295.097 69.483 1
3 -2 -7 236.996 75.5151 3
-3 2 7 314.599 77.7997 1
3 -2 -7 264.326 102.84 2
3 -2 -6 31062 921.672 3
3 -2 -6 31345.2 1090.95 2
-3 2 6 30949.4 1071.71 4
-3 2 6 29553.5 614.162 1
3 -2 -6 31856.7 629.376 1
-3 2 5 35552.8 905.091 3
3 -2 -5 35584.5 958.088 3
3 -2 -5 36435.3 1137.62 2
-3 2 5 33187.7 524.204 1
-3 2 5 37632.7 1123.23 4
3 -2 -5 31966.7 517.726 1
-3 2 4 12372.8 565.446 4
-3 2 4 12018.7 497.005 3
-3 2 4 11596.4 554.017 2
3 -2 -4 11991.3 531.727 3
3 -2 -4 12281.3 614.619 2
-3 2 4 12294.3 618.446 2
3 -2 -4 12277.6 591.007 4
-3 2 3 519.926 116.718 4
-3 2 3 404.863 95.5288 3
3 -2 -3 353.446 73.8104 3
-3 2 3 609.258 128.353 2
-3 2 3 598.931 148.966 2
3 -2 -3 616.251 119.937 4
3 -2 -3 625.247 152.55 2
3 -2 -2 14265.9 286.035 1
-3 2 2 14000.8 252.638 1
-3 2 2 14190 515.368 3
3 -2 -2 15150.2 577.742 3
-3 2 2 15477.8 603.701 2
3 -2 -2 16696.1 497.55 4
-3 2 2 15746.3 468.292 4
3 -2 -2 15500 627.847 2
3 -2 -2 16127.9 637.609 2
-3 2 2 16040.1 642.7 2
-3 2 1 7691.21 444.766 2
3 -2 -1 7873.71 265.75 4
-3 2 1 7705.02 266.182 1
-3 2 1 6452.4 348.588 3
3 -2 -1 7424.08 396.338 3
-3 2 1 7259.45 407.639 2
3 -2 -1 7919.48 448.874 2
-3 2 1 7413.39 255.897 4
3 -2 -1 7373.04 278.046 1
-3 2 0 524.448 122.386 3
3 -2 0 523.517 126.601 3
-3 2 0 400.419 76.5522 1
-3 2 0 776.016 185.69 2
3 -2 0 522.892 103.901 1
3 -2 0 568.55 181.511 2
-3 2 -1 98602.3 1317.63 1
3 -2 1 100163 1497.74 3
3 -2 1 96833.8 1359.47 1
-3 2 -1 97836.9 1426.36 3
3 -2 1 96332.6 1644.9 2
-3 2 -2 38505.4 1041.38 2
-3 2 -2 37371.2 900.156 1
3 -2 2 35197.5 1022.86 2
-3 2 -2 37006.5 909.027 3
3 -2 2 34858.7 888.87 1
3 -2 2 37648.7 560.533 4
3 -2 2 34173.9 523.837 4
3 -2 2 40625.4 1011.8 3
3 -2 3 12805.6 423.766 4
3 -2 3 11233.7 386.751 4
-3 2 -3 11803.3 553.733 1
-3 2 -3 12700.3 566.132 3
3 -2 3 12321.3 548.899 3
3 -2 3 11168.5 558.761 1
-3 2 -3 13015.1 446.083 4
-3 2 -3 12609.4 620.812 2
-3 2 -4 1867.96 233.778 3
-3 2 -4 1733.39 248.206 2
3 -2 4 2062.26 285.403 1
3 -2 4 1986.12 205.535 4
3 -2 4 2022.92 215.503 4
3 -2 4 1702.34 213.627 3
-3 2 -4 2001.66 220.373 4
-3 2 -5 2284.36 289.715 2
-3 2 -5 2526.1 274.201 4
-3 2 -5 2340.47 267.033 3
3 -2 5 2268.17 246.026 4
3 -2 5 2333.28 301 1
-3 2 -5 2436.94 267.344 3
3 -2 5 2538.52 263.77 4
3 -2 6 13840.7 668.302 4
-3 2 -6 12664.1 720.359 2
-3 2 -6 13320.4 603.367 3
-3 2 -6 12106.3 642.498 3
3 -2 6 13077.6 759.547 1
-3 2 -7 4077.61 420.161 2
3 -2 7 4852.12 432.451 4
-3 2 -7 4329.69 334.95 3
3 -2 7 4650.89 485.886 1
3 -2 8 106.035 82.0961 4
3 -2 8 109.292 105.824 1
-3 2 -8 69.3636 39.3959 3
-3 2 -9 13812.8 864.362 2
-3 2 -9 15782.1 646.695 3
3 -2 9 15105.2 1004.6 1
3 -2 9 15101.4 889.481 4
-3 2 -10 5025.31 541.155 2
3 -2 10 5820.64 670.982 1
3 -2 10 5297.12 544.111 4
3 -2 11 423.799 40.6643 4
-3 2 -11 -73.5199 262.37 2
3 -2 12 814.052 262.53 4
-3 2 -12 -655.533 379.672 2
-3 1 13 2009.94 417.201 4
3 -1 -13 2145.73 432.235 2
-3 1 12 460.23 187.166 4
-3 1 12 444.858 147.02 1
3 -1 -12 565.53 210.746 2
-3 1 11 1427.32 318.664 4
-3 1 11 1485.68 246.865 1
3 -1 -11 1371.63 312.396 2
3 -1 -11 601.002 59.4628 3
-3 1 10 7386.49 669.397 4
3 -1 -10 8223.67 703.189 2
3 -1 -10 7612.14 489.915 3
-3 1 10 8280.05 516.981 1
-3 1 9 1821.4 323.837 4
3 -1 -9 1876.22 311.745 2
3 -1 -9 1353.82 161.15 3
-3 1 9 1852.84 229.025 1
3 -1 -9 1779.53 244.139 1
-3 1 8 10137.9 697.571 4
3 -1 -8 10666.8 700.152 2
3 -1 -8 10039.9 518.954 3
-3 1 8 10529.1 498.172 1
3 -1 -8 10587.1 508.682 1
-3 1 7 873.647 144.971 3
-3 1 7 993.62 132.68 1
3 -1 -7 967.408 200.598 2
3 -1 -7 736.959 108.687 3
3 -1 -7 1027.36 142.629 1
-3 1 7 846.15 193.242 4
-3 1 6 2762.24 324.66 4
-3 1 6 2860.5 248.999 3
-3 1 6 2321.91 177.003 1
3 -1 -6 2355.15 232.462 3
3 -1 -6 2778.77 218.395 1
3 -1 -6 2570.89 317.671 2
-3 1 5 2368.48 258.604 2
-3 1 5 3416.17 176.986 1
3 -1 -5 3508.89 202.558 1
-3 1 5 3848.7 266.094 3
3 -1 -5 3499.43 269.408 3
3 -1 -5 3247.98 312.828 4
3 -1 -5 3501.93 332.128 2
-3 1 5 3336.44 310.052 4
-3 1 5 3341.65 185.93 1
-3 1 4 14437.1 357.334 1
-3 1 4 13723.7 301.652 1
-3 1 4 13348.8 585.037 2
-3 1 4 14460.4 497.647 3
3 -1 -4 14361.8 548.199 3
3 -1 -4 14257 627.853 2
3 -1 -4 14406 584.827 4
-3 1 4 14721.9 570.842 4
-3 1 3 32812 841.956 2
3 -1 -3 32926.8 809.746 3
-3 1 3 34969.7 539.244 1
-3 1 3 32726.4 748.424 3
3 -1 -3 34352.2 920.935 2
3 -1 -3 34642.5 767.829 4
-3 1 3 34337.3 757.573 4
-3 1 3 34247.9 919.456 2
-3 1 3 31287.4 457.277 1
3 -1 -3 33471.5 475.735 1
-3 1 2 4008.77 197.015 1
3 -1 -2 4469.22 232.443 4
-3 1 2 4344.41 218.063 4
-3 1 2 3605 256.518 3
3 -1 -2 3868.8 279.602 3
3 -1 -2 4091.37 199.616 1
3 -1 -2 3987.67 302.171 2
-3 1 2 4069.22 291.809 2
3 -1 -2 4258.06 308.177 2
-3 1 2 4137.09 310.843 2
-3 1 2 4216.47 217.762 4
-3 1 1 6461.57 350.971 3
3 -1 -1 6794.06 375.149 3
-3 1 1 6544.97 192.021 4
-3 1 1 6676.8 385.465 2
-3 1 1 6236.07 352.906 2
-3 1 1 6570.34 193.661 4
-3 1 1 6677.97 288.302 1
3 -1 -1 6451.72 379.031 2
3 -1 -1 6776.9 202.486 4
3 -1 -1 6618.79 296.393 1
-3 1 0 14475.9 544.648 3
3 -1 0 14867.5 569.72 3
-3 1 0 14180.3 463.15 1
3 -1 0 13934.7 488.586 1
3 -1 0 14911.5 591.195 2
-3 1 0 14388.1 549.217 2
3 -1 1 7211.63 403.076 1
-3 1 -1 7708.9 434.534 3
3 -1 1 7725.37 438.848 3
-3 1 -1 7728.37 398.733 1
-3 1 -1 6997.61 182.364 4
3 -1 1 6748.81 409.644 2
-3 1 -1 7455.12 427.794 2
3 -1 1 6297.62 174.992 4
-3 1 -2 16782.5 669.112 2
3 -1 2 15007.2 668.229 2
-3 1 -2 16781.3 685.949 3
-3 1 -2 17606.8 664.83 1
3 -1 2 15717.1 636.266 3
-3 1 -2 16673.6 432.725 4
3 -1 2 15966.5 667.908 1
3 -1 2 15227.1 406.426 4
-3 1 -3 27232.5 879.668 2
-3 1 -3 28058 689.116 4
-3 1 -3 26209 885.434 1
-3 1 -3 28968.4 928.421 3
3 -1 3 26683.4 905.458 1
3 -1 3 25662.2 643.118 4
-3 1 -4 11926.1 600.049 3
3 -1 4 10440.3 488.286 4
-3 1 -4 12514.2 666.472 3
3 -1 4 10563.2 632.168 1
-3 1 -4 11277.2 527.152 4
-3 1 -4 11254.6 595.064 2
-3 1 -5 3393.75 348.008 2
-3 1 -5 3580.95 321.296 3
-3 1 -5 3769.36 338.089 4
-3 1 -5 3497.78 374.116 3
3 -1 5 3666.95 388.555 1
3 -1 5 3676.3 316.729 4
-3 1 -6 2568.91 379.255 2
-3 1 -6 2092.01 284.837 3
3 -1 6 2766.24 448.943 1
3 -1 6 2353.82 349.577 4
-3 1 -7 14604.6 800.122 2
-3 1 -7 15441.7 657.337 3
3 -1 7 15317.1 905.817 1
3 -1 7 15559.8 796.777 4
-3 1 -8 24790.4 848.895 3
-3 1 -8 22221.6 1039.73 2
3 -1 8 24285.4 1200.83 1
3 -1 8 23644.9 1063.18 4
-3 1 -9 18783.8 1026.22 2
-3 1 -9 20406.9 783.399 3
3 -1 9 19868.7 1153.66 1
3 -1 9 19646.5 1046.47 4
3 -1 10 54.1197 47.0079 4
3 -1 10 53.2127 51.1991 1
3 -1 11 29.9959 84.8436 1
3 -1 11 137.739 91.3285 4
3 -1 12 368.719 184.749 4
-3 0 14 -14.4443 82.093 4
3 0 -14 96.2527 76.7584 2
-3 0 13 2237.25 430.871 4
-3 0 13 2254.43 347.808 1
3 0 -12 5715.88 607.385 2
-3 0 12 6407.36 699.786 4
-3 0 11 57.1896 60.936 4
3 0 -11 -217.693 149.491 3
-3 0 10 -1.56038 56.6655 4
-3 0 10 572.805 179.773 1
-3 0 9 2091.44 216.128 3
-3 0 9 1775.47 214.894 1
3 0 -9 1645.57 182.741 3
3 0 -9 1482.16 244.931 2
-3 0 9 1799 298.86 4
-3 0 8 33.6183 35.6491 4
3 0 -8 7.33904 0.66219 1
-3 0 8 15.872 20.8421 3
-3 0 8 -18.7546 33.0511 1
-3 0 7 19106.1 598.227 1
-3 0 7 20091.7 597.428 3
3 0 -7 19496.6 850.818 2
3 0 -7 19179.5 645.086 3
-3 0 7 18335.4 830.367 4
3 0 -7 20012.7 672.588 1
-3 0 6 7408.02 337.863 1
-3 0 6 7384.7 347.522 3
3 0 -6 7185.89 483.883 2
3 0 -6 7402.75 389.005 3
-3 0 6 7407.07 499.304 4
3 0 -6 7886.54 393.124 1
3 0 -5 4894 377.972 4
-3 0 5 4815.24 361.405 4
3 0 -5 5380.25 321.083 3
-3 0 5 5680.63 267.149 1
3 0 -5 5609.96 400.748 2
-3 0 5 4989.47 368.084 4
-3 0 5 4619.53 341.357 2
-3 0 5 5127.57 272.519 1
3 0 -5 5168.51 286.449 1
-3 0 4 35784.9 881.044 4
-3 0 4 36233.9 887.254 4
-3 0 4 36811.2 907.52 2
-3 0 4 35466 743.406 3
3 0 -4 33452.5 781.089 3
3 0 -4 35260 925.547 2
3 0 -4 37291.4 724.909 1
-3 0 4 34107.6 612.899 1
-3 0 4 37426.9 704.31 1
3 0 -4 36778.5 928.074 4
-3 0 3 270721 2076.04 4
3 0 -3 267098 2373.5 2
3 0 -3 265679 1793.23 1
-3 0 3 272381 2124.39 3
-3 0 3 266590 2279.62 2
3 0 -3 269141 2264.96 3
-3 0 3 282708 1913.88 1
-3 0 3 261446 2030.39 4
-3 0 3 272107 2400.53 2
-3 0 3 267007 1771.64 1
3 0 -3 274337 2164.88 4
-3 0 2 98989.5 1070.83 4
3 0 -2 98143.3 1070.28 4
-3 0 2 101404 1192.25 1
-3 0 2 101578 1098.28 4
-3 0 2 95778.7 1288.84 3
-3 0 2 101623 1358.98 2
3 0 -2 95347.2 1150.53 1
3 0 -2 96070.8 1349.04 2
3 0 -2 100172 1378.29 2
-3 0 2 100142 1394.75 2
3 0 -2 99282.9 1398.53 3
-3 0 1 1052.62 95.302 4
3 0 -1 1021.56 130.712 1
-3 0 1 1090.69 155.33 3
3 0 -1 1121.29 162.495 3
-3 0 1 1027.1 131.556 1
3 0 -1 1041.05 89.859 4
3 0 -1 1012.6 143.329 2
-3 0 1 999.963 141.989 2
-3 0 0 113294 938.966 4
-3 0 0 117324 1671.16 3
3 0 0 116590 1619.64 3
3 0 0 112425 960.024 4
3 0 0 120478 1583.45 2
3 0 0 118154 1545.79 1
-3 0 0 115497 1485.41 1
-3 0 0 115302 1494.75 2
3 0 1 123407 1718.6 1
3 0 1 124487 1173.2 4
3 0 1 122304 1654.88 2
-3 0 -1 126126 1152.07 4
-3 0 -1 127132 1631.61 2
3 0 1 127735 1777.8 3
-3 0 -1 123346 1673.54 1
-3 0 -2 410.981 124.757 1
-3 0 -2 190.646 71.3849 2
3 0 2 127.772 66.2751 2
-3 0 -2 169.085 51.5118 4
3 0 2 148.857 68.293 1
-3 0 -2 173.74 78.4231 3
3 0 2 193.697 56.2145 4
-3 0 -3 8882.69 430.507 4
3 0 3 8823.35 537.049 1
-3 0 -3 9605.69 529.019 3
3 0 3 9018.32 432.83 4
-3 0 -3 8030.87 518.969 3
-3 0 -3 9108.85 481.925 2
-3 0 -3 8297.32 510.119 1
3 0 3 8563.49 516.611 2
-3 0 -4 9087.87 518.107 2
-3 0 -4 9071.78 509.79 3
3 0 4 8974.1 588.761 1
-3 0 -4 9738.21 529.105 4
3 0 4 9637.65 503.157 4
3 0 5 630.666 147.173 4
-3 0 -5 574.445 144.252 2
-3 0 -5 284.73 37.8672 3
3 0 5 529.649 158.144 1
-3 0 -6 1670.98 250.117 2
3 0 6 1725.07 277.791 4
3 0 6 1649.14 311.759 1
-3 0 -6 1872.76 252.426 3
-3 0 -7 14929.5 793.782 2
-3 0 -7 16828.5 721.496 3
3 0 7 16980.6 956.95 1
3 0 7 16852.1 877.637 4
-3 0 -8 2037.11 258.905 3
3 0 8 1808.57 330.178 1
-3 0 -8 1483.34 258.492 2
3 0 8 1915.48 314.415 4
3 0 9 457.876 153.622 4
3 0 9 355.854 134.687 1
-3 0 -9 516.54 135.131 3
-3 0 -10 4244.92 463.909 2
3 0 10 6066.29 642.715 4
3 0 10 5767.02 671.464 1
3 0 11 853.914 259.735 4
3 0 11 643.347 202.745 1
-3 0 -11 773.344 221.919 2
3 0 12 162.38 122.159 4
-3 -1 14 2224.73 415.505 1
-3 -1 14 279.206 121.189 4
3 1 -13 15473.8 1090.29 2
-3 -1 13 17916.1 965.187 1
-3 -1 13 15562.1 1124.64 4
3 1 -12 110.633 98.0897 2
-3 -1 12 81.6707 86.5624 4
-3 -1 11 222.239 131.854 4
3 1 -11 239.189 123.403 2
-3 -1 11 52.6111 74.4105 1
-3 -1 10 4005.18 272.535 3
3 1 -10 4568.83 489.038 2
-3 -1 10 4537.2 392.602 1
3 1 -10 5118.29 337.845 3
-3 -1 10 4551.85 504.35 4
-3 -1 9 6769.6 583.105 4
-3 -1 9 6366.56 328.025 3
-3 -1 9 6507.82 433.042 1
3 1 -9 6688.49 560.478 2
3 1 -9 7148.87 385.26 3
-3 -1 8 13545 572.215 1
-3 -1 8 13471.9 451.839 3
3 1 -8 14460.5 781.735 2
3 1 -8 13550.1 508.919 3
-3 -1 8 13895.4 779.566 4
3 1 -8 13437.9 646.919 1
-3 -1 7 51385.9 1034.14 1
-3 -1 7 52594.8 855.106 3
3 1 -7 52313.3 1372.62 2
3 1 -7 54062.5 1203.28 1
-3 -1 7 50064.3 1363.79 4
-3 -1 6 61152.1 1042.2 1
-3 -1 6 57379 1075.09 1
-3 -1 6 59562.1 1380.45 4
3 1 -6 61475.9 1371.09 2
-3 -1 6 62684.7 912.941 3
3 1 -6 59024.2 1019.37 3
3 1 -6 57972.7 1158.01 1
-3 -1 5 52171.7 1183.63 4
-3 -1 5 52325.9 1086.86 2
3 1 -5 52974.2 1171.34 2
-3 -1 5 52875.1 859.676 3
3 1 -5 49549.7 942.693 3
-3 -1 5 52972.7 1181.26 4
3 1 -5 52449.1 1038.48 1
-3 -1 5 53237.2 997.455 1
3 1 -5 53330.2 1244.03 4
-3 -1 5 51508.7 909.745 1
-3 -1 4 79766 1192.57 1
-3 -1 4 73307.4 1248.71 4
3 1 -4 76754.8 1294.78 4
-3 -1 4 75548.7 1209.99 2
-3 -1 4 76766.3 1114.94 3
3 1 -4 75853.2 1276.38 2
3 1 -4 76300.6 1185.71 3
-3 -1 4 75773.4 1299.93 4
-3 -1 4 76863.4 1089.97 1
-3 -1 3 363.228 102.696 4
3 1 -3 396.884 97.9193 4
-3 -1 3 303.455 83.9465 1
-3 -1 3 388.535 113.404 3
3 1 -3 600.391 139.534 3
3 1 -3 199.092 74.7111 1
-3 -1 3 215.354 74.5341 2
3 1 -3 288.745 85.7668 2
-3 -1 3 291.958 86.9588 2
-3 -1 3 499.205 110.568 4
-3 -1 3 181.539 74.8971 1
-3 -1 2 15272.5 483.501 4
3 1 -2 14316.3 458.354 4
-3 -1 2 16271.7 584.858 3
3 1 -2 15644.8 574.962 3
-3 -1 2 15513.7 495.353 2
3 1 -2 14242.3 477.741 2
3 1 -2 14739.6 517.805 1
3 1 -2 14667 492.027 2
-3 -1 2 14680.6 494.723 2
-3 -1 2 16119.7 553.464 1
-3 -1 1 5154 273.841 4
3 1 -1 4586.74 255.686 4
-3 -1 1 5137.01 329.829 1
3 1 -1 5124.68 330.026 1
3 1 -1 5282.02 354.983 3
-3 -1 1 5056.81 288.18 2
3 1 -1 5059.49 291.075 2
-3 -1 1 5253.38 361.617 3
-3 -1 0 14895.5 588.377 1
3 1 0 14406.6 468.316 4
3 1 0 13884 570.698 1
-3 -1 0 14142.7 608.317 3
3 1 0 14778.7 523.766 2
-3 -1 0 15001.3 500.643 2
-3 -1 0 14681.4 463.593 4
3 1 1 1014.58 138.159 4
-3 -1 -1 989.878 138.16 2
-3 -1 -1 997.598 176.886 3
-3 -1 -1 1056.39 189.592 3
-3 -1 -1 1066.68 171.095 1
3 1 1 980.38 180.047 1
-3 -1 -1 1038.8 136.581 4
3 1 1 941.631 146.91 2
-3 -1 -2 59574.5 1107.64 2
-3 -1 -2 57888.2 1256.18 3
3 1 2 57933.2 1117.55 4
-3 -1 -2 55486.9 1286.88 1
3 1 2 54929.8 1173.15 2
3 1 2 57479 1341.79 1
-3 -1 -2 57948 1105.39 4
3 1 3 3743.78 378.457 1
-3 -1 -3 3785.58 339.778 3
3 1 3 4028.03 330.64 4
-3 -1 -3 3839.04 305.975 2
-3 -1 -3 4200.22 337.733 4
3 1 3 3539.93 332.744 2
3 1 4 5244.05 467.15 1
-3 -1 -4 5402.31 389.664 2
-3 -1 -4 5368.16 404.398 3
3 1 4 5572.44 424.183 4
3 1 5 2025.97 340.312 1
-3 -1 -5 1956.07 263.409 3
-3 -1 -5 1757.57 269.325 2
3 1 5 2049.4 302.973 4
-3 -1 -6 3333.46 350.364 2
-3 -1 -6 3637.52 350.949 3
3 1 6 3808.42 431.597 4
3 1 6 3548.64 455.035 1
-3 -1 -7 7509.59 568.279 2
-3 -1 -7 8075.31 527.988 3
3 1 7 8052.58 680.519 1
3 1 7 8256.58 648.063 4
3 1 8 8104.57 724.906 1
-3 -1 -8 7732.61 533.9 3
-3 -1 -8 6982.8 575.774 2
3 1 8 8309.87 694.426 4
3 1 9 168.83 142.476 4
-3 -1 -9 -73.7223 171.428 2
-3 -1 -9 -5.99164 51.8217 3
3 1 9 42.5591 54.8263 1
3 1 10 64.5809 79.8558 1
3 1 10 -497.438 274.392 4
-3 -1 -11 36.0527 45.8584 2
3 1 11 69.114 110.414 1
3 1 11 153.073 135.055 4
3 1 12 1733.41 408.53 4
-3 -2 15 2213.08 439.31 1
3 2 -14 438.429 205.53 2
-3 -2 14 417.816 178.571 4
-3 -2 13 2552.54 445.383 4
3 2 -13 2201.89 382.143 2
-3 -2 12 -18.9641 94.1141 1
-3 -2 12 173.347 127.813 4
3 2 -11 -107.153 151.239 2
-3 -2 11 16.9202 15.6513 4
-3 -2 11 -23.7976 50.9191 1
3 2 -10 -7.81589 39.2565 2
-3 -2 10 -119.203 100.082 1
3 2 -10 16.5679 22.9843 3
-3 -2 10 -12.5051 24.0614 3
-3 -2 10 -7.63893 46.1588 4
-3 -2 9 8144.66 499.061 1
3 2 -9 8110.22 597.652 2
-3 -2 9 8073.64 633.327 4
-3 -2 9 6903.76 279.659 3
-3 -2 8 875.977 158.766 1
-3 -2 8 927.59 99.3333 3
3 2 -8 765.625 109.717 3
3 2 -8 838.004 182.125 2
-3 -2 8 607.385 177.89 4
-3 -2 7 327746 2764.33 1
-3 -2 7 316723 3409.03 4
3 2 -7 335851 3349.96 2
-3 -2 7 312910 2907.09 1
-3 -2 7 331712 1877.49 3
3 2 -7 320043 2310.65 3
3 2 -7 324999 3167.86 1
-3 -2 6 142296 1744.35 1
3 2 -6 142149 2152.95 4
-3 -2 6 139182 1898.89 2
-3 -2 6 141520 1867.95 1
3 2 -6 151031 2085.19 2
3 2 -6 140568 1554.42 3
3 2 -6 147653 2010.2 1
-3 -2 6 144581 2187.89 4
-3 -2 6 145343 1355.17 3
3 2 -5 1614.39 245.147 4
-3 -2 5 1811.8 216.273 2
3 2 -5 2035.04 270.565 2
-3 -2 5 1747.35 177.844 3
3 2 -5 1584.74 190.76 3
-3 -2 5 1512.38 219.443 1
-3 -2 5 1643.95 243.089 4
3 2 -5 1394.64 230.042 1
-3 -2 5 1692.27 204.304 1
-3 -2 5 1532.85 236.353 4
3 2 -4 47785.6 984.566 1
-3 -2 4 49949.9 1074.5 1
3 2 -4 49520 1105.31 4
3 2 -4 47143.2 949.991 2
-3 -2 4 49615.8 953.894 3
3 2 -4 50053 987.091 3
-3 -2 4 44952.9 958.352 1
-3 -2 4 46883 883.822 2
-3 -2 4 47705.8 1074.2 4
-3 -2 4 48055.1 1086.77 4
-3 -2 3 13754.4 546.364 4
3 2 -3 14627.9 557.846 1
-3 -2 3 14156.2 449.936 2
-3 -2 3 15467.6 582.237 3
3 2 -3 13597.3 460.462 2
3 2 -3 14637 565.096 3
-3 -2 3 14318.2 569.821 1
-3 -2 3 13256.8 459.638 2
-3 -2 3 13910.2 545.588 1
3 2 -3 14196.2 551.68 4
-3 -2 2 22378.4 680.36 4
-3 -2 2 20732.3 701.688 1
-3 -2 2 20792.4 506.007 2
-3 -2 2 20468 680.649 3
3 2 -2 20329.7 676.713 1
-3 -2 2 20454.7 529.596 2
3 2 -2 20235.2 635.016 4
-3 -2 1 108549 1662.51 3
-3 -2 1 101252 1431.22 4
-3 -2 1 96512.6 1544.53 1
3 2 -1 101975 1439.85 4
3 2 -1 101103 1579.77 1
-3 -2 1 94106.2 1556.63 3
-3 -2 1 101574 1128.74 2
3 2 -1 101155 1160.18 2
-3 -2 1 101090 1123.18 2
-3 -2 0 2388.28 218.658 2
-3 -2 0 4980.99 448.631 3
-3 -2 0 4205.97 416.007 3
-3 -2 0 4671.7 433.43 1
3 2 0 2638.54 276.26 2
3 2 0 3205.75 309.835 4
3 2 0 4662.2 436.879 1
-3 -2 0 3085.68 294.131 4
3 2 1 4769.35 343.817 4
3 2 1 4504.56 376.634 1
-3 -2 -1 4838.22 365.89 3
-3 -2 -1 4823.34 271.838 2
-3 -2 -1 4897.75 342.595 4
-3 -2 -1 4489.99 382.937 1
3 2 1 4815.28 306.319 2
3 2 2 982.955 193.52 1
-3 -2 -2 838.794 127.609 2
-3 -2 -2 926.22 170.175 3
3 2 2 870.437 149.073 2
3 2 2 1102.5 181.411 4
-3 -2 -2 957.655 155.819 4
3 2 3 82413.7 1791.74 1
3 2 3 80920.7 1540.97 2
-3 -2 -3 84249.1 1619.27 3
-3 -2 -3 82011 1367.85 2
3 2 3 83119.2 1648.77 4
3 2 4 7610.92 589.226 1
-3 -2 -4 7553.55 448.414 2
-3 -2 -4 7726.69 500.034 3
3 2 4 8168.5 560.206 4
3 2 5 24498.2 1041.92 4
3 2 5 24241.2 1096.84 1
-3 -2 -5 24130.9 906.292 3
-3 -2 -5 24290.2 879.991 2
-3 -2 -6 1782.67 271.802 2
3 2 6 1870.4 352.194 1
-3 -2 -6 1706.19 256.803 3
3 2 6 1979.1 337.789 4
3 2 7 1105.42 252.167 4
-3 -2 -7 254.94 143.667 2
-3 -2 -7 1037.7 202.317 3
3 2 7 1066.89 261.068 1
3 2 8 7498.17 727.662 1
-3 -2 -8 6052.92 538.553 2
-3 -2 -8 7508.74 567.01 3
3 2 8 7302.97 691.904 4
3 2 9 677.798 246.271 1
-3 -2 -9 435.945 134.036 3
-3 -2 -9 381.083 75.5494 2
3 2 9 641.845 217.507 4
3 2 10 314.084 154.033 4
-3 -2 -10 347.167 142.2 2
3 2 10 393.061 203.163 1
3 2 11 258.18 137.763 4
-3 -3 15 1214.59 324.2 1
-3 -3 14 70.0276 93.8344 1
-3 -3 14 470.945 202.591 4
3 3 -13 3779.98 519.486 2
-3 -3 13 3107.3 379.492 1
-3 -3 13 3920.33 545.868 4
3 3 -12 2696.9 390.83 2
-3 -3 12 2322.68 310.558 1
-3 -3 12 2888.8 450.378 4
-3 -3 11 3928.88 397.85 1
3 3 -11 2819.28 363.412 2
-3 -3 11 3677.86 474.661 4
3 3 -10 34.0346 123.652 2
-3 -3 10 196.334 72.0407 1
-3 -3 10 221.038 105.112 4
-3 -3 9 19.7431 11.3167 3
-3 -3 9 258.759 101.159 1
-3 -3 9 43.8508 17.2062 3
3 3 -9 144.084 58.6276 2
-3 -3 9 195.234 90.6857 4
3 3 -8 18198.2 824.829 2
-3 -3 8 18848.3 739.622 1
-3 -3 8 17768.5 878.624 4
-3 -3 7 14642.7 627.452 1
3 3 -7 15289 780.648 4
3 3 -7 14724.6 676.941 2
-3 -3 7 13869.9 376.673 3
-3 -3 7 14890 761.452 4
3 3 -6 15069.4 740.937 4
-3 -3 6 14905.7 612.509 2
3 3 -6 15030.4 636.049 2
-3 -3 6 14508 456.094 3
-3 -3 6 13867.3 638.095 1
3 3 -6 14082.5 673.981 1
-3 -3 6 14340.6 706.583 4
-3 -3 6 14491.6 609.617 1
3 3 -5 25736.6 904.614 4
-3 -3 5 24207.1 880.152 4
-3 -3 5 25828.6 719.351 2
-3 -3 5 25268.7 675.571 3
-3 -3 5 25229 840.89 1
3 3 -5 26581.7 759.982 2
-3 -3 5 26607.3 713.925 3
-3 -3 5 25445.2 792.33 1
3 3 -5 25179.9 874.725 1
-3 -3 4 6951.87 389.826 3
3 3 -4 6556.52 435.835 4
-3 -3 4 6419.01 308.34 2
-3 -3 4 6468.8 405.531 1
3 3 -4 6093.83 323.951 2
-3 -3 4 6359.67 361.835 3
3 3 -4 6439.09 405.686 1
-3 -3 4 6448.94 431.728 4
-3 -3 4 6219.21 421.171 1
-3 -3 3 84056.5 1539.37 4
3 3 -3 77716.2 1449.35 4
-3 -3 3 84509.7 1372.54 3
3 3 -3 85464 1487.86 1
-3 -3 3 83717.9 963.558 2
-3 -3 3 81053.3 1361.33 3
3 3 -3 78190.6 1024.46 2
-3 -3 3 83538.4 1533.84 1
-3 -3 3 81092.3 1044.85 2
-3 -3 3 84881.1 1496.15 1
-3 -3 2 32530.7 938.995 4
3 3 -2 33046.3 933.69 4
-3 -3 2 33240.7 888.759 3
-3 -3 2 34259.2 547.417 2
-3 -3 2 32503.1 975.766 1
-3 -3 2 33223.3 918.866 3
-3 -3 2 33602.7 592.2 2
3 3 -2 32441.6 942.295 1
-3 -3 1 98871.5 1634.53 4
3 3 -1 90681.8 1583.58 4
-3 -3 1 96329.9 1572.38 3
-3 -3 1 94136.6 945.438 2
3 3 -1 93676.1 1647.69 1
-3 -3 1 89479.9 1651.54 1
3 3 -1 92043.9 954.649 2
-3 -3 1 91964 896.161 2
3 3 0 5932.16 423.437 4
-3 -3 0 5524.55 412.051 3
3 3 0 5670.22 440.195 1
3 3 0 5638.58 273.715 2
-3 -3 0 5316.36 430.22 1
-3 -3 0 5528.06 239.24 2
-3 -3 0 5625.3 408.97 4
3 3 1 2379.44 276.431 4
3 3 1 2446.48 207.479 2
-3 -3 -1 2371.8 175.214 2
-3 -3 -1 2353.77 265.356 3
-3 -3 -1 1970.7 241.895 4
3 3 1 2446.6 295.965 1
-3 -3 -2 10043.1 566.284 3
3 3 2 10165.1 487.244 2
3 3 2 11288.2 641.574 4
-3 -3 -2 10042.9 420.089 2
3 3 2 10658.1 652.421 1
3 3 3 2482.69 333.141 1
-3 -3 -3 2105.31 219.533 2
3 3 3 2151.36 257.112 2
-3 -3 -3 2005.37 271.155 3
3 3 3 2736.06 335.866 4
3 3 4 46767.9 1479.65 1
-3 -3 -4 46707.2 1124.4 2
-3 -3 -4 45521.3 1268.72 3
3 3 4 47931 1455.55 4
-3 -3 -5 9727.07 548.75 2
-3 -3 -5 10462.1 630.21 3
3 3 5 10028.3 713.126 4
3 3 5 10198.4 734.74 1
3 3 6 762.438 224.063 1
-3 -3 -6 665.345 170.02 3
-3 -3 -6 410.25 100.592 2
3 3 6 766.372 209.325 4
3 3 7 2292.65 376.169 4
3 3 7 2422.13 398.942 1
-3 -3 -7 2222.93 318.626 3
-3 -3 -7 1762.6 257.046 2
-3 -3 -8 4065.01 447.038 2
-3 -3 -8 3878.31 424.146 3
3 3 8 4347.7 553.1 4
3 3 8 4299.21 559.802 1
3 3 9 209.189 123.153 1
3 3 9 163.982 109.346 4
-3 -3 -9 118.493 24.0473 3
3 3 10 252.162 128.858 1
-3 -3 -10 130.466 132.571 2
3 3 10 242.113 147.649 4
-3 -3 -11 -439.546 298.612 2
-3 -4 15 -42.7382 93.4973 1
-3 -4 15 17.7641 62.7483 4
-3 -4 14 306.993 213.637 4
3 4 -14 241.891 176.2 2
-3 -4 14 -110.35 113.838 1
-3 -4 13 -46.7378 96.0369 1
-3 -4 13 110.689 69.8812 4
3 4 -12 767.338 189.737 2
-3 -4 12 998.361 216.285 1
-3 -4 12 937.719 253.813 4
3 4 -11 693.691 165.247 2
-3 -4 11 1213.14 230.599 1
-3 -4 11 1219.77 281.235 4
-3 -4 10 1701.78 262.978 1
3 4 -10 1351.85 211.262 2
-3 -4 10 1512.78 289.357 4
-3 -4 9 1160.73 246.961 4
-3 -4 9 1355.74 222.647 1
3 4 -9 967.41 210.403 4
3 4 -9 1030.07 174.936 2
-3 -4 8 961.063 179.873 1
3 4 -8 1005.54 215.877 4
-3 -4 8 411.67 52.994 3
-3 -4 8 799.502 70.4443 3
-3 -4 8 950.84 208.997 4
3 4 -8 735.981 129.198 2
-3 -4 7 7305.17 294.036 3
3 4 -7 8893.22 511.505 2
3 4 -7 9586.65 646.564 4
-3 -4 7 8694.88 340.301 3
-3 -4 7 8798.97 521.006 1
-3 -4 7 9079.75 608.802 4
-3 -4 6 30934.6 868.015 2
3 4 -6 30852.6 1113.72 4
-3 -4 6 31086.2 952.686 1
-3 -4 6 30157.6 686.408 3
3 4 -6 30877.7 875.568 2
-3 -4 6 29016.5 760.958 3
-3 -4 6 29217.2 1051.21 4
3 4 -5 1418.5 231.401 4
-3 -4 5 1462.52 172.631 3
3 4 -5 1143.39 150.263 2
-3 -4 5 1006.23 119.463 2
-3 -4 5 1218.57 169.039 3
-3 -4 5 1348.56 209.863 1
-3 -4 4 30660.7 638.898 2
-3 -4 4 30896.1 816.674 3
3 4 -4 29723.1 1009.63 4
3 4 -4 28863.6 655.106 2
-3 -4 4 28164.3 813.799 3
-3 -4 4 30001.7 941.936 1
3 4 -4 28669.3 934.985 1
-3 -4 3 5302.74 215.58 2
-3 -4 3 5431.7 368.612 3
3 4 -3 5549.25 418.941 1
3 4 -3 4968.55 225.808 2
-3 -4 3 5075.65 424.573 1
-3 -4 3 5240.45 427.622 4
-3 -4 3 5589.14 241.071 2
-3 -4 3 5523.9 425.942 1
3 4 -3 5512.24 432.782 4
-3 -4 2 83469.7 1664.4 4
3 4 -2 88744.3 1684.61 1
3 4 -2 87614.7 1705.3 4
-3 -4 2 55845.5 471.631 2
-3 -4 2 86696.4 1507.54 3
-3 -4 2 78137.3 1645.98 1
-3 -4 2 58048.1 530.116 2
-3 -4 1 3268.46 314.574 3
3 4 -1 2828.95 314.414 1
3 4 -1 2815.97 321.081 4
3 4 0 4948.21 434.941 4
-3 -4 0 4846.79 185.595 2
-3 -4 0 5141.11 403.652 3
3 4 0 4867.88 422.005 1
3 4 0 4675.5 214.864 2
3 4 1 13195 713.92 4
-3 -4 -1 12933.5 383.53 2
-3 -4 -1 13209.9 651.352 3
3 4 1 12995.9 712.301 1
3 4 1 13259.4 457.14 2
3 4 2 21631.6 951.429 4
-3 -4 -2 21639.1 590.983 2
-3 -4 -2 21221.3 851.533 3
3 4 2 21220.8 956.273 1
3 4 2 20830.6 672.666 2
3 4 3 172.421 81.487 1
3 4 3 246.862 116.109 4
3 4 3 144.478 61.2928 2
-3 -4 -3 166.412 29.0848 2
-3 -4 -3 200.108 88.6693 3
-3 -4 -4 2088.04 230.052 2
-3 -4 -4 2348.16 314.158 3
3 4 4 2240.78 343.65 1
3 4 4 2490.18 367.008 4
3 4 5 1003.27 228.773 4
-3 -4 -5 967.866 209.551 3
3 4 5 987.02 241.398 1
-3 -4 -5 979.716 176.919 2
-3 -4 -6 3112.89 347.564 2
-3 -4 -6 3057.76 378.725 3
3 4 6 2835.85 427.659 1
3 4 6 2623.45 408.59 4
3 4 7 318.503 138.84 4
3 4 7 387.823 147.067 1
-3 -4 -7 120.995 76.4248 2
-3 -4 -7 416.454 140.723 3
3 4 8 60.3031 20.1043 4
3 4 8 99.8181 96.5044 1
-3 -4 -8 72.099 49.2869 3
3 4 9 635.66 219.759 4
-3 -4 -9 654.081 189.944 3
3 4 9 526.812 189.502 1
-3 -4 -9 179.534 194.674 2
3 5 -15 3492.36 554.347 2
-3 -5 15 2003.01 304.461 1
-3 -5 15 2664.37 515.072 4
3 5 -14 1103.33 173.48 2
-3 -5 14 1413.67 248.191 1
-3 -5 13 15.6412 21.0626 4
3 5 -13 -125.297 160.885 2
-3 -5 13 -65.8768 78.5323 1
-3 -5 12 5866.05 540.673 1
3 5 -12 5028.23 520.002 2
-3 -5 12 5760.81 644.16 4
-3 -5 11 6232.16 536.735 1
3 5 -11 4991.44 502.789 2
-3 -5 11 5841.18 600.904 4
-3 -5 10 4953.89 461.996 1
3 5 -10 4649.07 528.007 4
-3 -5 10 4683.76 519.888 4
3 5 -10 4833.89 462.232 2
3 5 -9 2558.12 378.513 4
-3 -5 9 2382.21 305.016 1
3 5 -9 2231.56 289.288 2
-3 -5 9 2390.98 353.25 4
3 5 -8 9739.36 569.303 2
3 5 -8 10538.2 736.111 4
-3 -5 8 9970.74 323.775 3
-3 -5 8 9979.57 603.585 1
-3 -5 8 9449.27 676.398 4
-3 -5 7 488.75 135.292 1
-3 -5 7 523.873 83.0413 3
3 5 -7 544.249 162.73 4
3 5 -7 415.716 89.9031 2
-3 -5 7 460.376 100.427 3
-3 -5 7 474.528 147.881 4
-3 -5 6 78.2787 49.0508 2
-3 -5 6 215.489 98.5327 1
3 5 -6 94.2747 75.3956 4
-3 -5 6 200.922 57.093 3
3 5 -6 64.2286 43.8765 2
-3 -5 6 61.9221 37.6445 3
-3 -5 5 83.6554 62.1966 1
3 5 -5 309.818 135.284 4
-3 -5 5 321.223 87.9005 2
-3 -5 5 271.428 83.0844 3
3 5 -5 76.4804 66.6749 2
-3 -5 5 237.806 89.2424 3
-3 -5 4 5628.27 364.047 3
3 5 -4 5071.76 247.006 2
3 5 -4 4868.54 446.03 4
-3 -5 4 5579.89 255.656 2
-3 -5 4 4919.48 416.138 1
3 5 -4 4992.59 418.53 1
3 5 -3 40277.9 1259.05 4
-3 -5 3 38962.6 1007.06 3
3 5 -3 38004.1 1158.19 1
-3 -5 3 22652.6 342.807 2
-3 -5 3 39903.8 1193.14 1
-3 -5 3 20468.5 306.136 2
3 5 -2 2003.14 287.92 4
3 5 -2 1924.37 272.542 1
-3 -5 2 1904.71 236.851 3
-3 -5 2 1989.25 278.236 1
3 5 -1 5357.43 454.814 1
3 5 -1 5678.94 483.127 4
-3 -5 1 5529.25 417.014 3
3 5 0 9687.14 654.8 4
-3 -5 0 9533.15 564.446 3
3 5 0 9517.56 629.208 1
-3 -5 -1 20568.9 859.325 3
-3 -5 -1 20255.7 457.075 2
3 5 1 20979 954.286 1
3 5 1 21183.3 986.18 4
3 5 1 18821.6 495.111 2
-3 -5 -2 10500 638.784 3
-3 -5 -2 10798.9 409.958 2
3 5 2 10658.2 718.242 1
3 5 2 10960.1 740.025 4
3 5 2 10430 461.828 2
3 5 3 3655.94 451.235 4
-3 -5 -3 2972.08 245.019 2
3 5 3 3526.02 432.699 1
3 5 3 3365.33 311.292 2
-3 -5 -3 3326.53 374.425 3
-3 -5 -4 1649.72 290.172 3
3 5 4 1765.13 341.354 1
3 5 4 1591.53 334.057 4
-3 -5 -4 1217 174.031 2
3 5 5 1683.78 339.894 4
-3 -5 -5 1444.68 277.538 3
-3 -5 -5 1249.36 166.614 2
3 5 5 1513.08 310.993 1
-3 -5 -6 340.736 48.8708 2
3 5 6 1071.04 263.653 1
3 5 6 1158.46 287.427 4
-3 -5 -6 850.956 205.889 3
3 5 7 105.89 126.251 4
3 5 7 -62.664 102.936 1
-3 -5 -7 -149.662 195.795 2
-3 -5 -7 -39.0477 69.2302 3
3 5 8 110.892 114.607 4
3 5 8 12.4542 51.5555 1
-3 -5 -8 -20.9834 54.4469 3
3 5 9 487.001 216.775 4
3 5 9 404.885 199.183 1
-3 -5 -9 348.887 139.431 3
3 6 -15 275.934 132.068 2
-3 -6 14 2097.95 364.25 1
3 6 -14 1467.16 268.315 2
-3 -6 14 1993.83 416.778 4
-3 -6 13 1064.35 284.532 4
3 6 -13 585.287 28.3382 2
-3 -6 13 1137.9 246.457 1
-3 -6 12 661.058 191.956 1
-3 -6 12 545.717 192.87 4
3 6 -11 210.551 58.2609 4
-3 -6 11 646.432 208.88 4
-3 -6 11 631.362 180.361 1
3 6 -11 583.374 157.949 2
-3 -6 10 2343.28 325.999 1
3 6 -10 2433.25 389.495 4
3 6 -10 2360.74 331.746 2
-3 -6 10 2143.76 360.205 4
-3 -6 9 1541.48 269.504 1
-3 -6 9 1404.6 293.006 4
3 6 -9 1708.5 333.788 4
3 6 -9 1548.05 261.69 2
-3 -6 8 27336.8 1050.42 1
-3 -6 8 26197.2 1156.25 4
3 6 -8 27993.7 955.561 2
-3 -6 8 25967.6 692.853 3
3 6 -8 28848.4 1252.75 4
3 6 -7 5028.43 525.012 4
-3 -6 7 4894.13 292.584 3
3 6 -7 4694.44 367.062 2
-3 -6 7 4063.24 323.675 3
-3 -6 7 4216.49 361.234 2
-3 -6 7 5132.2 462.463 1
3 6 -6 1197.34 254.489 4
3 6 -6 1125.81 147.87 2
-3 -6 6 971.695 167.616 3
-3 -6 6 1216.85 157.351 3
-3 -6 6 1148.6 161.863 2
-3 -6 6 1201 221.67 1
3 6 -5 405.109 143.63 4
-3 -6 5 645.016 107.679 2
-3 -6 5 655.525 135.193 3
-3 -6 5 258.083 103.99 1
3 6 -5 391.295 60.3191 2
3 6 -4 19881.9 958.305 4
-3 -6 4 19043.7 714.296 3
3 6 -4 16042.6 382.536 2
-3 -6 4 19819.6 886.473 1
-3 -6 4 14275.9 358.86 2
3 6 -4 19479.5 865.176 1
3 6 -3 4442.83 462.03 4
-3 -6 3 4423.06 365.037 3
3 6 -3 4577.48 435.761 1
-3 -6 3 4610.49 433.262 1
3 6 -2 922.089 224.853 4
-3 -6 2 1100.5 203.842 3
3 6 -2 854.113 199.064 1
-3 -6 2 802.066 196.65 1
3 6 -1 16356.1 895.744 4
-3 -6 1 14977.5 720.707 3
3 6 -1 15917.4 836.218 1
3 6 0 13509.4 840.333 4
3 6 0 13046.1 770.998 1
-3 -6 0 12149.8 670.663 3
3 6 1 16.1725 9.13546 2
3 6 1 27.5262 53.2512 4
3 6 1 11.0277 38.0843 1
-3 -6 -1 76.8 73.4233 3
-3 -6 -1 15.5082 11.982 2
3 6 2 112.074 97.9434 1
-3 -6 -2 210.748 117.612 3
3 6 2 168.661 115.094 4
-3 -6 -2 142.801 50.3797 2
3 6 3 28.3112 52.8012 4
3 6 3 0.28628 55.525 1
-3 -6 -3 56.1362 79.8041 3
-3 -6 -3 64.5919 51.247 2
3 6 4 621.453 195.658 1
-3 -6 -4 476.379 160.618 3
-3 -6 -4 259.529 45.5667 2
3 6 4 627.954 211.529 4
3 6 5 1559.81 324.532 1
-3 -6 -5 1247.27 270.714 3
3 6 5 1491.69 342.201 4
3 6 6 484.194 202.916 4
3 6 6 447.459 192.301 1
-3 -6 -6 420.279 153.545 3
3 6 7 -48.0814 78.8473 4
-3 -6 -7 -26.9181 62.6222 3
3 6 7 -34.5161 81.375 1
3 6 8 403.456 200.09 4
-3 -6 -8 380.607 150.955 3
3 6 8 452.747 213.599 1
3 7 -15 -686.451 377.562 2
3 7 -14 497.477 40.2262 2
-3 -7 14 850.394 223.348 1
-3 -7 14 825.456 261.83 4
-3 -7 13 7.87712 11.1776 1
-3 -7 13 33.4171 56.5366 4
3 7 -12 110.38 121.615 4
-3 -7 12 -217.814 213.272 4
3 7 -12 -214.211 226.94 2
-3 -7 12 202.493 113.895 1
-3 -7 11 5398.44 541.648 1
3 7 -11 5617.76 652.559 4
3 7 -11 5323.48 525.496 2
-3 -7 11 5257.59 608.83 4
3 7 -10 105.3 101.72 4
-3 -7 10 151.738 116.735 1
3 7 -10 113.816 91.493 2
-3 -7 10 158.767 116.635 4
-3 -7 9 19650.2 1082.28 4
3 7 -9 21710.3 1177.3 4
3 7 -9 19805.3 870.502 2
-3 -7 9 20201.2 974.052 1
3 7 -8 921.309 243.565 4
-3 -7 8 917.981 205.258 1
-3 -7 8 1055.74 130.622 3
3 7 -8 735.674 109.617 2
-3 -7 7 336.134 152.564 1
3 7 -7 248.923 127.53 4
-3 -7 7 258.85 95.524 2
3 7 -7 161.185 76.1492 2
-3 -7 7 280.092 79.0973 3
-3 -7 7 196.9 81.0778 3
-3 -7 6 5802.42 361.031 2
3 7 -6 6339.08 595.569 4
-3 -7 6 6165.17 520.846 1
-3 -7 6 5874.64 386.646 3
3 7 -6 6386.97 362.991 2
-3 -7 5 67.6894 46.2849 2
-3 -7 5 75.7353 1.53184 1
3 7 -5 153.172 129.248 4
3 7 -5 57.7068 33.9732 2
-3 -7 5 208.643 105.66 3
3 7 -4 2741.24 347.678 1
-3 -7 4 2822.35 300.959 3
-3 -7 4 2645.57 352.267 1
3 7 -4 2469.34 366.234 4
3 7 -3 12457.5 830.24 4
-3 -7 3 13603.2 678.561 3
3 7 -3 13557.9 789.101 1
-3 -7 3 13198.5 768.683 1
3 7 -2 64483.5 1885.64 4
-3 -7 2 63160.7 1513.71 3
3 7 -2 66043.3 1761.8 1
-3 -7 2 66751.8 1782.33 1
3 7 -1 6952.84 588.439 1
3 7 -1 6586.04 625.302 4
-3 -7 1 6707.98 520.314 3
-3 -7 1 7150.95 599.071 1
-3 -7 0 12533.6 731.367 3
3 7 0 13353.4 910.238 4
3 7 0 13847.7 850.643 1
3 7 1 878.786 236.505 4
-3 -7 -1 802.439 197.077 3
3 7 1 890.829 224.968 1
-3 -7 -2 457.614 146.747 3
3 7 2 558.33 173.036 1
3 7 2 628.295 201.127 4
3 7 3 1626.09 341.618 4
-3 -7 -3 1295.34 274.412 3
3 7 3 1648.51 329.233 1
3 7 4 93.7284 60.9608 4
3 7 4 74.9918 69.9344 1
-3 -7 -4 77.7592 53.572 3
-3 -7 -5 3006.31 420.826 3
3 7 5 3335.24 490.615 1
3 7 5 3200.65 515.849 4
3 7 6 240.025 156.474 4
3 7 6 154.017 96.7753 1
-3 -7 -6 140.607 82.7901 3
3 7 7 -7.22871 59.2291 4
3 7 7 10.0147 33.0891 1
-3 -7 -7 -32.9938 87.9598 3
3 8 -14 -459.834 307.517 2
-3 -8 14 -0.16796 99.2621 4
-3 -8 13 491.538 102.511 4
-3 -8 13 714.527 216.358 1
3 8 -12 277.625 150.66 4
-3 -8 12 389.963 150.369 1
-3 -8 12 383.157 200.54 4
3 8 -11 785.004 253.96 4
-3 -8 11 877.297 231.063 1
3 8 -11 779.799 153.572 2
-3 -8 11 809.385 245.395 4
-3 -8 10 4209.47 483.137 1
3 8 -10 4841.13 602.887 4
3 8 -10 4147.77 417.647 2
-3 -8 10 4299.87 543.572 4
-3 -8 9 16350 912.784 1
3 8 -9 17518.5 1115.89 4
3 8 -9 15918.5 763.893 2
-3 -8 9 15852.3 1016.86 4
3 8 -8 417.328 232.498 4
-3 -8 8 196.691 153.341 1
3 8 -8 -88.5767 104.248 2
-3 -8 8 164.958 85.47 3
3 8 -7 4704.81 545.171 4
-3 -8 7 4175.96 328.954 3
3 8 -7 4381.7 328.414 2
-3 -8 7 4116.75 450.763 1
3 8 -6 641.341 203.433 4
-3 -8 6 579.831 188.397 1
-3 -8 6 442.818 124.423 3
3 8 -5 15662.5 977.866 4
-3 -8 5 13904.1 690.153 3
3 8 -5 9468.39 263.483 2
-3 -8 5 6164.86 236.2 2
-3 -8 5 15739.9 880.261 1
-3 -8 4 1557.11 277.371 1
3 8 -4 1312.76 270.045 4
-3 -8 4 1656.57 259.674 3
3 8 -4 1308.6 234.256 1
-3 -8 3 22282.6 1059.26 1
-3 -8 3 22293.7 929.167 3
3 8 -3 22456.5 1057.34 1
3 8 -3 21841.3 1160.66 4
-3 -8 2 58742.1 1745.48 1
3 8 -2 58963.2 1741.35 1
3 8 -2 57827.9 1918.42 4
-3 -8 2 57620 1547.64 3
-3 -8 1 6541.29 541.985 3
3 8 -1 7186.82 624.375 1
3 8 -1 6656.03 658.587 4
-3 -8 1 7065.57 622.599 1
3 8 0 1026.01 265.391 4
3 8 0 1166.15 267.416 1
-3 -8 0 1037.31 240.068 3
-3 -8 0 1190.07 262.978 1
3 8 1 81.907 37.875 4
-3 -8 -1 93.1311 61.2351 3
3 8 1 92.7809 52.6727 1
3 8 2 4390.88 581.572 4
-3 -8 -2 3583.76 447.039 3
3 8 2 4389.3 532.629 1
3 8 3 2897.57 479.311 4
-3 -8 -3 2419.71 375.75 3
3 8 3 2952.56 445.137 1
3 8 4 1348.96 337.377 4
-3 -8 -4 1384.31 298.825 3
3 8 4 1456.96 331.257 1
3 8 5 447.483 186.773 4
3 8 5 583.32 220.538 1
-3 -8 -5 515.302 182.621 3
3 8 6 987.324 294.901 1
3 9 -14 -363.731 299.91 2
3 9 -13 2875.19 531.521 4
3 9 -13 1730.07 260.569 2
-3 -9 13 2740.94 501.617 4
-3 -9 12 2027.11 359.736 1
3 9 -12 2172.1 443.928 4
3 9 -12 885.354 96.2783 2
-3 -9 12 1965.29 408.267 4
-3 -9 11 96.2226 71.5965 4
3 9 -11 83.8251 72.3623 4
-3 -9 11 77.3742 47.8792 1
3 9 -10 197.444 135.83 4
-3 -9 10 152.933 103.124 1
-3 -9 10 105.254 78.3077 4
3 9 -9 13997.7 1030.01 4
3 9 -9 12802.2 677.672 2
-3 -9 9 13078.3 861.717 1
3 9 -8 140.079 128.702 4
-3 -9 8 26.3827 24.8368 1
-3 -9 8 82.6475 56.6976 3
3 9 -7 552.042 198.864 4
-3 -9 7 856.831 241.349 1
-3 -9 7 540.574 132.324 3
-3 -9 6 499.662 200.515 1
-3 -9 6 340.982 108.055 3
3 9 -6 328.505 147.554 4
3 9 -5 105.57 72.5976 4
-3 -9 5 81.8658 46.1986 3
-3 -9 4 5111.71 457.632 3
3 9 -4 5255.2 603.819 4
-3 -9 4 5601.01 561.442 1
-3 -9 3 39.7773 73.2265 1
3 9 -3 13.7348 55.9069 4
3 9 -3 -122.088 153.418 1
-3 -9 3 -8.56928 24.7165 3
-3 -9 2 32.5397 47.1832 1
3 9 -2 30.715 46.5714 4
3 9 -2 10.6986 35.7971 1
-3 -9 2 -32.0903 71.4675 3
3 9 -1 501.543 200.219 4
-3 -9 1 507.658 157.563 3
-3 -9 1 536.308 172.002 1
3 9 -1 515.576 173.919 1
3 9 0 1472.72 345.441 4
-3 -9 0 1344.44 272.232 3
3 9 0 1378.35 298.861 1
-3 -9 0 1430.22 300.877 1
3 9 1 14.2515 73.8465 4
3 9 1 25.0451 48.9555 1
-3 -9 -1 10.1341 23.797 3
-3 -9 -1 -68.9601 108.323 1
3 9 2 1284.75 345.697 4
3 9 2 1409.73 319.242 1
-3 -9 -2 1364.93 295.963 3
-3 -9 -2 1387.01 300.316 1
3 9 3 6859.84 800.166 4
-3 -9 -3 6055.45 638.74 3
3 9 3 7316.57 740.979 1
-3 -9 -4 2892.19 453.401 3
3 9 4 2865.37 535.419 4
3 9 4 3133.86 512.554 1
3 10 -12 -144.466 188.888 4
-3 -10 12 19.7292 28.6465 4
3 10 -11 -97.2674 120.208 4
-3 -10 11 -63.9829 102.029 1
-3 -10 11 -32.5544 95.0097 4
3 10 -10 1113.17 325.019 4
-3 -10 10 1000.15 262.394 1
-3 -10 10 963.491 277.921 4
-3 -10 9 1584.22 314.242 1
3 10 -9 1647.59 372.751 4
3 10 -8 78.3731 81.3353 4
-3 -10 8 66.23 46.2594 1
3 10 -7 412.202 192.286 4
-3 -10 7 459.94 228.587 1
-3 -10 7 266.506 95.4853 3
3 10 -6 45.7113 33.3657 4
-3 -10 6 -47.9336 113.262 1
-3 -10 6 77.7541 52.0324 3
3 10 -5 142.121 101.635 4
-3 -10 5 186.066 89.2542 3
3 10 -4 7.45408 39.6901 4
-3 -10 4 66.8786 68.0838 3
-3 -10 4 31.8808 88.1249 1
3 10 -3 7975.44 801.004 4
3 10 -3 8096.56 705.854 1
-3 -10 3 7324.31 609.985 3
-3 -10 3 8084.28 709.3 1
-3 -10 2 390.345 155.478 1
3 10 -2 231.579 79.5923 1
3 10 -2 298.495 154.504 4
-3 -10 2 291.841 131.7 3
-3 -10 1 592.633 201.843 1
3 10 -1 562.411 215.749 4
3 10 -1 646.232 212.799 1
-3 -10 1 504.648 167.036 3
-3 -10 0 2206.35 379.523 1
3 10 0 1890.35 366.5 1
-3 -10 0 1548.24 313.913 3
3 10 0 1932.43 416.049 4
-3 -10 -1 186.095 114.944 1
3 10 1 91.7745 75.6774 4
-3 -10 -1 78.7381 67.1178 3
-3 -10 -2 529.977 193.205 3
3 10 2 631.174 208.817 1
-3 -10 -2 596.311 199.671 1
3 10 2 621.183 249.775 4
3 10 3 2236.08 423.371 1
-3 -10 -3 2167.39 397.116 1
3 11 -11 1681.54 407.802 4
-3 -11 11 1442.45 364.235 4
3 11 -10 25135.9 1550.24 4
-3 -11 10 23049.1 1287.03 1
-3 -11 9 4667.45 571.542 1
3 11 -9 4810.94 676.418 4
3 11 -8 175.698 145.405 4
-3 -11 8 15.5898 35.4825 1
3 11 -7 149.833 107.744 4
-3 -11 7 144.55 82.829 1
-3 -11 7 127.573 61.0199 3
3 11 -6 1183 318.035 4
-3 -11 6 1157.44 272.329 1
-3 -11 6 1101.73 219.981 3
3 11 -5 158.311 101.741 4
-3 -11 5 289.348 190.289 1
-3 -11 5 121.173 75.4229 3
-3 -11 4 361.965 80.1034 1
3 11 -4 883.518 284.9 4
-3 -11 4 680.682 185.565 3
3 11 -3 343.076 178.157 4
-3 -11 3 383.753 154.762 3
3 11 -2 -67.8217 210.1 1
-3 -11 2 524.56 175.078 1
3 11 -2 449.268 200.159 4
-3 -11 2 449.213 166.077 3
-3 -11 1 -15.1796 52.7686 1
3 11 -1 16.634 59.9796 4
-3 -11 1 45.9743 61.5974 3
-3 -11 0 91.7307 81.3362 1
3 11 0 74.9628 93.1274 4
-3 -11 0 6.53173 55.8039 3
3 11 0 108.798 99.356 1
-3 -11 -1 2643.19 435.956 1
3 11 1 2465.92 448.173 1
3 12 -9 442.836 244.12 4
3 12 -8 791.529 275.75 4
-3 -12 8 658.369 217.747 1
-3 -12 7 27.2356 48.4832 1
3 12 -7 33.8762 33.586 4
3 12 -6 44.8578 18.2571 4
-3 -12 6 68.0617 63.851 3
3 12 -5 275.725 163.474 4
-3 -12 5 361.935 158.558 1
-3 -12 5 387.328 147.397 3
3 12 -4 3957.43 621.795 4
-3 -12 4 4004.62 492.692 3
-3 -12 3 2538.17 392.188 1
3 12 -3 3301.13 586.395 4
-3 -12 3 3134.99 449.848 3
-3 -12 2 78.8124 75.0603 3
-3 -12 2 -1077.55 324.818 1
3 12 -1 1288.34 333.522 1
-3 -12 1 1289.22 309.221 1
3 12 0 2121.81 419.294 1
-3 -13 5 810.798 226.419 3
-3 -13 4 2302.66 406.968 3
-4 13 1 75.6383 126.986 4
-4 13 0 5299.6 696.751 4
-4 13 -1 28.4471 49.2305 4
4 -13 3 -83.3739 309.576 3
4 -13 4 386.844 212.382 3
-4 12 3 9275.98 947.949 4
-4 12 2 3388.77 548.425 4
-4 12 1 148.75 117.33 4
-4 12 0 2273.4 429.56 4
4 -12 0 381.098 260.318 3
-4 12 -1 4134.49 564.206 4
4 -12 1 2516.54 325.666 3
-4 12 -2 29.9207 60.5117 4
-4 12 -3 1164.65 271.071 4
4 -12 3 575.912 101.686 3
4 -12 4 201.259 144.474 3
4 -12 6 1361.3 199.701 1
-4 12 -7 132.151 120.726 2
4 -12 7 -771.372 311.538 1
-4 12 -8 1159.34 305.854 2
-4 11 5 7.46189 42.3057 4
-4 11 4 -51.2024 99.2279 4
-4 11 3 210.978 115.684 4
4 -11 -3 190.401 121.836 3
4 -11 -2 12.9075 23.3498 3
-4 11 2 130.817 141.818 4
-4 11 1 1224.96 310.62 4
4 -11 -1 -42.5508 279.253 3
-4 11 0 950.839 270.565 4
4 -11 0 -54.1144 274.829 3
-4 11 -1 1370.31 309.537 4
-4 11 -1 1273.82 272.538 2
-4 11 -2 1028.42 247.39 2
-4 11 -2 984.748 258.192 4
4 -11 2 932.829 184.116 3
-4 11 -3 1447.3 292.663 4
-4 11 -3 1434.6 294.818 2
4 -11 3 877.923 88.1977 3
-4 11 -4 3917.87 482.661 4
4 -11 4 2896.88 351.542 1
-4 11 -4 3712.53 479.012 2
-4 11 -5 2193.41 371.753 2
4 -11 5 1727.9 259.842 1
-4 11 -6 1334.28 312.971 2
4 -11 6 672.654 135.905 1
4 -11 7 -379.164 209.317 1
-4 11 -7 126.519 108.928 2
-4 11 -8 908.415 266.901 2
4 -11 8 21.7256 174.215 1
-4 11 -9 3580.33 557.363 2
-4 10 6 1693.04 399.005 4
-4 10 5 1217.38 321.651 4
4 -10 -5 982.643 261.984 3
-4 10 4 61.5139 84.028 4
4 -10 -4 -37.5137 94.411 3
-4 10 3 47.9133 82.2293 2
-4 10 3 11.3821 26.5626 4
4 -10 -3 -49.3619 91.8836 3
-4 10 2 944.488 228.483 2
-4 10 2 1048.99 264.057 4
4 -10 -2 920.591 237.691 3
-4 10 1 3387.11 465.756 4
4 -10 -1 2380 341.426 3
-4 10 1 3338.34 434.934 2
-4 10 0 153.739 92.9695 2
-4 10 0 123.106 94.3024 4
-4 10 -1 1071.31 240.166 2
4 -10 1 338.733 103.547 3
-4 10 -1 1101.61 256.95 4
-4 10 -2 468.915 168.246 2
-4 10 -2 501.596 167.437 4
4 -10 2 374.135 99.3634 1
-4 10 -3 132.126 36.128 2
-4 10 -3 202.942 95.0556 4
4 -10 3 15.2314 171.377 3
4 -10 3 90.638 41.86 1
-4 10 -4 294.882 123.508 4
-4 10 -4 198.967 98.6502 2
4 -10 4 -4.94562 85.1096 1
-4 10 -5 1253.19 254.364 4
-4 10 -5 1040.07 251.518 2
4 -10 5 721.615 146.039 1
-4 10 -6 37.721 25.3972 2
4 -10 6 38.7784 55.0023 3
-4 10 -7 104.565 84.5066 2
4 -10 7 -154.492 152.138 1
-4 10 -8 2414.09 429.393 2
4 -10 8 1551.4 301.356 1
-4 10 -9 738.505 259.289 2
4 -10 9 1957.18 404.547 1
4 -9 -7 -18.6903 115.963 3
-4 9 7 72.7675 78.3495 4
-4 9 6 106.904 79.258 4
-4 9 6 14.1982 88.7451 2
4 -9 -6 3.65041 93.2176 3
-4 9 5 39.5675 58.251 4
4 -9 -5 -77.2988 107.648 3
-4 9 5 81.9008 90.9565 2
-4 9 4 2251.39 377.426 2
4 -9 -4 2154.04 367.155 3
-4 9 4 2371.03 406.497 4
-4 9 3 75.0404 96.1898 2
4 -9 -3 -30.2392 78.7299 3
-4 9 3 44.2914 87.816 4
-4 9 2 28.1083 38.6255 2
-4 9 2 -8.91038 47.7625 4
4 -9 -2 -102.659 119.59 3
-4 9 1 157.599 77.9511 2
-4 9 1 251.318 119.303 4
-4 9 0 2469.02 367.003 4
4 -9 0 2196.21 235.957 1
-4 9 0 2222.71 343.037 2
-4 9 -1 4782.25 490.195 4
4 -9 1 4831.94 380.297 1
4 -9 1 3575.12 414.035 3
-4 9 -1 4523.16 494.264 2
-4 9 -2 1531.87 285.494 2
-4 9 -2 1513.16 264.908 4
4 -9 2 1528.97 225.675 1
4 -9 2 1379.88 232.178 3
-4 9 -3 35.1037 49.3382 2
-4 9 -3 63.5773 32.0229 4
4 -9 3 156.392 116.61 3
4 -9 3 -33.4855 78.5699 1
-4 9 -4 -30.3415 78.4558 2
-4 9 -4 -14.0001 43.3485 4
4 -9 4 150.151 119.613 3
4 -9 4 -35.7923 89.3153 1
-4 9 -5 6131.04 609.559 2
-4 9 -5 6777.31 544.027 4
4 -9 5 5618.5 517.139 1
4 -9 5 6321.15 543.986 3
-4 9 -6 471.667 152.894 4
4 -9 6 363.798 119.306 4
-4 9 -6 520.926 193.549 2
4 -9 6 527.193 166.758 3
4 -9 6 243.809 42.2501 1
-4 9 -7 1795.55 350.713 2
4 -9 7 1386.44 250.829 1
-4 9 -8 27.3394 43.7453 2
4 -9 8 -42.5118 124.986 1
-4 9 -9 1694.35 365.349 2
4 -9 9 4931.37 646.95 1
-4 9 -10 -22.7678 247.358 2
4 -8 -9 -35.9159 69.5854 3
4 -8 -9 126.392 114.081 2
-4 8 9 193.204 139.9 2
-4 8 8 209.81 115.668 4
-4 8 8 310.764 154.127 2
4 -8 -8 124.262 35.66 3
4 -8 -8 330.355 177.807 2
-4 8 7 -94.3212 127.687 4
-4 8 7 -3.04735 9.17933 2
4 -8 -7 -57.0011 99.8922 3
4 -8 -7 42.0538 89.5309 2
-4 8 6 167.597 128.818 4
4 -8 -6 109.398 39.4373 3
-4 8 6 196.084 117.529 2
-4 8 5 4341.66 538.744 4
4 -8 -5 4273.51 510.407 3
-4 8 5 4456.26 527.375 2
4 -8 -4 4187.08 486.213 3
-4 8 4 3973.58 487.667 2
-4 8 4 3823.96 480.169 4
-4 8 3 118.485 79.9467 4
4 -8 -3 60.5889 24.2393 3
-4 8 3 152.699 89.8284 2
-4 8 2 576.133 175.063 2
-4 8 2 591.975 172.218 4
4 -8 -2 452.735 147.641 3
-4 8 1 123.425 57.2039 2
-4 8 1 149.745 60.9193 4
4 -8 -1 129.79 16.476 1
-4 8 0 1890.13 291.99 4
4 -8 0 1933.32 207.032 1
4 -8 0 1369.48 205.307 3
-4 8 0 1790.7 296.832 2
-4 8 -1 2346.42 315.665 4
4 -8 1 2322.59 257.296 1
4 -8 1 2762.05 368.041 3
-4 8 -1 2310.96 340.914 2
-4 8 -2 2097.11 286.019 4
4 -8 2 2111.73 265.115 1
-4 8 -2 2159.79 330.923 2
4 -8 2 1861.54 278.713 3
-4 8 -3 4266.3 479.897 2
4 -8 3 3714.07 365.395 1
-4 8 -3 3884.87 381.787 4
-4 8 -4 1386.73 228.361 4
-4 8 -4 1348.11 264.844 2
4 -8 4 1652.65 278.241 3
4 -8 4 1072.08 170.576 1
-4 8 -5 3675.08 461.65 2
4 -8 5 3177.99 368.47 1
4 -8 5 3737.8 414.746 3
-4 8 -5 3705.15 372.73 4
4 -8 5 3542.11 373.115 4
-4 8 -6 512.36 144.487 4
-4 8 -6 515.735 190.967 2
4 -8 6 600.318 162.191 3
4 -8 6 144.564 103.269 1
4 -8 6 492.17 146.865 4
4 -8 7 16701 843.21 4
-4 8 -7 16443.6 1021.5 2
4 -8 7 18990.2 1114.9 1
4 -8 7 17897.6 881.138 3
-4 8 -8 2642.58 423.921 2
4 -8 8 4702.61 587.183 1
-4 8 -9 -3.76516 47.7977 2
4 -8 9 1838.05 402.259 1
-4 8 -10 846.529 187.269 2
4 -8 10 3850.48 604.099 1
4 -7 -11 180.278 146.037 2
-4 7 11 -10.2801 59.1406 2
4 -7 -10 112.792 41.2187 3
4 -7 -10 348.653 192.433 2
-4 7 10 239.884 120.358 2
-4 7 9 156.68 124.241 4
4 -7 -9 104.631 64.7217 3
4 -7 -9 224.643 136.031 2
-4 7 9 206.969 125.426 2
-4 7 8 -21.298 81.4114 4
4 -7 -8 -50.8405 91.0982 3
4 -7 -8 38.8695 79.1658 2
-4 7 8 97.3747 102.896 2
-4 7 7 440.826 168.268 4
4 -7 -7 497.303 171.073 3
4 -7 -7 622.431 210.924 2
-4 7 7 513.159 181.947 2
4 -7 -6 5102.97 544.616 3
4 -7 -6 5285.46 581.587 2
-4 7 6 5168.55 576.083 2
-4 7 6 4964.42 565.417 4
4 -7 -5 8287.52 671.884 3
-4 7 5 7978.54 680.666 2
-4 7 5 7598.97 671.937 4
4 -7 -4 8061.9 639.584 3
-4 7 4 8268.6 663.705 4
-4 7 4 8294.82 673.756 2
-4 7 3 17788.6 920.54 4
4 -7 -3 17908.4 937.809 3
-4 7 3 18066.2 969.847 2
-4 7 2 647.821 178.297 2
-4 7 2 717.929 175.95 4
4 -7 -2 469.178 81.726 1
4 -7 -2 605.704 157.012 3
4 -7 -2 242.82 15.5417 1
-4 7 1 15889.9 794.061 4
4 -7 -1 15684.6 517.055 1
4 -7 -1 15682.8 836.598 3
4 -7 -1 15441.9 556.714 1
-4 7 1 15465.3 854.376 2
-4 7 0 12.1943 21.8995 1
-4 7 0 -145.503 136.968 2
-4 7 0 -30.1501 57.8732 4
4 -7 0 45.7823 48.4369 1
4 -7 0 -78.7 80.1929 1
-4 7 -1 64420.2 1480.44 4
4 -7 1 63181.4 1318.89 1
4 -7 1 64198.7 1655.31 3
-4 7 -1 61901.8 1313.7 1
-4 7 -1 63293.7 1744.71 2
-4 7 -2 17293.6 738.934 4
4 -7 2 17931.1 765.157 1
-4 7 -2 18264.6 936.927 2
-4 7 -3 24546.9 1097.79 2
-4 7 -3 25865 880.611 4
4 -7 3 25271 970.506 1
4 -7 3 26750.7 1047.11 3
4 -7 3 22485.7 856.593 4
-4 7 -4 524.109 127.458 4
4 -7 4 530.74 143.596 3
-4 7 -4 465.074 153.651 2
4 -7 4 260.639 40.165 1
4 -7 4 397.768 112.8 4
-4 7 -5 329.357 135.79 2
-4 7 -5 484.276 125.229 4
4 -7 5 382.217 107.064 3
4 -7 5 460.801 122.623 4
4 -7 5 96.3233 120.932 1
-4 7 -6 -233.725 120.706 4
-4 7 -6 22.1999 41.2656 2
4 -7 6 -19.4663 58.1035 3
4 -7 6 16.7734 82.3983 4
4 -7 6 -130.974 103.8 1
-4 7 -7 8404.35 714.659 2
4 -7 7 8585.71 577.39 4
4 -7 7 10302.7 811.393 1
4 -7 7 8341.31 554.42 3
-4 7 -8 12.9609 32.4803 2
4 -7 8 526.383 251.394 1
-4 7 -9 15.0296 21.0933 2
4 -7 9 1718.7 415.693 1
-4 7 -10 986.608 269.51 2
4 -7 10 3389.28 560.932 1
4 -6 -11 165.617 225.572 3
4 -6 -11 490.458 211.563 2
-4 6 11 463.126 194.121 2
-4 6 10 51.9938 85.8663 4
-4 6 10 -40.3799 110.67 2
4 -6 -10 -100.513 113.486 3
4 -6 -10 -31.433 18.5651 2
4 -6 -9 3600.81 472.44 3
4 -6 -9 3678.63 537.484 2
-4 6 9 3825.45 548.49 2
-4 6 9 3707.02 546.421 4
4 -6 -8 945.453 233.157 3
-4 6 8 1316.3 315.642 2
4 -6 -8 1087.78 284.548 2
-4 6 8 1135.14 294.761 4
-4 6 7 700.716 218.494 4
-4 6 7 773.592 229.159 2
4 -6 -7 403.161 136.235 3
4 -6 -7 623.849 216.057 2
4 -6 -6 3003.77 391.674 3
-4 6 6 3209.05 437.178 4
4 -6 -6 3419.07 452.522 2
-4 6 6 3483.78 455.738 2
-4 6 5 2414.98 351.112 4
4 -6 -5 2259.6 321.741 3
4 -6 -5 2494.87 374.115 2
-4 6 5 2370.35 359.295 2
4 -6 -4 1625.59 267.543 3
-4 6 4 1894.1 314.263 2
-4 6 4 1931.41 299.104 4
4 -6 -3 25503.3 1054.08 3
-4 6 3 26675.1 1120.54 2
-4 6 3 26930.7 1041.67 4
-4 6 2 24.2104 35.5128 2
4 -6 -2 14.4677 14.8796 1
4 -6 -2 104.496 49.1952 1
4 -6 -2 62.9812 73.3088 3
-4 6 2 24.2379 38.7277 4
-4 6 1 5591.48 424.562 4
4 -6 -1 5152.19 442.464 3
4 -6 -1 5924.79 302.887 1
4 -6 -1 5822.63 304.099 1
-4 6 1 5373.18 289.675 1
-4 6 1 5507.97 497.106 2
-4 6 0 16145.9 681.561 4
4 -6 0 15364.4 565.587 1
4 -6 0 16425.3 806.859 3
4 -6 0 15446.5 666.668 4
-4 6 0 15774 559.477 1
-4 6 0 15603.1 809.459 2
-4 6 -1 59005.5 1245.01 4
4 -6 1 60740.2 1262.85 1
4 -6 1 61671.3 1542.2 3
4 -6 1 57529.9 1233.98 4
-4 6 -1 58719.1 1184.77 1
-4 6 -1 59830.9 1631.11 2
-4 6 -2 2511.25 248.202 4
4 -6 2 2494.76 263.683 1
4 -6 2 2803.05 331.331 3
-4 6 -2 2661.42 348.648 2
4 -6 2 2155.35 218.186 4
-4 6 -3 2023.74 303.709 2
4 -6 3 2127.36 231.022 4
-4 6 -3 2142.39 220.169 4
4 -6 3 1894.14 244.278 1
4 -6 3 2094.85 270.491 3
-4 6 -4 691.745 189.63 2
-4 6 -4 770.506 137.18 4
4 -6 4 811.538 146.834 4
4 -6 4 741.781 164.732 3
4 -6 4 701.799 133.757 4
4 -6 4 725.177 153.582 1
-4 6 -5 1489.61 280.491 2
-4 6 -5 1210.45 174.275 4
4 -6 5 1431.15 191.521 4
4 -6 5 1497.89 293.723 1
4 -6 5 1453.36 233.072 3
4 -6 5 1233.79 190.802 4
-4 6 -6 31046.5 1293 2
4 -6 6 32604.4 1092.25 3
4 -6 6 32880.2 1338.23 1
4 -6 6 32684.2 1011.76 4
-4 6 -7 1367.07 305.76 2
4 -6 7 1492.93 245.285 3
4 -6 7 2403.7 404.377 1
4 -6 7 1822.86 256.307 4
-4 6 -8 1078.62 268.543 2
4 -6 8 1255.3 230.603 4
4 -6 9 996.514 345.39 1
-4 6 -9 105.513 73.6292 2
-4 6 -10 852.046 254.378 2
4 -6 10 2542.13 506.427 1
-4 6 -11 364.624 133.267 2
4 -5 -12 91.1103 213.086 2
-4 5 12 474.669 223.675 2
-4 5 11 2433.94 474.806 4
4 -5 -11 1200.25 61.2691 3
4 -5 -11 2288.17 392.378 2
-4 5 11 2675.85 496.432 2
4 -5 -10 6423.96 708.751 2
4 -5 -10 7159.52 647.869 3
-4 5 10 7387.17 782.598 2
-4 5 10 6920.32 761.701 4
-4 5 9 1711.54 360.011 4
4 -5 -9 1715.27 292.018 3
4 -5 -9 1813.5 366.196 2
-4 5 9 1849.32 371.469 2
-4 5 8 1064.61 266.565 4
4 -5 -8 877.495 194.034 3
4 -5 -8 1084.33 264.554 2
-4 5 8 1152.36 279.645 2
4 -5 -7 8241.4 632.3 3
4 -5 -7 8520.67 726.618 2
-4 5 7 8531.33 721.315 2
-4 5 7 7904.98 683.311 4
4 -5 -6 -67.6229 92.772 3
4 -5 -6 60.0057 79.83 2
-4 5 6 33.3656 43.4272 2
4 -5 -5 2109.18 293.126 3
4 -5 -5 2177.63 331.929 2
-4 5 5 2068.61 327.085 2
-4 5 5 2041.79 304.712 4
4 -5 -4 5315.36 457.003 3
-4 5 4 5738.14 478.54 4
4 -5 -4 5846.34 526.581 2
-4 5 4 5678.95 519.52 2
4 -5 -3 10277.6 631.511 3
-4 5 3 10737.9 684.984 2
-4 5 3 11071.6 609.813 4
-4 5 2 86.1381 86.6068 2
4 -5 -2 -2.12278 14.2439 1
-4 5 2 98.6567 73.1165 4
4 -5 -2 39.4063 63.8407 4
4 -5 -2 18.249 15.9848 1
4 -5 -2 -98.7884 115.535 3
-4 5 1 15127.4 615.345 4
-4 5 1 14630.7 775.433 2
4 -5 -1 15114.2 741.541 3
4 -5 -1 15827.9 474.716 1
-4 5 1 15046.9 442.006 1
4 -5 -1 13728.5 590.688 4
-4 5 0 1871.75 201.55 4
4 -5 0 1888.56 263.288 3
4 -5 0 2236.55 217.762 1
-4 5 0 1851.48 177.389 1
-4 5 0 1633.15 255.773 2
4 -5 0 1841.67 200.834 4
-4 5 -1 1630.75 189.198 1
-4 5 -1 1514.44 169.72 4
4 -5 1 1598.06 244.313 3
4 -5 1 1983.36 235.826 1
-4 5 -1 1471.18 248.668 2
4 -5 1 1667.83 174.266 4
-4 5 -2 13573.4 590.696 1
-4 5 -2 13916.6 487.549 4
4 -5 2 13268.4 664.91 3
4 -5 2 14543.8 672.1 1
-4 5 -2 13589.8 754.264 2
4 -5 2 14015 493.34 4
-4 5 -3 19634.2 930.607 2
-4 5 -3 21339.6 620.361 4
4 -5 3 21347 629.526 4
4 -5 3 20584.4 852.387 3
4 -5 3 20772.4 864.865 1
4 -5 3 19990.4 615.991 4
4 -5 4 11394.2 504.447 4
-4 5 -4 10948 712.034 2
4 -5 4 11433 641.927 3
4 -5 4 11549.8 695.304 1
4 -5 4 11313.6 475.164 4
-4 5 -5 21220.4 1012.95 2
4 -5 5 20959.8 757.062 4
4 -5 5 22401.6 905.818 3
4 -5 5 22231.9 1018.3 1
4 -5 5 22829 746.784 4
-4 5 -6 27110.7 1177.94 2
4 -5 6 28873.4 933.895 4
4 -5 6 27637.5 974.989 3
4 -5 6 28034.6 1211.33 1
-4 5 -7 243.413 149.966 2
4 -5 7 50.6939 55.9163 4
-4 5 -8 5860.82 596.829 2
4 -5 8 6633.15 663.374 1
4 -5 8 6593.24 516.182 4
4 -5 9 1026.08 364.126 1
4 -5 9 43.5361 69.2651 4
4 -5 10 53.4232 62.5771 1
-4 5 -10 3.93382 180.116 2
-4 4 12 7763.79 849.21 4
4 -4 -12 6903.44 613.646 3
4 -4 -12 8775.47 908.98 2
4 -4 -11 12283.3 824.007 3
4 -4 -11 13890.1 1076.16 2
-4 4 11 13600 1049.68 4
4 -4 -10 159.255 96.0851 2
-4 4 10 216.538 134.01 4
-4 4 9 892.491 248.067 4
4 -4 -9 693.837 155.691 3
4 -4 -9 804.587 227.107 2
4 -4 -8 7825.25 691.163 2
-4 4 8 8686.4 741.936 2
4 -4 -8 8360.97 618.497 3
-4 4 8 8231.4 703.402 4
4 -4 -7 5555.37 489.718 3
-4 4 7 5532.03 531.273 4
4 -4 -7 5814.34 572.204 2
-4 4 7 5798.8 575.353 2
-4 4 6 775.118 194.864 4
4 -4 -6 834.826 168.283 3
4 -4 -6 941.919 220.762 2
-4 4 6 810.13 207.677 2
4 -4 -5 8940.72 579.296 3
4 -4 -5 9775.26 686.101 2
-4 4 5 10078.1 697.848 2
-4 4 5 9643.8 607.271 4
4 -4 -4 13427.9 699.38 3
4 -4 -4 13380.4 758.193 2
-4 4 4 12753.3 737.981 2
-4 4 4 12764.3 648.63 4
-4 4 3 4599.56 358.789 4
4 -4 -3 4276.49 375.945 3
-4 4 3 4478.71 422.906 2
4 -4 -3 4514.36 365.08 4
-4 4 2 9746.03 468.676 4
4 -4 -2 9163.11 550.608 3
-4 4 2 7980.19 229.146 1
-4 4 2 9333.73 605.469 2
4 -4 -2 9905.28 491.137 4
4 -4 -2 8207.74 257.291 1
-4 4 1 12447.7 476.924 4
-4 4 1 12908.9 386.028 1
4 -4 -1 12498 419.2 1
4 -4 -1 12306.7 644.085 3
-4 4 1 12374.8 681.834 2
4 -4 -1 13164.4 493.808 4
-4 4 0 2508.23 189.27 4
4 -4 0 2755.43 297.955 3
4 -4 0 2843.03 237.245 1
-4 4 0 2705.86 207.754 1
-4 4 0 2244.82 282.435 2
4 -4 0 2480.83 183.175 4
4 -4 1 365.834 59.086 4
-4 4 -1 446.389 169.434 2
-4 4 -1 418.5 72.2829 4
-4 4 -1 459.459 105.554 1
4 -4 1 775.915 161.452 1
4 -4 1 484.79 138.76 3
4 -4 2 26490.4 546.615 4
-4 4 -2 27765.1 548.866 4
4 -4 2 29098.9 982.214 3
4 -4 2 28242.5 563.232 4
4 -4 2 27679.6 899.2 1
-4 4 -2 28562.2 852.709 1
-4 4 -2 28127.6 1048.79 2
-4 4 -3 2033.53 297.223 2
4 -4 3 2294.18 184.319 4
4 -4 3 2355.42 284.051 3
4 -4 3 2543.91 305.226 1
4 -4 3 2440.55 177.974 4
-4 4 -4 23031.5 1007.19 2
4 -4 4 23371.6 673.53 4
4 -4 4 24881.1 670.165 4
4 -4 4 24793.6 938.212 3
4 -4 4 23186 963.098 1
4 -4 5 520.034 214.973 1
4 -4 5 122.079 80.4889 4
-4 4 -5 180.493 113.788 2
4 -4 5 223.826 103.576 4
4 -4 5 230.306 114.389 3
-4 4 -6 8864.87 663.827 2
4 -4 6 8080.95 503.929 4
4 -4 6 9675.62 703.741 1
4 -4 6 9112.3 510.217 4
-4 4 -7 265.993 122.585 2
-4 4 -7 80.8985 12.8448 3
4 -4 7 196.394 74.047 4
-4 4 -8 4843.89 532.727 2
-4 4 -8 4873.85 401.738 3
4 -4 8 5060.26 581.81 1
4 -4 8 5469.11 488.498 4
4 -4 9 2215.6 404.028 1
-4 4 -9 1892.22 343.365 2
4 -4 9 2284.84 329.372 4
-4 4 -10 4214.76 551.55 2
4 -4 10 4503.91 612.49 1
-4 4 -11 -132.505 163.99 2
4 -3 -13 -143.71 154.499 2
4 -3 -12 4602.58 466.044 3
4 -3 -12 6228.62 727.859 2
-4 3 12 6145.69 730.281 4
4 -3 -11 472.231 194.895 2
-4 3 11 448.041 192.287 4
-4 3 10 206.958 112.287 4
4 -3 -10 476.52 179.277 2
-4 3 9 134.203 95.1085 4
4 -3 -9 89.0225 43.6529 2
-4 3 9 125.655 48.9688 1
-4 3 8 514.212 162.68 4
-4 3 8 408.588 51.9028 1
4 -3 -8 215.09 81.7675 3
4 -3 -8 532.308 177.942 2
-4 3 8 553.674 92.1665 1
-4 3 7 4873.33 190.974 1
4 -3 -7 7773.61 543.941 3
4 -3 -7 8132.34 649.942 2
-4 3 7 5720.94 220.257 1
4 -3 -7 4634.48 197.5 1
-4 3 7 7467.83 586.429 4
4 -3 -6 4889.52 418.358 3
4 -3 -6 5113.74 506.828 2
-4 3 6 5175.78 507.22 2
-4 3 6 5145.33 452.851 4
4 -3 -5 59270.9 1417.48 3
4 -3 -5 61697.3 1622.77 2
-4 3 5 60356.7 1608.1 2
-4 3 5 58034.1 1403.28 4
4 -3 -4 4681.14 385.266 3
-4 3 4 4620.53 362.829 4
4 -3 -4 4672.87 431.281 2
-4 3 4 4777.62 437.992 2
4 -3 -4 4699.49 384.162 4
4 -3 -3 1110.34 212.594 2
4 -3 -3 1043.19 172.934 3
-4 3 3 1084.98 209.829 2
4 -3 -3 984.141 161.414 4
-4 3 3 1019.65 156.387 4
4 -3 -2 105792 1019.94 1
-4 3 2 111189 1973.75 2
4 -3 -2 111177 1833.79 3
-4 3 2 109013 1363.47 4
4 -3 -2 112091 1413.36 4
-4 3 1 61915.6 864.71 1
4 -3 -1 59807.4 1339.89 3
-4 3 1 63194.8 1470.65 2
4 -3 -1 62177.9 970.488 1
4 -3 -1 62047.3 859.226 4
-4 3 1 61952.6 852.642 4
-4 3 0 55503.6 959.197 1
-4 3 0 48973.3 1125.19 3
4 -3 0 53866.3 1248.16 3
4 -3 0 56479.7 1065.88 1
-4 3 0 50140.4 584.112 4
4 -3 0 43866.4 528.357 4
-4 3 0 52056.5 1283.8 2
-4 3 -1 64224.1 1172.98 1
-4 3 -1 62292.9 1308.47 3
4 -3 1 65460.6 1418.2 3
4 -3 1 62799.4 1250.22 1
-4 3 -2 17318.5 669.47 1
-4 3 -2 17404.6 712.411 3
4 -3 2 18578.1 778.034 3
4 -3 2 13632.3 296.028 4
4 -3 2 17796.1 723.915 1
4 -3 2 14925.9 301.209 4
-4 3 -2 18149.9 822.795 2
-4 3 -3 6325.67 494.563 2
4 -3 3 6581.06 286.082 4
-4 3 -3 5259.04 399.594 3
4 -3 3 6605.38 477.603 3
4 -3 3 6311.51 462.563 1
4 -3 3 6700.78 276.502 4
-4 3 -4 15176.1 801.475 2
4 -3 4 16183.1 535.447 4
4 -3 4 15527.1 533.372 4
4 -3 4 14717.5 706.391 3
4 -3 4 14513.6 749.706 1
4 -3 5 736.259 197.08 1
4 -3 5 746.514 152.965 4
-4 3 -5 788.71 214.825 2
4 -3 5 758.781 180.365 3
4 -3 5 759.692 146.183 4
4 -3 6 685.492 192.032 1
4 -3 6 571.152 129.75 4
-4 3 -6 549.816 176.032 2
-4 3 -6 542.658 123.747 3
4 -3 6 742.034 146.618 4
-4 3 -7 11115.1 761.505 2
-4 3 -7 11713.5 639.176 3
4 -3 7 11576.6 652.727 4
4 -3 7 11433 829.555 1
4 -3 8 737.021 174.299 4
4 -3 8 810.465 244.901 1
-4 3 -8 286.872 54.4004 2
-4 3 -8 290.428 98.3241 3
4 -3 9 33.4662 78.8192 1
-4 3 -9 -111.506 163.396 2
4 -3 9 -386.924 202.602 4
4 -3 10 124.273 104.244 1
-4 3 -11 198.313 162.153 2
-4 2 13 28.811 25.7706 4
4 -2 -13 -22.8101 72.9346 2
4 -2 -12 55.1718 73.4711 2
4 -2 -11 4054.25 403.166 3
4 -2 -11 5259.85 616.976 2
-4 2 11 5000.38 606.906 4
4 -2 -10 2452.75 285.312 3
4 -2 -10 3293.42 469.291 2
-4 2 10 3280.48 304.17 1
-4 2 10 3239.84 457.355 4
4 -2 -9 2213.05 363.347 2
4 -2 -9 1692.64 219.864 3
-4 2 9 2291.23 227.155 1
-4 2 9 2174.8 356.659 4
-4 2 8 406.485 149.825 4
-4 2 8 599.524 105.092 1
-4 2 8 264.956 51.3933 1
4 -2 -8 76.9635 130.441 3
4 -2 -8 388.433 99.5479 2
4 -2 -8 438.814 91.2392 1
-4 2 7 920.234 106.987 1
-4 2 7 1503.31 144.269 1
4 -2 -7 550.923 109.695 3
4 -2 -7 1088.2 238.693 2
4 -2 -7 970.278 120.253 1
-4 2 7 1227.94 249.3 4
4 -2 -6 36137.8 1090.38 3
4 -2 -6 37578.7 1273.28 2
-4 2 6 32049.4 512.375 1
-4 2 6 31473.4 546.547 1
-4 2 6 37760.3 1197.1 4
4 -2 -5 475.536 192.167 4
-4 2 5 195.133 36.2324 1
-4 2 5 -83.5372 36.7901 1
4 -2 -5 737.767 245.254 2
4 -2 -5 338.084 160.677 3
-4 2 5 608.695 223.717 2
-4 2 4 571.445 47.0701 1
4 -2 -4 944.167 191.835 3
-4 2 4 851.938 152.739 4
4 -2 -4 817.539 186.107 2
-4 2 4 521.439 52.1991 1
-4 2 4 850.838 181.617 2
4 -2 -4 838.717 159.376 4
4 -2 -3 28587.5 757.191 4
-4 2 3 28211.4 828.94 3
4 -2 -3 29948.3 920.892 3
-4 2 3 27037.8 891.215 2
-4 2 3 28009.8 721.913 4
4 -2 -3 28341.6 968.181 2
-4 2 3 25975.6 442.161 1
-4 2 3 28532.4 972.667 2
4 -2 -3 27532.7 472.059 1
4 -2 -2 5357.44 259.661 1
-4 2 2 4702.02 338.259 3
4 -2 -2 5296.14 388.849 3
-4 2 2 4927.41 394.2 2
-4 2 2 5572.99 250.254 1
4 -2 -2 5550.83 271.062 4
4 -2 -2 5142.85 414.495 2
-4 2 2 5361.84 415.348 2
-4 2 2 5080.55 252.332 4
4 -2 -1 10144.5 419.771 1
-4 2 1 8735.28 241.328 4
-4 2 1 9436.93 493.406 3
4 -2 -1 10129.7 533.104 3
-4 2 1 10119.6 395.076 1
-4 2 1 9241.2 515.759 2
4 -2 -1 9460.37 555.109 2
4 -2 -1 8461.97 242.466 4
-4 2 1 9887.34 564.65 2
-4 2 1 8809.34 241.731 4
-4 2 0 59376.5 1277.62 3
4 -2 0 61437.5 1343.84 3
-4 2 0 60999.3 1107.24 1
4 -2 0 57915.1 1401.26 2
-4 2 0 60472.7 1353.71 2
4 -2 0 59678.8 1145.46 1
4 -2 1 13100.4 591.664 1
-4 2 -1 13910.8 639.192 3
-4 2 -1 13666.1 588.801 1
4 -2 1 14307.7 669.532 3
-4 2 -1 13589.5 678.049 2
4 -2 2 709.456 72.173 4
-4 2 -2 902.162 184.198 2
4 -2 2 940.944 182.375 1
-4 2 -2 992.357 179.983 3
4 -2 2 851.028 179.016 3
-4 2 -2 661.122 128.141 1
4 -2 2 810.043 72.1689 4
-4 2 -3 17598.2 800.387 2
4 -2 3 18379.2 499.362 4
4 -2 3 16989.5 752.657 3
4 -2 3 17468.9 792.846 1
-4 2 -3 18706.2 525.258 4
4 -2 3 17366.2 476.788 4
4 -2 4 90.5261 43.6088 4
-4 2 -4 69.8895 62.1205 2
4 -2 4 75.3569 66.9668 1
-4 2 -4 75.6514 41.1615 4
4 -2 4 112.59 28.4386 4
-4 2 -5 2658.59 336.638 2
4 -2 5 2717.13 273.082 4
-4 2 -5 2557.61 302.56 3
-4 2 -5 2634.59 281.598 4
4 -2 5 2426.36 342.737 1
4 -2 5 2354.98 241.789 4
-4 2 -6 44484 1426.59 2
-4 2 -6 46257.5 1278.17 3
4 -2 6 45631.8 1566.78 1
4 -2 6 45590.9 1211.19 4
-4 2 -7 12422.7 802.131 2
-4 2 -7 13400.1 689.895 3
4 -2 7 12133.1 685.224 4
4 -2 7 12642 872.797 1
-4 2 -8 2553.14 360.29 2
-4 2 -8 3847.21 373.338 3
4 -2 8 2726.26 430.1 1
4 -2 8 2785.65 359.818 4
-4 2 -9 2238.37 291.806 2
4 -2 9 3553.75 516.247 1
4 -2 9 3844.8 457.354 4
-4 2 -10 2825.22 449.963 2
4 -2 10 3188.87 521.162 1
4 -2 10 3219.65 445.651 4
-4 2 -11 3281.55 518.095 2
4 -1 -14 -5.38599 81.6805 2
4 -1 -13 -21.7572 70.2443 2
-4 1 13 34.7791 67.5536 4
4 -1 -12 820.042 262.636 2
-4 1 12 773.982 249.242 4
4 -1 -11 39.6782 42.0463 2
-4 1 11 6.91044 37.409 4
4 -1 -10 43.9367 64.2178 2
-4 1 10 6.3273 39.3563 4
-4 1 9 3329.97 432.939 4
4 -1 -9 3257.84 320.143 3
4 -1 -9 3550.44 448.006 2
-4 1 9 4211.3 324.867 1
4 -1 -9 3399.75 311.717 1
4 -1 -8 856.401 142.833 1
-4 1 8 472.172 64.8734 1
-4 1 8 771.221 109.416 1
4 -1 -8 764.721 199.101 2
4 -1 -8 581.512 101.029 3
-4 1 8 844.057 198.971 4
-4 1 7 9916.28 629.873 4
-4 1 7 10076.3 380.411 1
4 -1 -7 9928.57 553.718 3
4 -1 -7 9435.77 644.706 2
-4 1 7 10206.3 415.41 1
4 -1 -7 10150.9 440.238 1
-4 1 6 211.075 56.8106 1
-4 1 6 233.679 51.6444 1
-4 1 6 238.635 85.309 3
4 -1 -6 351.983 124.382 3
4 -1 -6 203.737 103.924 2
4 -1 -6 202.438 60.5132 1
-4 1 6 352.882 135.82 4
-4 1 5 7121.4 257.659 1
-4 1 5 6644.86 436.704 4
-4 1 5 7281.9 406.093 3
4 -1 -5 7201.24 448.069 3
4 -1 -5 7021.63 507.795 2
-4 1 5 7276.58 310.739 1
-4 1 5 6940.97 503.068 2
-4 1 5 6883.55 444.003 4
4 -1 -5 6836.22 465.56 4
4 -1 -4 15952.4 405.668 1
-4 1 4 15271.2 585.275 4
-4 1 4 15694.7 397.384 1
-4 1 4 16517.9 461.943 1
-4 1 4 15407.5 593.097 3
-4 1 4 15299.8 670.069 2
4 -1 -4 15687 724.198 2
4 -1 -4 15688.9 618.594 4
-4 1 4 15469 715.164 2
-4 1 4 15810.4 593.814 4
4 -1 -4 16007.1 652.196 3
-4 1 3 11862.5 409.405 1
4 -1 -3 11069.9 379.223 1
-4 1 3 11636.7 450.03 4
-4 1 3 10507.3 501.977 3
4 -1 -3 10956.2 534.861 3
-4 1 3 10710.1 536.608 2
-4 1 3 11561.4 442.697 4
4 -1 -3 10960.6 594.57 2
-4 1 3 11395.9 593.686 2
4 -1 -3 11961.6 474.027 4
-4 1 2 929.859 103.712 4
4 -1 -2 893.545 175.128 2
4 -1 -2 899.33 124.952 1
-4 1 2 982.711 175.407 3
4 -1 -2 902.853 165.011 3
-4 1 2 771.717 158.646 2
-4 1 2 1050.88 111.627 4
-4 1 2 944.407 126.925 1
-4 1 2 872.345 163.426 2
-4 1 1 50311.3 550.251 4
4 -1 -1 56870.5 1074.92 1
-4 1 1 56098.5 1208.41 3
4 -1 -1 58989.3 1288.85 3
-4 1 1 57732.2 1052.16 1
-4 1 1 48796.8 529.421 4
4 -1 -1 55747.3 1281.64 2
-4 1 1 56478.1 1267.05 2
4 -1 0 4672.22 347.202 1
-4 1 0 5205.44 397.759 3
4 -1 0 5375.32 428.953 3
-4 1 0 4801.59 382.295 2
-4 1 0 4738.85 334.35 1
4 -1 0 4317.01 380.224 2
4 -1 1 100099 782.198 4
-4 1 -1 120717 1969.02 3
4 -1 1 116039 1877.2 3
-4 1 -1 114864 1707.94 1
4 -1 1 116808 1825.06 1
4 -1 1 103203 1857.51 2
-4 1 -1 100749 758.074 4
-4 1 -1 118069 1872.48 2
-4 1 -2 35016 1050.36 2
-4 1 -2 37395.4 659.99 4
-4 1 -2 35533.1 1111.62 3
4 -1 2 34087.1 1070.38 3
4 -1 2 35499.5 1085.68 1
4 -1 2 35245.3 635.014 4
4 -1 3 -34.3056 41.517 4
-4 1 -3 39.8505 50.9572 2
4 -1 3 25.8486 44.1868 1
-4 1 -3 78.7738 46.0488 4
-4 1 -4 27691.3 1002.35 2
-4 1 -4 29058.6 1024.65 3
-4 1 -4 29221.2 846.42 4
4 -1 4 27893.2 1094.3 1
4 -1 4 29078.5 817.031 4
-4 1 -5 63980.3 1602.21 2
-4 1 -5 66757.8 1537 3
-4 1 -5 62186.4 1393.03 4
4 -1 5 66235.4 1395.73 4
4 -1 5 65537.7 1778.15 1
-4 1 -6 5274.62 490.063 2
-4 1 -6 5601.12 453.682 3
4 -1 6 4969.56 532.959 1
4 -1 6 5131.56 436.112 4
-4 1 -7 11727.5 758.608 2
-4 1 -7 13180.6 694.926 3
4 -1 7 12392 870.828 1
4 -1 7 12321.3 730.057 4
4 -1 8 59.674 55.6069 4
4 -1 8 3.52607 80.9131 1
-4 1 -8 33.0452 6.44881 3
4 -1 9 628.006 187.682 4
-4 1 -9 544.505 177.649 2
4 -1 9 546.733 190.928 1
4 -1 10 399.041 173.018 4
-4 1 -10 451.881 180.446 2
4 -1 10 356.208 161.813 1
-4 0 14 1835.41 414.198 4
4 0 -14 1830.72 412.221 2
4 0 -13 178.413 111.769 2
-4 0 13 196.45 123.383 4
-4 0 12 1494.66 358.087 4
4 0 -12 1371.92 330.371 2
4 0 -11 6919.73 672.013 2
4 0 -11 7874.67 525.764 3
-4 0 11 8245.07 547.651 1
-4 0 11 6716.32 657.29 4
-4 0 10 4457.32 353.777 1
4 0 -10 4945.53 542.599 2
4 0 -10 5765.72 437.088 3
-4 0 10 4405.75 505.242 4
-4 0 9 32149.5 890.271 1
4 0 -9 33811.4 1322.64 2
4 0 -9 33181 999.833 3
-4 0 9 27627.8 855.455 1
4 0 -9 29636.5 972.758 1
-4 0 9 31366.8 1256.18 4
-4 0 8 10695.2 465.592 1
-4 0 8 10509.3 485.178 3
4 0 -8 10618 707.838 2
4 0 -8 11061.4 565.139 3
-4 0 8 10510.6 685.722 4
4 0 -8 11179.4 554.491 1
-4 0 8 9813.86 475.546 1
-4 0 7 2143.68 191.656 1
-4 0 7 2445.92 231.64 3
4 0 -7 2309.63 313.155 2
4 0 -7 2564.19 265.153 3
-4 0 7 2346.71 221.034 1
-4 0 7 2255.53 299.434 4
4 0 -7 2314.69 234.023 1
-4 0 6 19875.4 543.033 1
-4 0 6 20442.8 630.692 1
-4 0 6 20209.9 814.946 4
-4 0 6 20422.6 645.339 3
4 0 -6 19126 699.398 3
4 0 -6 19713.4 851.835 2
4 0 -6 20783.1 663.853 1
4 0 -5 121356 1911.66 4
-4 0 5 118905 1826.23 4
-4 0 5 120545 1599.21 3
4 0 -5 108389 1671.46 3
4 0 -5 112556 1899.74 2
-4 0 5 122600 1507.38 1
-4 0 5 121969 1823.73 4
-4 0 5 116906 1283.56 1
-4 0 4 45316.8 1004.95 4
-4 0 4 45826.7 1099.04 2
-4 0 4 46280.8 1022.61 3
4 0 -4 45749 1090.58 3
-4 0 4 49703.1 954.468 1
4 0 -4 45687.4 1152.52 2
4 0 -4 49154.2 882.648 1
4 0 -4 45928.1 1050.67 4
-4 0 4 47879 1184.07 2
-4 0 4 45251.2 829.053 1
-4 0 4 47768.9 1023.8 4
4 0 -3 2374.31 199.873 4
-4 0 3 2637.27 224.628 1
-4 0 3 2502 261.105 3
-4 0 3 2519.96 247.29 2
4 0 -3 2410.91 260.512 3
-4 0 3 2777.65 219.04 4
4 0 -3 2352.04 258.028 2
-4 0 3 2349.36 255.198 2
4 0 -3 2542.07 213.326 1
-4 0 3 2573.71 209.515 4
-4 0 2 11889.6 501.676 1
-4 0 2 11603.9 394.35 4
4 0 -2 11637 390.562 4
4 0 -2 11633.1 490.239 1
-4 0 2 11264.5 550.532 3
4 0 -2 11581.3 571.844 3
-4 0 2 11419.2 524.622 2
-4 0 2 11793.3 396.211 4
4 0 -2 11477.1 554.22 2
-4 0 2 11656.8 552.06 2
4 0 -1 18890 435.683 4
4 0 -1 19038.5 666.924 1
-4 0 1 19428.7 753.496 3
-4 0 1 20664.4 468.25 4
4 0 -1 19050.6 745.302 3
4 0 -1 19686 721.022 2
-4 0 1 20126.1 718.318 2
-4 0 1 19570.6 675.578 1
4 0 0 16354.1 413.474 4
-4 0 0 16971.2 738.966 3
4 0 0 17468.1 730.494 3
-4 0 0 17820.1 682.57 2
-4 0 0 16798 667.703 1
4 0 0 17374.4 704.505 2
-4 0 0 17276.2 414.784 4
4 0 0 17081.6 682.639 1
4 0 1 379.976 142.498 2
4 0 1 402.445 80.5766 4
-4 0 -1 483.281 137.283 2
-4 0 -1 564.385 155.779 1
-4 0 -1 446.311 149.417 3
4 0 1 544.31 160.593 1
4 0 1 533.028 164.663 3
-4 0 -1 527.095 95.9873 4
4 0 2 2210.34 281.448 1
-4 0 -2 2160.78 255.429 2
4 0 2 2432.23 208.418 4
-4 0 -2 2353.94 199.972 4
4 0 2 1898.33 259.317 2
-4 0 -3 10180.9 614.863 3
-4 0 -3 9661.13 551.334 2
-4 0 -3 9711.24 470.937 4
4 0 3 10267.9 486.43 4
4 0 3 9596.39 624.264 1
-4 0 -4 5803.92 421.621 4
4 0 4 5675.25 510.8 1
-4 0 -4 5560.11 438.972 2
-4 0 -4 5599.73 451.582 3
4 0 4 6172.81 418.649 4
-4 0 -5 86766.3 1783.5 3
-4 0 -5 84993.8 1810.77 2
4 0 5 87831.7 1748.41 4
4 0 5 84238.9 2066.5 1
-4 0 -6 17022.8 875.689 2
-4 0 -6 17830.2 824.508 3
4 0 6 17283.1 861.204 4
4 0 6 17921.7 1035.53 1
4 0 7 606.346 152.535 4
-4 0 -7 504.646 142.419 2
-4 0 -7 517.594 135.658 3
4 0 7 522.954 175.58 1
-4 0 -8 1985.26 329.08 2
-4 0 -8 2035.7 283.865 3
4 0 8 1915.3 353.46 1
4 0 8 1902.32 292.981 4
4 0 9 881.226 179.062 4
-4 0 -9 1429.26 241.347 3
-4 0 -9 1346.58 289.277 2
4 0 9 1454.63 336.628 1
4 0 10 2654.44 441.466 4
-4 0 -10 1362.84 197.071 2
4 0 10 2415.36 454.536 1
-4 0 -11 436.612 110.209 2
4 1 -14 98.0128 109.7 2
-4 -1 14 68.1426 77.863 4
-4 -1 13 3087.56 493.374 4
4 1 -13 3158.93 511.718 2
-4 -1 13 4587.91 480.187 1
-4 -1 12 -52.2973 80.2895 1
4 1 -12 95.6126 106.233 2
-4 -1 12 50.9911 68.4835 4
-4 -1 11 4515.1 386.911 1
4 1 -11 5467 583.463 2
4 1 -11 4833.41 361.517 3
-4 -1 11 5085.15 560.306 4
-4 -1 10 50.1223 8.01125 3
4 1 -10 71.602 82.7657 2
4 1 -10 67.4265 35.3553 3
-4 -1 10 -39.6407 91.0599 4
-4 -1 10 1.79347 43.0249 1
-4 -1 9 23.7385 26.9861 4
-4 -1 9 46.175 40.5436 3
-4 -1 9 85.1718 54.9554 1
4 1 -9 92.5332 91.5689 2
4 1 -9 120.952 60.429 3
-4 -1 8 2682.39 220.5 3
4 1 -8 2690.91 358.862 2
4 1 -8 2822.07 268.334 3
-4 -1 8 2743.3 251.215 1
-4 -1 8 2560.78 268.084 1
-4 -1 8 2635.52 342.571 4
4 1 -8 2424.55 288.234 1
-4 -1 7 5130.64 326.496 1
-4 -1 7 4846.43 301.443 3
4 1 -7 4807.02 436.983 2
4 1 -7 4752.1 350.717 3
-4 -1 7 4392.43 329.452 1
4 1 -7 4610.36 367.656 1
-4 -1 7 4689.06 428.584 4
-4 -1 6 2591.5 228.056 1
-4 -1 6 2286.86 242.557 1
-4 -1 6 1992.02 192.416 3
4 1 -6 2195.66 289.409 2
4 1 -6 2493.72 262.645 3
4 1 -6 2184.4 249.549 1
-4 -1 6 2628.12 313.452 4
-4 -1 5 29240 906.299 4
-4 -1 5 31664.8 853.268 1
4 1 -5 31785.8 935.189 4
-4 -1 5 30157.9 890.959 2
-4 -1 5 31570.9 822.555 3
4 1 -5 30957.8 891.236 3
4 1 -5 30663.2 944.124 2
-4 -1 5 32232.3 952.361 4
-4 -1 5 31612.7 788.355 1
-4 -1 4 2491.98 314.48 4
4 1 -4 2674.9 297.43 4
-4 -1 4 2107.26 261.125 2
-4 -1 4 2616.86 295.359 3
4 1 -4 1896.55 238.896 1
4 1 -4 2959.21 355.243 3
4 1 -4 2265.19 320.089 2
-4 -1 4 2087.98 270.557 1
-4 -1 4 2274.95 298.784 2
-4 -1 4 2214.33 254.36 1
-4 -1 4 3353.61 334.293 4
-4 -1 3 13779.7 532.16 4
4 1 -3 14383.5 567.12 1
4 1 -3 14098.7 528.637 4
-4 -1 3 14969.5 606.176 1
-4 -1 3 13448.4 517.074 4
-4 -1 3 14322.6 612.392 3
-4 -1 3 13553.1 543.313 2
4 1 -3 13763.4 614.813 3
4 1 -3 13421.5 566.118 2
-4 -1 3 14025.4 587.727 2
-4 -1 2 2138.56 198.068 4
4 1 -2 1951.71 184.436 4
-4 -1 2 2051.02 230.421 1
-4 -1 2 2274.26 259.776 3
4 1 -2 2172.09 254.607 3
-4 -1 2 2097.57 214.442 2
4 1 -2 2169.93 232.204 1
4 1 -2 1856.73 211.728 2
-4 -1 2 2072.29 223.97 2
-4 -1 1 19475.3 574.881 4
-4 -1 1 19657.3 745.272 1
4 1 -1 19563.6 747.665 1
-4 -1 1 21107.1 839.579 3
4 1 -1 20707.6 805.06 3
4 1 -1 18823.9 561.014 4
4 1 -1 19006.1 673.199 2
-4 -1 1 18944.4 632.483 2
4 1 0 74501.2 1160.99 4
4 1 0 74434.4 1509.04 1
-4 -1 0 72124.4 1601.7 3
4 1 0 76523.3 1414.48 2
-4 -1 0 78427 1548.47 1
-4 -1 0 79787.9 1365.9 2
-4 -1 0 79663.9 1181.05 4
-4 -1 -1 14916.4 610.345 2
4 1 1 16120.9 575.315 4
4 1 1 16107.5 748.533 1
4 1 1 14494.2 644.565 2
-4 -1 -1 16432.1 756.866 3
-4 -1 -1 16529.8 576.407 4
4 1 2 2470.38 247.742 4
-4 -1 -2 2611.52 264.49 2
4 1 2 2403.96 308.518 1
-4 -1 -2 2556.08 312.06 3
-4 -1 -2 2437.94 240.395 4
4 1 2 2325.51 279.793 2
4 1 3 1631.43 276.179 1
-4 -1 -3 1632.14 223.634 2
-4 -1 -3 1595.77 244.378 3
-4 -1 -3 1776.46 230.538 4
4 1 3 1825.26 231.478 4
4 1 4 -4.30467 30.7456 4
-4 -1 -4 5.916 3.27442 2
-4 -1 -4 17.4237 23.2627 3
4 1 4 55.748 81.6575 1
4 1 5 1186.38 214.81 4
-4 -1 -5 1283.18 234.688 3
-4 -1 -5 1172.68 209.711 2
4 1 5 1109.63 243.151 1
4 1 6 416.884 179.386 4
-4 -1 -6 196.134 76.3199 2
-4 -1 -6 370.362 142.361 3
4 1 6 418.812 202.891 1
4 1 7 2234.25 397.518 1
-4 -1 -7 2079.52 318.919 2
-4 -1 -7 2005.69 284.734 3
4 1 7 2410.62 365.459 4
4 1 8 934.905 240.658 4
-4 -1 -8 798.046 215.918 2
-4 -1 -8 868.781 196.414 3
4 1 8 952.793 268.887 1
4 1 9 6.92579 55.5797 4
-4 -1 -9 53.9813 53.9964 3
4 1 9 74.4987 113.728 1
4 1 10 1519.92 347.47 4
-4 -1 -10 579.275 94.0269 2
4 1 10 1448.78 370.72 1
4 2 -14 940.809 190.738 2
-4 -2 14 1843.44 392.37 4
4 2 -13 1913.81 275.705 2
-4 -2 13 2294.43 300.359 1
-4 -2 12 919.329 263.449 4
-4 -2 12 561.111 95.2016 1
-4 -2 11 2984.43 438.267 4
-4 -2 11 2763.79 309.164 1
4 2 -11 1946.11 288.457 2
-4 -2 10 55957.9 1354.14 1
-4 -2 10 48172.9 867.876 3
4 2 -10 56903.7 1744.33 2
4 2 -10 47885.5 1037.91 3
-4 -2 10 54260.9 1738.6 4
-4 -2 9 23428.7 821.027 1
-4 -2 9 22810.5 590.756 3
4 2 -9 23485.8 1048.8 2
4 2 -9 21834.5 715.129 3
-4 -2 9 22954.4 1064.46 4
-4 -2 8 61602.1 993.559 3
4 2 -8 63215.5 1610.5 2
4 2 -8 62732.2 1239.63 3
-4 -2 8 61909.2 1276.79 1
-4 -2 8 60766.7 1615.16 4
-4 -2 7 114628 1667.01 1
-4 -2 7 109555 1828.92 1
4 2 -7 119118 2067.96 2
-4 -2 7 116630 1443.17 3
4 2 -7 115163 1695.92 3
4 2 -7 111905 1943.75 1
-4 -2 7 114417 2103.02 4
-4 -2 6 27217.3 905.649 1
4 2 -6 28722.4 1000.76 4
4 2 -6 30301.5 996.759 2
-4 -2 6 30359 802.664 3
4 2 -6 27678.6 838.457 3
-4 -2 6 27817 807.336 1
4 2 -6 26542.6 933.425 1
-4 -2 6 28571.9 992.519 4
4 2 -5 17383.6 650.845 1
-4 -2 5 15826.4 702.091 4
4 2 -5 17061.5 727.74 4
-4 -2 5 16746.3 627.311 2
-4 -2 5 16925.9 626.658 3
4 2 -5 16552.7 666.968 2
4 2 -5 17060.9 671.645 3
-4 -2 5 16735.6 714.622 4
-4 -2 5 17030.3 642.201 1
-4 -2 5 16893.3 691.491 1
-4 -2 4 661.729 138.449 1
-4 -2 4 745.634 154.226 4
4 2 -4 711.617 141.563 4
-4 -2 4 656.524 147.522 1
4 2 -4 827.771 170.9 3
-4 -2 4 397.384 34.2327 2
-4 -2 4 730.849 153.035 3
4 2 -4 721.464 139.592 2
4 2 -4 745.171 143.061 1
-4 -2 4 764.845 139.341 2
-4 -2 3 10932.6 529.539 4
4 2 -3 11172.5 517.953 4
-4 -2 3 11702 592.515 1
-4 -2 3 11488.1 471.048 2
-4 -2 3 11617 589.162 3
4 2 -3 11898.2 597.783 3
4 2 -3 10874.3 479.854 2
-4 -2 3 11510.8 497.466 2
4 2 -3 11186.4 556.843 1
4 2 -2 2200.89 244.359 4
-4 -2 2 2116.73 268.885 1
-4 -2 2 2955.98 357.297 3
-4 -2 2 2045.76 208.565 2
4 2 -2 2041.05 282.531 1
-4 -2 2 2106.97 257.861 4
4 2 -2 1895.71 209.605 2
-4 -2 2 2196.45 225.914 2
-4 -2 1 106045 1572.03 4
-4 -2 1 101547 1828.27 1
4 2 -1 99074.3 1782.71 1
-4 -2 1 105299 1415.87 2
4 2 -1 102677 1545.61 4
4 2 -1 101090 1437.01 2
-4 -2 0 12177.3 488.963 2
4 2 0 12797.8 567.633 4
-4 -2 0 12903.3 672.82 3
4 2 0 11970.9 660.333 1
4 2 0 12419.6 540.129 2
-4 -2 0 12549.2 554.565 4
-4 -2 -1 34590.7 868.027 2
4 2 1 32082.9 1096.33 1
-4 -2 -1 33413.1 1072.56 3
4 2 1 30713 888.439 2
4 2 1 32136 937.889 4
-4 -2 -1 33626.7 945.106 4
4 2 2 8518.73 517.29 2
-4 -2 -2 9435.37 475.972 2
4 2 2 8877.31 610.649 1
-4 -2 -2 9101.26 574.311 3
4 2 2 9225.13 539.863 4
-4 -2 -2 8371.9 508.13 4
4 2 3 445.821 138.222 4
-4 -2 -3 544.899 128.834 2
-4 -2 -3 161.211 95.4546 3
4 2 3 371.13 143.571 1
4 2 4 4030.07 461.152 1
4 2 4 4099.42 405.538 4
-4 -2 -4 4429.84 426.042 3
-4 -2 -4 3694.54 334.92 2
4 2 5 1496.15 324.859 1
4 2 5 1332.54 270.721 4
-4 -2 -5 1303.42 244.045 3
-4 -2 -5 775.044 134.452 2
4 2 6 454.87 163.5 4
-4 -2 -6 237.807 60.6735 2
-4 -2 -6 392.517 135.829 3
4 2 6 541.755 195.905 1
4 2 7 4408.28 562.474 1
4 2 7 4388.32 519.105 4
-4 -2 -7 3244.11 366.794 2
-4 -2 -7 4172.66 431.94 3
4 2 8 306.888 137.822 4
-4 -2 -8 305.159 126.68 3
4 2 8 332.494 163.464 1
4 2 9 -36.528 78.988 4
-4 -2 -9 -26.069 58.6503 3
4 2 9 42.6545 46.8515 1
-4 -2 -10 324.602 141.579 2
4 2 10 280.437 162.803 4
-4 -3 15 916.847 247.889 1
-4 -3 15 831.953 292.251 4
4 3 -14 -413.222 382.501 2
-4 -3 14 89.4192 102.908 1
4 3 -13 -77.6241 248.372 2
-4 -3 13 300.189 40.4985 1
4 3 -12 -205.942 206.624 2
-4 -3 12 -52.07 82.1935 1
-4 -3 12 -12.1367 60.8879 4
-4 -3 11 2488.62 394.231 4
4 3 -11 2673.3 386.026 2
-4 -3 11 2749.26 324.787 1
-4 -3 10 11990 652.187 1
4 3 -10 11736.2 773.944 2
-4 -3 10 11175.8 784.383 4
-4 -3 9 26828 1136.17 4
-4 -3 9 27559.7 594.121 3
4 3 -9 28879 1142.06 2
-4 -3 9 28286 946.101 1
4 3 -9 26743.5 721.061 3
4 3 -8 3324.13 411.063 4
4 3 -8 2981.44 347.292 2
-4 -3 8 2588.27 190.735 3
4 3 -8 3173.77 267.783 3
-4 -3 8 3537.47 418.581 4
-4 -3 8 3161.94 323.006 1
4 3 -7 3062.21 372.494 2
-4 -3 7 2632.96 242.753 3
4 3 -7 2586.98 260.782 3
4 3 -7 2508.7 353.128 4
-4 -3 7 2461.8 332.448 4
-4 -3 7 2840.37 297.098 1
-4 -3 6 15726.1 636.495 2
4 3 -6 16460.6 688.357 2
-4 -3 6 16253.7 623.598 3
4 3 -6 16114.2 779.82 4
-4 -3 6 15605.3 749.688 4
-4 -3 6 16268 676.57 1
4 3 -5 2052.27 268.515 4
4 3 -5 1946.65 241.573 1
-4 -3 5 2066.37 218.82 2
4 3 -5 2154.83 238.469 2
-4 -3 5 2032.78 242.327 3
-4 -3 5 2057.74 270.511 1
-4 -3 5 2052.6 250.207 1
-4 -3 4 22568.4 859.404 4
4 3 -4 23052.6 844.978 4
-4 -3 4 22769 634.806 2
4 3 -4 23272.7 842.924 1
-4 -3 4 23130.4 831.666 3
4 3 -4 22196.4 681.82 2
-4 -3 4 21880.2 856.743 1
-4 -3 4 23097.6 697.028 2
-4 -3 4 23254.5 842.149 1
4 3 -3 65262.1 1440.16 1
-4 -3 3 66489.5 1437.65 4
4 3 -3 65344.6 1389.07 4
-4 -3 3 67747.7 1449.41 3
-4 -3 3 65703.3 1011.95 2
-4 -3 3 60899.5 1449.66 1
-4 -3 3 59257.7 1341.97 3
-4 -3 3 61772.1 1055.97 2
-4 -3 2 3791.83 336.914 4
4 3 -2 3845.88 338.037 4
-4 -3 2 3210.86 342.212 1
-4 -3 2 3679.67 351.88 3
-4 -3 2 3397.05 219.179 2
-4 -3 2 3450.4 235.206 2
4 3 -2 3406.34 349.235 1
-4 -3 1 78646 1549.79 4
4 3 -1 84036.6 1604.01 4
-4 -3 1 83266.7 1647.25 3
4 3 -1 80643 1693.33 1
-4 -3 1 84089.6 1158.7 2
4 3 -1 79848.5 1169.42 2
-4 -3 1 79566.1 1095.6 2
4 3 0 25110.8 908.961 4
-4 -3 0 24377.1 627.697 2
-4 -3 0 23609.3 901.336 3
4 3 0 23132.3 964.241 1
4 3 0 23818.1 703.389 2
-4 -3 0 22908.7 859.624 4
4 3 1 10297.2 499.144 2
-4 -3 -1 10648.1 442.435 2
-4 -3 -1 10786.5 636.918 3
4 3 1 11164.8 696.685 1
4 3 1 11567.4 632.303 4
4 3 2 39192.5 1227.33 4
4 3 2 34567.7 1021.49 2
4 3 2 37402.7 1322.26 1
-4 -3 -2 37723.4 1207.13 3
-4 -3 -2 38217.9 908.178 2
4 3 3 1187.81 237.972 4
4 3 3 1181.5 267.343 1
-4 -3 -3 1051.88 223.79 3
-4 -3 -3 1008.36 160.238 2
4 3 4 5919.78 533.508 4
4 3 4 5652.27 552.612 1
-4 -3 -4 6153.49 428.539 2
-4 -3 -4 6000 499.486 3
-4 -3 -5 14223.4 716.064 2
4 3 5 13465.8 906.947 1
-4 -3 -5 13328.3 765.403 3
4 3 5 14362.2 880.355 4
4 3 6 549.728 199.335 1
4 3 6 533.613 185.7 4
-4 -3 -6 536.138 167.051 3
4 3 7 323.382 164.224 1
4 3 7 309.622 116.498 4
-4 -3 -7 -27.9312 122.183 2
-4 -3 -7 386.833 141.971 3
4 3 8 -32.9157 69.3192 4
4 3 8 55.6594 49.7877 1
-4 -3 -8 20.0924 73.2091 2
-4 -3 -8 93.6649 79.4807 3
4 3 9 17.5601 76.0723 4
4 3 9 54.2832 58.9152 1
-4 -3 -9 5.85509 16.7783 2
-4 -3 -9 -46.578 48.4952 3
4 3 10 1145.38 332.756 4
-4 -4 15 -322.734 195.708 1
-4 -4 15 255.681 186.244 4
4 4 -14 780.181 229.246 2
-4 -4 14 1023.05 337.873 4
4 4 -13 582.794 199.717 2
-4 -4 13 624.511 168.106 1
-4 -4 13 597.636 214.95 4
4 4 -12 837.554 216.058 2
-4 -4 12 973.36 206.657 1
-4 -4 12 1019.12 264.554 4
-4 -4 11 578.492 193.171 4
-4 -4 11 656.073 168.367 1
4 4 -11 452.484 127.252 2
-4 -4 10 576.412 153.026 1
4 4 -10 471.139 137.503 2
4 4 -9 54.3761 63.4051 4
-4 -4 9 122.936 83.2343 1
-4 -4 9 17.1064 14.9727 3
4 4 -9 37.3699 80.2678 2
-4 -4 9 93.5554 16.2867 3
-4 -4 9 65.1022 74.5511 4
-4 -4 8 22252.7 864.146 1
4 4 -8 23881.6 1101.99 4
-4 -4 8 20972.1 629.445 3
4 4 -8 22847.4 926.158 2
-4 -4 8 22450.8 627.977 3
-4 -4 8 21954.7 1028.1 4
4 4 -7 35407.4 1256.05 4
-4 -4 7 33502.5 860.595 3
4 4 -7 34662.2 1051.25 2
-4 -4 7 33744.5 875.223 3
-4 -4 7 32984 1181.47 4
-4 -4 7 34254.9 1055.71 1
-4 -4 6 429.553 128.014 1
4 4 -6 379.668 121.676 4
-4 -4 6 407.582 94.4288 2
-4 -4 6 466.44 111.236 3
4 4 -6 478.351 125.928 2
-4 -4 6 332.652 103.833 3
-4 -4 5 2330.58 201.773 2
4 4 -5 2734.67 308.169 1
-4 -4 5 2739.06 270.247 3
4 4 -5 2696.05 246.52 2
-4 -4 5 2607.04 285.289 3
4 4 -5 2833.77 338.108 4
-4 -4 5 2809.77 312.251 1
-4 -4 4 3718.04 330.436 3
-4 -4 4 3640.66 230.698 2
4 4 -4 3374.27 342.21 1
-4 -4 4 3180.21 314.399 3
4 4 -4 3504.09 250.73 2
-4 -4 4 3978.38 271.785 2
-4 -4 4 3749.54 366.788 1
4 4 -4 3841.78 377.402 4
4 4 -3 3411.39 353.303 4
-4 -4 3 3508.4 331.052 3
-4 -4 3 3679.96 197.421 2
-4 -4 3 3731.22 229.054 2
4 4 -3 3664.03 366.098 1
4 4 -2 2299.18 318.961 4
-4 -4 2 2216.86 168.704 2
-4 -4 2 2873.2 339.083 3
-4 -4 2 2050.43 152.173 2
4 4 -2 2296.13 335.975 1
4 4 -1 10069.7 617.993 4
-4 -4 1 9396.25 308.318 2
-4 -4 1 9770.98 592.158 3
-4 -4 1 9699.69 338.828 2
4 4 -1 9590.87 616.897 1
4 4 -1 9183.18 332.907 2
4 4 0 5567.45 477.062 4
-4 -4 0 5918.54 266.637 2
-4 -4 0 5523.59 451.064 3
4 4 0 5509.65 492.16 1
4 4 0 5555.46 303.938 2
4 4 1 23886.5 1005.3 4
-4 -4 -1 22871.8 592.993 2
-4 -4 -1 22858.8 933.176 3
4 4 1 23504.7 1053.51 1
4 4 1 22989.3 719.327 2
4 4 2 1183.1 279.987 4
4 4 2 683.39 166.982 2
-4 -4 -2 785.233 140.976 2
-4 -4 -2 922.508 243.929 3
4 4 2 1360.66 325.637 1
4 4 3 7684.93 630.626 4
-4 -4 -3 7369.37 427.607 2
4 4 3 7754.88 666.098 1
-4 -4 -3 7078.86 560.264 3
4 4 3 6163.8 476.182 2
4 4 4 168.392 103.704 4
4 4 4 173.812 86.4881 1
-4 -4 -4 160.76 92.2167 3
4 4 5 8959.08 747.61 4
4 4 5 8655.93 763.904 1
-4 -4 -5 8653.84 539.296 2
-4 -4 -5 8637.76 643.464 3
4 4 6 433.61 174.936 4
4 4 6 352.249 145.854 1
-4 -4 -6 334.644 115.344 2
-4 -4 -6 330.523 137.692 3
4 4 7 101.296 112.555 4
4 4 7 -17.3356 79.7885 1
-4 -4 -7 39.1957 36.5853 2
-4 -4 -7 136.536 99.5696 3
4 4 8 39.9436 94.6225 4
4 4 8 -4.31248 26.699 1
-4 -4 -8 -5.9681 38.5481 3
4 4 9 1526.15 378.954 4
-4 -4 -9 1345.44 284.196 3
4 5 -15 76.9366 146.837 2
-4 -5 15 -331.18 204.291 1
-4 -5 15 171.79 156.579 4
4 5 -14 600.388 191.565 2
-4 -5 14 746.686 203.127 1
-4 -5 14 699.918 241.52 4
4 5 -13 248.988 81.302 2
-4 -5 13 323.412 122.384 1
-4 -5 13 312.661 134.827 4
-4 -5 12 925.826 214.045 1
4 5 -12 669.61 138.81 2
-4 -5 12 830.999 239.232 4
-4 -5 11 1679.32 279.101 1
4 5 -11 1515.44 275.937 2
-4 -5 11 867.615 182.861 4
-4 -5 10 1272.3 234.793 1
4 5 -10 1372.56 292.677 4
4 5 -10 1553.95 279.366 2
-4 -5 10 1295.48 280.163 4
-4 -5 9 17348.3 830.993 1
4 5 -9 18404.4 1046.27 4
-4 -5 9 12623.9 401.371 3
4 5 -9 18058.3 892.763 2
-4 -5 9 14323 445.054 3
-4 -5 9 16846.2 964.24 4
-4 -5 8 8744.8 398.243 3
4 5 -8 8193.43 533.809 2
-4 -5 8 8295.33 417.922 3
4 5 -8 9083.57 690.042 4
-4 -5 8 8367.2 642.715 4
-4 -5 8 8542.13 573.696 1
4 5 -7 -13.8047 45.088 4
-4 -5 7 -0.28006 6.48334 3
4 5 -6 3463.78 401.362 4
-4 -5 6 3383.32 274.847 2
-4 -5 6 2991 266.76 3
4 5 -6 3388.4 289.584 2
-4 -5 6 2692.95 304.008 3
-4 -5 6 3199.06 355.321 1
4 5 -5 26180 1074.53 4
-4 -5 5 26395.7 664.097 2
-4 -5 5 28142.1 891.961 3
4 5 -5 26325.6 712.115 2
-4 -5 5 27031.9 1019.59 1
4 5 -5 27271.4 1016.24 1
4 5 -4 18072.2 877.117 4
-4 -5 4 17490 438.161 2
-4 -5 4 18141.4 741.026 3
4 5 -4 18091 839.263 1
4 5 -4 17463 489.066 2
-4 -5 4 17772.6 498.947 2
-4 -5 4 18185.1 846.463 1
4 5 -3 13248.6 751.09 4
-4 -5 3 9247.64 259.491 2
-4 -5 3 9446.22 230.985 2
4 5 -3 13343.9 740.508 1
-4 -5 3 13313.8 663.139 3
-4 -5 3 13345.3 742.978 1
4 5 -2 635.799 171.17 4
-4 -5 2 1045.01 218.759 3
4 5 -2 592.023 163.911 1
4 5 -1 196.106 110.511 4
-4 -5 1 104.004 58.231 3
4 5 -1 184.436 101.654 1
4 5 0 3216.59 395.12 4
-4 -5 0 2158.46 127.152 2
-4 -5 0 2747.13 326.435 3
-4 -5 0 2132.95 148.645 2
4 5 0 3029.78 379.146 1
4 5 0 2346.43 158.153 2
-4 -5 -1 3221.64 371.38 3
4 5 1 3379.09 420.977 4
-4 -5 -1 2976.71 191.535 2
4 5 1 3346.29 418.805 1
4 5 1 3057.1 237.348 2
4 5 2 255.556 166.112 4
-4 -5 -2 292.322 101.306 2
-4 -5 -2 266.705 141.895 3
4 5 2 247.164 169.545 1
4 5 3 8433.12 704.75 4
-4 -5 -3 8114.71 430.797 2
-4 -5 -3 7359.07 582.145 3
4 5 3 8393.54 716.583 1
-4 -5 -4 -25.8783 92.3984 2
-4 -5 -4 82.6997 82.6212 3
4 5 4 78.3212 94.3743 1
4 5 4 33.6575 36.3661 4
4 5 5 796.064 245.277 4
-4 -5 -5 525.343 120.651 2
-4 -5 -5 693.426 201.306 3
4 5 5 766.874 232.143 1
4 5 6 755.737 246.945 4
4 5 6 775.526 247.586 1
-4 -5 -6 769.9 218.623 3
4 5 7 1322.21 333.832 4
4 5 7 1400.64 355.707 1
-4 -5 -7 984.514 247.744 3
4 5 8 104.928 109.904 4
4 5 8 318.622 209.2 1
-4 -5 -8 118.428 76.6516 3
4 6 -15 1029.03 293.106 2
-4 -6 15 983.315 250.745 1
4 6 -14 -62.2933 131.355 2
-4 -6 14 53.4899 37.8506 1
-4 -6 14 65.0107 16.8454 4
-4 -6 13 2479.97 368.401 1
4 6 -13 1590.67 272.9 2
-4 -6 13 2080.58 397.152 4
-4 -6 12 214.319 191.63 4
4 6 -12 380.366 136.142 2
-4 -6 11 4487.64 552.791 4
-4 -6 11 4298.32 461.138 1
4 6 -11 4827.02 589.493 4
4 6 -11 4000 446.284 2
-4 -6 10 5813.02 525.013 1
4 6 -10 6051.44 633.966 4
-4 -6 10 5435.67 578.886 4
4 6 -10 6038.74 534.146 2
-4 -6 9 3581.31 399.277 1
4 6 -9 3898.49 498.126 4
-4 -6 9 2812.41 198.878 3
4 6 -9 3746.09 400.861 2
-4 -6 9 3442.28 450.657 4
-4 -6 8 1824.06 308.656 4
4 6 -8 2134.71 351.756 4
-4 -6 8 2231.23 314.393 1
-4 -6 8 1765.94 183.045 3
-4 -6 8 1177.81 228.728 3
4 6 -8 1575.93 188.34 2
-4 -6 7 459.574 161.678 1
4 6 -7 517.797 186.476 4
-4 -6 7 424.024 122.52 2
-4 -6 7 425.143 104.701 3
4 6 -7 480.96 124.509 2
-4 -6 7 256.21 117.63 3
-4 -6 6 27844.6 761.876 2
4 6 -6 28635.3 1210.85 4
-4 -6 6 27737.8 868.286 3
4 6 -6 28327.1 789.625 2
-4 -6 6 28921.3 1122.85 1
-4 -6 5 1754.92 158.469 2
4 6 -5 1962.31 326.704 4
-4 -6 5 1762.04 233.558 3
4 6 -5 1822.26 171.659 2
-4 -6 5 2002.46 175.675 2
-4 -6 5 1943.34 304.22 1
4 6 -5 1529.3 273.224 1
4 6 -4 862.626 218.375 1
4 6 -4 959.342 235.772 4
-4 -6 4 875.024 184.716 3
-4 -6 4 363.926 51.3927 2
-4 -6 4 931.326 222.521 1
-4 -6 4 409.667 54.9168 2
4 6 -3 3923.41 457.563 4
-4 -6 3 3688.5 380.765 3
4 6 -3 3935.54 439.762 1
-4 -6 3 3834.96 441.423 1
4 6 -2 8991.15 680.289 4
-4 -6 2 8194.58 555.852 3
4 6 -2 9123.31 660.423 1
4 6 -1 1020.92 235.309 4
-4 -6 1 906.542 190.974 3
4 6 -1 1060.76 238.681 1
-4 -6 0 1371.7 247.483 3
4 6 0 1471.91 290.628 4
4 6 0 1457.79 282.937 1
4 6 1 218.866 150.68 4
4 6 1 378.517 182.828 1
-4 -6 -1 314.297 149.431 3
-4 -6 -1 94.6301 36.5866 2
4 6 2 199.039 126.675 4
4 6 2 168.028 116.899 1
-4 -6 -2 171.82 104.707 3
4 6 3 203.961 163.738 4
4 6 3 354.332 189.551 1
-4 -6 -3 298.671 170.328 3
4 6 4 324.951 161.607 1
4 6 4 357.293 163.98 4
-4 -6 -4 288.957 143.754 3
4 6 5 1738.84 379.201 4
-4 -6 -5 1322.82 287.232 3
4 6 5 1667.31 361.327 1
4 6 6 17.8944 47.4327 4
-4 -6 -6 -37.5179 68.6006 3
4 6 6 -10.314 41.9282 1
4 6 7 1197.03 346.168 4
-4 -6 -7 846.984 232.053 3
4 6 7 1136.64 326.998 1
4 7 -15 14.6538 59.3268 2
4 7 -14 1256.85 273.347 2
-4 -7 14 1378.03 292.399 1
-4 -7 14 1189.35 316.285 4
4 7 -13 -143.758 263.274 2
-4 -7 13 309.37 172.177 4
-4 -7 12 4049.09 479.163 1
4 7 -12 4394.66 611.004 4
4 7 -12 3221.27 406.726 2
-4 -7 12 3898.8 552.388 4
4 7 -11 378.735 186.05 4
-4 -7 11 470.74 178.125 1
4 7 -11 -50.8836 169.404 2
-4 -7 11 289.936 148.644 4
-4 -7 10 8441.18 658.463 1
4 7 -10 9139.56 828.113 4
4 7 -10 9106.12 665.208 2
-4 -7 10 8237.2 745.348 4
-4 -7 9 3939.4 442.511 1
4 7 -9 3949.94 516.243 4
-4 -7 9 3028.09 231.984 3
4 7 -9 3858.4 390.351 2
-4 -7 9 3448.27 462.594 4
4 7 -8 16188.4 1016.26 4
-4 -7 8 13274.6 555.134 3
4 7 -8 15386.5 711.536 2
-4 -7 8 14304.8 828.485 1
-4 -7 7 723.016 199.726 1
4 7 -7 754.353 215.29 4
-4 -7 7 784.277 145.757 2
-4 -7 7 722.413 150.664 3
4 7 -7 872.91 151.528 2
-4 -7 6 214.88 73.9002 1
4 7 -6 208.795 139.011 4
-4 -7 6 116.973 59.2205 2
-4 -7 6 184.646 99.2889 3
4 7 -6 131.977 58.0505 2
4 7 -5 7100.15 582.538 1
4 7 -5 7395.87 645.866 4
-4 -7 5 6673.1 472.708 3
-4 -7 5 4885.15 208.982 2
-4 -7 5 6958.12 585.593 1
-4 -7 5 3805.98 182.004 2
-4 -7 4 4282.96 466.21 1
4 7 -4 3737.17 458.205 4
-4 -7 4 3937.48 384.957 3
4 7 -4 4247.52 475.921 1
4 7 -3 28559.5 1297.13 4
-4 -7 3 27420.9 1048.15 3
4 7 -3 28514.1 1215.23 1
-4 -7 3 29141 1238.92 1
4 7 -2 549.846 209.395 4
-4 -7 2 947.683 233.206 3
4 7 -2 672.037 219.998 1
-4 -7 2 536.39 195.865 1
4 7 -1 3430.21 457.533 4
4 7 -1 3165.84 417.425 1
-4 -7 1 2724.97 353.12 3
4 7 0 597.398 186.184 4
4 7 0 615.379 187.999 1
-4 -7 0 529.433 164.809 3
4 7 1 1238.01 281.104 4
-4 -7 -1 1071.74 235.735 3
4 7 1 1179.06 265.166 1
4 7 2 1169.87 287.847 4
4 7 2 1073.86 274.125 1
-4 -7 -2 1015.15 239.584 3
4 7 3 2228.38 419.874 4
-4 -7 -3 2085.7 362.731 3
4 7 3 2237.87 398.308 1
4 7 4 2543.46 458.67 4
-4 -7 -4 2335.49 376.99 3
4 7 4 2537.71 438.491 1
4 7 5 -38.7039 73.3227 4
4 7 5 -18.3943 69.8267 1
-4 -7 -5 -30.6784 68.0183 3
4 7 6 60.4717 75.4513 4
4 7 6 43.9693 64.2761 1
-4 -7 -6 -62.1713 95.6862 3
4 8 -15 2863.08 506.485 2
4 8 -14 617.733 224.784 2
-4 -8 14 361.407 174.287 4
-4 -8 13 283.324 150.461 4
-4 -8 13 445.748 168.37 1
4 8 -13 -47.7117 191.808 2
-4 -8 12 7797.54 700.034 1
4 8 -12 8726.03 877.79 4
4 8 -12 7875.75 677.858 2
-4 -8 12 7671.65 788.466 4
4 8 -11 837.543 275.606 4
-4 -8 11 777.562 233.114 1
4 8 -11 773.663 208.571 2
-4 -8 11 731.585 244.12 4
4 8 -10 1152.07 304.023 4
-4 -8 10 1118.93 257.272 1
4 8 -10 1286.14 247.119 2
-4 -8 10 1096.37 275.916 4
-4 -8 9 1374.32 272.174 1
4 8 -9 1439.47 318.404 4
-4 -8 9 1207.2 162.913 3
4 8 -9 619.813 120.961 2
4 8 -8 391.869 174.993 4
-4 -8 8 302.387 113.918 1
-4 -8 8 396.072 102.92 3
4 8 -8 419.883 110.848 2
4 8 -7 4660.92 559.259 4
-4 -8 7 4195.18 363.219 3
4 8 -7 4617.91 313.581 2
-4 -8 7 4376.64 477.365 1
-4 -8 6 6661.76 486.151 3
4 8 -6 7276.09 687.499 4
-4 -8 6 5870.5 271.46 2
-4 -8 6 7352.53 632.776 1
4 8 -5 17371.7 1061.42 4
4 8 -5 16820.9 954.92 1
-4 -8 5 17678.9 801.953 3
-4 -8 5 16787.9 948.948 1
4 8 -4 981.589 238.819 4
-4 -8 4 1331.96 234.809 3
4 8 -4 1253.81 270.126 1
-4 -8 4 1311.99 280.454 1
4 8 -3 25643.2 1300.63 4
-4 -8 3 25358.8 1037.48 3
4 8 -3 25032.4 1185.7 1
-4 -8 3 25499.6 1193.34 1
4 8 -2 4883.12 589.318 4
-4 -8 2 5415 502.775 3
4 8 -2 5286.67 561.867 1
-4 -8 2 5138.29 560.941 1
4 8 -1 14.1152 36.6719 4
4 8 -1 50.9901 46.4443 1
-4 -8 1 61.5072 53.8838 3
-4 -8 1 -4.82901 76.1903 1
4 8 0 151.718 87.5138 1
4 8 0 224.218 135.13 4
-4 -8 0 263.773 136.609 3
4 8 1 101.882 102.151 1
4 8 1 129.709 123.969 4
-4 -8 -1 98.086 94.6643 3
4 8 2 -26.659 90.2276 4
-4 -8 -2 -112.689 80.3658 3
4 8 2 -26.8489 18.3399 1
4 8 3 2820.63 500.887 4
-4 -8 -3 2436.08 390.124 3
4 8 3 3067.46 483.733 1
4 8 4 57.0897 69.5431 4
4 8 4 10.5452 43.65 1
-4 -8 -4 -54.7666 102.586 3
4 8 5 892.897 305.363 4
4 8 5 969.932 292.83 1
4 9 -13 254.133 136.295 4
-4 -9 13 354.384 199.914 4
4 9 -12 38.8315 88.7636 4
-4 -9 12 71.7261 45.0078 1
-4 -9 12 88.7143 45.4001 4
-4 -9 11 2005.74 360.277 1
4 9 -11 2050.67 430.172 4
-4 -9 11 1698.34 365.417 4
4 9 -10 251.387 138.356 4
-4 -9 10 288.86 144.017 1
-4 -9 10 202.632 93.883 4
4 9 -9 3631.8 537.318 4
-4 -9 9 3428.81 454.145 1
4 9 -8 743.826 239.712 4
-4 -9 8 637.619 213.141 1
-4 -9 8 572.828 131.541 3
4 9 -7 1072.05 278.672 4
-4 -9 7 1107.67 192.302 3
-4 -9 7 1427.19 294.66 1
4 9 -6 7398.9 736.488 4
-4 -9 6 5979.01 475.473 3
-4 -9 6 6603.93 617.616 1
4 9 -5 8213.81 777.406 4
-4 -9 5 8602.75 599.228 3
-4 -9 5 8477.66 714.645 1
-4 -9 4 1488.13 306.596 1
4 9 -4 1465.59 340.608 4
4 9 -4 1104.7 234.706 1
-4 -9 4 1116.74 237.15 3
-4 -9 3 629.183 208.815 1
4 9 -3 576.887 203.736 4
4 9 -3 551.557 182.569 1
-4 -9 3 355.277 133.386 3
4 9 -2 8250.73 808.082 4
-4 -9 2 7990.92 641.934 3
4 9 -2 8361.8 734.762 1
-4 -9 2 8345.18 735.333 1
-4 -9 1 1534.91 321.755 1
4 9 -1 1530.91 351.128 4
-4 -9 1 1261.65 272.213 3
4 9 -1 1540.28 327.222 1
4 9 0 1555.29 368.204 4
4 9 0 1607.08 349.176 1
-4 -9 0 1250.93 278.622 3
-4 -9 0 1666.79 335.025 1
4 9 1 564.191 223.065 1
4 9 1 452.512 187.684 4
-4 -9 -1 308.984 134.937 3
-4 -9 -1 553.372 194.538 1
4 9 2 86.7372 91.5218 1
4 9 2 31.9381 70.5265 4
-4 -9 -2 36.3051 36.5246 3
-4 -9 -3 6495.48 684.038 3
4 9 3 7053.36 853.039 4
4 9 3 7442.58 805.069 1
4 9 4 4815.91 661.222 1
4 10 -12 1037.18 320.839 4
-4 -10 12 903.849 287.791 4
4 10 -11 1004.36 306.833 4
-4 -10 11 897.335 251.568 1
-4 -10 11 906.742 271.307 4
-4 -10 10 457.522 176.606 4
4 10 -10 570.564 209.7 4
-4 -10 10 541.882 197.785 1
4 10 -9 833.17 271.434 4
-4 -10 9 657.146 208.782 1
-4 -10 8 4536.21 402.99 3
4 10 -8 5375.07 669.179 4
-4 -10 8 5824.01 622.833 1
4 10 -7 208.796 140.813 4
-4 -10 7 186.793 109.378 1
-4 -10 7 208.795 93.678 3
4 10 -6 684.712 235.358 4
-4 -10 6 476.16 136.646 3
4 10 -5 2852.8 484.349 4
-4 -10 5 2418.63 337.032 3
-4 -10 5 2620.61 398.016 1
4 10 -4 146.014 139.826 1
-4 -10 4 523.897 187.378 1
4 10 -4 519.161 215.975 4
-4 -10 4 410.886 148.686 3
4 10 -3 237.505 143.461 1
-4 -10 3 186.201 101.299 1
4 10 -3 165.552 103.399 4
-4 -10 3 168.899 95.9877 3
-4 -10 2 53.7184 51.3434 1
4 10 -2 45.3513 83.3053 4
4 10 -2 9.14395 36.6037 1
-4 -10 2 -1.32609 25.2739 3
4 10 -1 666.459 223.618 1
4 10 -1 722.502 263.705 4
-4 -10 1 586.76 187.982 3
-4 -10 1 775.149 238.95 1
-4 -10 0 1236.76 298.784 1
4 10 0 1252.33 355.178 4
-4 -10 0 1024.73 264.478 3
4 10 0 1014.99 205.928 1
-4 -10 -1 -6.46997 64.8588 1
4 10 1 -45.5091 87.7782 4
4 10 1 -44.6951 61.0232 1
-4 -10 -1 -49.182 72.7991 3
4 10 2 19.0108 78.4227 1
-4 -10 -2 -135.637 139.76 1
4 11 -11 915.831 330.029 4
-4 -11 11 1021.04 322.89 4
4 11 -10 150.379 159.384 4
4 11 -9 381.177 213.23 4
-4 -11 9 187.111 106.086 1
4 11 -8 185.263 143.359 4
-4 -11 8 66.3392 4.64712 1
4 11 -7 507.64 218.424 4
-4 -11 7 432.344 156.543 1
-4 -11 7 523.234 146.505 3
4 11 -6 2199.02 449.077 4
-4 -11 6 1982.42 316.412 3
-4 -11 6 2880.79 471.759 1
-4 -11 5 1845.64 327.886 1
4 11 -5 2244.9 464.831 4
-4 -11 5 1898.01 318.545 3
-4 -11 4 326.698 171.937 1
4 11 -4 386.077 204.95 4
-4 -11 4 240.98 120.667 3
-4 -11 3 58.85 24.3028 1
4 11 -3 82.7149 31.214 4
-4 -11 3 97.8791 62.766 3
4 11 -2 37.3099 173.106 1
-4 -11 2 25.5309 68.2506 1
4 11 -2 49.3684 77.5292 4
-4 -11 2 28.2054 53.4413 3
4 11 -1 4614.61 688.403 4
-4 -11 1 4180.98 540.047 3
4 11 -1 4713.92 629.812 1
-4 -11 1 5138.94 621.836 1
4 11 0 346.958 171.609 1
-4 -11 0 456.577 182.271 1
4 12 -7 176.002 131.148 4
4 12 -6 106.212 10.8724 4
-4 -12 6 171.497 114.392 1
-4 -12 6 163.647 83.9056 3
4 12 -5 6.82682 8.12864 4
-4 -12 5 39.208 59.4311 3
-4 -12 4 1613.98 346.963 1
-4 -12 4 1406 310.753 3
-4 -12 3 713.796 233.019 1
-4 -12 3 628.04 211.348 3
-4 -13 5 86.1901 104.061 3
5 -13 3 804.558 334.809 3
-5 12 3 5920.64 739.166 4
-5 12 2 526.53 208.755 4
5 -12 1 -253.786 363.144 3
5 -12 2 1323.61 354.54 3
5 -12 3 2784.36 503.77 3
-5 12 -4 290.085 124.805 2
5 -12 4 747.373 263.259 3
-5 12 -5 880.322 251.002 2
-5 12 -6 2712.89 478.458 2
-5 12 -7 2458.81 464.843 2
-5 11 5 -16.753 71.5521 4
-5 11 4 441.107 174.412 4
-5 11 3 612.636 215.392 4
-5 11 2 838.217 247.103 4
5 -11 -2 -252.273 332.402 3
-5 11 1 1273.15 298.841 2
-5 11 1 1406.15 320.303 4
-5 11 0 577.22 192.103 2
-5 11 0 552.96 180.92 4
-5 11 -1 202.75 112.469 2
-5 11 -1 192.792 100.063 4
-5 11 -2 14225.3 980.59 2
5 -11 2 17224.3 1136.74 3
-5 11 -3 1936.3 372.231 2
5 -11 3 3048.83 498.317 3
-5 11 -4 213.381 102.497 2
5 -11 4 668.172 234.627 3
-5 11 -5 -32.1273 55.6205 2
5 -11 5 -3.94422 41.4266 3
-5 11 -6 5394.54 661.918 2
5 -11 6 7539.6 728.219 1
-5 11 -7 148.259 129.272 2
5 -11 7 3092.28 528.965 1
-5 10 6 2.90594 71.7132 4
-5 10 5 179.643 123.419 4
-5 10 4 1695.03 347.671 2
-5 10 4 1763.43 369.969 4
-5 10 3 20.5173 50.343 2
-5 10 3 -43.1763 98.0759 4
-5 10 2 793.572 217.504 2
-5 10 2 831.26 237.205 4
-5 10 1 117.089 84.0911 2
-5 10 1 138.492 101.013 4
-5 10 0 3422.84 445.565 4
5 -10 0 2433.85 401.899 3
-5 10 0 3131.91 459.118 2
-5 10 -1 1493.15 306.094 2
5 -10 1 1088.15 233.489 3
-5 10 -1 1700.54 300.536 4
-5 10 -2 361.421 152.2 2
-5 10 -2 382.707 129.698 4
5 -10 2 744.261 248.066 3
-5 10 -3 2120.58 377.013 2
5 -10 3 2591.06 432.876 3
5 -10 3 1974.98 290.015 1
-5 10 -4 2105.74 381.377 2
5 -10 4 2990.04 402.698 1
5 -10 4 2290.23 373.991 3
-5 10 -5 1793.15 361.774 2
5 -10 5 2369.79 381.213 1
5 -10 5 1746 321.464 3
-5 10 -6 500.642 198.449 2
5 -10 6 2126.65 402.581 1
-5 10 -7 87.1236 53.3345 2
5 -10 7 1264.86 362.778 1
5 -10 8 1403.97 386.469 1
-5 10 -8 -5.15404 20.3637 2
-5 9 8 25.6776 50.8255 4
-5 9 7 47.6407 55.9861 4
-5 9 7 -2.40669 95.193 2
-5 9 6 1337.71 315.264 4
-5 9 6 1415.59 338.405 2
-5 9 5 514.35 199.978 2
-5 9 5 515.391 194.95 4
-5 9 4 967.437 259.691 2
-5 9 4 1019.37 259.282 4
-5 9 3 1939.51 354.728 2
-5 9 3 2133.96 362.066 4
5 -9 -3 1016.98 126.801 3
-5 9 2 2963.37 425.096 2
-5 9 2 3325.99 438.584 4
5 -9 -2 2070.35 305.764 3
-5 9 1 645.54 191.699 2
-5 9 1 779.456 206.328 4
5 -9 -1 421.107 28.6562 3
-5 9 0 122.883 86.5347 4
-5 9 0 72.5 74.6648 2
5 -9 1 822.345 191.884 1
-5 9 -1 327.11 155.985 2
-5 9 -1 312.735 122.657 4
5 -9 1 643.977 238.837 3
-5 9 -2 142.822 67.1221 2
-5 9 -2 226.845 87.5279 4
5 -9 2 366.933 161.512 3
-5 9 -3 -119.445 125.451 2
-5 9 -3 -60.1912 75.2935 4
5 -9 3 79.9817 97.2829 3
-5 9 -4 2122.15 370.788 2
5 -9 4 2204.54 349.099 3
5 -9 4 3080.91 402.657 1
-5 9 -5 100.667 75.8746 2
5 -9 5 121.874 80.2538 3
-5 9 -6 20.8878 31.2078 2
5 -9 6 25.4151 38.3152 3
-5 9 -7 3144.23 484.34 2
5 -9 7 4779.26 593.224 1
5 -9 8 7477.62 776.654 1
-5 9 -8 3899.11 561.929 2
-5 9 -9 682.716 236.268 2
5 -8 -10 931.31 318.277 2
-5 8 10 777.286 273.889 2
-5 8 9 118.541 76.9067 4
5 -8 -9 278.512 163.94 2
-5 8 9 215.748 153.456 2
-5 8 8 -85.8501 102.452 4
-5 8 8 54.9813 81.9365 2
-5 8 7 186.702 73.6652 4
-5 8 7 346.808 170.673 2
-5 8 6 132.837 112.269 4
-5 8 6 -16.6252 68.6474 2
-5 8 5 245.21 117.607 4
-5 8 5 266.006 127.165 2
-5 8 4 957.119 252.011 2
5 -8 -4 307.597 171.291 3
-5 8 4 885.222 233.31 4
-5 8 3 -7.68932 27.4577 2
-5 8 3 15.3146 17.9008 4
-5 8 2 204.71 98.6504 2
-5 8 2 227.818 102.293 4
-5 8 1 19.3827 34.922 2
-5 8 1 42.5853 23.4478 4
-5 8 0 2324.87 311.152 4
5 -8 0 3128.84 311.686 1
5 -8 0 1752.14 303.005 3
-5 8 0 2284.95 372.088 2
-5 8 -1 3530.46 363.355 4
5 -8 1 3931.23 482.336 3
5 -8 1 4264.37 397.742 1
-5 8 -1 3302.22 446.11 2
-5 8 -2 322.802 116.959 2
-5 8 -2 432.077 110.238 4
5 -8 2 838.026 234.225 1
5 -8 2 624.229 193.543 3
-5 8 -3 1010.33 244.32 2
-5 8 -3 1151.84 192.25 4
5 -8 3 1766 309.335 1
5 -8 3 1132.98 241.755 3
-5 8 -4 -27.1901 58.5463 2
-5 8 -4 -10.4769 33.7919 4
5 -8 4 -8.11772 41.5647 3
-5 8 -5 13800.6 951.167 2
5 -8 5 14118.4 865.26 3
5 -8 5 15551.5 939.079 1
-5 8 -6 2686.35 425.3 2
5 -8 6 2642.23 404.109 3
-5 8 -7 1029.32 277.6 2
5 -8 7 2998.51 488.98 1
-5 8 -8 419.588 181.608 2
5 -8 8 2469.41 482.679 1
-5 8 -9 1590.69 359.751 2
5 -8 9 4734.81 663.659 1
-5 7 10 251.875 150.412 4
-5 7 10 343.833 193.477 2
5 -7 -10 398.668 212.833 2
-5 7 9 2275.19 437.392 4
5 -7 -9 811.78 157.889 3
5 -7 -9 2337.61 458.764 2
-5 7 9 2382.25 459.267 2
-5 7 8 1964.65 386.434 4
5 -7 -8 910.734 45.553 3
5 -7 -8 2074.04 413.999 2
-5 7 8 2151.14 422.845 2
-5 7 7 212.86 90.8551 4
5 -7 -7 349.514 155.207 2
-5 7 7 317.465 145.644 2
-5 7 6 510.015 170.924 4
5 -7 -6 -20.9579 219.44 3
-5 7 6 515.334 185.355 2
-5 7 5 13502.2 933.768 2
5 -7 -5 12533.8 857.149 3
-5 7 5 13334.2 868.032 4
-5 7 4 726.98 199.428 4
-5 7 4 661.141 221.292 2
-5 7 3 20.7546 60.7722 2
-5 7 3 73.383 78.2363 4
-5 7 2 858.882 220.626 2
-5 7 2 844.256 185.536 4
5 -7 -2 1220.46 270.729 3
5 -7 -2 577.259 79.4172 1
-5 7 1 142.991 47.9614 1
-5 7 1 157.751 91.1358 2
-5 7 1 124.082 47.1225 4
-5 7 0 1057.72 202.761 2
-5 7 0 1188.59 155.566 1
-5 7 0 1151.86 192.266 4
5 -7 0 2085.35 351.801 3
5 -7 0 2391.89 268.846 1
-5 7 -1 73205.6 1456.47 4
5 -7 1 75650.1 1928.42 3
5 -7 1 74431.9 1537.29 1
-5 7 -1 71591.9 1982.81 2
-5 7 -2 20762.4 729.904 4
5 -7 2 23709.5 1062.31 3
5 -7 2 23095.1 939.846 1
-5 7 -2 22026.5 1102.82 2
5 -7 3 714.856 163.691 1
-5 7 -3 674.001 180.086 2
-5 7 -3 910.063 145.836 4
5 -7 3 752.361 186.936 3
5 -7 4 1107.97 251.279 1
-5 7 -4 757.493 209.902 2
-5 7 -4 811.222 139.86 4
5 -7 4 712.43 192.362 3
5 -7 4 864.244 151.108 4
-5 7 -5 18.5602 31.1233 2
5 -7 5 84.5029 77.8341 3
-5 7 -6 1614.11 325.515 2
5 -7 6 1535.06 287.837 3
-5 7 -7 1137.6 284.419 2
5 -7 7 1070.37 221.405 3
-5 7 -8 912.037 256.263 2
5 -7 8 2347.71 474.91 1
-5 7 -9 843.174 252.934 2
5 -7 9 2637.51 543.423 1
-5 6 11 124.955 140.602 4
5 -6 -11 16.7004 44.2917 2
-5 6 11 136.786 121.575 2
-5 6 10 427.559 204.478 4
5 -6 -10 318.478 172.732 2
-5 6 10 422.153 193.2 2
-5 6 9 1156.22 309.821 4
5 -6 -9 1107.91 318.472 2
-5 6 9 1151.86 322.546 2
5 -6 -8 2965.55 485.647 2
5 -6 -8 1941.52 295.15 3
-5 6 8 3178.51 499.951 2
-5 6 8 3141.2 471.19 4
5 -6 -7 19500.6 1071.48 3
5 -6 -7 20987.1 1219.26 2
-5 6 7 20313.5 1193.34 2
-5 6 7 19547.4 1107.48 4
5 -6 -6 -146.932 184.254 3
-5 6 6 195.596 109.202 2
5 -6 -6 226.438 120.602 2
-5 6 6 145.303 82.5279 4
5 -6 -5 6207.14 557.073 3
-5 6 5 6971.07 651.613 2
-5 6 5 7011.57 590.26 4
5 -6 -4 11008.2 743.372 3
-5 6 4 11423.2 807.832 2
-5 6 4 11525.3 705.585 4
-5 6 3 13285 710.256 4
-5 6 3 13253.2 848.844 2
5 -6 -3 13254.4 812.955 3
-5 6 2 4527.26 391.309 4
5 -6 -2 3178.11 184.791 1
5 -6 -2 4685.33 481.759 3
-5 6 2 3129.17 179.241 1
-5 6 2 4514.05 489.74 2
5 -6 -2 3430.61 195.762 1
-5 6 1 3801 333.29 4
5 -6 -1 4348.7 461.397 3
5 -6 -1 3987.8 273.877 1
5 -6 -1 3538.56 326.588 4
-5 6 1 3775.86 438.145 2
-5 6 1 3810.83 251.133 1
5 -6 0 379.339 78.8132 4
-5 6 0 445.474 145.488 2
-5 6 0 698.449 134.605 4
5 -6 0 578.499 177.66 3
-5 6 0 589.955 130.532 1
-5 6 -1 29981.8 887.97 1
-5 6 -1 31773 812.616 4
5 -6 1 31934.7 1191.58 3
5 -6 1 31405.8 969.394 1
5 -6 1 30631.5 804.875 4
-5 6 -1 31743.4 1286.94 2
5 -6 2 943.921 109.988 4
5 -6 2 1204.73 210.342 1
-5 6 -2 996.42 228.252 2
-5 6 -2 931.471 124.286 4
5 -6 2 1121.5 219.313 3
5 -6 3 574.763 176.316 1
-5 6 -3 291.245 125.727 2
5 -6 3 281.963 66.771 4
-5 6 -3 324.336 74.9391 4
5 -6 3 356.722 120.347 3
5 -6 3 320.971 79.7023 4
-5 6 -4 5380.11 550.19 2
5 -6 4 5777.32 518.413 3
5 -6 4 6618.15 574.238 1
5 -6 4 5832.27 334.048 4
-5 6 -5 1213.24 277.31 2
5 -6 5 1811.68 348.368 1
5 -6 5 1318.86 259.952 3
5 -6 5 1157 160.017 4
-5 6 -6 1385.64 303.156 2
5 -6 6 1828.08 349.188 1
5 -6 6 1286.18 253.542 3
-5 6 -7 5695.94 615.256 2
5 -6 7 5732.73 498.395 3
5 -6 7 6758.34 685.352 1
5 -6 8 339.903 219.318 1
-5 6 -8 117.998 90.0039 2
5 -6 9 200.15 125.142 1
-5 6 -9 164.923 97.9288 2
-5 6 -10 53.7227 50.2082 2
-5 5 12 416.16 227.168 2
5 -5 -12 219.378 146.334 2
-5 5 11 94.256 120.141 4
5 -5 -11 -193.242 176.938 2
-5 5 11 -50.7293 111.442 2
-5 5 10 155.046 139 4
5 -5 -10 28.7394 76.655 2
-5 5 10 -8.60134 81.1643 2
-5 5 9 3086.18 465.887 4
5 -5 -9 3058.42 498.427 2
5 -5 -9 2014.96 289.546 3
-5 5 9 3044.72 491.617 2
-5 5 8 491.053 198.334 2
-5 5 8 483.316 180.973 4
5 -5 -8 -130.645 207.915 3
5 -5 -8 442.46 187.525 2
5 -5 -7 9662.91 710.651 3
5 -5 -7 10968.8 861.898 2
-5 5 7 11115.5 875.001 2
-5 5 7 10666.6 777.714 4
5 -5 -6 4201.99 435.622 3
5 -5 -6 4684 541.799 2
-5 5 6 4778.14 537.472 2
-5 5 6 4388.83 460.962 4
5 -5 -5 -14.6289 161.667 3
-5 5 5 396.857 130.13 4
5 -5 -5 307.537 125.353 2
-5 5 5 353.577 138.675 2
-5 5 4 882.311 179.458 4
5 -5 -4 478.205 108.569 3
-5 5 4 798.994 205.659 2
5 -5 -3 7676.55 588.346 3
-5 5 3 7610.8 621.47 2
-5 5 3 7737.49 492.323 4
-5 5 2 27976.5 859.998 4
5 -5 -2 28129.8 1117.48 3
-5 5 2 27460 1157.26 2
5 -5 -2 25374.3 559.962 1
5 -5 -2 25788.5 843.556 4
-5 5 2 24205.3 489.181 1
-5 5 1 1203.75 238.863 2
5 -5 -1 1383.44 247.485 3
5 -5 -1 1471.22 166.613 1
5 -5 -1 1243.34 170.483 4
-5 5 1 1191.23 160.527 4
-5 5 1 1335.61 143.411 1
5 -5 0 1863.72 176.66 4
-5 5 0 1871.45 175.034 4
-5 5 0 1797.15 189.913 1
5 -5 0 1898.23 281.725 3
5 -5 0 1943.02 219.712 1
-5 5 0 1664.27 275.632 2
-5 5 -1 3128.68 282.691 1
5 -5 1 3098.53 355.01 3
-5 5 -1 3308.33 204.161 4
5 -5 1 3314.45 312.957 1
5 -5 1 2882.51 191.151 4
-5 5 -1 3238.59 401.168 2
-5 5 -2 5306.84 236.346 4
5 -5 2 6848.22 542.387 3
5 -5 2 6640.88 486.545 1
5 -5 2 5606.62 245.845 4
5 -5 2 4947.68 232.475 4
-5 5 -2 6606.69 573.204 2
-5 5 -3 12908.5 811.948 2
5 -5 3 13468.8 762.486 3
5 -5 3 12962.3 723.87 1
5 -5 3 12046.3 376.806 4
5 -5 4 247.551 63.9457 4
5 -5 4 419.133 151.562 1
-5 5 -4 282.917 113.937 2
5 -5 4 323.612 122.02 3
5 -5 4 303.166 68.6394 4
-5 5 -5 950.849 229.636 2
5 -5 5 1448.55 308.358 1
5 -5 5 990.872 134.354 4
5 -5 5 943.612 205.575 3
-5 5 -6 2033.78 350.35 2
5 -5 6 2123.93 310.967 3
5 -5 6 2122.19 356.873 1
5 -5 6 2160.57 234.346 4
-5 5 -7 13619.9 921.236 2
5 -5 7 13534.7 954.981 1
5 -5 8 96.9095 102.397 1
-5 5 -8 21.1265 68.6645 2
5 -5 9 283.791 157.036 1
-5 5 -9 247.277 138.672 2
-5 5 -10 -375.057 291.934 2
-5 4 12 166.365 155.885 4
5 -4 -12 -55.0896 247.511 2
-5 4 12 172.266 163.865 2
-5 4 11 1005.48 294.2 4
5 -4 -11 297.596 162.177 3
5 -4 -11 175.116 197.411 2
-5 4 11 889.812 269.966 2
-5 4 10 247.527 158.052 4
5 -4 -10 28.6784 69.7074 2
-5 4 10 133.993 56.9604 2
-5 4 9 140.176 80.9464 4
5 -4 -9 122.364 92.732 2
-5 4 9 106.198 83.4878 2
5 -4 -8 4333.79 447.39 3
5 -4 -8 5123 597.333 2
-5 4 8 4844.81 579.132 2
-5 4 8 4838.69 531.518 4
-5 4 7 1709.91 289.746 4
5 -4 -7 1088.07 183.897 3
5 -4 -7 1746.55 344.862 2
-5 4 7 1753.87 340.548 2
-5 4 6 1093.8 221.606 4
5 -4 -6 1299.82 225.507 3
5 -4 -6 1201.95 260.977 2
-5 4 6 1136.96 251.86 2
5 -4 -5 1852.59 281.09 3
5 -4 -5 1702.11 300.988 2
-5 4 5 1646.12 296.78 2
-5 4 5 1666.83 246.802 4
5 -4 -4 2614.96 321.538 3
-5 4 4 2788.66 369.365 2
-5 4 4 2917.84 306.059 4
-5 4 3 390.415 101.663 4
5 -4 -3 427.257 141.007 3
5 -4 -3 340.205 97.325 4
-5 4 3 321.106 126.093 2
5 -4 -2 4295.23 247.179 1
-5 4 2 4147.77 207.296 1
5 -4 -2 4611.53 436.066 3
-5 4 2 4223.05 442.146 2
5 -4 -2 4153.25 301.962 4
-5 4 2 4115.48 287.092 4
-5 4 1 5994.56 293.001 4
-5 4 1 6380.41 319.881 1
5 -4 -1 6194.35 297.988 4
5 -4 -1 6119.94 491.946 3
-5 4 1 5990.8 519.563 2
5 -4 -1 6442.14 363.302 1
-5 4 0 12550.7 326.204 4
-5 4 0 14862.8 558.16 1
5 -4 0 14577.6 757.459 3
5 -4 0 11995.8 315.964 4
5 -4 0 15233.8 625.674 1
-5 4 0 14271.1 788.99 2
-5 4 -1 2081.18 228.996 1
5 -4 1 2063.29 288.08 3
5 -4 1 2044.95 253.98 1
-5 4 -1 1939.62 299.394 2
5 -4 2 68837.8 1676.31 3
5 -4 2 66625.6 1555.15 1
-5 4 -2 66709.7 1764.55 2
-5 4 -3 7504.09 613.247 2
5 -4 3 4720.15 191.794 4
5 -4 3 8459.73 613.966 3
5 -4 3 8240.5 596.835 1
5 -4 3 5509.12 202.846 4
-5 4 -4 30159.5 1239.35 2
5 -4 4 26047.2 626.696 4
5 -4 4 30453.9 1126.62 3
5 -4 4 30760.3 1206.57 1
5 -4 4 27355.7 614.566 4
-5 4 -5 1445.45 285.755 2
5 -4 5 1749.85 279.63 3
5 -4 5 1801.29 187.411 4
5 -4 5 1690 305.489 1
-5 4 -6 3699.72 453.074 2
5 -4 6 3878.22 491.752 1
5 -4 6 4157.02 326.326 4
-5 4 -7 10702 809.983 2
-5 4 -7 11842.5 737.364 3
5 -4 7 11207.2 875.92 1
5 -4 8 2045.16 401.394 1
-5 4 -8 1801.9 347.519 2
5 -4 9 466.508 198.694 1
-5 4 -9 361.663 77.6507 2
5 -4 10 110.039 73.2319 1
-5 4 -10 -650.45 304.193 2
-5 3 13 540.963 242.545 4
5 -3 -13 483.886 216.961 2
-5 3 12 925.268 285.777 4
5 -3 -12 285.23 215.26 3
5 -3 -12 958.387 292.662 2
-5 3 11 -56.0567 178.25 4
5 -3 -11 -461.668 270.253 3
5 -3 -11 -73.0504 111.976 2
-5 3 10 1153.77 284.052 4
5 -3 -10 637.338 77.0688 3
5 -3 -10 1098.01 284.676 2
-5 3 9 -167.509 147.432 4
5 -3 -9 -244.115 172.829 3
5 -3 -9 -96.8504 179.941 2
-5 3 9 108.843 128.438 2
5 -3 -8 40872.3 1390.09 3
5 -3 -8 41671.5 1611.48 2
-5 3 8 40194.2 1574.3 2
-5 3 8 40133.3 1449.56 4
5 -3 -7 16997.1 869.105 3
5 -3 -7 18091.3 1015.75 2
-5 3 7 17695.8 999.472 2
-5 3 7 17256.6 882.742 4
-5 3 6 1136.41 202.873 4
5 -3 -6 915.786 174.042 3
5 -3 -6 1274.51 264.328 2
-5 3 6 1343.88 276.498 2
-5 3 5 683.074 154.575 4
5 -3 -5 788.402 184.252 3
5 -3 -5 634.334 174.008 2
-5 3 5 580.893 168.382 2
5 -3 -4 65756.5 1596.26 3
5 -3 -4 64263.5 1707.11 2
-5 3 4 65238.8 1701.02 2
5 -3 -4 65150.2 1408.23 4
-5 3 4 65259.2 1320.44 4
-5 3 3 19222.1 397.149 1
5 -3 -3 20252.8 881.185 3
5 -3 -3 19465.1 451.499 1
-5 3 3 20947.6 945.032 2
5 -3 -3 21421.9 706.898 4
-5 3 3 21406.3 666.447 4
-5 3 2 18809.7 505.656 1
5 -3 -2 17932.1 806.405 3
-5 3 2 18868 886.544 2
5 -3 -2 19501.1 547.973 4
5 -3 -2 19537 574.171 1
-5 3 2 19329.5 535.704 4
5 -3 -1 3888.18 294.496 1
-5 3 1 3064.42 155.159 4
-5 3 1 2879.9 149.375 4
-5 3 1 3630.12 253.844 1
5 -3 -1 3970.51 389.717 3
-5 3 1 3650.62 391.491 2
5 -3 -1 3146.92 158.448 4
-5 3 0 1208.4 217.214 2
5 -3 0 1273.16 219.662 3
-5 3 0 968.601 132.212 1
5 -3 0 1329.96 188.698 1
-5 3 -1 27.6568 44.3866 2
5 -3 1 51.0909 41.9426 1
5 -3 1 46.5417 49.2458 3
-5 3 -1 -7.4412 51.7921 1
5 -3 2 3121.01 364.741 3
5 -3 2 3002.33 334.695 1
-5 3 -2 2893.82 362.993 2
-5 3 -3 2023.21 317.543 2
5 -3 3 1309.35 108.565 4
5 -3 3 2158.55 302.127 3
5 -3 3 2422.73 325.275 1
5 -3 3 1586.44 111.877 4
5 -3 4 702.506 102.144 4
5 -3 4 604.253 97.7954 4
-5 3 -4 560.071 178.996 2
5 -3 4 714.966 192.208 1
5 -3 4 657.06 168.408 3
-5 3 -5 860.648 209.978 2
5 -3 5 928.438 228.271 1
5 -3 5 986.893 146.575 4
5 -3 6 594.046 131.472 4
-5 3 -6 533.014 178.982 2
5 -3 6 572.437 192.055 1
-5 3 -6 505.774 139.453 3
-5 3 -7 6866.19 645.047 2
-5 3 -7 7476.56 568.593 3
5 -3 7 7558.7 718.655 1
5 -3 7 7649.17 525.691 4
-5 3 -8 236.502 120.611 2
5 -3 8 310.811 149.25 1
-5 3 -8 343.834 125.042 3
-5 3 -9 -399.817 251.17 2
5 -3 9 47.7081 61.6732 1
-5 2 13 -479.767 289.032 4
5 -2 -13 353.036 170.63 2
5 -2 -12 1649.95 328.547 3
5 -2 -12 864.43 272.324 2
-5 2 12 988.979 283.65 4
-5 2 11 231.193 135.558 4
5 -2 -11 372.367 160.638 3
5 -2 -11 119.088 62.5628 2
5 -2 -10 7260.47 596.158 3
5 -2 -10 6914.08 697.118 2
-5 2 10 6921.51 663.711 4
5 -2 -9 9985.66 674.924 3
5 -2 -9 9389.03 761.655 2
-5 2 9 8862.58 383.589 1
-5 2 9 9208.35 721.93 4
-5 2 8 936.097 122.359 1
-5 2 8 394.184 72.6331 1
5 -2 -8 826.641 218.202 3
5 -2 -8 294.868 68.5085 2
-5 2 8 480.54 168.342 4
-5 2 7 12.424 11.6454 1
5 -2 -7 162.138 110.955 3
5 -2 -7 80.6911 73.3426 2
-5 2 7 86.7864 81.2703 2
-5 2 7 111.692 41.6374 1
-5 2 7 30.8744 6.32416 4
-5 2 6 2987.72 165.763 1
-5 2 6 3222.11 141.387 1
5 -2 -6 4072.82 401.947 3
5 -2 -6 3812.76 431.026 2
-5 2 6 3809.06 423.908 2
-5 2 6 4047.38 392.488 4
-5 2 5 2806.13 134.583 1
-5 2 5 2720.51 275.701 4
5 -2 -5 3062.36 340.514 3
5 -2 -5 3052.55 373.389 2
-5 2 5 2681.85 156.598 1
-5 2 5 3212.68 383.831 2
5 -2 -5 2708.82 292.155 4
-5 2 5 3274.64 323.046 4
-5 2 4 2310.93 239.304 4
5 -2 -4 2816.03 316.775 3
5 -2 -4 2521.58 161.011 1
5 -2 -4 2648.77 341.427 2
-5 2 4 2520.54 170.727 1
-5 2 4 2462.88 326.461 2
-5 2 4 2215.77 151.067 1
5 -2 -4 2404.42 258.147 4
-5 2 4 2569.94 254.952 4
-5 2 3 39443.1 842.011 4
5 -2 -3 37215.4 1127.94 3
5 -2 -3 39088.9 769.25 1
-5 2 3 39838.6 754.748 1
-5 2 3 38768.8 1231.25 2
5 -2 -3 39941.3 883.837 4
-5 2 3 37747.2 816.717 4
-5 2 2 3348.7 192.289 4
5 -2 -2 3586.17 210.228 4
-5 2 2 3558.29 201.676 4
5 -2 -2 3601.22 267.587 1
5 -2 -2 3392.28 357.413 3
-5 2 2 3776.61 263.215 1
-5 2 2 3525.27 376.476 2
-5 2 1 143.237 79.7393 2
5 -2 -1 130.932 58.7577 3
5 -2 -1 184.817 66.9284 1
5 -2 0 10446.3 552.809 1
5 -2 0 10756.6 633.156 3
-5 2 0 10929.1 539.824 1
-5 2 0 10039.3 623.738 2
5 -2 1 28413.2 1069.15 3
-5 2 -1 27321.4 1046.39 2
5 -2 1 27496.7 962.879 1
-5 2 -2 11921 703.532 2
5 -2 2 12032.2 694.107 3
5 -2 2 12361.4 694.236 1
-5 2 -3 6158.03 519.792 2
5 -2 3 5933.3 270.796 4
5 -2 3 6307.52 518.315 3
5 -2 3 6393.19 530.105 1
5 -2 3 6053.94 271.002 4
-5 2 -4 12799.9 525.608 4
-5 2 -4 11570.8 731.122 2
5 -2 4 12503.5 489.549 4
5 -2 4 11883.2 765.282 1
5 -2 4 12491 492.573 4
5 -2 5 507.703 117.905 4
-5 2 -5 535.017 180.341 2
5 -2 5 528.21 183.933 1
-5 2 -5 449.65 128.873 3
-5 2 -5 498.836 121.766 4
5 -2 5 477.177 109.309 4
-5 2 -6 5536.65 539.887 2
-5 2 -6 5806.81 507.828 3
5 -2 6 5578.29 590.549 1
5 -2 6 5735.96 430.633 4
-5 2 -7 3792.43 466.158 2
-5 2 -7 4011.21 416.717 3
5 -2 7 4049.91 402.681 4
5 -2 7 3866.53 518.591 1
-5 2 -8 2974.83 437.071 2
-5 2 -8 3414.47 386.493 3
5 -2 8 3253.04 508.734 1
-5 2 -9 4068.75 534.95 2
5 -2 9 4631.34 639.067 1
-5 2 -10 12.3837 40.9276 2
-5 1 14 -26.8815 64.3135 4
5 -1 -14 -108.307 261.388 2
-5 1 13 1230.89 319.263 4
5 -1 -13 1152.61 330.723 2
5 -1 -12 35.2365 62.6756 2
-5 1 12 27.6002 20.7624 4
5 -1 -11 6084.25 534.821 3
5 -1 -11 4270.82 538.828 2
-5 1 11 6359.59 439.712 1
-5 1 11 4733.85 591.037 4
-5 1 10 1272.94 200.759 1
5 -1 -10 591.663 188.143 2
5 -1 -10 986.722 219.629 3
-5 1 10 576.676 187.508 4
-5 1 9 12479.1 539.306 1
-5 1 9 12902.7 506.22 1
5 -1 -9 14277.7 763.537 3
5 -1 -9 13886.6 901.204 2
5 -1 -9 12559.8 587.622 1
-5 1 9 13206.9 851.558 4
-5 1 8 1227.27 138.507 1
5 -1 -8 1415.44 242.327 3
5 -1 -8 1105.99 242.648 2
-5 1 8 1268.62 163.127 1
-5 1 8 1170.93 234.047 4
-5 1 7 1063.76 118.119 1
5 -1 -7 1112.68 209.124 3
5 -1 -7 644.867 153.279 2
-5 1 7 1058.37 139.838 1
-5 1 7 956.139 217.034 2
-5 1 7 932.448 200.025 4
-5 1 6 17929.8 464.002 1
5 -1 -6 17717 780.856 3
-5 1 6 18852.9 577.104 1
5 -1 -6 18229.5 907.456 2
-5 1 6 17695.7 880.948 2
-5 1 6 18002.7 780.948 4
-5 1 5 -1.93444 13.4916 1
-5 1 5 87.0941 69.9228 4
-5 1 5 69.1021 45.1958 1
-5 1 5 89.6314 67.98 2
5 -1 -5 70.2744 64.9759 3
5 -1 -5 96.4099 94.4842 2
-5 1 5 120.345 80.6905 4
5 -1 -5 85.4153 71.2064 4
-5 1 4 1985.66 197.807 1
-5 1 4 1766.65 206.719 4
-5 1 4 1955.82 217.347 4
5 -1 -4 1831.54 174.102 1
5 -1 -4 1858.04 262.337 3
5 -1 -4 1720.93 271.897 2
-5 1 4 1731.83 168.485 1
-5 1 4 1846.05 269.508 2
5 -1 -4 1804.23 216.313 4
-5 1 3 37770.2 794.59 4
-5 1 3 39257.8 823.786 4
5 -1 -3 38997.6 1170.63 3
5 -1 -3 39705.8 889.623 1
-5 1 3 38696.7 1179.66 2
-5 1 3 40548.3 912.754 1
-5 1 2 32103.6 603.707 4
-5 1 2 31770.7 607.827 4
5 -1 -2 32707.2 889.988 1
5 -1 -2 31718.2 1063.84 3
-5 1 2 32142.8 858.011 1
-5 1 2 31903.2 1067.82 2
5 -1 -1 46741.5 1131.82 1
5 -1 -1 49686.8 1360.88 3
-5 1 1 35350.8 435.157 4
-5 1 1 47087.4 1107.34 1
-5 1 1 38512.7 455.725 4
-5 1 1 45846 1255.09 2
5 -1 0 20744.6 815.63 1
5 -1 0 20419.9 875.398 3
-5 1 0 18667.4 731.222 1
-5 1 0 19845.4 841.726 2
5 -1 1 4650.23 414.596 1
5 -1 1 2899.45 135.638 4
5 -1 1 4694.78 431.854 3
-5 1 -1 3332.53 140.102 4
-5 1 -1 4734.49 419.234 2
-5 1 -2 13027.9 709.472 2
5 -1 2 13350.7 397.999 4
5 -1 2 13223.2 735.257 3
-5 1 -2 13484.3 403.074 4
5 -1 2 13612.6 747.006 1
-5 1 -3 5176.84 464.245 2
-5 1 -3 5156.94 309.408 4
5 -1 3 4943.58 483.666 1
5 -1 3 5292.04 307.87 4
-5 1 -4 1456.22 290.198 2
-5 1 -4 1555.58 299.392 3
5 -1 4 1535.5 231.376 4
-5 1 -4 1291.08 196.302 4
5 -1 4 1646.11 347.675 1
-5 1 -5 3671.32 413.461 2
-5 1 -5 3666.71 408.427 3
-5 1 -5 3046.9 313.07 4
5 -1 5 3480.84 450.823 1
5 -1 5 3719.24 341.947 4
-5 1 -6 13561.1 827.746 2
-5 1 -6 14136.7 784.899 3
5 -1 6 14538.6 748.044 4
5 -1 6 14105.5 945.283 1
5 -1 7 714.532 179.093 4
-5 1 -7 321.512 61.4001 2
5 -1 7 628.984 202.003 1
-5 1 -8 3160.01 428.434 2
-5 1 -8 4036.73 416.456 3
5 -1 8 4393.84 485.849 4
5 -1 8 4049.5 567.681 1
-5 1 -9 381.01 179.865 2
5 -1 9 1354.21 343.864 1
-5 1 -10 475.57 67.5691 2
5 0 -14 109.69 100.985 2
-5 0 14 60.3508 66.8831 4
5 0 -13 3367.43 542.982 2
-5 0 13 3432.78 542.745 4
5 0 -12 380.881 172.057 2
-5 0 12 306.407 140.837 4
-5 0 11 5440.03 396.574 1
5 0 -11 6101.84 661.967 2
5 0 -11 5962.15 471.048 3
-5 0 11 6056.94 631.887 4
-5 0 10 5945.2 392.952 1
5 0 -10 5884.3 619.201 2
5 0 -10 5912.14 460.844 3
-5 0 10 6108.1 591.379 4
-5 0 9 8685.71 439.658 1
-5 0 9 7851.89 472.553 1
5 0 -9 8327.5 530.781 3
5 0 -9 8732.34 687.473 2
5 0 -9 8050.35 512.918 1
-5 0 9 8353.71 650.604 4
-5 0 8 3600.37 308.993 1
-5 0 8 3750.29 269.41 1
5 0 -8 3662.45 359.672 3
5 0 -8 3793.3 439.928 2
-5 0 8 3695.62 417.224 4
-5 0 7 1853.32 182.096 1
5 0 -7 1884.09 256.506 3
5 0 -7 1830.05 295.117 2
-5 0 7 1758.89 211.763 1
-5 0 7 1800.17 277.855 4
5 0 -6 10122.1 593.126 3
5 0 -6 10150 663.263 2
-5 0 6 10444.8 499.534 1
-5 0 6 10013.3 641.935 2
-5 0 6 10699.3 603.014 4
-5 0 6 10330.9 424.728 1
-5 0 5 9548.74 522.261 4
-5 0 5 10255.5 497.748 1
5 0 -5 9800.98 575.564 3
5 0 -5 9733.36 615.112 2
-5 0 5 9911.24 614.57 2
-5 0 5 9910.95 431.42 1
-5 0 5 10400.7 544.167 4
5 0 -5 10479 451.232 1
5 0 -4 315.4 80.6584 1
-5 0 4 302.635 85.9601 1
-5 0 4 301.501 103.2 2
-5 0 4 530.108 111.508 4
5 0 -4 286.938 104.001 3
5 0 -4 252.537 99.9191 2
-5 0 4 334.126 89.4251 4
-5 0 3 13438.6 595.336 1
-5 0 3 13533.4 507.847 4
5 0 -3 13275 488.939 4
5 0 -3 13639.3 698.893 3
-5 0 3 11947.8 619.827 2
5 0 -3 13088.2 564.018 1
-5 0 3 13873.8 508.472 4
5 0 -3 11802.6 630.609 2
-5 0 3 12879.6 654.774 2
-5 0 2 43375 1099.88 1
-5 0 2 43639.4 815.869 4
5 0 -2 40879.2 774.287 4
5 0 -2 42580.9 1088.58 1
5 0 -2 44323.3 1278.75 3
-5 0 2 39704.5 1102.91 2
5 0 -2 39760.2 1162.11 2
-5 0 2 41722.4 788.124 4
-5 0 2 43337.2 1192.67 2
-5 0 1 29732.3 597.36 4
5 0 -1 28122 574.352 4
5 0 -1 28175.8 929.71 1
5 0 -1 29080.1 1029.82 3
-5 0 1 26833.5 897.279 2
5 0 -1 26385.3 951.807 2
-5 0 1 28518.4 933.945 1
5 0 0 53575.2 812.416 4
5 0 0 54057.1 1372.23 1
5 0 0 54249.7 1454.17 3
-5 0 0 53092.6 783.998 4
-5 0 0 55194.8 1351.78 2
5 0 1 358.625 71.0199 4
-5 0 -1 493.896 123.179 2
5 0 1 343.174 124.13 3
5 0 1 338.682 113.338 1
-5 0 -1 396.92 73.4839 4
5 0 2 26533.6 720.813 4
-5 0 -2 26571.5 972.705 2
5 0 2 26575.9 1084.57 1
-5 0 -2 25954.4 698.337 4
5 0 3 3204.3 353.387 4
5 0 3 4309.67 560.244 1
-5 0 -3 3318.28 435.446 2
-5 0 -3 3565.42 501.236 3
-5 0 -3 3507.34 384.359 4
5 0 4 20503.9 1064.8 1
-5 0 -4 19629.6 899.738 2
-5 0 -4 20747.3 956.713 3
-5 0 -4 20438.3 821.537 4
5 0 4 21113.2 806.165 4
5 0 5 17081.4 1012.59 1
-5 0 -5 17812.8 882.732 2
-5 0 -5 18202.9 893.924 3
5 0 5 18648.8 828.129 4
5 0 6 4305.28 533.554 1
-5 0 -6 4019.58 430.649 2
-5 0 -6 3683.27 388.789 3
5 0 6 4574.85 445.846 4
5 0 7 2137.82 332.36 4
-5 0 -7 1904.73 287.879 3
-5 0 -7 1600.13 263.815 2
5 0 7 1993.8 382.355 1
5 0 8 -0.14842 30.8571 4
-5 0 -8 6.57462 26.7618 3
5 0 8 -73.6923 113.387 1
-5 0 -9 1489.41 189.717 2
5 0 9 2428.91 495.295 1
5 1 -14 6.90534 55.9197 2
-5 -1 14 -33.0928 105.962 4
-5 -1 13 1612.65 241.851 1
5 1 -13 2262.03 438.315 2
-5 -1 13 2323.58 426.267 4
5 1 -12 2835.58 454.071 2
-5 -1 12 2303.46 415.101 4
-5 -1 12 1809.62 228.721 1
5 1 -11 491.317 178.784 2
-5 -1 11 496.129 119.953 1
5 1 -11 398.573 114.979 3
-5 -1 11 408.83 148.453 4
-5 -1 10 1015.61 172.818 1
5 1 -10 946.663 250.314 2
5 1 -10 849.554 173.102 3
-5 -1 10 963.65 244.16 4
-5 -1 9 31683.2 898.097 1
5 1 -9 32275.3 1299.75 2
5 1 -9 29293.8 993.657 3
-5 -1 9 31719.1 1277.97 4
-5 -1 8 932.562 155.027 3
5 1 -8 927.91 185.417 2
5 1 -8 1039.22 190.794 3
-5 -1 8 1120.03 190.224 1
-5 -1 8 1132.03 226.588 4
5 1 -8 981.649 190.962 1
-5 -1 7 6318.14 375.425 1
-5 -1 7 4435.15 344.968 3
5 1 -7 5873.85 449.003 3
5 1 -7 5883.66 495.511 2
-5 -1 7 6339.47 496.684 4
-5 -1 7 6038.19 428.363 1
-5 -1 6 36396.7 1012.9 3
5 1 -6 38820.2 1137.83 3
5 1 -6 37939.2 1208.45 2
-5 -1 6 39301.2 1068.53 1
-5 -1 6 39251 1212.4 2
-5 -1 6 37866.5 1114.47 4
-5 -1 6 40297.2 958.834 1
-5 -1 5 21779.6 809.096 4
5 1 -5 23826.4 829.208 4
-5 -1 5 22361.5 810.595 3
-5 -1 5 23922.6 831.321 1
5 1 -5 24467.9 926.836 3
5 1 -5 22855.1 887.92 2
5 1 -5 24471.7 778.408 1
-5 -1 5 23540.2 904.924 2
-5 -1 5 23568.2 741.791 1
-5 -1 5 24127.2 850.409 4
5 1 -4 9995.47 522.136 1
-5 -1 4 9472.16 502.105 4
5 1 -4 10248.8 517.24 4
-5 -1 4 10054.6 553.633 1
-5 -1 4 9308.14 527.719 2
5 1 -4 9693.29 591.23 3
5 1 -4 9456.3 553.138 2
-5 -1 4 9759.77 561.712 2
-5 -1 4 10265.8 516.41 4
-5 -1 3 450.532 169.306 1
-5 -1 3 406.92 122.488 4
5 1 -3 383.947 109.456 4
5 1 -3 510.76 144.891 1
-5 -1 3 513.574 131.101 2
5 1 -3 509.714 180.519 3
5 1 -3 494.194 174.298 2
-5 -1 3 428.883 113.957 4
-5 -1 3 561.878 165.937 2
-5 -1 2 8075.17 517.968 1
5 1 -2 7731.77 386.811 4
5 1 -2 7775.57 493.782 1
5 1 -2 7873.41 544.071 3
-5 -1 2 7611.91 462.353 2
5 1 -2 7876.71 491.77 2
-5 -1 2 7996.41 485.253 2
-5 -1 2 8240.56 418.211 4
-5 -1 1 9236.29 422.356 4
5 1 -1 8758.61 407.914 4
5 1 -1 9079.34 569.663 1
5 1 -1 9139.03 600.129 3
5 1 -1 8669.17 520.717 2
-5 -1 1 9241.97 517.057 2
-5 -1 1 7492.27 517.276 1
5 1 0 7102.09 387.012 4
5 1 0 7379.44 536.336 1
5 1 0 7110.36 512.124 2
-5 -1 0 7425.89 393.559 4
-5 -1 0 7538.74 482.314 2
-5 -1 -1 1118.97 186.049 2
5 1 1 1167.83 168.812 4
5 1 1 1156.45 222.43 1
-5 -1 -1 1188.91 153.543 4
5 1 2 44948.9 1104.97 4
-5 -1 -2 49163.9 1278.36 2
5 1 2 48001.7 1502.83 1
-5 -1 -2 50994 1519.63 3
-5 -1 -2 46055.1 1113.46 4
5 1 3 1450.04 254.407 4
-5 -1 -3 1658.62 282.857 2
5 1 3 1579.05 350.828 1
-5 -1 -3 1713.82 319.467 3
-5 -1 -3 1616.17 305 4
5 1 4 7938.01 675.974 1
-5 -1 -4 7918.93 551.727 2
-5 -1 -4 7684.38 586.194 3
5 1 4 8174.5 552.438 4
5 1 5 2395.14 399.195 1
-5 -1 -5 2122.82 290.977 2
-5 -1 -5 1584.26 232.374 3
5 1 5 2207.66 305.032 4
5 1 6 134.072 90.0214 4
-5 -1 -6 -121.888 152.799 2
-5 -1 -6 97.3529 83.0247 3
5 1 6 166.113 109.254 1
5 1 7 1975.2 336.88 4
-5 -1 -7 1911.18 297.341 3
-5 -1 -7 1104.83 167.54 2
5 1 7 2085.79 408.755 1
5 1 8 567.388 187.831 4
-5 -1 -8 -53.4059 168.456 2
-5 -1 -8 562.672 171.951 3
5 1 8 700.385 251.721 1
-5 -1 -9 641.036 113.235 2
5 1 9 996.516 314.916 1
-5 -1 -10 199.286 139.978 2
5 2 -14 18.535 77.4846 2
-5 -2 14 45.7571 47.0894 4
5 2 -13 90.6281 85.9996 2
-5 -2 13 -53.6102 78.1923 1
-5 -2 13 99.541 75.4943 4
-5 -2 12 1360.53 221.001 1
5 2 -12 1390.07 311.377 2
-5 -2 12 1262.63 304.129 4
-5 -2 11 669.419 154.468 1
5 2 -11 720.4 218.491 2
5 2 -11 432.98 92.2306 3
-5 -2 11 734.185 206.946 4
-5 -2 10 10083.8 564.9 1
5 2 -10 10661.5 774.692 2
5 2 -10 9683.02 551.113 3
-5 -2 10 10010.5 761.224 4
-5 -2 9 1174.76 191.596 1
-5 -2 9 957.069 147.392 3
5 2 -9 921.169 232.634 2
5 2 -9 1029.14 187.505 3
-5 -2 9 908.605 219.134 4
-5 -2 8 649.745 134.853 1
-5 -2 8 178.004 104.779 3
5 2 -8 580.64 166.306 2
5 2 -8 701.939 153.028 3
-5 -2 8 678.497 178.033 4
5 2 -7 1010.25 192.504 4
-5 -2 7 642.5 89.0837 3
5 2 -7 894.115 183.982 2
5 2 -7 941.185 175.998 3
-5 -2 7 1132.29 177.983 1
-5 -2 7 987.833 204.257 4
-5 -2 6 10894.4 625.9 4
5 2 -6 11129.7 640.945 4
5 2 -6 11559.2 580.585 1
-5 -2 6 10236.4 564.416 3
5 2 -6 10642.5 595.918 3
5 2 -6 10533.4 614.871 2
-5 -2 6 10237.6 594.363 1
-5 -2 6 10877.2 617.748 2
-5 -2 6 10899.3 547.582 1
-5 -2 5 270.118 93.4771 1
5 2 -5 280.592 96.7277 1
-5 -2 5 253.415 102.739 1
-5 -2 5 246.365 95.6218 4
5 2 -5 286.177 106.35 4
-5 -2 5 126.535 6.0997 2
-5 -2 5 209.956 94.0589 3
5 2 -5 271.889 107.613 2
5 2 -5 272.937 110.029 3
-5 -2 5 275.076 97.4361 4
-5 -2 5 309.982 107.588 2
-5 -2 4 9356.59 532.684 4
5 2 -4 9573.68 551.464 1
5 2 -4 9516.02 519.37 4
-5 -2 4 9003.31 567.705 1
-5 -2 4 9873.28 506.83 2
5 2 -4 9885.93 597.73 3
5 2 -4 9157.77 515.08 2
-5 -2 4 9628.14 529.169 2
-5 -2 3 14330.5 643.233 4
5 2 -3 12896.9 581.921 4
-5 -2 3 13194.1 682.72 1
-5 -2 3 14262.5 628.022 2
-5 -2 3 13961.8 592.468 2
5 2 -3 15029.1 756.833 3
5 2 -3 14056.3 681.052 1
-5 -2 2 65.5701 30.6222 2
-5 -2 2 32.0271 13.2378 4
5 2 -2 43.7157 12.3993 4
5 2 -2 16.2439 15.8315 1
-5 -2 2 48.5651 38.0203 2
5 2 -2 32.2446 5.02793 2
-5 -2 1 832.947 192.219 4
5 2 -1 618.355 152.152 4
5 2 -1 763.836 219.433 1
5 2 -1 797.048 190.099 2
-5 -2 1 829.478 178.534 2
-5 -2 0 3140.45 290.664 2
5 2 0 3234.2 301.24 4
-5 -2 0 3182.87 385.597 3
5 2 0 3297.86 380.175 1
5 2 0 2915.85 309.859 2
-5 -2 0 3293.98 301.062 4
-5 -2 -1 2935.05 287.847 2
5 2 1 3030.34 373.161 1
-5 -2 -1 2867.76 357.958 3
5 2 1 3260.67 318.441 4
5 2 1 2697.18 316.33 2
-5 -2 -1 3085.24 308.538 4
-5 -2 -2 4908.35 380.381 2
5 2 2 4949.54 497.654 1
-5 -2 -2 4857.29 460.656 3
5 2 2 5410.1 435.009 4
5 2 3 46.264 50.3482 4
-5 -2 -3 47.0791 37.1673 2
-5 -2 -3 17.3285 54.2525 3
5 2 3 55.5937 53.8121 1
5 2 4 335.955 141.858 1
5 2 4 435.976 141.402 4
-5 -2 -4 30.7021 63.8095 2
-5 -2 -4 -101.976 168.58 3
5 2 5 5295.03 517.564 4
5 2 5 4929.78 574.562 1
-5 -2 -5 4426 419.62 2
-5 -2 -5 4349.6 454.275 3
5 2 6 3336.93 497.312 1
-5 -2 -6 3060.01 374.522 2
-5 -2 -6 2904.78 379.522 3
5 2 6 3466.97 442.977 4
5 2 7 180.813 91.8115 4
-5 -2 -7 171.915 86.2213 2
-5 -2 -7 192.623 97.2697 3
5 2 7 151.593 112.895 1
5 2 8 4907.94 591.46 4
5 2 8 5045.62 670.765 1
-5 -2 -8 3399.43 380.768 2
-5 -2 -8 4965.72 512.881 3
-5 -2 -9 1766.44 314.072 2
5 3 -15 737.568 271.299 2
-5 -3 15 -296.691 222.082 1
5 3 -14 2527.04 471.15 2
-5 -3 14 1398.18 212.172 1
-5 -3 14 2351.42 452.315 4
5 3 -13 123.387 85.1642 2
-5 -3 13 35.4061 50.7379 1
-5 -3 13 126.601 109.505 4
-5 -3 12 7422.98 554.399 1
5 3 -12 7708.42 722.442 2
-5 -3 12 7104.97 704.447 4
-5 -3 11 33162.4 1124.45 1
5 3 -11 34676.5 1464.42 2
-5 -3 11 31613.7 1416.09 4
-5 -3 10 148230 2265.15 1
5 3 -10 141278 1967.22 3
-5 -3 10 148228 2860.9 4
-5 -3 9 1891.4 256.708 1
-5 -3 9 1577.23 180.534 3
5 3 -9 1960.89 316.062 2
5 3 -9 1602.21 219.646 3
-5 -3 9 1425.84 264.34 4
5 3 -8 1364.52 265.273 4
5 3 -8 1333.64 200.184 3
5 3 -8 1313.2 237.493 2
-5 -3 8 791.788 103.619 3
-5 -3 8 1252.54 253.162 4
-5 -3 8 1535.84 225.87 1
-5 -3 7 625.689 153.153 1
5 3 -7 435.675 148.667 4
5 3 -7 386.817 129.965 2
-5 -3 7 610.666 163.398 3
5 3 -7 437.889 129.899 3
-5 -3 7 423.709 152.985 4
5 3 -6 3298.81 339.883 1
5 3 -6 3337.84 365.651 4
-5 -3 6 2829.15 318.948 3
5 3 -6 2916.33 311.128 2
5 3 -6 3450.47 350.583 3
-5 -3 6 3287.7 330.587 2
-5 -3 6 3052.46 345.543 4
-5 -3 6 3291.29 330.416 1
5 3 -5 11060 631.418 4
-5 -3 5 10650 514.168 2
5 3 -5 11005 565.735 2
5 3 -5 11411.3 623.199 1
-5 -3 5 11724.7 587.367 2
-5 -3 5 10944.7 608.497 1
5 3 -4 134780 2125.09 4
5 3 -4 136065 2205.07 1
-5 -3 4 136812 1760.93 2
-5 -3 4 136009 2209.67 1
-5 -3 4 137614 1885.93 2
-5 -3 3 11404.3 641.765 4
5 3 -3 12048.2 622.314 4
-5 -3 3 11785 681.073 3
-5 -3 3 12031.3 505.413 2
-5 -3 3 12638 551.232 2
5 3 -3 11892.8 672.304 1
-5 -3 2 291.147 78.6109 2
-5 -3 2 287.349 91.7548 4
5 3 -2 286.144 97.2416 4
5 3 -2 291.583 108.507 1
-5 -3 2 309.998 121.274 3
-5 -3 2 287.738 78.5902 2
5 3 -2 265.35 71.9533 2
5 3 -1 14600.1 699.588 4
-5 -3 1 14124.5 762.453 3
5 3 -1 14084.8 782.753 1
-5 -3 1 13961.2 567.101 2
5 3 -1 13843.6 590.256 2
-5 -3 1 14600.1 563.215 2
-5 -3 1 12771.4 653.578 4
-5 -3 0 29217.3 811.373 2
5 3 0 28101.5 995.742 4
-5 -3 0 27651.7 1064.91 3
5 3 0 27760.7 1136.63 1
5 3 0 26347.6 865.457 2
5 3 1 1137.91 206.141 2
-5 -3 -1 1428.64 194.663 2
5 3 1 1301.91 232.719 4
-5 -3 -1 1418.04 266.886 3
5 3 1 1349.11 282.249 1
5 3 2 5968.03 499.87 4
-5 -3 -2 6445.08 416.301 2
5 3 2 6003.1 569.755 1
-5 -3 -2 5679.06 501.557 3
5 3 3 7128.91 575.465 4
-5 -3 -3 6821.68 454.535 2
5 3 3 6692.88 627.373 1
-5 -3 -3 7336.94 590.729 3
5 3 4 269.116 124.823 4
5 3 4 200.364 103.008 1
-5 -3 -4 154.227 72.5748 3
5 3 5 88.3909 94.5644 4
5 3 5 29.2056 46.0654 1
-5 -3 -5 21.202 7.38001 3
5 3 6 1923.59 354.287 4
5 3 6 1822.33 380.097 1
-5 -3 -6 1799.24 307.199 3
-5 -3 -6 917.475 132.761 2
5 3 7 564.072 205.276 4
5 3 7 443.888 189.923 1
-5 -3 -7 -135.063 183.971 2
-5 -3 -7 487.954 166.488 3
5 3 8 4827.95 634.148 4
5 3 8 4252.71 635.983 1
-5 -3 -8 4527.75 506.272 3
-5 -3 -8 2572.45 297.084 2
5 4 -15 28.767 86.4785 2
-5 -4 15 73.3104 107.335 4
-5 -4 14 2633.04 363.544 1
5 4 -14 2585.66 466.547 2
-5 -4 14 2790 496.719 4
-5 -4 13 5512.89 509.753 1
5 4 -13 5806.55 652.787 2
-5 -4 13 5376.6 647.902 4
-5 -4 12 239.549 112.124 1
5 4 -12 143.228 74.5705 2
-5 -4 12 122.57 81.8429 4
-5 -4 11 88.1337 82.4162 1
5 4 -11 -13.7486 41.1523 2
-5 -4 11 20.3931 42.6721 4
-5 -4 10 7642.97 548.123 1
-5 -4 10 6517.24 389.054 3
5 4 -10 7979.76 649.007 2
-5 -4 10 6835.48 628.443 4
-5 -4 9 5842.45 464.779 1
5 4 -9 6276.42 600.452 4
-5 -4 9 5301.01 369.609 3
5 4 -9 5974.83 530.501 2
-5 -4 9 4546.25 314.18 3
-5 -4 9 5852.39 558.851 4
-5 -4 8 70.9937 59.4668 4
-5 -4 8 63.3949 29.7695 1
5 4 -8 87.9358 73.8875 4
-5 -4 8 79.7537 40.3868 3
5 4 -8 86.3105 62.232 2
-5 -4 8 225.26 99.0836 3
-5 -4 7 989.042 193.296 1
5 4 -7 1032.21 224.389 4
-5 -4 7 910.446 175.178 3
5 4 -7 903.073 179.188 2
-5 -4 7 650.709 167.719 3
-5 -4 7 930.837 202.672 4
-5 -4 6 359.508 124.621 1
5 4 -6 387.248 132.484 4
-5 -4 6 406.924 113.096 2
-5 -4 6 -53.7544 143.163 2
-5 -4 6 446.169 134.927 3
5 4 -6 351.217 102.152 1
5 4 -6 408.874 111.585 2
5 4 -5 14196.7 767.22 4
-5 -4 5 15582.8 749.387 3
-5 -4 5 14254.6 547.685 2
5 4 -5 14246.3 613.034 2
5 4 -5 14307.7 756.032 1
-5 -4 5 14497.9 619.899 2
-5 -4 5 13743.4 737.471 1
5 4 -4 51956.9 1429.02 4
5 4 -4 51799.1 1456.54 1
-5 -4 4 51230 1377.01 3
-5 -4 4 52114.8 978.623 2
-5 -4 4 52213.6 1455.1 1
-5 -4 4 52528.9 1089.09 2
5 4 -3 5392.17 462.217 4
-5 -4 3 5171.36 455.884 3
-5 -4 3 5392.73 302.635 2
-5 -4 3 5137.08 320.573 2
5 4 -3 5517.04 498.964 1
-5 -4 2 675.707 112.625 2
5 4 -2 608.486 152.333 4
-5 -4 2 641.649 183.023 3
5 4 -2 587.965 173.14 1
-5 -4 2 639.955 103.304 2
-5 -4 1 10356.4 415.016 2
5 4 -1 10405 653.399 4
-5 -4 1 9888.36 647.599 3
-5 -4 1 10279.3 440.574 2
5 4 -1 9916.84 692.848 1
5 4 -1 9998.12 451.306 2
5 4 0 859.884 258.933 1
5 4 0 654.132 161.186 2
-5 -4 0 772.035 155.669 2
5 4 0 845.201 233.976 4
-5 -4 0 478.982 177.501 3
-5 -4 -1 34491.5 837.343 2
-5 -4 -1 34903.2 1262.68 3
5 4 1 36611.1 1418.18 1
5 4 1 38057.2 1337.96 4
5 4 1 34120.6 1004.99 2
5 4 2 12495.6 792.931 4
-5 -4 -2 12574.9 545.567 2
-5 -4 -2 12211 758.404 3
5 4 2 12330.8 856.313 1
5 4 3 613.976 184.834 4
-5 -4 -3 570.199 103.282 2
5 4 3 604.143 206.238 1
-5 -4 -3 452.736 145.764 3
5 4 4 825.882 220.331 4
5 4 4 809.891 241.944 1
-5 -4 -4 471.867 39.2298 2
-5 -4 -4 659.553 179.402 3
5 4 5 412.668 164.597 4
5 4 5 307.352 147.993 1
-5 -4 -5 367.247 143.592 3
5 4 6 1898.5 372.923 4
-5 -4 -6 1683.69 307.244 3
5 4 6 1729.37 379.946 1
-5 -4 -6 1008.1 108.272 2
5 4 7 1699.3 380.374 4
-5 -4 -7 1656.47 313.094 3
5 4 7 1699.36 394.229 1
5 4 8 187.693 126.267 4
-5 -4 -8 231.851 116.272 3
5 5 -15 -57.3385 103.249 2
-5 -5 15 -1.80604 31.7451 1
-5 -5 14 1961.53 324.542 1
-5 -5 14 1723.78 390.976 4
5 5 -14 1818.14 370.919 2
-5 -5 13 80.2278 68.8756 4
-5 -5 13 162.776 98.7366 1
5 5 -13 40.4501 38.6911 2
-5 -5 12 297.712 121.454 1
5 5 -12 366.329 157.713 2
-5 -5 12 280.796 134.34 4
-5 -5 11 2435.77 339.663 1
5 5 -11 2704.36 395.442 2
-5 -5 11 2026.36 341.768 4
-5 -5 10 7872.31 580.465 1
5 5 -10 8049.59 725.26 4
5 5 -10 8345.26 653.985 2
-5 -5 10 7347.33 668.753 4
5 5 -9 1231.22 296.788 4
-5 -5 9 862.397 147.673 3
5 5 -9 1000.19 239.221 2
-5 -5 9 1142.5 278.119 4
-5 -5 9 1019.18 221.371 1
5 5 -8 1665.32 302.971 4
-5 -5 8 1432.16 206.378 3
5 5 -8 1595.55 248.186 2
-5 -5 8 1214.46 214.37 3
-5 -5 8 1480.6 275.605 4
-5 -5 8 1539.23 254.274 1
-5 -5 7 1110.18 226.906 1
5 5 -7 1106.12 238.715 4
-5 -5 7 992.032 179.484 3
5 5 -7 1074.82 189.36 2
-5 -5 6 925.297 209.785 1
5 5 -6 1059.85 233.781 4
-5 -5 6 918.59 149.854 2
-5 -5 6 933.291 181.343 3
5 5 -6 909.264 185.396 1
5 5 -6 942.375 164.67 2
-5 -5 6 1003.32 167.984 2
5 5 -5 7127.37 584.425 4
-5 -5 5 7158.2 351.129 2
-5 -5 5 7225.79 511.25 3
5 5 -5 7117.07 401.993 2
5 5 -5 7301.35 573.374 1
-5 -5 5 7368.79 411.711 2
-5 -5 5 7312.76 569.969 1
-5 -5 4 146.78 60.2385 2
5 5 -4 135.277 84.995 4
-5 -5 4 -156.231 80.3185 2
5 5 -4 158.209 107.222 1
-5 -5 4 150.964 96.476 3
-5 -5 4 132.22 105.544 1
5 5 -3 40.4554 38.5389 1
-5 -5 3 36.3397 20.2648 2
5 5 -3 32.2683 30.6974 4
-5 -5 3 -23.0441 49.8326 2
-5 -5 3 -46.8339 107.788 3
5 5 -2 47.1736 77.6328 4
-5 -5 2 52.0789 31.0146 2
5 5 -2 81.2474 90.1968 1
5 5 -1 342.656 179.29 4
-5 -5 1 147.813 63.2497 2
5 5 -1 382.63 199.538 1
-5 -5 1 138.222 53.5268 2
5 5 0 7157.88 600.821 4
-5 -5 0 6559.46 286.3 2
-5 -5 0 6899.73 560.037 3
-5 -5 0 6131.16 321.789 2
5 5 0 6615.59 611.597 1
5 5 0 6080.83 327.864 2
5 5 1 25.7491 35.3075 4
-5 -5 -1 86.1659 52.0309 2
-5 -5 -1 38.0461 39.5595 3
5 5 1 16.5566 61.5163 1
5 5 2 3042.84 422.852 4
-5 -5 -2 2070.49 180.977 2
-5 -5 -2 2507.71 360.615 3
5 5 2 3027.59 435.494 1
5 5 3 38.5093 32.1912 4
-5 -5 -3 -47.4422 105.379 2
-5 -5 -3 41.446 44.9564 3
5 5 3 58.0719 52.2651 1
5 5 4 699.119 221.884 4
-5 -5 -4 636.764 193.334 3
5 5 4 467.536 179.555 1
5 5 5 483.636 187.549 4
-5 -5 -5 442.772 167.681 3
5 5 5 495.805 201.286 1
5 5 6 132.16 85.7225 4
-5 -5 -6 168.732 114.743 3
5 5 6 128.052 107.785 1
5 5 7 1143.17 323.247 4
-5 -5 -7 1144.67 273.172 3
5 6 -15 1343.03 354.548 2
-5 -6 15 1226.65 271.587 1
-5 -6 14 1530.98 296.669 1
5 6 -14 1458.99 334.494 2
-5 -6 14 1299.65 332.347 4
-5 -6 13 54.5149 66.824 1
5 6 -13 24.2058 22.9099 2
-5 -6 13 80.7725 38.839 4
-5 -6 12 1085.99 275.295 4
-5 -6 12 1720.45 308.759 1
5 6 -12 1916.59 354.958 2
-5 -6 11 68.4657 76.7929 4
5 6 -11 16.6442 18.9202 4
-5 -6 11 152.684 97.6071 1
5 6 -11 123.454 114.288 2
-5 -6 10 2324.41 336.99 1
-5 -6 10 2259.15 391.733 4
5 6 -10 2444.4 430.447 4
5 6 -10 2526.85 356.718 2
-5 -6 9 1918.35 336.007 4
5 6 -9 2157.99 376.941 4
-5 -6 9 1844.64 207.775 3
5 6 -9 2183.62 301.999 2
-5 -6 9 2101.47 328.671 1
-5 -6 8 1044.63 227.948 1
5 6 -8 841.216 218.79 4
-5 -6 8 1335.32 203.668 3
5 6 -8 656.295 120.088 2
-5 -6 8 681.555 185.302 4
-5 -6 7 108.276 92.4011 1
5 6 -7 82.67 78.2737 4
-5 -6 7 75.2769 53.6419 2
5 6 -7 88.5765 54.0692 2
5 6 -6 5120.25 505.864 1
5 6 -6 5155.59 535.848 4
-5 -6 6 4906.99 311.363 2
-5 -6 6 5651.66 450.186 3
5 6 -6 5119.52 350.483 2
-5 -6 6 5468.92 361.695 2
-5 -6 6 5133.17 500.329 1
5 6 -5 1577.53 311.739 4
-5 -6 5 1451.72 145.686 2
-5 -6 5 2235.9 309.999 3
5 6 -5 1693.96 315.408 1
-5 -6 5 1585.53 165.966 2
-5 -6 5 1599.84 296.715 1
-5 -6 4 51.2691 54.0041 1
-5 -6 4 54.6273 20.9935 2
5 6 -4 105.111 83.9917 4
-5 -6 4 37.4434 19.5987 2
5 6 -4 83.6202 85.5961 1
5 6 -3 618.587 194.845 4
5 6 -3 591.262 180.905 1
-5 -6 3 437.888 146.287 3
-5 -6 3 547.461 174.077 1
5 6 -2 108.173 96.964 4
-5 -6 2 148.164 84.1356 3
5 6 -2 150.447 108.415 1
5 6 -1 25472 1209.29 4
-5 -6 1 23416.2 1033.12 3
5 6 -1 24982.5 1188.37 1
5 6 0 3047.88 422.226 4
-5 -6 0 2914.96 375.298 3
5 6 0 2917.2 428.522 1
5 6 1 353.969 149.217 4
5 6 1 389.748 167.461 1
-5 -6 -1 397.147 152.868 3
5 6 2 9314.24 799.438 4
-5 -6 -2 7822.27 651.813 3
5 6 2 8992.53 786.008 1
5 6 3 10814.3 890.12 4
-5 -6 -3 9590.63 742.266 3
5 6 3 10652.7 892.171 1
5 6 4 503.374 198.33 1
5 6 4 530.946 210.116 4
-5 -6 -4 586.479 195.417 3
5 6 5 308.772 172.789 4
5 6 5 315.101 156.13 1
-5 -6 -5 312.868 150.835 3
5 6 6 5184.28 697.836 4
-5 -6 -6 4629.53 560.402 3
5 6 6 4501.85 664.326 1
5 7 -15 766.142 275.447 2
-5 -7 14 127.355 102.169 1
5 7 -14 180.645 123.746 2
-5 -7 14 -21.2834 79.9734 4
-5 -7 13 769.862 220.44 1
5 7 -13 800.807 238.256 2
-5 -7 13 675.476 187.112 4
-5 -7 12 2329.17 374.165 1
5 7 -12 2539.87 468.153 4
5 7 -12 2568.99 402.528 2
-5 -7 12 2315.74 427.805 4
-5 -7 11 5940.38 574.838 1
5 7 -11 6681.77 735.32 4
5 7 -11 6376.93 585.09 2
-5 -7 11 5840.62 645.759 4
-5 -7 10 4589.94 492.09 1
5 7 -10 5112 634.016 4
5 7 -10 4899.42 482.381 2
-5 -7 10 4497.46 550.625 4
5 7 -9 1527.87 326.886 4
-5 -7 9 1204.11 173.631 3
5 7 -9 1532.54 245.749 2
-5 -7 9 1339.03 284.24 4
-5 -7 9 1804.17 316.965 1
5 7 -8 2799.48 422.293 4
-5 -7 8 2453.38 276.577 3
5 7 -8 2749.07 300.192 2
-5 -7 8 2931.34 390.986 1
5 7 -7 6851.93 663.953 4
-5 -7 7 5472.35 427.016 3
5 7 -7 6268.69 402.777 2
-5 -7 7 6882.93 411.647 2
-5 -7 7 6805.46 600.708 1
-5 -7 6 456.343 169.836 1
5 7 -6 561.954 203.982 4
5 7 -6 278.229 84.72 1
-5 -7 6 406.605 132.652 3
5 7 -6 437.917 91.1497 2
-5 -7 6 492.491 94.7471 2
5 7 -5 1772.29 327.47 4
-5 -7 5 1777.57 261.412 3
5 7 -5 1712.47 306.357 1
-5 -7 5 1747.81 309.498 1
5 7 -4 3895.34 502.802 4
-5 -7 4 3351.53 386.443 3
5 7 -4 3305.9 438.644 1
-5 -7 4 3600.67 473.812 1
5 7 -3 1107.7 279.387 4
5 7 -3 1023.76 246.684 1
-5 -7 3 980.202 214.731 3
-5 -7 3 993.754 232.967 1
5 7 -2 1612.56 309.183 1
5 7 -2 1708.25 327.685 4
-5 -7 2 1367.03 261.211 3
-5 -7 2 1488.13 301.914 1
5 7 -1 91.7558 70.6463 4
-5 -7 1 124.504 86.5275 3
5 7 -1 110.468 79.9944 1
5 7 0 606.328 201.458 4
-5 -7 0 559.278 176.063 3
5 7 0 507.27 182.664 1
5 7 1 57.9528 80.1177 4
-5 -7 -1 72.5973 80.3524 3
5 7 1 57.6764 67.0429 1
5 7 2 3267.63 509.945 4
-5 -7 -2 2745.46 404.206 3
5 7 2 3043.31 478.549 1
5 7 3 53.331 13.3589 4
5 7 3 4.41436 58.471 1
-5 -7 -3 124.988 100.134 3
5 7 4 1223.67 328.973 4
5 7 4 1036.9 303.734 1
-5 -7 -4 1084.58 281.377 3
5 7 5 806.417 277.158 4
5 7 5 787.327 269.4 1
5 8 -15 170.844 164.702 2
5 8 -14 144.513 134.502 2
5 8 -13 65.5429 83.275 4
-5 -8 13 37.793 83.8953 1
5 8 -13 96.2901 123.021 2
-5 -8 13 74.5198 109.232 4
-5 -8 12 9440.65 777.95 1
5 8 -12 10597.6 986.278 4
5 8 -12 10040 774.851 2
-5 -8 12 9364.25 875.238 4
5 8 -11 801.584 277.268 4
-5 -8 11 811.536 226.472 1
5 8 -11 843.007 211.084 2
-5 -8 11 631.038 217.761 4
5 8 -10 343.047 175.506 4
-5 -8 10 375.017 160.56 1
5 8 -10 379.289 130.186 2
-5 -8 10 226.48 120.673 4
5 8 -9 110.416 9.16976 4
-5 -8 9 228.201 135.741 1
-5 -8 9 138.325 69.9176 3
-5 -8 8 581.557 201.903 1
5 8 -8 322.321 135.793 4
-5 -8 8 368.804 110.883 3
5 8 -7 8506.08 768.878 4
-5 -8 7 8175.54 542.868 3
-5 -8 7 8578.47 715.717 1
5 8 -6 24399 1292.17 4
-5 -8 6 23760.1 963.781 3
5 8 -6 25336.3 1237.44 1
-5 -8 6 24780.5 1210.79 1
5 8 -5 9297.7 806.918 4
-5 -8 5 9820.93 647.567 3
-5 -8 5 9454.09 763.027 1
5 8 -5 9625.07 764.476 1
-5 -8 4 1640.84 324.769 1
5 8 -4 1740.87 352.168 4
5 8 -4 1593.14 323.759 1
-5 -8 4 1452.7 265.226 3
5 8 -3 14262 998.396 4
-5 -8 3 12694.3 790.958 3
5 8 -3 14092.5 942.64 1
-5 -8 3 14222 953.015 1
5 8 -2 3116.08 472.932 4
5 8 -2 3171.88 458.539 1
-5 -8 2 3036.75 397.088 3
-5 -8 2 3038.14 445.671 1
5 8 -1 4724.45 601.009 4
5 8 -1 4807.86 580.897 1
-5 -8 1 4540.2 495.464 3
-5 -8 1 4737.22 577.206 1
5 8 0 8627.01 799.768 1
5 8 0 8381.55 819.032 4
-5 -8 0 7779.13 669.859 3
5 8 1 743.258 263.583 4
-5 -8 -1 752.705 235.21 3
5 8 1 851.715 273.504 1
5 8 2 521.897 195.911 4
-5 -8 -2 615.646 207.051 3
5 8 2 638.523 238.335 1
5 8 3 947.058 279.753 4
-5 -8 -3 682.4 199.387 3
5 8 3 873.911 268.72 1
5 8 4 347.536 155.903 4
5 9 -13 624.696 268.585 4
-5 -9 13 593.729 246.517 4
5 9 -12 994.836 310.922 4
-5 -9 12 798.672 233.946 1
-5 -9 12 831.315 271.98 4
-5 -9 11 3108.02 453.421 1
5 9 -11 3530.41 570.926 4
-5 -9 11 3026.86 494.176 4
5 9 -10 940.503 285.31 4
-5 -9 10 841.4 223.026 1
-5 -9 10 748.366 223.782 4
5 9 -9 412.149 169.716 4
-5 -9 9 730.723 256.776 1
5 9 -8 174.658 115.261 4
-5 -9 8 383.842 213.615 1
-5 -9 8 90.4574 52.2754 3
5 9 -7 7373.26 763.488 4
-5 -9 7 7053.01 537.112 3
-5 -9 7 6828.3 655.11 1
5 9 -6 37767.1 1714.35 4
-5 -9 6 34346 1222.56 3
-5 -9 6 38357.2 1602.96 1
5 9 -5 4327.48 548.378 1
5 9 -5 3979.57 572.416 4
-5 -9 5 4231.86 450.409 3
-5 -9 5 4199.7 546.853 1
5 9 -4 2549.35 442.265 4
-5 -9 4 2239.14 343.16 3
5 9 -4 2366.84 405.206 1
-5 -9 4 2499.21 414.856 1
-5 -9 3 34.2277 67.5429 1
5 9 -3 -10.6078 12.8451 1
5 9 -3 31.5032 86.2293 4
-5 -9 3 54.8583 66.1212 3
5 9 -2 2786.92 472.032 4
-5 -9 2 2212.72 356.08 3
5 9 -2 2651.31 451.023 1
-5 -9 2 2739.04 454.616 1
5 9 -1 60.7751 79.1824 4
5 9 -1 49.3888 85.5322 1
-5 -9 1 106.326 118.007 3
-5 -9 1 -9.32584 47.7191 1
5 9 0 5115.66 682.427 4
5 9 0 5168.22 653.595 1
-5 -9 0 4515.44 549.235 3
-5 -9 0 5349.86 648.118 1
5 9 1 -14.1234 95.676 1
5 9 1 179.297 130.091 4
-5 -9 -1 59.3318 36.989 3
5 9 2 4561.61 645.759 1
5 9 2 4418.78 651.752 4
5 10 -11 544.631 228.928 4
-5 -10 11 411.827 156.238 1
-5 -10 11 430.832 180.851 4
5 10 -10 731.924 256.957 4
-5 -10 10 601.798 198.973 1
5 10 -9 30.5203 75.3181 4
-5 -10 9 667.143 261.54 1
5 10 -8 640.664 236.839 4
-5 -10 8 588.614 202.016 1
-5 -10 8 643.405 161.006 3
5 10 -7 672.137 248.937 4
-5 -10 7 510.104 146.845 3
-5 -10 6 1389.82 275.456 1
5 10 -6 1257.49 325.948 4
-5 -10 6 1232.21 240.955 3
5 10 -5 2735.61 438.183 1
5 10 -5 2656.92 478.335 4
-5 -10 5 2414.07 363.714 3
-5 -10 5 2879.13 455.031 1
-5 -10 4 955.179 268.723 1
5 10 -4 897.945 281.884 4
5 10 -4 686.923 153.097 1
-5 -10 4 933.281 236.055 3
-5 -10 3 328.718 149.864 1
5 10 -3 312.233 161.631 4
5 10 -3 261.222 142.787 1
-5 -10 3 357.278 156.498 3
-5 -10 2 496.33 202.533 1
5 10 -2 377.101 176.875 1
5 10 -2 369.952 175.91 4
-5 -10 2 460.062 175.85 3
-5 -10 1 2674.46 461.715 1
5 10 -1 2444.37 486.449 4
-5 -10 1 2483.5 414.155 3
5 10 -1 1672.49 309.794 1
5 10 0 11299.3 1067.66 4
5 10 0 11398.4 1002.99 1
-5 -10 0 9279.56 818.772 3
-5 -10 0 11990.7 999.725 1
5 11 -10 417.688 228.722 4
5 11 -9 142.233 145.536 4
5 11 -8 825.451 277.588 4
-5 -11 8 835.949 246.694 1
5 11 -7 250.574 147.65 4
-5 -11 7 160.963 73.2234 3
5 11 -6 444.905 202.251 4
-5 -11 6 376.037 145.762 3
-5 -11 5 202.409 130.804 1
5 11 -5 135.022 111.748 4
-5 -11 5 161.595 95.4587 3
-5 -11 4 1861.82 390.847 1
5 11 -4 1823.39 430.79 4
5 11 -4 701.98 195.487 1
-5 -11 4 1525.32 313.472 3
-5 -11 3 1850.48 382.847 1
5 11 -3 1803.41 337.527 1
5 11 -3 1914.03 443.283 4
-5 -11 3 1583.19 332.793 3
-5 -11 2 925.962 286.842 1
5 11 -2 880.714 288.188 1
-5 -11 2 1128.05 278.01 3
-5 -12 6 -42.6324 64.7057 3
-5 -12 5 21.2508 45.7794 3
-5 -12 4 177.256 123.042 3
6 -12 1 183.238 200.775 3
-6 12 -2 -113.027 125.452 2
6 -12 2 174.612 178.239 3
-6 12 -3 941.339 255.858 2
6 -12 3 1429.95 350.836 3
-6 12 -4 1078.21 288.144 2
-6 12 -5 2678.44 484.091 2
-6 11 5 675.797 239.798 4
-6 11 2 727.818 243.616 2
6 -11 -2 -269.65 279.069 3
6 -11 -1 3047.22 464.887 3
-6 11 1 3735.92 536.516 2
-6 11 0 154.912 114.954 2
6 -11 0 475.369 247.531 3
-6 11 -1 19.9013 22.7453 2
6 -11 1 206.199 176.052 3
-6 11 -2 38.6254 56.2979 2
6 -11 2 322.314 206.562 3
-6 11 -3 -71.0645 109.366 2
6 -11 3 -1.61766 26.8742 3
-6 11 -4 2556.08 443.094 2
6 -11 4 2735.13 456.999 3
-6 11 -5 354.656 162.583 2
-6 11 -6 219.159 130.143 2
-6 10 6 58.3604 53.3954 4
-6 10 5 355.547 166.332 2
-6 10 5 463.59 207.658 4
-6 10 4 270.652 147.8 2
-6 10 4 271.257 128.252 4
-6 10 3 76.3918 84.5627 2
-6 10 3 48.7092 55.1914 4
6 -10 -2 5930.95 673.633 3
-6 10 2 6834.36 653.389 4
-6 10 2 6746.47 705.922 2
-6 10 1 1329.4 316.92 2
6 -10 -1 991.807 269.448 3
-6 10 0 2500.61 429.077 2
6 -10 0 3358.88 527.117 3
-6 10 -1 1427.24 312.411 2
6 -10 1 2006.83 400.842 3
6 -10 2 7608.72 753.797 3
-6 10 -2 6077.25 670.618 2
-6 10 -3 16.5189 33.5494 2
6 -10 3 91.652 82.1042 3
-6 10 -4 341.361 151.84 2
6 -10 4 441.341 183.971 3
-6 10 -5 1697.53 366.302 2
6 -10 5 1668.62 342.706 3
-6 10 -6 7623.16 803.24 2
6 -10 6 12073.1 941.274 1
-6 10 -7 269.315 172.852 2
6 -10 7 3000.48 543.839 1
-6 9 8 1977.95 442.788 4
-6 9 8 1779.44 414.766 2
-6 9 7 393.474 186.432 4
-6 9 7 405.221 199.978 2
-6 9 6 63.5282 70.3992 4
-6 9 6 -64.3979 100.226 2
-6 9 5 248.491 127.236 2
-6 9 5 372.274 175.725 4
6 -9 -5 -91.8067 251.586 3
-6 9 4 4869.95 555.821 4
6 -9 -4 3233.81 434.186 3
-6 9 4 4733.71 601.384 2
-6 9 3 27.3512 58.1181 2
-6 9 3 -3.96218 14.1334 4
-6 9 2 857.108 244.69 2
-6 9 2 791.963 200.377 4
-6 9 1 2643.72 362.699 4
6 -9 -1 2931.23 488.041 3
-6 9 1 2506.11 417.592 2
-6 9 0 86.6989 101.521 2
-6 9 0 87.2425 83.6556 4
-6 9 -1 69.4638 70.7825 2
6 -9 1 102.328 110.346 3
-6 9 -2 -22.7245 51.4931 2
6 -9 2 35.3182 28.8898 3
-6 9 -3 351.687 167.552 2
6 -9 3 290.834 148.127 3
-6 9 -4 106.741 70.5827 2
6 -9 4 118.2 100.409 3
-6 9 -5 4145.25 570.032 2
6 -9 5 3912.08 509.187 3
-6 9 -6 -63.8673 117.644 2
6 -9 6 1844.29 426.723 1
-6 9 -7 116.593 99.1451 2
6 -9 7 1947.76 469.606 1
6 -9 8 2167.41 500.708 1
-6 8 9 175.152 108.773 4
-6 8 9 263.365 163.651 2
-6 8 8 2005.1 399.711 4
-6 8 8 2270.87 462.288 2
-6 8 7 3980.02 585.193 2
6 -8 -7 2453.6 355.706 3
-6 8 7 3849.14 539.808 4
-6 8 6 466.758 188.202 4
-6 8 6 383.355 160.864 2
-6 8 5 129.569 92.3264 2
-6 8 5 141.726 71.7565 4
-6 8 4 737.189 234.923 2
-6 8 4 760.214 210.843 4
6 -8 -4 498.227 75.0954 3
-6 8 3 -20.9192 58.1698 2
-6 8 3 -15.5271 37.2108 4
6 -8 -3 -129.375 236.564 3
-6 8 2 6208.93 537.762 4
6 -8 -2 6497.18 662.155 3
-6 8 2 5256.9 588.826 2
-6 8 1 223.768 128.594 2
-6 8 1 292.943 111.71 4
6 -8 -1 416.85 188.022 3
-6 8 0 51.3209 91.0283 2
-6 8 0 26.944 37.4801 4
6 -8 0 75.3452 67.5451 1
6 -8 0 94.1901 107.931 3
-6 8 -1 1335.29 293.774 2
-6 8 -1 1433.88 202.742 4
6 -8 1 1797.84 262.497 1
6 -8 1 1477.98 320.403 3
-6 8 -2 1820.75 344.517 2
6 -8 2 1835.42 322.344 3
-6 8 -3 97.1508 98.0574 2
6 -8 3 34.5027 47.7564 3
-6 8 -4 2796.19 447.641 2
6 -8 4 2873.3 440.86 3
-6 8 -5 3789.95 537.274 2
6 -8 5 4054.11 500.444 3
6 -8 5 5530.27 615.772 1
-6 8 -6 137.897 76.3807 2
6 -8 6 205.151 111.088 3
6 -8 7 1282.17 356.086 1
-6 8 -7 372.275 164.452 2
6 -8 8 148.945 123.19 1
-6 8 -8 307.095 183.774 2
-6 7 10 -14.7702 70.5085 4
6 -7 -10 6.28703 39.3199 2
-6 7 10 45.1174 38.0649 2
-6 7 9 320.37 137.423 4
6 -7 -9 58.8343 242.71 3
6 -7 -9 330.369 174.425 2
-6 7 9 483.555 217.068 2
-6 7 8 770.778 221.292 4
6 -7 -8 616.181 68.5489 3
-6 7 8 1035.73 297.717 2
-6 7 7 592.782 195.627 4
6 -7 -7 436.432 154.073 3
-6 7 7 575.074 205.862 2
-6 7 6 591.305 184.98 4
-6 7 6 585.645 202.798 2
-6 7 5 435.269 153.309 4
6 -7 -5 276.986 69.7179 3
-6 7 5 471.974 185.85 2
-6 7 4 2061.16 315.405 4
-6 7 4 1849.34 358.873 2
6 -7 -4 1732.94 303.077 3
-6 7 3 44.8526 57.354 2
-6 7 3 58.2351 53.6285 4
6 -7 -3 50.1916 110.022 3
-6 7 2 6405.66 490.861 4
6 -7 -2 6901.36 661.487 3
-6 7 2 6184.21 622.581 2
-6 7 1 1691.18 234.801 4
-6 7 1 1569.44 309.143 2
6 -7 -1 2109.2 365.683 3
6 -7 -1 1620.42 191.474 1
-6 7 0 3971.99 325.189 4
6 -7 0 4341.37 511.245 3
6 -7 0 4068.56 352.856 1
-6 7 0 3819.92 488.824 2
-6 7 -1 7441.12 397.515 4
6 -7 1 7113.32 626.144 3
6 -7 1 7356.1 520.057 1
-6 7 -1 7074.18 667.953 2
-6 7 -2 -16.8945 46.6989 2
6 -7 2 67.7986 85.6572 1
6 -7 2 -0.03627 29.1099 3
-6 7 -3 2046.49 368.98 2
6 -7 3 2087.6 353.258 3
6 -7 3 2869.7 380.265 1
-6 7 -4 6801.47 676.067 2
6 -7 4 6664.41 647.587 3
6 -7 4 7539.07 635.573 1
-6 7 -5 4287.57 556.13 2
6 -7 5 4420.97 552.471 3
6 -7 5 4612.52 540.394 1
6 -7 6 662.132 220.208 1
-6 7 -6 502.259 190.871 2
6 -7 6 475.377 172.859 3
6 -7 7 73.1755 106.651 1
-6 7 -7 51.9209 87.9645 2
6 -7 8 2620.93 476.914 1
-6 7 -8 2283.43 442.507 2
-6 6 11 404.916 206.074 4
6 -6 -11 437.94 231.461 2
-6 6 11 442.283 218.269 2
-6 6 10 682.566 255.88 4
6 -6 -10 626.626 246.318 2
-6 6 10 750.063 277.817 2
6 -6 -9 15792.7 1070.09 3
6 -6 -9 18189.3 1279.04 2
-6 6 9 17736.3 1259.24 2
-6 6 9 17148.2 1154.86 4
6 -6 -8 7157.57 687.94 3
6 -6 -8 8267.84 838.789 2
-6 6 8 8101.15 822.12 2
-6 6 8 8133.23 749.897 4
-6 6 7 392.849 155.747 4
6 -6 -7 -162.768 215.374 3
6 -6 -7 350.31 162.416 2
-6 6 7 341.313 154.712 2
6 -6 -6 3498.33 463.712 3
-6 6 6 3606.3 504.681 2
-6 6 6 3692.2 447.088 4
6 -6 -5 1634.71 309.771 3
-6 6 5 1667.89 337.606 2
-6 6 5 1721.95 292.111 4
-6 6 4 5001.05 574.335 2
6 -6 -4 4918.85 544.292 3
-6 6 4 5119.71 455.765 4
-6 6 3 17497.1 788.657 4
6 -6 -3 18431.1 1027.9 3
-6 6 3 17012.1 1028.11 2
-6 6 2 88792.4 1616.99 4
6 -6 -2 76474.2 1113.27 1
6 -6 -2 90713.6 2239.81 3
-6 6 2 86839.9 2255.47 2
-6 6 2 72994.9 988.474 1
6 -6 -2 75941.5 1553.1 4
-6 6 1 8123.88 448.661 4
-6 6 1 7920.16 665.351 2
6 -6 -1 8184.22 450.756 1
-6 6 1 8365.81 402.74 1
-6 6 0 3072.44 273.866 1
-6 6 0 3493.93 249.403 4
6 -6 0 3206.59 416.434 3
6 -6 0 3510.35 329.719 1
-6 6 0 3180.12 434.018 2
-6 6 -1 -9.46617 58.8873 2
-6 6 -1 16.3181 10.323 4
6 -6 1 14.5113 10.4297 1
6 -6 1 -16.9926 65.5134 3
-6 6 -2 1193.11 266.215 2
6 -6 2 1383.94 244.402 1
6 -6 2 1341.11 267.421 3
-6 6 -3 42.6755 1.49743 2
6 -6 3 114.309 85.233 1
6 -6 3 68.5555 63.1137 3
-6 6 -4 1554.06 325.186 2
6 -6 4 1852.9 325.353 1
6 -6 4 1666.73 322.306 3
6 -6 5 1343.34 294.279 1
-6 6 -5 1125.37 277.461 2
6 -6 5 1033.5 264.501 3
6 -6 6 45.591 86.7262 1
-6 6 -6 3.32241 22.9816 2
6 -6 6 -39.8645 62.6705 3
6 -6 7 54.3414 51.6844 1
-6 6 -7 67.0988 57.2479 2
6 -6 8 1698.45 382.911 1
-6 6 -8 1662.91 369.751 2
-6 6 -9 1512.78 368.645 2
6 -5 -12 -90.8117 293.143 3
-6 5 11 1566.89 372.155 4
6 -5 -11 675.732 169.15 3
6 -5 -11 1517.84 382.909 2
-6 5 11 1669.4 408.755 2
-6 5 10 176.897 150.692 4
6 -5 -10 82.0639 103.169 2
-6 5 10 118.415 127.676 2
6 -5 -9 9029.49 778.051 3
6 -5 -9 10683.3 953.496 2
-6 5 9 10798.8 963.336 2
-6 5 9 10319.1 844.915 4
-6 5 8 2029.84 350.515 4
6 -5 -8 1614.18 293.721 3
6 -5 -8 2356.65 426.203 2
-6 5 8 2137.39 408.432 2
-6 5 7 67.8776 54.7956 4
6 -5 -7 -27.6672 165.91 3
6 -5 -7 67.8659 40.3475 2
-6 5 7 56.8805 55.0869 2
6 -5 -6 3032.99 403.401 3
6 -5 -6 3255.58 465.045 2
-6 5 6 3098.57 454.129 2
-6 5 6 2734.43 352.658 4
6 -5 -5 6467.9 622.311 3
-6 5 5 5936.53 612.816 2
-6 5 5 6232.93 507.295 4
-6 5 4 827.349 169.968 4
6 -5 -4 928.481 225.8 3
-6 5 4 712.416 196.064 2
6 -5 -3 10780.5 248.411 1
6 -5 -3 30021.9 1253.24 3
-6 5 3 28070.8 1269.46 2
6 -5 -3 25962.7 918.722 4
-6 5 3 13152.7 264.069 1
-6 5 3 28156.2 893.051 4
-6 5 2 27043.1 786.582 4
-6 5 2 26004.7 596.234 1
6 -5 -2 26819.2 704.016 1
6 -5 -2 27163.1 1177.15 3
6 -5 -2 25659.9 799.615 4
-6 5 2 25587.3 1183.31 2
-6 5 1 1051.2 131.594 4
-6 5 1 915.136 213.834 2
-6 5 1 1141.39 152.535 1
6 -5 -1 1116 164.306 1
6 -5 -1 1101.58 230.103 3
6 -5 -1 1009.49 130.163 4
-6 5 0 1517.6 293.257 2
6 -5 0 1034.47 89.9433 4
-6 5 0 1002.39 94.1681 4
-6 5 0 1734.25 209.196 1
6 -5 0 1759.48 294.912 3
6 -5 0 1790.19 236.304 1
6 -5 1 2490.37 355.372 3
6 -5 1 2552.32 310.4 1
-6 5 -1 2394.49 371.014 2
6 -5 2 3077.31 401.554 3
6 -5 2 3045.35 367.386 1
-6 5 -2 2887.16 411.999 2
-6 5 -3 476.579 152.473 2
6 -5 3 564.601 166.399 1
6 -5 3 494.924 171.355 3
-6 5 -4 1091.72 248.745 2
6 -5 4 1243.99 264.846 1
6 -5 4 1092.05 247.596 3
-6 5 -5 857.95 226.207 2
6 -5 5 943.129 250.365 1
6 -5 5 722.736 220.247 3
-6 5 -6 1241.47 290.886 2
6 -5 6 1518.86 329.956 1
6 -5 6 1129.02 265.775 3
-6 5 -7 3654.85 513.386 2
6 -5 7 4042.82 569.582 1
-6 5 -8 76.5845 21.0388 2
6 -5 8 174.032 103.877 1
-6 5 -9 4426.67 613.255 2
-6 4 12 512.377 221.926 4
6 -4 -12 934.745 284.214 3
6 -4 -12 289.116 142.784 2
-6 4 12 329.304 171.681 2
6 -4 -11 618.646 191.496 3
6 -4 -11 718.977 259.834 2
-6 4 11 602.497 228.624 2
-6 4 11 783.195 258.726 4
6 -4 -10 7526.23 697.661 3
6 -4 -10 7914.48 823.899 2
-6 4 10 7484.21 797.199 2
-6 4 10 7698.22 754.054 4
-6 4 9 1157.64 277.2 4
6 -4 -9 884.833 227.29 3
6 -4 -9 1188.69 305.438 2
-6 4 9 1232.55 314.461 2
-6 4 8 1223.18 264.464 4
6 -4 -8 1111.81 249.869 3
6 -4 -8 1286 305.717 2
-6 4 8 1180.97 293.968 2
6 -4 -7 7683.55 662.744 3
6 -4 -7 6865.5 689.942 2
-6 4 7 6546.96 667.9 2
-6 4 7 6843.75 586.53 4
6 -4 -6 3698 445.62 3
6 -4 -6 3390.71 467.847 2
-6 4 6 3126.17 446.497 2
-6 4 6 3210.47 374.953 4
-6 4 5 861.103 174.96 4
6 -4 -5 940.599 229.23 3
-6 4 5 787.565 212.015 2
6 -4 -4 5913.78 551.321 3
-6 4 4 5522.56 555.274 2
6 -4 -4 5345.33 422.157 4
-6 4 4 5729.29 411.137 4
-6 4 3 10678.2 323.956 1
6 -4 -3 11696.9 744.882 3
6 -4 -3 10782.6 381.471 1
-6 4 3 11807.1 794.398 2
6 -4 -3 11234.4 534.714 4
-6 4 3 12188.6 533.86 4
-6 4 2 1962.95 180.817 4
6 -4 -2 1986.03 205.522 1
-6 4 2 1887.93 175.08 1
6 -4 -2 1648.88 281.187 3
6 -4 -2 1797.82 155.127 4
-6 4 2 1737.98 307.918 2
-6 4 1 397.616 140.065 2
-6 4 1 305.93 50.0677 4
-6 4 1 274.957 47.6717 4
-6 4 1 423.451 94.429 1
6 -4 -1 454.005 109.711 1
6 -4 -1 431.545 148.736 3
6 -4 -1 316.823 49.6383 4
-6 4 0 19938.5 724.517 1
6 -4 0 21323.7 1012.17 3
-6 4 0 20025.7 1013.52 2
6 -4 0 21535.4 842.115 1
6 -4 1 8884.68 661.405 3
6 -4 1 9222.47 595.697 1
-6 4 -1 8579.82 671.362 2
6 -4 2 21151.1 1043.19 3
6 -4 2 20453.2 948.098 1
-6 4 -2 19308.4 1023.16 2
-6 4 -3 13926.8 885.15 2
6 -4 3 14753.2 866.699 3
6 -4 3 14469.2 851.285 1
-6 4 -4 4313.26 512.03 2
6 -4 4 4380.23 486.058 3
6 -4 4 4578.23 508.922 1
-6 4 -5 1767 323.705 2
6 -4 5 1844.49 336.453 1
6 -4 5 1428.19 305.249 3
-6 4 -6 85.1107 98.1768 2
6 -4 6 18.4893 46.3944 1
-6 4 -7 310.296 161.872 2
6 -4 7 255.901 139.511 1
-6 4 -7 274.727 125.519 3
-6 4 -8 40.1361 30.9403 2
6 -4 8 51.4988 61.6851 1
-6 4 -9 -249.457 246.233 2
-6 3 13 210.47 152.218 4
-6 3 13 149.204 76.3731 2
6 -3 -12 182.491 153.318 3
-6 3 12 -109.969 141.733 2
-6 3 11 213.313 133.268 4
6 -3 -11 483.135 205.7 3
6 -3 -11 195.195 103.907 2
-6 3 11 204.962 122.068 2
6 -3 -10 22534.3 1156.63 3
6 -3 -10 21552.3 1316.9 2
-6 3 10 20539.3 1264.86 2
-6 3 10 20062.3 1155.21 4
-6 3 9 370.703 108.545 4
6 -3 -9 948.061 265.947 3
6 -3 -9 655.806 233.331 2
-6 3 9 514.291 209.771 2
-6 3 8 343.605 166.193 4
6 -3 -8 499.919 197.186 3
6 -3 -8 367.506 194.756 2
-6 3 8 388.293 198.37 2
-6 3 7 664.328 178.504 4
6 -3 -7 874.558 231.883 3
6 -3 -7 679.894 204.779 2
-6 3 7 622.505 195.339 2
6 -3 -6 2702.28 366.019 3
6 -3 -6 2308.47 370.641 2
-6 3 6 2276.35 367.931 2
-6 3 6 2170.21 282.957 4
6 -3 -5 4631.27 473.446 3
6 -3 -5 4275.53 486.626 2
-6 3 5 4400.98 490.053 2
-6 3 5 4494.42 380.947 4
-6 3 4 486.971 116.788 4
6 -3 -4 387.52 64.6644 1
-6 3 4 435.883 109.177 4
6 -3 -4 411.841 144.126 3
-6 3 4 125.009 29.6133 1
6 -3 -4 443.054 119.701 4
-6 3 4 366.188 61.0526 1
-6 3 4 401.613 152.996 2
-6 3 3 12614.1 491.453 4
-6 3 3 12835.4 448.892 1
6 -3 -3 13274.1 494.134 1
6 -3 -3 12744.7 760.406 3
6 -3 -3 13171.9 527.772 4
-6 3 3 12847.4 802.112 2
-6 3 3 12383.8 480.067 4
-6 3 2 6509.99 274.694 4
6 -3 -2 7270.98 417.117 1
-6 3 2 7055.7 377.199 1
6 -3 -2 7662.68 597.192 3
-6 3 2 7289.21 597.172 2
6 -3 -2 6822.83 293.349 4
-6 3 2 6978.66 278.962 4
-6 3 1 321.054 126.762 2
6 -3 -1 432.51 135.414 3
6 -3 -1 486.163 119.051 1
-6 3 1 446.423 99.6952 1
-6 3 0 112.333 72.6277 2
6 -3 0 92.9288 12.3979 1
6 -3 0 171.847 94.8298 3
6 -3 1 33774.7 1285.39 3
-6 3 -1 31561 1246.66 2
6 -3 1 32599.7 1136.26 1
6 -3 2 2527.86 358.525 3
6 -3 2 2718.6 350.797 1
-6 3 -2 2328.82 349.757 2
-6 3 -3 13343.6 846.683 2
6 -3 3 13333.1 805.352 3
6 -3 3 13410.8 826.333 1
-6 3 -4 4033.24 480.628 2
6 -3 4 3874.5 446.954 3
6 -3 4 3940.28 477.021 1
-6 3 -5 6571.41 618.686 2
6 -3 5 6832.15 660.858 1
-6 3 -6 247.338 140.088 2
6 -3 6 195.75 91.2168 1
-6 3 -6 236.951 100.434 3
-6 3 -7 2338.72 354.612 3
-6 3 -7 2157.24 376.534 2
6 -3 7 2295.38 421.895 1
-6 3 -8 291.151 162.638 2
6 -3 8 282.271 176.373 1
-6 3 -9 5137.05 641.307 2
-6 2 13 412.299 196.906 4
6 -2 -13 173.615 95.7888 2
-6 2 12 2471.45 448.428 4
6 -2 -12 3371.33 471.23 3
6 -2 -12 2339.8 458.269 2
-6 2 11 222.501 135.264 4
6 -2 -11 454.191 179.448 3
-6 2 11 188.604 103.635 2
-6 2 10 702.215 210.778 4
6 -2 -10 1000.49 246.276 3
6 -2 -10 64.1711 120.452 2
-6 2 10 705.899 236.585 2
6 -2 -9 1255.36 273.265 3
6 -2 -9 936.735 266.198 2
-6 2 9 883.217 251.195 2
-6 2 9 814.939 208.715 4
6 -2 -8 39166.1 1373.14 3
6 -2 -8 41809.6 1620.27 2
-6 2 8 38998.7 1551.16 2
-6 2 8 40312.4 1425.5 4
-6 2 7 1759.04 144.511 1
-6 2 7 1811.42 118.85 1
6 -2 -7 2097.31 311.99 3
6 -2 -7 2121.76 359.086 2
-6 2 7 2163.88 360.785 2
-6 2 7 2266.6 321.72 4
6 -2 -6 2028.7 302.485 3
6 -2 -6 1944.12 330.482 2
-6 2 6 1862.82 320.812 2
-6 2 6 1834.44 126.451 1
-6 2 6 2003.85 280.434 4
-6 2 6 1678.33 145.946 1
6 -2 -5 7656.26 310.228 1
-6 2 5 7222.92 474.394 4
6 -2 -5 6836.56 544.352 3
6 -2 -5 7032.86 604.965 2
-6 2 5 7353.23 608.978 2
-6 2 5 7195.44 326.032 1
6 -2 -5 7368.41 506.022 4
-6 2 5 7155.7 293.257 1
-6 2 5 7741.09 491.363 4
-6 2 4 6949.58 405.832 4
6 -2 -4 6616.76 553.546 3
-6 2 4 7150.94 358.378 1
-6 2 4 6820.68 569.901 2
6 -2 -4 7301.48 436.514 4
-6 2 4 7380.73 418.006 4
6 -2 -4 7552.42 368.515 1
-6 2 3 38130.9 792.93 4
6 -2 -3 39015.4 1315.41 3
6 -2 -3 40762.4 965.149 1
-6 2 3 38867 903.272 1
-6 2 3 39125.7 1346.76 2
-6 2 3 39071.7 797.927 4
-6 2 2 93.7974 32.3742 4
-6 2 2 162.68 95.5938 2
-6 2 2 91.3851 32.2047 4
6 -2 -2 149.833 75.9972 1
6 -2 -2 109.869 76.9585 3
-6 2 1 450.979 142.324 2
6 -2 -1 536.991 164.102 3
6 -2 -1 603.406 142.673 1
-6 2 0 112.804 51.6298 2
6 -2 0 162.929 98.7392 3
6 -2 0 142.599 76.8501 1
6 -2 1 1814.31 270.262 1
6 -2 1 1657.84 289.439 3
-6 2 -1 1759.72 288.799 2
-6 2 -2 1441.11 275.23 2
6 -2 2 1516.6 267.221 1
6 -2 2 1498.29 271.051 3
-6 2 -3 5838.88 535.263 2
6 -2 3 3704.7 180.946 4
6 -2 3 3241.84 169.816 4
6 -2 3 5876.09 541.123 3
6 -2 3 5925.68 560.596 1
6 -2 4 12972.9 471.547 4
-6 2 -4 13164 836.89 2
6 -2 4 14010.4 907.413 1
-6 2 -5 69.9087 67.323 2
-6 2 -5 20.0572 38.1901 3
6 -2 5 7.31447 64.0176 1
-6 2 -6 1844.32 311.23 3
-6 2 -6 1834.14 335.563 2
6 -2 6 1743.07 348.847 1
-6 2 -7 253.214 132.515 2
-6 2 -7 239.797 127.014 3
6 -2 7 212.218 113.204 1
-6 2 -8 298.804 146.157 2
6 -2 8 349.171 186.29 1
-6 2 -9 400.758 150.162 2
-6 1 14 86.8708 100.264 4
6 -1 -13 3908.35 623.294 2
-6 1 13 4156 603.588 4
6 -1 -12 -70.2392 88.1429 2
6 -1 -12 50.4818 63.6622 3
-6 1 12 33.0826 38.4146 4
6 -1 -11 175.177 113.033 2
6 -1 -11 237.992 112.699 3
-6 1 11 175.696 98.9455 4
6 -1 -10 1703.76 287.583 3
-6 1 10 941.624 97.1447 1
6 -1 -10 1613.58 339.488 2
-6 1 10 1583.81 307.707 4
6 -1 -9 101.344 72.1209 3
-6 1 9 88.3188 41.5571 1
-6 1 9 143.347 113.248 2
-6 1 9 -12.5617 82.2178 4
-6 1 8 7323.77 336.203 1
6 -1 -8 7036.47 550.925 3
-6 1 8 7239.21 404.921 1
6 -1 -8 7218.15 656.96 2
-6 1 8 6960.53 630.525 2
-6 1 8 7137.22 579.126 4
-6 1 7 152.699 47.7716 1
-6 1 7 228.332 74.4258 1
6 -1 -7 220.016 100.659 3
6 -1 -7 169.762 100.666 2
-6 1 7 138.228 78.4499 2
-6 1 7 170.458 90.0863 4
-6 1 6 12768 527.947 1
-6 1 6 12587.6 445.443 1
6 -1 -6 12663.4 746.531 3
6 -1 -6 12252.9 790.413 2
-6 1 6 12231.5 789.023 2
-6 1 6 12153.3 650.702 4
-6 1 5 6118.89 380.256 1
-6 1 5 5547.6 404.914 4
6 -1 -5 5804.71 501.707 3
6 -1 -5 6377.86 353.553 1
6 -1 -5 5662.57 520.74 2
-6 1 5 5921.52 526.726 2
-6 1 5 5907.88 331.16 1
6 -1 -5 5597.58 429.74 4
-6 1 5 6041.08 416.158 4
-6 1 4 12000.4 526.504 4
6 -1 -4 12754.3 745.526 3
-6 1 4 12350.8 738.898 2
-6 1 4 13106.3 547.043 4
6 -1 -4 12602.5 541.132 1
-6 1 4 13031.9 573.798 1
-6 1 3 25038.5 827.774 1
-6 1 3 24720.7 656.974 4
6 -1 -3 26148.6 1066.67 3
6 -1 -3 25624.3 839.113 1
-6 1 3 25480.4 1049.54 2
-6 1 3 25270.2 658.996 4
-6 1 2 299.78 131.025 2
-6 1 2 281.128 62.1159 4
-6 1 2 365.69 136.156 1
6 -1 -2 363.506 127.541 1
6 -1 -2 336.522 146.015 3
-6 1 2 300.304 64.7982 4
-6 1 1 186.527 93.4272 2
6 -1 -1 178.256 90.3857 1
6 -1 -1 186.776 106.584 3
6 -1 0 2142.58 290.972 1
6 -1 0 2130.29 315.551 3
-6 1 0 2033.31 303.585 2
-6 1 -1 872.104 203.229 2
6 -1 1 786.945 212.61 3
6 -1 1 821.592 205.242 1
6 -1 2 28.6831 22.6998 4
-6 1 -2 -75.9435 97.9712 2
-6 1 -2 -44.0436 38.9417 4
6 -1 2 26.9896 53.1194 1
6 -1 2 46.8846 55.5758 3
6 -1 3 62325.3 1051.97 4
6 -1 3 64586 1889.88 1
-6 1 -3 64440.1 1753.5 2
-6 1 -3 63270.1 1095.12 4
6 -1 4 119.778 58.4246 4
-6 1 -4 109.975 81.1296 2
-6 1 -4 73.9446 61.3545 3
6 -1 4 143.143 122.008 1
6 -1 5 543.152 129.355 4
-6 1 -5 450.205 155.298 2
-6 1 -5 434.241 150.938 3
6 -1 5 465.28 153.876 1
6 -1 6 5101.58 622.113 1
-6 1 -6 4871.96 525.396 2
-6 1 -6 5052.79 512.457 3
-6 1 -7 1062.53 212.419 2
6 -1 7 1398.59 350.475 1
6 -1 8 5892.08 743.327 1
-6 1 -8 5170.97 575.779 2
-6 1 -8 5526.88 539.288 3
-6 1 -9 1086.94 202.388 2
6 0 -14 -57.584 124.447 2
-6 0 14 -53.1735 118.675 4
6 0 -13 225.364 125.89 2
-6 0 13 324.596 175.416 4
6 0 -12 31.9365 12.7435 2
-6 0 12 29.7766 40.8048 4
-6 0 11 2574.45 253.089 1
6 0 -11 3025.1 374.058 3
6 0 -11 3243.3 487.331 2
-6 0 11 2744.33 424.804 4
-6 0 10 43.6795 29.2439 1
6 0 -10 1.18815 37.3859 2
6 0 -10 24.3189 38.7229 3
-6 0 10 -2.8056 35.6989 4
-6 0 9 6210.83 368.277 1
6 0 -9 6235.4 532.198 3
6 0 -9 6304.28 625.975 2
-6 0 9 5870.74 430.928 1
-6 0 9 6473.88 584.082 4
-6 0 8 525.953 129.297 1
-6 0 8 585.287 111.57 1
6 0 -8 608.262 159.58 3
6 0 -8 594.115 184.644 2
-6 0 8 527.248 168.565 2
-6 0 8 589.079 162.886 4
-6 0 7 7298.32 384.317 1
-6 0 7 7081.04 456.771 1
6 0 -7 6744.62 541.018 3
6 0 -7 7185.64 611.274 2
-6 0 7 7318.48 601.667 2
-6 0 7 7412.82 551.001 4
6 0 -6 21091.5 699.666 1
-6 0 6 20110.2 776.002 1
6 0 -6 18708.2 887.695 3
6 0 -6 19488.9 968.256 2
-6 0 6 20208.9 978.492 2
-6 0 6 20511.3 843.047 4
-6 0 6 19843.9 657.269 1
-6 0 5 2204.07 262.337 4
-6 0 5 2284.78 262.371 1
6 0 -5 2439.28 252.11 1
6 0 -5 2139.36 311.781 3
6 0 -5 2242.76 321.478 2
-6 0 5 2355.9 243.567 1
-6 0 5 2341.71 321.809 2
-6 0 5 2508.65 274.746 4
-6 0 4 35336.7 1054.95 1
-6 0 4 33083.1 909.006 4
6 0 -4 36166 1258.17 3
-6 0 4 33921.4 1173.91 2
-6 0 4 34400.3 903.481 4
6 0 -4 34396 981.589 1
-6 0 3 22156.8 857.642 1
-6 0 3 22314.4 682.025 4
6 0 -3 22355.4 651.806 4
6 0 -3 22398.8 994.266 3
6 0 -3 21840.1 821.918 1
-6 0 3 22218.8 663.296 4
-6 0 3 21713.4 934.978 2
-6 0 2 54796.7 954.7 4
6 0 -2 56282.3 942.374 4
6 0 -2 54600.8 1386.56 1
6 0 -2 53464.4 1520.14 3
-6 0 2 55553.6 950.177 4
-6 0 2 54602.6 1463.2 2
6 0 -1 2254.25 170.833 4
6 0 -1 2206.65 294.936 1
6 0 -1 2153.59 311.793 3
-6 0 1 2099.7 285.609 2
-6 0 1 2247.34 171.032 4
-6 0 0 -30.8572 32.9582 4
6 0 0 66.4653 61.0464 1
-6 0 0 120.396 83.6464 2
6 0 0 33.3576 22.3663 4
6 0 0 65.9383 79.4185 3
6 0 1 353.905 75.7483 4
-6 0 -1 346.575 125.87 2
-6 0 -1 341.411 75.4162 4
6 0 1 322.048 122.573 1
-6 0 -2 89644.4 1939.37 2
6 0 2 91100.8 1401.96 4
6 0 2 88869.4 2161.49 1
-6 0 -2 87375.2 1336.43 4
6 0 3 22269.1 760.293 4
-6 0 -3 21944.2 975.397 2
6 0 3 21717.9 1135.67 1
-6 0 -3 23313.1 1120.9 3
-6 0 -3 22259.7 773.035 4
6 0 4 1399.2 213.184 4
-6 0 -4 1217.26 234.736 2
-6 0 -4 1329.36 268.855 3
6 0 4 1448.74 309.689 1
6 0 5 134.449 64.6422 4
-6 0 -5 109.136 56.3649 2
-6 0 -5 159.84 102.88 3
6 0 5 133.369 87.3751 1
6 0 6 3465.13 531.024 1
-6 0 -6 3453.3 445.348 2
-6 0 -6 2459.66 309.378 3
6 0 7 4311.22 612.035 1
-6 0 -7 3119.28 419.398 2
-6 0 -7 5209.18 534.838 3
-6 0 -8 557.512 172.624 3
6 0 8 515.923 242.545 1
-6 0 -9 -791.162 324.329 2
6 1 -14 -370.16 332.752 2
-6 -1 14 6.18527 53.2853 4
6 1 -13 3138.41 494.545 2
-6 -1 13 3623.56 529.72 4
-6 -1 12 4563.53 392.112 1
6 1 -12 4323.38 552.476 2
-6 -1 12 4413.09 561.231 4
-6 -1 11 9565.35 543.199 1
6 1 -11 10191.5 843.29 2
6 1 -11 8457.1 599.718 3
-6 -1 11 9328.92 779.508 4
-6 -1 10 6645.04 432.325 1
6 1 -10 6662.97 652.57 2
6 1 -10 5866.03 509.322 3
-6 -1 10 7075.35 648.904 4
-6 -1 9 2991.25 282.875 1
6 1 -9 2622.94 328.372 3
6 1 -9 2917.56 407.794 2
-6 -1 9 2892.61 387.701 4
6 1 -8 14186.8 772.568 3
6 1 -8 14134 859.585 2
-6 -1 8 15085.6 831.391 4
-6 -1 8 11839.7 648.545 1
-6 -1 8 14192.9 844.782 2
-6 -1 8 14588.4 605.612 1
-6 -1 7 2928.47 343.502 4
6 1 -7 2881.56 357.303 3
6 1 -7 2891.72 370.311 2
-6 -1 7 2744.55 318.378 1
-6 -1 7 2852.03 363.616 2
-6 -1 7 2985.63 276.214 1
-6 -1 6 149.737 67.4941 1
-6 -1 6 165.711 87.0657 2
-6 -1 6 117.236 63.6826 1
6 1 -6 180.362 90.7105 3
6 1 -6 168.803 95.4368 2
-6 -1 6 -137.187 124.829 4
6 1 -6 182.886 75.9378 1
-6 -1 5 1376.63 210.552 4
6 1 -5 1527.84 214.428 4
-6 -1 5 1455.21 228.505 1
6 1 -5 1528.4 217.94 1
6 1 -5 1598.24 262.389 3
6 1 -5 1452.07 249.423 2
-6 -1 5 1429.76 209.699 1
-6 -1 5 1457.46 245.678 2
-6 -1 5 1498.55 218.776 4
-6 -1 4 165.659 137.108 1
-6 -1 4 158.694 102.326 4
6 1 -4 168.081 94.5202 4
6 1 -4 235.653 144.706 3
6 1 -4 126.903 87.9449 1
-6 -1 4 180.712 95.9259 4
-6 -1 4 162.015 108.033 2
-6 -1 3 31586 901.319 4
6 1 -3 32337.5 875.934 4
6 1 -3 32578.7 1198.32 3
6 1 -3 32187.6 1069.91 1
-6 -1 3 31251.2 860.749 4
-6 -1 3 32666.6 1096.62 2
-6 -1 2 2244.52 228.385 4
6 1 -2 2351.98 229.664 4
6 1 -2 2409.95 316.707 1
6 1 -2 2603.58 357.329 3
-6 -1 2 2502.22 302.059 2
-6 -1 1 60.0013 38.6081 4
6 1 -1 14.9495 27.4321 4
6 1 -1 98.1913 91.1731 1
6 1 -1 50.092 79.2584 3
-6 -1 0 857.426 139.697 4
-6 -1 0 1036.53 198.126 2
6 1 0 857.913 139.748 4
6 1 0 967.035 221.584 1
-6 -1 -1 872.165 137.405 4
6 1 1 1043.89 167.376 4
6 1 1 1007.5 218.436 1
-6 -1 -1 992.187 191.576 2
-6 -1 -1 954.728 221.722 3
6 1 2 53276.9 1258.71 4
-6 -1 -2 53954.1 1455.86 2
6 1 2 51130.5 1684.94 1
-6 -1 -2 54582.7 1708.51 3
-6 -1 -2 51670.8 1240.1 4
6 1 3 5013.49 425.255 4
-6 -1 -3 5150.25 472.682 2
6 1 3 5269.17 594.063 1
-6 -1 -3 5156.62 532.407 3
6 1 4 775.088 176.704 4
-6 -1 -4 775.485 187.36 2
-6 -1 -4 752.198 212.722 3
6 1 4 762.062 235.023 1
6 1 5 279.806 120.378 4
-6 -1 -5 209.926 102.089 2
6 1 5 220.215 108.37 1
6 1 6 436.339 148.547 4
-6 -1 -6 -70.7471 136.217 2
6 1 6 368.288 171.65 1
-6 -1 -7 232.785 116.734 3
6 1 7 280.47 152.149 1
-6 -1 -8 6274.56 628.399 2
-6 -1 -8 7611.78 660.3 3
-6 -1 -9 -347.25 337.558 2
6 2 -14 81.7152 90.4444 2
-6 -2 14 -2.62756 124.3 4
-6 -2 13 1733.78 258.003 1
6 2 -13 1822.62 400.368 2
-6 -2 13 1665.46 359.786 4
-6 -2 12 338.386 110.793 1
6 2 -12 283.13 158.679 2
-6 -2 12 324.962 148.954 4
-6 -2 11 6822.52 484.711 1
6 2 -11 6577.91 653.808 2
6 2 -11 5713.27 480.631 3
-6 -2 11 6786.85 660.314 4
-6 -2 10 2867.13 307.152 1
6 2 -10 2517.11 392.885 2
6 2 -10 2514.9 319.628 3
-6 -2 10 2900.38 415.47 4
-6 -2 9 480.254 122.568 1
6 2 -9 374.499 123.341 2
6 2 -9 450.389 134.018 3
-6 -2 9 402.888 137.683 4
6 2 -8 1018.76 201.643 2
6 2 -8 1206.54 222.852 3
-6 -2 8 1295.42 250.506 2
-6 -2 8 1287.41 235.095 4
-6 -2 8 1215.25 186.826 1
6 2 -7 2128.4 307.576 4
6 2 -7 1996.18 285.519 3
6 2 -7 2123.75 317.961 2
-6 -2 7 2090.62 310.442 2
-6 -2 7 2182.48 307.386 4
-6 -2 7 2014.69 254.32 1
6 2 -6 2264.31 297.654 4
6 2 -6 2050.22 292.677 3
6 2 -6 2200.46 308.202 2
6 2 -6 2350.7 283.675 1
-6 -2 6 2232.64 306.697 2
-6 -2 6 2229.75 289.693 4
-6 -2 6 2142.19 268.614 1
6 2 -5 223.139 97.3391 4
6 2 -5 176.331 75.9759 1
6 2 -5 225.042 106.386 3
6 2 -5 185.194 86.5786 2
-6 -2 5 198.396 81.2048 4
-6 -2 5 206.366 91.7387 2
-6 -2 5 169.263 73.9268 1
-6 -2 4 4079.63 374.465 4
6 2 -4 4450.92 371.198 4
6 2 -4 4575.6 447.747 3
-6 -2 4 4351.95 389.761 2
6 2 -4 4372.69 406.212 1
-6 -2 3 4856.26 395.185 4
6 2 -3 4780.81 373.969 4
-6 -2 3 4492.05 378.869 2
6 2 -3 4935 488.384 3
6 2 -3 4547.85 438.753 1
6 2 -3 4010.56 374.964 2
-6 -2 3 4980.16 414.544 2
-6 -2 2 807.566 166.226 2
-6 -2 2 711.457 149.431 4
6 2 -2 759.568 191.845 1
6 2 -2 703.73 137.196 4
-6 -2 2 758.292 158.57 2
6 2 -2 685.593 163.96 2
-6 -2 1 -13.8167 21.7623 4
-6 -2 1 27.1918 42.4826 2
6 2 -1 14.416 36.0468 4
6 2 -1 50.1387 60.0459 1
-6 -2 1 15.4633 38.2207 2
-6 -2 0 15210.9 699.696 2
6 2 0 15374.8 691.237 4
-6 -2 0 15720.9 892.055 3
6 2 0 15474.5 885.503 1
-6 -2 0 14192.1 659.152 4
-6 -2 -1 15370.8 728.238 2
6 2 1 15016.3 712.671 4
6 2 1 14508.5 887.574 1
-6 -2 -1 14669.3 866.4 3
6 2 2 -24.274 92.3867 1
-6 -2 -2 51.5598 39.673 2
-6 -2 -2 38.5862 13.6238 3
6 2 2 19.9815 36.5099 4
6 2 3 2870.81 364.794 4
-6 -2 -3 3053.24 359.865 2
6 2 3 3022.43 462.211 1
-6 -2 -3 2884.06 401.383 3
6 2 4 5067.49 489.255 4
-6 -2 -4 4909.58 456.345 2
6 2 4 4868.12 586.601 1
-6 -2 -4 4110.86 449.488 3
6 2 5 2885 393.054 4
6 2 5 2820.75 466.528 1
-6 -2 -5 2568.17 319.575 2
-6 -2 -5 3667.95 465.326 3
6 2 6 2230.79 440.693 1
6 2 6 2236.01 371.594 4
-6 -2 -6 2166.38 343.171 3
6 2 7 3279.49 558.912 1
-6 -2 -7 3668.74 456.004 3
-6 -2 -7 2649.26 349.369 2
-6 -2 -8 1791.54 325.979 3
-6 -2 -8 1207.77 171.494 2
6 3 -15 1044.42 327.655 2
6 3 -14 1375.27 359.582 2
-6 -3 14 1185.95 225.722 1
-6 -3 14 1205.73 318.779 4
-6 -3 13 5481.3 486.885 1
6 3 -13 5884.26 681.824 2
-6 -3 13 5301.31 654.897 4
-6 -3 12 12434.1 718.33 1
6 3 -12 12981.5 964.042 2
-6 -3 12 12028.2 926.264 4
-6 -3 11 2207.19 290.986 1
6 3 -11 2197.18 384.402 2
-6 -3 11 2080.68 380.383 4
-6 -3 10 10288.7 610.067 1
6 3 -10 9907.12 769.676 2
6 3 -10 9762.7 601.959 3
-6 -3 10 9783.23 753.426 4
6 3 -9 2026.98 328.191 2
6 3 -9 2112.86 288.329 3
-6 -3 9 1870.98 287.263 4
-6 -3 9 2131.87 273.449 1
-6 -3 8 170.252 108.719 1
6 3 -8 47.8802 30.6474 4
6 3 -8 -140.684 139.589 2
6 3 -8 62.2692 47.7164 3
-6 -3 8 94.1777 72.0344 2
-6 -3 8 64.4429 56.0905 4
6 3 -7 4591.44 468.033 4
6 3 -7 4310.27 427.293 3
6 3 -7 4291.33 428.938 2
-6 -3 7 4284.58 419.211 2
-6 -3 7 4364.72 442.319 4
-6 -3 7 4281.47 396.691 1
6 3 -6 23510.8 989.435 4
6 3 -6 23884.6 1011.4 3
6 3 -6 22530.7 924.37 2
6 3 -6 24227.6 976.242 1
-6 -3 6 23279.1 938.918 2
-6 -3 6 21753.8 925.026 4
-6 -3 6 22901 916.379 1
6 3 -5 1057.74 207.051 4
6 3 -5 1114.27 219.106 1
-6 -3 5 1147.37 198.448 2
-6 -3 5 1085.13 212.979 1
6 3 -4 6995.9 548.647 1
6 3 -4 6601.4 490.356 4
-6 -3 4 6993.61 449.456 2
-6 -3 4 6931.24 473.766 2
6 3 -3 14425.8 709.593 4
-6 -3 3 13769.5 803.334 3
-6 -3 3 14359.5 630.253 2
6 3 -3 14620.8 801.434 1
-6 -3 3 14509.8 650.395 2
6 3 -2 3044.78 331.704 4
-6 -3 2 3322.04 428.668 3
-6 -3 2 3065.43 301.22 2
6 3 -2 3135.83 394.422 1
6 3 -2 2760.28 298.613 2
-6 -3 2 3289.64 317.351 2
6 3 -1 8249.42 550.715 4
-6 -3 1 7836.57 624.749 3
6 3 -1 8121.68 644.159 1
-6 -3 1 7433.82 472.49 2
6 3 -1 7220.04 488.987 2
-6 -3 1 8051.7 475.018 2
-6 -3 0 1860 238.442 2
6 3 0 2103.82 292.708 4
-6 -3 0 1852.69 315.575 3
6 3 0 2029.35 343.21 1
6 3 0 1763.75 263.615 2
6 3 1 12034.1 710.025 4
-6 -3 -1 11654.4 587.764 2
-6 -3 -1 10981.2 746.825 3
6 3 1 12035.1 848.613 1
6 3 2 21.5457 44.3954 4
-6 -3 -2 42.6298 33.3556 2
6 3 2 35.6566 13.1852 1
-6 -3 -2 31.9866 73.4748 3
6 3 3 6233.06 560.562 4
-6 -3 -3 5383.92 433.051 2
6 3 3 6078.64 641.89 1
-6 -3 -3 5373.37 532.186 3
6 3 4 7024.57 628.556 4
-6 -3 -4 6283.79 495.377 2
6 3 4 6766.36 715.66 1
-6 -3 -4 5998.79 575.224 3
6 3 5 3002.92 429.392 4
-6 -3 -5 2773.55 350.596 2
6 3 5 2820.37 481.757 1
-6 -3 -5 2742.38 396.298 3
6 3 6 1623.62 339.647 4
6 3 6 1428.9 345.78 1
-6 -3 -6 1652.05 315.744 3
-6 -3 -6 1637.29 288.536 2
-6 -3 -7 750.25 214.732 3
-6 -3 -8 607.801 196.051 3
-6 -4 15 2259.64 347.751 1
6 4 -15 2384.48 485.107 2
-6 -4 14 17292.5 935.994 1
6 4 -14 17979.2 1240.48 2
-6 -4 14 16386.9 1193.21 4
-6 -4 13 9180.63 670.161 1
6 4 -13 9682.77 862.118 2
-6 -4 13 8602.57 830.802 4
-6 -4 12 1412.65 254.497 1
6 4 -12 1495.57 324.23 2
-6 -4 12 1260.41 299.143 4
-6 -4 11 341.88 125.31 1
6 4 -11 286.417 135.398 2
-6 -4 11 379.77 158.257 4
6 4 -10 308.608 123.785 4
-6 -4 10 689.606 166.279 1
6 4 -10 611.445 150.528 2
-6 -4 10 723.054 215.575 4
6 4 -9 14676.6 925.405 4
6 4 -9 13663.6 823.433 2
-6 -4 9 13417.8 855.941 4
-6 -4 9 13751.8 744.235 1
6 4 -8 4616.9 502.485 4
6 4 -8 4132.09 417.471 2
-6 -4 8 4226.41 424.151 2
-6 -4 8 4289.93 422.863 1
-6 -4 8 4288.54 465.796 4
6 4 -7 9074.68 667.957 4
6 4 -7 8872.6 616.384 1
-6 -4 7 8422.16 586.663 3
6 4 -7 8581.28 586.842 2
-6 -4 7 8518.82 569.989 2
-6 -4 7 8032.09 606.691 4
-6 -4 7 8368.83 593.017 1
6 4 -6 28771.5 1150.66 4
-6 -4 6 28927.3 1105.34 3
6 4 -6 26990.5 964.069 2
6 4 -6 29812.7 1149.5 1
-6 -4 6 28205.3 977.468 2
-6 -4 6 27900.4 1080.96 1
6 4 -5 4538.17 445.881 4
-6 -4 5 4364.33 451.388 3
6 4 -5 4321.77 450.015 1
-6 -4 5 3731.96 296.825 2
-6 -4 5 4238.79 442.399 1
-6 -4 5 4345.48 366.839 2
6 4 -4 13488.6 757.75 4
6 4 -4 13947.2 813.46 1
-6 -4 4 13786.4 800.619 3
-6 -4 4 12219.6 535.138 2
-6 -4 4 13184 606.683 2
-6 -4 3 112.329 58.7981 2
6 4 -3 93.5218 72.7499 4
-6 -4 3 155.087 110.173 3
-6 -4 3 62.3684 31.738 2
6 4 -3 62.4516 66.8243 1
-6 -4 2 578.531 122.26 2
6 4 -2 430.915 133.165 4
6 4 -2 538.545 177.002 1
-6 -4 2 580.777 178.68 3
-6 -4 2 275.948 73.7427 2
-6 -4 1 29209.1 815.115 2
6 4 -1 28705.2 1127.58 4
-6 -4 1 27094 1136.14 3
-6 -4 1 27213 843.79 2
6 4 -1 27367.4 1224.03 1
6 4 -1 25657.4 853.515 2
6 4 0 149.587 109.915 1
6 4 0 107.308 90.4875 4
-6 -4 0 127.225 69.7317 2
-6 -4 0 149.971 121.954 3
6 4 1 7838.03 631.054 4
-6 -4 -1 7720.35 452.563 2
-6 -4 -1 6760.26 595.115 3
6 4 1 7488.63 708.231 1
6 4 2 330.065 132.236 4
-6 -4 -2 269.3 46.5529 2
6 4 2 349.125 149.654 1
6 4 3 693.327 204.755 4
-6 -4 -3 474.184 159.133 3
6 4 3 723.337 235.605 1
6 4 4 -45.0594 74.9489 4
6 4 4 -32.7968 76.4284 1
-6 -4 -4 -30.0688 59.0832 3
6 4 5 339.223 163.499 4
6 4 5 289.217 157.328 1
-6 -4 -5 253.65 130.622 3
6 4 6 290.141 153.357 4
6 4 6 275.816 172.441 1
-6 -4 -6 376.366 163.024 3
-6 -4 -7 749.147 227.851 3
6 5 -15 -39.1741 100.888 2
-6 -5 15 8.90888 31.5626 1
-6 -5 14 2754.17 391.016 1
6 5 -14 2775.89 475.577 2
-6 -5 14 2630.41 473.49 4
-6 -5 13 327.484 134.798 1
6 5 -13 291.402 150.138 2
-6 -5 13 229.554 128.592 4
-6 -5 12 263.526 120.367 1
6 5 -12 315.874 144.745 2
-6 -5 12 337.51 170.287 4
-6 -5 11 896.391 246.288 4
6 5 -11 555.063 135.315 4
-6 -5 11 901.614 204.632 1
6 5 -11 905.122 232.446 2
6 5 -10 2853.2 443.116 4
-6 -5 10 2123.4 257.078 3
6 5 -10 2761.71 377.224 2
-6 -5 10 2635.96 412.161 4
-6 -5 10 2556.55 340.216 1
6 5 -9 2394.5 388.903 4
-6 -5 9 2025.69 262.335 3
6 5 -9 2243.5 320.086 2
-6 -5 9 2120.31 347.061 4
-6 -5 9 2085.97 302.639 1
6 5 -8 3176.04 432.473 4
-6 -5 8 2922.37 335.875 3
6 5 -8 3071.19 353.253 2
-6 -5 8 2970.65 342.149 2
-6 -5 8 2789.51 384.165 4
-6 -5 8 2709.69 351.521 1
-6 -5 7 1122.35 230.172 1
6 5 -7 1138.52 243.586 4
-6 -5 7 1078.87 210.248 3
6 5 -7 1196.41 208.677 2
6 5 -7 849.403 197.567 1
-6 -5 7 1198.69 204.686 2
6 5 -6 4460.88 483.839 4
-6 -5 6 3690.24 301.935 2
-6 -5 6 4281.4 427.154 3
6 5 -6 4171.63 369.554 2
6 5 -6 4353.9 471.625 1
-6 -5 6 4417.07 376.394 2
-6 -5 6 4186.96 465.161 1
-6 -5 5 303.743 108.979 2
-6 -5 5 340.654 155.374 1
6 5 -5 328.515 155.153 4
-6 -5 5 221.292 75.059 2
-6 -5 5 390.344 157.367 3
6 5 -5 356.97 167.061 1
-6 -5 4 99.9839 49.0502 2
6 5 -4 107.974 85.5263 1
6 5 -4 29.0976 45.2084 4
-6 -5 4 119.804 93.1248 3
-6 -5 4 -137.071 117.302 2
-6 -5 4 30.4574 33.5314 1
-6 -5 3 127.306 60.3353 2
6 5 -3 96.5553 70.6759 4
-6 -5 3 153.728 103.357 3
6 5 -3 94.6914 76.6637 1
-6 -5 2 64860.7 1016.54 2
6 5 -2 66087.3 1827.44 4
-6 -5 2 64527.9 1789.87 3
-6 -5 2 60360.3 1014.58 2
6 5 -2 62889.9 1898.38 1
6 5 -1 1689.24 313.796 4
-6 -5 1 1637.41 167.62 2
6 5 -1 1704.71 334.346 1
-6 -5 1 1177.07 225.897 3
6 5 0 301.645 130.362 4
6 5 0 295.79 135.512 1
-6 -5 0 297.095 40.64 2
6 5 1 1898.65 370.197 1
6 5 1 1963.97 342.399 4
-6 -5 -1 1484.5 165.448 2
-6 -5 -1 1573.27 293.705 3
6 5 2 2449.89 401.719 4
-6 -5 -2 2334.41 366.532 3
6 5 2 2256.41 401.599 1
6 5 3 418.437 170.081 4
-6 -5 -3 325.003 131.608 3
6 5 3 291.976 142.989 1
6 5 4 4.53025 36.1646 4
-6 -5 -4 -28.9605 53.1091 3
6 5 4 -14.4582 37.8586 1
6 5 5 196.491 119.029 4
-6 -5 -5 308.169 154.67 3
6 5 5 345.547 198.889 1
6 5 6 213.033 144.533 4
-6 -5 -6 180.851 125.573 3
-6 -6 15 94.6019 79.7672 1
6 6 -15 82.7088 77.3569 2
-6 -6 14 18.7826 51.4154 1
6 6 -14 7.09011 59.4214 2
-6 -6 14 -2.47185 73.2607 4
-6 -6 13 188.967 136.369 1
6 6 -13 101.804 118.221 2
-6 -6 13 205.915 186.63 4
6 6 -12 317.993 98.5758 4
-6 -6 12 952.274 242.56 1
6 6 -12 971.91 266.092 2
-6 -6 12 862.37 266.579 4
-6 -6 11 2472.43 359.712 1
6 6 -11 2762.74 476.056 4
6 6 -11 2495.88 375.036 2
-6 -6 11 2538.92 430.214 4
6 6 -10 103.904 80.5949 4
-6 -6 10 65.0711 15.2246 1
-6 -6 10 211.834 116.851 3
6 6 -10 54.185 27.9171 2
-6 -6 10 125.343 88.099 4
-6 -6 9 1083.8 228.055 1
6 6 -9 1139.9 276.083 4
-6 -6 9 290.77 116.073 3
6 6 -9 1079.43 211.031 2
-6 -6 9 988.687 245.487 4
-6 -6 8 183.598 13.2233 1
6 6 -8 223.409 124.509 4
6 6 -8 237.281 90.2453 2
-6 -6 8 153.369 87.6395 4
-6 -6 8 211.313 82.0423 2
-6 -6 7 372.519 159.214 1
6 6 -7 469.394 186.507 4
6 6 -7 188.449 52.6589 1
-6 -6 7 -45.2153 143.656 3
6 6 -7 338.853 114.304 2
-6 -6 7 434.104 131.722 2
6 6 -6 4742.98 573.83 4
-6 -6 6 3990.22 433.071 3
6 6 -6 4715.26 553.885 1
-6 -6 6 4643.84 376.992 2
-6 -6 6 4619.37 558.053 1
-6 -6 5 407.628 207.965 1
-6 -6 5 321.865 102.91 2
6 6 -5 434.142 206.284 4
-6 -6 5 24.9207 82.5113 3
6 6 -5 223.629 107.974 1
6 6 -4 5208.08 543.466 4
6 6 -4 4743.58 529.257 1
-6 -6 4 4032.25 426.491 3
-6 -6 4 4978.94 533.851 1
-6 -6 4 3345.72 207.559 2
6 6 -3 25765.2 1241.24 1
6 6 -3 26224.7 1210.77 4
-6 -6 3 25243.5 1100.37 3
6 6 -2 3323.94 441.482 4
-6 -6 2 3883.52 458.055 3
6 6 -2 3423.27 463.447 1
6 6 -1 2920.08 420.641 4
-6 -6 1 2605.48 371.042 3
6 6 -1 2788.65 432.927 1
6 6 0 5321.35 591.22 4
-6 -6 0 4381.81 495.389 3
6 6 0 5185.16 599.288 1
6 6 1 3118.26 464.174 4
-6 -6 -1 2484.94 383.263 3
6 6 1 2769.6 458.308 1
6 6 2 950.056 259.694 4
6 6 2 859.518 270.131 1
-6 -6 -2 897.592 232.905 3
6 6 3 17.4043 40.5755 4
6 6 3 11.0203 35.099 1
-6 -6 -3 -55.1729 70.9283 3
6 6 4 -4.24475 69.2521 1
6 6 4 -41.5809 74.2772 4
-6 -6 -4 9.19456 62.1497 3
6 6 5 53.2459 108.95 4
6 6 6 2802.66 540.334 4
6 7 -15 293.119 177.594 2
-6 -7 14 2064.69 370.853 1
6 7 -14 2208.19 421.72 2
-6 -7 14 1737.04 399.889 4
6 7 -13 789.537 134.718 4
-6 -7 13 844.289 230.83 1
6 7 -13 901.959 251.381 2
-6 -7 13 331.231 128.209 4
6 7 -12 150.943 131.601 4
-6 -7 12 148.601 111.399 1
6 7 -12 -8.1187 90.9985 2
-6 -7 12 125.35 123.724 4
6 7 -11 17.3148 44.8013 4
-6 -7 11 37.1667 47.7487 1
-6 -7 11 -3.0475 16.2556 4
6 7 -10 152.483 119.74 4
-6 -7 10 98.3548 122.492 1
6 7 -10 134.391 64.4461 2
-6 -7 10 129.141 88.6365 4
6 7 -9 6781.65 709.985 4
-6 -7 9 5488.53 431.04 3
6 7 -9 6159.72 497.103 2
-6 -7 9 6406.91 493.513 2
-6 -7 9 5980.92 620.629 4
-6 -7 9 6383.25 598.871 1
-6 -7 8 580.916 144.361 1
6 7 -8 825.571 227.155 4
-6 -7 8 587.468 143.876 3
6 7 -8 773.494 162.742 2
-6 -7 8 850.491 163.308 2
-6 -7 7 1339.05 282.958 1
6 7 -7 1419.41 304.249 4
-6 -7 7 1114.27 207.353 3
-6 -7 7 1421.43 187.237 2
6 7 -7 1422.08 298.046 1
-6 -7 6 532.224 182.355 1
6 7 -6 625.632 197.701 4
-6 -7 6 413.275 118.603 3
6 7 -6 580.876 189.456 1
6 7 -5 2926.33 430.726 4
-6 -7 5 2725.89 352.022 3
6 7 -5 2896.97 423.105 1
-6 -7 5 2790.69 414 1
-6 -7 4 1219.75 277.448 1
6 7 -4 1183.06 271.752 4
-6 -7 4 1080.74 227.48 3
6 7 -4 1208.01 278.364 1
6 7 -3 3837.92 508.071 4
6 7 -3 3810.94 501.011 1
-6 -7 3 3660.17 434.856 3
-6 -7 3 3505.42 486.421 1
6 7 -2 5252.5 601.042 1
6 7 -2 5098.18 586.802 4
-6 -7 2 4729.92 501.093 3
6 7 -1 209.423 109.161 4
-6 -7 1 213.887 112.552 3
6 7 -1 249.15 135.022 1
6 7 0 2769.77 452.423 4
-6 -7 0 2064.59 354.454 3
6 7 0 2490.55 453.028 1
6 7 1 163.5 102.321 4
6 7 1 206.641 151.001 1
-6 -7 -1 72.7526 59.8559 3
6 7 2 523.115 190.753 4
6 7 2 589.344 227.66 1
-6 -7 -2 565.017 196.927 3
6 7 3 -51.7571 87.6563 4
6 7 3 19.9837 53.0041 1
-6 -7 -3 50.8265 62.5897 3
6 7 4 31.2294 68.8863 4
6 8 -13 12.0041 69.2048 4
-6 -8 13 30.9123 59.3717 1
-6 -8 13 109.71 97.8536 4
6 8 -12 41.2986 83.142 4
-6 -8 12 126.707 91.8002 1
-6 -8 12 74.7944 64.1939 4
6 8 -11 157.358 128.626 4
-6 -8 11 36.4808 18.8086 1
-6 -8 11 117.718 82.7962 4
6 8 -10 180.937 129.197 4
-6 -8 10 121.585 62.5359 4
-6 -8 9 -31.4697 72.02 1
6 8 -9 39.4088 73.489 4
-6 -8 9 50.466 49.4381 3
6 8 -8 3354.77 505.053 4
-6 -8 8 2681.26 388.391 1
-6 -8 8 2564.41 311.539 3
-6 -8 7 654.947 212.988 1
6 8 -7 585.678 209.01 4
-6 -8 7 462.234 137.481 3
6 8 -6 9344.01 828.34 4
-6 -8 6 8653.94 621.221 3
-6 -8 6 9329.82 779.35 1
6 8 -6 8608.33 741.229 1
-6 -8 5 902.586 242.681 1
6 8 -5 963.439 262.224 4
6 8 -5 989.194 261.684 1
-6 -8 5 799.138 198.308 3
-6 -8 4 6.62098 70.5358 1
6 8 -4 23.4508 44.1686 4
-6 -8 4 35.9702 55.4377 3
6 8 -3 7985.89 769.62 4
-6 -8 3 7226.93 633.006 3
6 8 -3 7935.55 752.577 1
-6 -8 3 7674.21 750.095 1
6 8 -2 1941.02 387.947 4
6 8 -2 2067.34 396.368 1
-6 -8 2 1973.18 336.258 3
-6 -8 2 1936.24 382.107 1
6 8 -1 5467.06 658.074 4
6 8 -1 5444.29 652.649 1
-6 -8 1 5015.81 549.693 3
6 8 0 26.5687 7.86432 4
-6 -8 0 106.275 108.12 3
6 8 0 106.91 118.518 1
6 8 1 648.871 236.933 4
-6 -8 -1 617.02 210.922 3
6 8 1 618.381 235.51 1
6 8 2 1189.84 335.677 4
-6 -8 -2 757.665 230.704 3
6 8 2 1085.85 320.379 1
6 8 3 299.859 166.599 4
6 9 -12 15.4623 27.278 4
-6 -9 12 63.9811 71.527 1
-6 -9 12 -36.1425 78.7968 4
6 9 -11 1010.86 294.911 4
-6 -9 11 989.074 254.059 1
-6 -9 11 828.626 246.229 4
6 9 -10 3262.87 551.336 4
-6 -9 10 2717.27 463.159 4
-6 -9 10 3428.43 509.314 1
6 9 -9 13429.7 1074.17 4
-6 -9 9 12951.9 936.023 1
6 9 -8 1401.24 351.292 4
-6 -9 8 1268.9 232.302 3
-6 -9 8 1831.25 381.437 1
6 9 -7 2649.47 474.652 4
-6 -9 7 2233.06 372.546 1
-6 -9 7 2761.68 351.334 3
6 9 -6 8264.07 762.712 1
6 9 -6 8687.72 843.335 4
-6 -9 6 7899.67 627.454 3
-6 -9 6 8171.19 767.421 1
-6 -9 5 932.128 262.491 1
6 9 -5 875.464 268.085 4
-6 -9 5 863.843 213.655 3
6 9 -5 868.265 250.197 1
6 9 -4 2935.72 493.398 4
-6 -9 4 2792.25 396.272 3
6 9 -4 2879.45 480.667 1
-6 -9 4 2898.92 464.474 1
-6 -9 3 166.2 81.6324 1
6 9 -3 204.296 138.435 4
-6 -9 3 173.974 102.517 3
-6 -9 2 2202.87 428.109 1
6 9 -2 2139.83 432.694 4
-6 -9 2 2086.88 368.487 3
6 9 -2 2183.88 431.013 1
6 9 -1 24.4204 77.0399 4
6 9 -1 8.98318 25.3648 1
-6 -9 1 49.7227 78.1202 3
-6 -9 1 -96.7276 133.588 1
6 9 0 -128.125 140.774 1
6 9 0 -30.0654 39.9079 4
-6 -9 0 41.8338 71.37 3
-6 -9 0 -241.584 185.578 1
6 9 1 344.389 164.192 4
6 10 -11 1126.12 353.173 4
-6 -10 11 780.944 268.637 4
6 10 -10 6721.32 818.419 4
-6 -10 10 4294.37 571.729 1
6 10 -9 6324.43 780.847 4
-6 -10 9 6165.51 682.538 1
6 10 -8 5476.24 721.636 4
-6 -10 8 4805.23 474.331 3
-6 -10 7 2033.32 413.066 1
6 10 -7 1985.03 434.094 4
-6 -10 7 1725.33 302.118 3
-6 -10 6 821.479 259.932 1
6 10 -6 711.581 239.225 4
6 10 -6 830.848 267.674 1
-6 -10 6 712.276 209.759 3
6 10 -5 2969.01 517.967 4
-6 -10 5 2529.05 387.772 3
6 10 -5 2144.23 372.458 1
-6 -10 5 2831.25 478.435 1
-6 -10 4 1620.35 375.212 1
6 10 -4 1586.85 377.455 4
-6 -10 4 1526.13 324.477 3
6 10 -4 1571.16 371.617 1
6 10 -3 3767.93 594.672 4
-6 -10 3 3044.33 456.357 3
6 10 -3 3598.99 560.161 1
-6 -10 3 3594.77 553.944 1
6 10 -2 6593.15 804.59 4
-6 -10 2 5790.61 638.402 3
6 10 -2 4070.65 566.651 1
-6 -10 2 6354.97 748.357 1
6 10 -1 1844.66 445.374 4
6 11 -7 54.3578 101.273 4
-6 -11 7 15.1554 32.4658 3
6 11 -6 189.363 116.517 4
-6 -11 6 156.732 92.6842 3
6 11 -5 28.8304 69.3404 4
-6 -11 5 31.1557 57.2026 3
-6 -11 4 118.608 108.16 3
-6 -12 6 144.425 94.9766 3
-7 12 -1 72.678 124.707 2
-7 11 3 69.8335 58.8433 2
-7 11 2 234.877 145.261 2
-7 11 1 2420.62 467.719 2
7 -11 -1 2865.57 551.712 3
-7 11 0 2166.42 420.688 2
7 -11 0 3091.73 561.433 3
-7 11 -1 1104.46 308.071 2
7 -11 1 1171.11 345.528 3
-7 11 -2 4566.57 623.657 2
7 -11 2 4269.02 607.45 3
-7 11 -3 522.748 215.796 2
7 -11 3 683.04 252.114 3
-7 11 -4 424.145 183.746 2
7 -11 4 571.908 208.513 3
-7 10 6 3525.98 589.01 2
-7 10 5 83.9154 93.9624 2
-7 10 4 38.0094 76.2994 2
7 -10 -4 199.959 173.115 3
-7 10 3 401.982 181.313 2
7 -10 -3 726.76 300.664 3
-7 10 2 1609.99 379.057 2
7 -10 -2 2235.39 498.678 3
7 -10 -1 7087.9 815.945 3
-7 10 1 6190.21 714.099 2
-7 10 0 149.279 117.71 2
7 -10 0 329.395 179.794 3
-7 10 -1 406.073 174.285 2
7 -10 1 424.109 186.036 3
-7 10 -2 113.925 122.928 2
7 -10 2 57.0689 68.2065 3
-7 10 -3 936.479 258.26 2
7 -10 3 1223.34 322.979 3
-7 10 -4 2093.84 410.964 2
7 -10 4 2461.13 450.202 3
-7 10 -5 5457.51 712.002 2
7 -10 6 1150.32 318.131 1
-7 9 8 85.9309 29.1951 4
-7 9 7 165.756 113.011 2
-7 9 7 124.088 81.1418 4
-7 9 6 1542.12 391.121 2
-7 9 6 1679.74 361.262 4
7 -9 -6 981.659 117.642 3
-7 9 5 1658.48 381.391 2
-7 9 5 1715.65 337.843 4
7 -9 -5 1076.28 295.102 3
-7 9 4 51.8805 66.8251 2
7 -9 -4 284.354 228.185 3
-7 9 3 1893.11 392.732 2
7 -9 -3 2455.39 495.664 3
-7 9 2 1613.97 356.17 2
7 -9 -2 1940.61 424.388 3
-7 9 1 214.012 121.393 2
7 -9 -1 449.631 229.209 3
-7 9 0 272.507 141.938 2
7 -9 0 430.63 194.207 3
-7 9 -1 298.421 132.981 2
7 -9 1 303.201 136.684 3
7 -9 2 6476.1 709.058 3
-7 9 -2 6400.55 714.044 2
-7 9 -3 124.666 95.9553 2
7 -9 3 124.361 60.848 3
-7 9 -4 682.801 235.325 2
7 -9 4 839.593 242.681 1
7 -9 4 813.156 254.538 3
7 -9 5 359.576 177.172 1
-7 9 -5 180.638 96.2784 2
7 -9 5 147.334 82.7211 3
7 -9 6 -23.2683 28.8118 1
-7 9 -6 -97.8584 133.109 2
-7 8 9 1456.2 351.484 4
-7 8 9 1067.02 336.489 2
-7 8 8 1764.6 379.67 4
7 -8 -8 717.499 139.062 3
-7 8 8 1639.28 400.727 2
-7 8 7 136.725 133.415 4
7 -8 -7 -280.747 357.25 3
-7 8 7 -32.7663 77.9964 2
-7 8 6 -123.668 120.279 2
-7 8 6 1.63627 6.36309 4
-7 8 5 945.234 279.976 2
-7 8 5 906.971 230.801 4
7 -8 -5 1405.37 373.193 3
-7 8 4 571.797 210.571 2
-7 8 4 586.924 172.533 4
7 -8 -4 690.894 250.618 3
-7 8 3 144.72 128.617 2
-7 8 3 76.782 46.4135 4
7 -8 -3 143.563 127.532 3
-7 8 2 560.011 206.817 2
7 -8 -2 760.263 250.786 3
-7 8 1 34.3204 46.4577 2
7 -8 -1 231.794 179.418 3
7 -8 0 2606.86 428.091 3
-7 8 0 2527.24 441.169 2
-7 8 -1 86.4748 89.3207 2
7 -8 1 6.40417 49.8895 3
-7 8 -2 95.3798 101.947 2
7 -8 2 -33.3289 44.544 1
7 -8 2 57.5605 80.1125 3
-7 8 -3 359.09 187.362 2
7 -8 3 293.258 127.253 1
7 -8 3 290.939 150.12 3
-7 8 -4 -15.555 64.8977 2
7 -8 4 59.104 90.4706 1
7 -8 4 -52.6395 89.1701 3
-7 8 -5 3676.51 551.668 2
7 -8 5 3823.95 540.976 3
7 -8 5 3857.1 536.164 1
-7 8 -6 102.829 66.489 2
7 -8 6 261.173 160.848 1
7 -8 7 589.661 224.842 1
-7 7 10 1177.25 315.93 4
-7 7 9 -38.0123 90.5653 4
-7 7 9 -3.50639 20.7374 2
-7 7 8 2357.97 418.492 4
7 -7 -8 1785.41 377.686 3
-7 7 8 2159.47 452.898 2
-7 7 7 616.101 188.163 4
7 -7 -7 1124.26 317.395 3
-7 7 7 617.521 223.056 2
-7 7 6 1110.52 246.658 4
7 -7 -6 1577.58 377.717 3
-7 7 6 1121.88 303.957 2
-7 7 5 84.0889 70.8134 2
-7 7 5 92.8798 75.278 4
7 -7 -5 187.548 145.58 3
-7 7 4 684.265 172.324 4
7 -7 -4 928.463 283.296 3
-7 7 4 735.273 235.257 2
-7 7 3 1046.27 269.925 2
-7 7 3 1071.29 200.982 4
7 -7 -3 1570.09 362.256 3
-7 7 2 3451.26 334.934 4
7 -7 -2 4050.3 544.418 3
-7 7 2 3182.47 462.228 2
-7 7 1 1505.96 322.825 2
7 -7 -1 1548.56 329.17 3
-7 7 0 -22.838 71.2021 2
7 -7 0 58.2778 46.8401 1
7 -7 0 67.6503 83.9949 3
-7 7 -1 136.966 80.4883 2
7 -7 1 197.341 87.3366 1
7 -7 1 185.855 125.854 3
-7 7 -2 1904.74 372 2
7 -7 2 1839.78 364.028 3
7 -7 2 2107.08 329.478 1
-7 7 -3 2207.18 414.035 2
7 -7 3 2198.83 397.529 3
7 -7 3 2435.43 376.594 1
-7 7 -4 21.734 30.3256 2
7 -7 4 47.4949 59.4456 1
7 -7 4 56.1657 64.3522 3
-7 7 -5 412.179 168.08 2
7 -7 5 456.468 176.963 1
7 -7 5 521.774 186.937 3
-7 7 -6 1481.08 344.871 2
7 -7 6 1533.87 356.974 1
7 -7 6 1523.37 319.655 3
-7 7 -7 126.492 121.171 2
7 -7 7 90.393 125.238 1
-7 6 11 101.631 98.8741 4
7 -6 -11 414.382 235.906 3
-7 6 10 7.90129 28.3955 4
7 -6 -10 41.4788 71.1109 2
-7 6 10 1.04467 53.448 2
-7 6 9 59.5199 90.0294 4
7 -6 -9 291.368 224.452 3
7 -6 -9 -71.071 109.234 2
-7 6 9 20.0179 68.7515 2
-7 6 8 96.7971 98.8302 4
7 -6 -8 197.256 169.715 3
-7 6 8 -101.921 131.816 2
7 -6 -7 4975.17 637.083 3
-7 6 7 4321.98 595.913 2
-7 6 7 4500.59 521.481 4
7 -6 -6 2794.13 463.648 3
-7 6 6 2726.42 380.576 4
-7 6 6 2495.78 438.533 2
7 -6 -5 5071.94 595.919 3
-7 6 5 4945.95 604.136 2
-7 6 5 4709.11 456.441 4
-7 6 4 728.046 237.807 2
-7 6 4 845.914 183.219 4
7 -6 -4 997.527 280.139 3
-7 6 3 5745.45 427.079 4
-7 6 3 5365.97 619.442 2
-7 6 2 13925.7 595.689 4
7 -6 -2 12767.4 528.07 1
7 -6 -2 13042.7 906.853 3
-7 6 2 12256.1 886.854 2
7 -6 -1 9892.65 550.996 1
7 -6 -1 9617.29 775.329 3
-7 6 1 8796.4 752.475 2
-7 6 0 1375.86 297.912 2
7 -6 0 1552.55 236.846 1
7 -6 0 1493.38 308.381 3
-7 6 -1 298.728 136.207 2
7 -6 1 327.897 111.951 1
7 -6 1 304.76 141.431 3
-7 6 -2 39.1794 42.3068 2
7 -6 2 30.0112 13.9697 1
7 -6 2 27.1099 20.5055 3
-7 6 -3 8103.77 747.428 2
7 -6 3 8867.94 777.597 3
7 -6 3 8649.65 702.79 1
-7 6 -4 2935.89 459.135 2
7 -6 4 3051.67 457.296 3
7 -6 4 3234.62 458.798 1
-7 6 -5 -68.3697 102.558 2
7 -6 5 7.56688 57.4105 1
7 -6 5 36.0523 49.9393 3
-7 6 -6 439.196 173.092 2
7 -6 6 476.104 191.405 1
7 -6 6 393.316 152.869 3
-7 6 -7 377.758 186.265 2
7 -6 7 418.597 181.725 1
7 -5 -12 2014.71 438.055 3
7 -5 -11 9344.95 889.371 3
7 -5 -11 6931.78 873.434 2
-7 5 11 6918.17 869.654 2
-7 5 11 6853.17 772.687 4
7 -5 -10 8104.52 808.816 3
7 -5 -10 6211.25 789.613 2
-7 5 10 5925.87 761.254 2
-7 5 10 5963.91 675.344 4
-7 5 9 1202.78 284.916 4
7 -5 -9 1604.76 377.423 3
7 -5 -9 1223.19 328.281 2
-7 5 9 1100.31 305.066 2
7 -5 -8 4317.64 563.425 3
7 -5 -8 4332.79 609.024 2
-7 5 8 4198.11 593.305 2
-7 5 8 4018.39 493.793 4
-7 5 7 939.293 222.561 4
7 -5 -7 882.528 252.438 3
-7 5 7 815.736 248.645 2
7 -5 -6 22431.2 1231.93 3
-7 5 6 20928.7 1222.85 2
-7 5 6 21394.9 999.487 4
7 -5 -5 8947.11 766.693 3
-7 5 5 7630.26 727.66 2
-7 5 5 8541.71 586.574 4
7 -5 -4 4612.1 532.394 3
-7 5 4 4220.81 532.106 2
-7 5 4 4248.11 368.031 4
-7 5 3 2120.93 229.421 4
7 -5 -3 2257.42 373.939 3
7 -5 -3 1903.05 172.934 1
-7 5 3 2309.41 389.963 2
-7 5 2 144.97 82.6873 2
7 -5 -2 216.048 67.8849 1
-7 5 2 173.978 52.321 4
7 -5 -2 164.51 86.3313 3
7 -5 -1 6922.91 478.852 1
-7 5 1 6019.22 392.872 1
7 -5 -1 6652.71 635.206 3
-7 5 1 5986.87 606.646 2
7 -5 0 8908.36 730.356 3
-7 5 0 8316.83 723.377 2
7 -5 0 9068.89 597.823 1
-7 5 -1 54.3882 19.0274 2
7 -5 1 104.027 73.2829 1
7 -5 1 164.774 100.852 3
7 -5 2 2646.27 411.88 3
7 -5 2 2607.9 362.212 1
-7 5 -2 2381.65 393.769 2
-7 5 -3 1032.32 260.471 2
7 -5 3 1322.2 273.344 1
7 -5 3 1128.25 285.66 3
-7 5 -4 8966.45 783.574 2
7 -5 4 8661.26 758.785 3
7 -5 4 9547.02 791.531 1
-7 5 -5 1137.92 292.267 2
7 -5 5 1322.69 312.736 1
7 -5 5 916.622 268.965 3
-7 5 -6 256.435 144.666 2
7 -5 6 361.461 178.288 1
-7 5 -7 1502.96 345.364 2
7 -5 7 1500.96 361.758 1
-7 5 -8 1924.52 421.283 2
-7 4 12 2368.28 479.669 4
7 -4 -12 2900.79 525.661 3
7 -4 -12 2289.04 508.83 2
-7 4 12 2215.78 501.849 2
-7 4 11 259.56 196.053 4
7 -4 -11 215.215 176.867 3
7 -4 -11 70.6464 123.995 2
-7 4 11 54.4767 100.187 2
7 -4 -10 7896.06 771.406 3
7 -4 -10 6396.17 775.61 2
-7 4 10 5999.5 747.119 2
-7 4 10 6310.22 686.317 4
-7 4 9 1346.77 295.776 4
7 -4 -9 1414.76 336.105 3
7 -4 -9 1146.96 319.9 2
-7 4 9 1169.87 315.891 2
-7 4 8 31.3262 57.8093 4
7 -4 -8 123.772 117.651 3
7 -4 -8 -42.0012 107.198 2
-7 4 8 -64.4534 105.783 2
7 -4 -7 3683.73 496.358 3
7 -4 -7 3199.97 489.079 2
-7 4 7 3173.88 475.728 2
-7 4 7 3455.5 413.062 4
-7 4 6 1476.64 249.165 4
7 -4 -6 1917.52 360.276 3
-7 4 6 1291.42 293.856 2
7 -4 -5 23753.2 1171.66 3
-7 4 5 23691.1 1230.22 2
-7 4 5 24360.4 919.91 4
-7 4 4 428.518 174.245 2
-7 4 4 480.619 119.261 4
7 -4 -4 290.427 58.0834 1
-7 4 4 453.56 110.391 4
-7 4 4 281.803 51.2869 1
7 -4 -4 373.511 155.465 3
7 -4 -4 469.458 123.653 4
-7 4 3 369.937 146.134 2
-7 4 3 414.046 84.2449 4
-7 4 3 424.809 87.8323 4
-7 4 3 363.541 73.6452 1
7 -4 -3 335.878 135.211 3
7 -4 -3 393.505 85.9253 1
7 -4 -3 416.576 93.6159 4
-7 4 2 1874.52 137.238 4
-7 4 2 1658.76 127.486 4
7 -4 -2 2658.9 272.557 1
-7 4 2 2550.21 237.262 1
-7 4 2 2529.72 382.834 2
7 -4 -2 2676.96 394.686 3
-7 4 1 1327.85 276.536 2
7 -4 -1 1466.03 226.909 1
-7 4 1 1414.33 197.014 1
7 -4 -1 1507.75 289.588 3
7 -4 0 3432.37 377.812 1
7 -4 0 3250.41 447.19 3
-7 4 0 3184.76 433.693 2
-7 4 -1 1726.96 321.585 2
7 -4 1 1741.9 324.587 3
7 -4 1 1874.69 292.733 1
-7 4 -2 1654.28 321.655 2
7 -4 2 1620.08 289.846 1
7 -4 2 1625.78 323.264 3
-7 4 -3 1017.95 250.711 2
7 -4 3 1160.95 261.377 1
7 -4 3 1007.59 266.091 3
-7 4 -4 4595.23 555.242 2
7 -4 4 4949.62 572.103 1
7 -4 4 4194.32 538.435 3
-7 4 -5 2158.98 383.761 2
7 -4 5 2285.97 405.177 1
7 -4 5 1954.96 376.624 3
-7 4 -6 222.218 129.781 2
7 -4 6 200.372 138.445 1
-7 4 -7 3325.66 512.004 2
7 -4 7 3530.04 579.207 1
-7 4 -8 507.995 197.965 2
-7 3 13 182.978 178.532 4
-7 3 12 1601.23 348.12 4
7 -3 -12 2059.21 412.55 3
7 -3 -12 1681.72 414.132 2
-7 3 12 1515.61 386.237 2
-7 3 11 392.313 174.078 4
7 -3 -11 738.755 251.895 3
7 -3 -11 499.602 227.006 2
-7 3 11 352.804 172.376 2
-7 3 10 1324.36 280.588 4
7 -3 -10 2640.16 422.984 3
7 -3 -10 2065.45 436.812 2
-7 3 10 1970.31 408.175 2
-7 3 9 -68.4447 149.012 4
7 -3 -9 95.0041 113.101 3
7 -3 -9 28.1806 57.6187 2
-7 3 9 35.0974 73.6979 2
7 -3 -8 2674.1 402.647 3
7 -3 -8 2595.18 445.198 2
-7 3 8 2441.47 426.6 2
-7 3 8 2486.33 360.255 4
-7 3 7 869.317 174.697 4
7 -3 -7 1047.2 247.134 3
7 -3 -7 956.753 252.01 2
-7 3 7 948.702 244.892 2
7 -3 -6 2004.96 325.494 3
-7 3 6 1912.75 257.442 4
-7 3 6 2003.24 353.452 2
-7 3 5 8948.02 540.858 4
-7 3 5 8260.74 310.254 1
7 -3 -5 9856.92 730.283 3
-7 3 5 9806.35 768.241 2
-7 3 5 8718.01 307.717 1
7 -3 -5 8471.56 308.436 1
-7 3 5 10016.3 552.835 4
-7 3 4 13034 559.596 4
-7 3 4 13482.5 492.673 1
7 -3 -4 13441.8 861.511 3
7 -3 -4 14068.1 520.103 1
7 -3 -4 13362.7 603.854 4
-7 3 4 13062.5 880.067 2
-7 3 4 13881.1 575.075 4
-7 3 3 9194.91 382.008 4
7 -3 -3 10238.6 520.064 1
-7 3 3 9937.06 487.514 1
7 -3 -3 9932.47 733.204 3
-7 3 3 9618.42 739.726 2
-7 3 3 9444.79 381.233 4
-7 3 2 1641.23 303.332 2
7 -3 -2 1811.04 237.991 1
-7 3 2 1844.93 230.381 1
7 -3 -2 1827.22 313.487 3
7 -3 -1 64988.6 1565.05 1
7 -3 -1 64591.1 1888.31 3
-7 3 1 59982.8 1797.77 2
-7 3 0 30.3252 40.4228 2
7 -3 0 107.498 89.5977 3
7 -3 0 92.7183 88.6198 1
7 -3 1 19346.8 973.701 1
7 -3 1 18738.8 1034.62 3
-7 3 -1 17910.3 1008.82 2
-7 3 -2 857.905 215.167 2
7 -3 2 820.764 210.218 1
7 -3 2 933.258 242.815 3
-7 3 -3 794.467 216.599 2
7 -3 3 962.594 231.686 1
7 -3 3 894.758 240.504 3
-7 3 -4 4.6836 39.9048 2
7 -3 4 -29.6977 94.2534 1
7 -3 4 -10.1799 18.4125 3
-7 3 -5 147.467 101.424 2
7 -3 5 108.377 63.3391 1
-7 3 -6 333.734 147.294 2
-7 3 -6 324.387 147.831 3
7 -3 6 342.733 155.148 1
-7 3 -7 520.972 205.319 2
-7 3 -7 602.408 205.728 3
7 -3 7 623.579 253.41 1
-7 3 -8 1903.46 401.579 2
-7 2 13 597.688 241.907 4
7 -2 -13 461.491 222.043 2
-7 2 13 309.707 155.816 2
-7 2 12 1817.29 382.886 4
7 -2 -12 1768.23 339.525 3
7 -2 -12 1906.84 436.188 2
-7 2 12 1704.64 382.458 2
7 -2 -11 3589.6 465.806 3
7 -2 -11 4025.78 619.613 2
-7 2 11 3749.66 573.836 2
-7 2 11 3937.8 536.837 4
7 -2 -10 11404.8 813.464 3
-7 2 10 12135.8 886.535 4
7 -2 -10 12652 1024.53 2
-7 2 10 11839.7 968.254 2
7 -2 -9 3882.24 470.941 3
7 -2 -9 4453.36 576.785 2
-7 2 9 4405.31 568.577 2
-7 2 9 4272.93 496.85 4
7 -2 -8 918.315 228.393 3
7 -2 -8 930.688 256.181 2
-7 2 8 859.993 251.047 2
-7 2 8 943.919 216.579 4
-7 2 7 3356.18 190.159 1
7 -2 -7 3620.48 452.936 3
7 -2 -7 3840.48 495.514 2
-7 2 7 3678.84 478.866 2
-7 2 7 4023.33 427.764 4
7 -2 -6 1864.61 317.373 3
7 -2 -6 1727.59 336.597 2
-7 2 6 1783.02 179.302 1
-7 2 6 1787.85 336.805 2
-7 2 6 1758.04 158.202 1
-7 2 6 2002.54 274.174 4
-7 2 5 4121.49 349.018 4
7 -2 -5 4721.23 306.145 1
7 -2 -5 4310.77 484.676 3
-7 2 5 4618.19 317.936 1
-7 2 5 4494.9 287.996 1
-7 2 5 4359.61 498.308 2
-7 2 5 4636.91 369.807 4
-7 2 4 84.4811 76.0581 2
-7 2 4 80.6729 57.6859 1
-7 2 4 34.8881 34.2865 4
7 -2 -4 25.9881 24.9919 1
7 -2 -4 61.1299 46.1597 3
-7 2 4 60.213 43.445 4
-7 2 3 1016.01 240.464 2
-7 2 3 944.676 119.357 4
-7 2 3 1470.39 223.824 1
7 -2 -3 1021.43 229.032 3
7 -2 -3 1075.88 182.977 1
-7 2 3 830.962 103.596 4
-7 2 2 1587.58 288.741 2
7 -2 -2 1697.37 244.783 1
7 -2 -2 1658.72 300.389 3
7 -2 -1 11052.8 666.064 1
7 -2 -1 11925.5 835.477 3
-7 2 1 10783.9 744.688 2
7 -2 0 7986.24 605.873 1
7 -2 0 7569.54 649.252 3
-7 2 0 7669.84 643.614 2
7 -2 1 1592.92 314.167 3
7 -2 1 1619.46 298.184 1
-7 2 -1 1590.14 318.48 2
-7 2 -2 1675.04 301.332 2
7 -2 2 1789.93 335.817 3
7 -2 2 1756.34 316.308 1
-7 2 -3 4663.39 521.807 2
7 -2 3 4374.63 530.903 1
7 -2 3 4712.71 546.444 3
-7 2 -4 778.706 226.152 2
7 -2 4 655.268 186.974 1
-7 2 -5 985.414 256.726 2
-7 2 -5 903.831 242.083 3
7 -2 5 833.679 246.2 1
7 -2 6 4947.92 660.841 1
-7 2 -6 4788.34 572.23 2
-7 2 -6 4732.33 547.903 3
-7 2 -7 109.727 94.3963 2
-7 2 -7 167.434 110.713 3
7 -2 7 188.6 168.816 1
-7 2 -8 498.647 200.404 2
-7 1 14 6.71029 41.4024 4
7 -1 -13 2069.65 394.638 2
-7 1 13 2675.18 509.704 2
-7 1 13 2774.1 493.461 4
7 -1 -12 4303.21 521.483 3
7 -1 -12 3914.78 578.752 2
-7 1 12 3752.02 575.584 2
-7 1 12 4478.12 607.889 4
7 -1 -11 458.308 157.586 3
7 -1 -11 486.293 207.79 2
-7 1 11 444.312 198.337 2
-7 1 11 456.236 176.053 4
7 -1 -10 70.4263 35.9091 3
7 -1 -10 29.313 26.8989 2
-7 1 10 82.9062 83.0843 2
-7 1 10 12.2981 66.5501 4
-7 1 9 1459.6 158.785 1
7 -1 -9 1525.9 294.383 3
7 -1 -9 1499 336.645 2
-7 1 9 1350.41 308.281 2
-7 1 9 1350.67 263.711 4
-7 1 8 -6.01864 41.9214 2
-7 1 8 67.5414 35.4611 1
7 -1 -8 16.0613 10.9527 3
7 -1 -8 30.3483 55.0852 2
-7 1 8 -14.9157 54.0972 4
-7 1 7 4699.78 361.74 1
-7 1 7 4823.34 294.127 1
7 -1 -7 4704.45 504.167 3
7 -1 -7 4860.43 549.43 2
-7 1 7 4481.61 518.96 2
-7 1 7 4662.63 441.054 4
-7 1 6 14607.4 648.549 1
7 -1 -6 14253.6 858.928 3
7 -1 -6 14435.5 907 2
-7 1 6 14108.4 891.505 2
-7 1 6 14653.3 554.568 1
-7 1 6 14674.8 715.653 4
7 -1 -6 14897.5 574.404 1
-7 1 5 1562.78 214.409 4
7 -1 -5 1783.47 218.209 1
7 -1 -5 1654.25 293.999 3
-7 1 5 1599.2 197.196 1
-7 1 5 1788.47 226.949 4
-7 1 5 1592.71 292.909 2
-7 1 5 1728.4 226.053 1
-7 1 4 1913.83 210.431 4
7 -1 -4 1787.48 309.258 3
7 -1 -4 1881.46 239.842 1
-7 1 4 1951.08 319.792 2
-7 1 4 1997.34 210.774 4
-7 1 4 1852.64 241.771 1
-7 1 3 2631.01 214.584 4
7 -1 -3 2734.89 389.143 3
7 -1 -3 2740.86 310.24 1
-7 1 3 2368.89 289.454 1
-7 1 3 2701.3 370.771 2
-7 1 3 2648.78 203.255 4
-7 1 2 208.395 110.687 2
-7 1 2 159.526 40.983 4
7 -1 -2 205.806 92.6093 1
7 -1 -2 188.887 102.213 3
-7 1 2 172.43 43.1304 4
7 -1 -1 8134.42 592.478 1
7 -1 -1 8008.75 653.238 3
-7 1 1 7990.56 626.687 2
7 -1 0 2007.94 313.955 1
7 -1 0 1848.55 330.897 3
-7 1 0 1945.11 319.337 2
7 -1 1 31170.5 1288.54 1
7 -1 1 30539.5 1314.37 3
-7 1 -1 30006.5 1243.55 2
-7 1 -2 449.845 145.406 2
7 -1 2 600.723 189.267 1
-7 1 -3 8412.43 683.595 2
7 -1 3 8426.44 747.8 1
-7 1 -4 214.098 108.522 2
-7 1 -4 222.782 115.615 3
7 -1 4 270.695 161.758 1
-7 1 -5 1109.78 262.249 2
-7 1 -5 1122.05 257.073 3
7 -1 5 1208.56 322.547 1
-7 1 -6 1705.35 331.19 2
-7 1 -6 1833.04 345.212 3
7 -1 6 1928.28 422.189 1
-7 1 -7 1968.38 328.805 2
7 -1 7 2496.41 496.807 1
-7 1 -8 2403 373.453 2
7 0 -14 80.857 50.1787 2
-7 0 14 85.6646 88.8641 4
7 0 -13 1250.93 334.188 2
-7 0 13 1301.36 326.981 4
-7 0 12 530.999 213.414 2
-7 0 12 542.132 198.727 4
7 0 -11 -174.096 225.035 2
7 0 -11 348.19 136.107 3
-7 0 11 394.017 181.099 2
-7 0 11 340.643 154.57 4
-7 0 10 -2.19071 12.8245 1
7 0 -10 -32.4199 85.874 2
7 0 -10 -23.0722 53.8648 3
-7 0 10 15.8606 39.6154 2
-7 0 10 7.95012 51.1034 4
-7 0 9 4742.05 333.979 1
7 0 -9 4597.42 486.227 3
7 0 -9 4792.27 577.131 2
-7 0 9 4642.37 544.271 2
-7 0 9 4918.74 512.16 4
-7 0 8 11821.6 651.811 1
7 0 -8 11544.5 782.869 3
7 0 -8 11994.1 864.482 2
-7 0 8 11803.6 839.245 2
-7 0 8 12563.4 779.656 4
-7 0 8 12065.4 526.437 1
-7 0 7 3450.39 357.647 1
7 0 -7 3882.57 455.9 3
7 0 -7 3937.9 483.55 2
-7 0 7 3643.19 457.9 2
-7 0 7 3911.89 411.07 4
-7 0 7 3877.66 316.45 1
-7 0 6 7169.36 506.993 1
7 0 -6 7477.84 619.283 3
7 0 -6 7293.92 625.275 2
7 0 -6 7798.88 478.884 1
-7 0 6 7048.52 607.943 2
-7 0 6 7179.54 436.528 1
-7 0 6 7587.34 519.23 4
-7 0 5 3277.9 351.727 1
-7 0 5 3387.01 327.527 4
7 0 -5 3545.5 338.142 1
7 0 -5 3607.39 437.222 3
-7 0 5 3329.5 318.042 1
-7 0 5 3260.35 405.092 2
-7 0 5 3625.14 330.375 4
-7 0 4 8018.54 460.084 4
7 0 -4 8217.86 655.046 3
7 0 -4 8377.35 542.267 1
-7 0 4 8126.21 627.577 2
-7 0 4 8640.05 461.902 4
-7 0 3 2975.87 253.509 4
7 0 -3 2804.96 375.695 3
7 0 -3 2965.7 342.559 1
-7 0 3 2923.44 236.111 4
-7 0 3 2825.26 366.655 2
-7 0 2 16108.1 520.395 4
7 0 -2 17164.7 525.097 4
7 0 -2 17676.5 875.452 1
7 0 -2 17175.5 950.367 3
-7 0 2 17434.6 534.989 4
-7 0 2 15858 823.493 2
7 0 -1 14028.4 436.614 4
7 0 -1 15338.5 854.894 1
7 0 -1 14888.4 903.692 3
-7 0 1 13937.9 442.925 4
-7 0 1 14528 818.904 2
-7 0 1 12629.2 415.007 4
7 0 0 29070.6 634.794 4
7 0 0 32447.5 1285.21 1
7 0 0 33498.8 1377.02 3
-7 0 0 33054.1 1239.08 2
-7 0 -1 8551.23 641.902 2
7 0 1 7608.28 356.888 4
7 0 1 8576.51 701.276 1
-7 0 -1 7585.36 358.569 4
-7 0 -2 4062.4 447.804 2
7 0 2 4080.11 295.856 4
7 0 2 4125.46 505.628 1
-7 0 -3 2209.68 332.353 2
7 0 3 2416.46 401.064 1
-7 0 -3 2447.1 400.268 3
-7 0 -4 195.432 102.731 2
-7 0 -4 233.17 112.892 3
7 0 4 215.008 121.876 1
7 0 5 5857.45 698.595 1
-7 0 -5 5585.92 569.97 2
-7 0 -5 6008.23 603.476 3
7 0 6 3504.35 572.487 1
-7 0 -6 3205.12 457.008 2
-7 0 -6 2140.63 268.238 3
-7 0 -7 2926.08 466.619 3
-7 0 -7 40.5083 159.856 2
7 1 -14 13.9955 65.785 2
-7 -1 14 70.1261 45.8556 4
7 1 -13 524.036 206.979 2
-7 -1 13 420.542 169.693 4
7 1 -12 157.054 105.753 2
-7 -1 12 234.18 130.837 4
-7 -1 11 2376.19 269.31 1
7 1 -11 2146.91 339.232 3
7 1 -11 1714.8 334.709 2
-7 -1 11 2201.55 397.424 2
-7 -1 11 2302.06 394.853 4
-7 -1 10 494.01 119.023 1
7 1 -10 532.197 193.994 2
7 1 -10 468.393 157.462 3
-7 -1 10 458.525 175.614 2
-7 -1 10 510.595 176.846 4
-7 -1 9 -15.7931 30.1276 1
7 1 -9 -57.8075 89.26 2
7 1 -9 23.7761 36.0382 3
-7 -1 9 -30.9378 74.9879 2
-7 -1 9 -23.3814 41.0414 4
7 1 -8 7156.51 614.83 3
7 1 -8 6762.65 648.177 2
-7 -1 8 6731.23 620.216 2
-7 -1 8 6812.57 568.647 4
-7 -1 8 6917.87 443.625 1
-7 -1 7 752.136 154.42 1
7 1 -7 811.444 213.847 3
7 1 -7 753.71 218.86 2
7 1 -7 687.264 143.825 1
-7 -1 7 692.405 205.962 2
-7 -1 7 699.018 177.594 4
7 1 -6 5279.63 511.487 3
7 1 -6 5518.32 436.338 1
7 1 -6 5102.33 513.971 2
-7 -1 6 5256.99 511.436 2
-7 -1 6 5295.9 415.22 1
-7 -1 6 4953.01 415.524 4
7 1 -5 9354.31 590.71 1
7 1 -5 9089.9 542.766 4
7 1 -5 9076.68 672.996 3
-7 -1 5 8842.36 640.527 2
-7 -1 5 9466.47 557.22 4
-7 -1 4 1717.39 234.765 4
7 1 -4 1746.78 226.559 4
7 1 -4 1612.34 286.572 3
7 1 -4 1731.15 265.548 1
-7 -1 4 1565.6 267.466 2
-7 -1 4 1806.78 228.259 4
-7 -1 3 11977.7 571.774 4
7 1 -3 12595.4 566.584 4
7 1 -3 12432.8 815.622 3
7 1 -3 12082.7 724.066 1
-7 -1 3 12381 557.845 4
-7 -1 3 12119 726.157 2
-7 -1 2 44904 1040.79 4
7 1 -2 46019.6 1022.04 4
-7 -1 2 46135.2 1390.4 2
7 1 -2 47135.6 1483.45 1
7 1 -2 46798.5 1589.43 3
7 1 -1 31616.1 842.902 4
7 1 -1 32822.6 1301.43 1
-7 -1 1 33332.2 1197.06 2
-7 -1 1 30744.5 841.648 4
7 1 0 1343.48 179.336 4
7 1 0 1401 283.812 1
-7 -1 0 1385.59 190.861 4
-7 -1 0 1565.4 273.244 2
7 1 1 175.929 66.0994 4
-7 -1 -1 144.312 56.322 2
7 1 1 185.083 91.8753 1
-7 -1 -1 283.291 145.91 3
7 1 2 7216.14 477.502 4
-7 -1 -2 7589.53 596.154 2
7 1 2 7187.6 684.962 1
-7 -1 -2 7530.77 677.12 3
7 1 3 5181.06 435.845 4
-7 -1 -3 4885.89 482.8 2
7 1 3 4960.86 587.461 1
-7 -1 -3 4670.69 528.348 3
7 1 4 291.328 154.445 1
-7 -1 -4 227.018 120.643 2
-7 -1 -4 251.775 136.701 3
7 1 5 142.778 96.9053 1
-7 -1 -5 223.123 124.532 2
7 1 6 815.701 288.853 1
-7 -1 -6 331.577 113.496 2
-7 -1 -7 1666.87 320.617 3
-7 -1 -7 -56.128 344.723 2
-7 -1 -8 1355.69 220.23 2
7 2 -14 221.1 101.786 2
-7 -2 14 98.4181 76.3118 4
7 2 -13 1397.41 348.889 2
-7 -2 13 1445.72 332.316 4
-7 -2 12 9850.41 604.495 1
7 2 -12 10345.6 897.996 2
-7 -2 12 9953 864.499 4
-7 -2 11 287.57 98.7789 1
7 2 -11 344.503 162.624 2
7 2 -11 264.299 109.868 3
-7 -2 11 238.123 108.763 4
-7 -2 10 1132.65 194.347 1
7 2 -10 682.235 157.662 2
7 2 -10 1107.95 229.877 3
-7 -2 10 998.471 246.923 2
-7 -2 10 1097.81 252.061 4
7 2 -9 1514.37 308.765 2
7 2 -9 1382.25 262.947 3
-7 -2 9 1503.05 290.097 2
-7 -2 9 1585.28 288.512 4
-7 -2 9 1665.48 241.326 1
7 2 -8 2446.66 346.37 3
7 2 -8 2619.35 383.118 2
-7 -2 8 2203.29 271.224 1
-7 -2 8 2527.93 366.525 2
-7 -2 8 2401.05 319.786 4
-7 -2 7 628.212 151.161 1
7 2 -7 625.239 172.784 4
7 2 -7 444.979 107.176 1
7 2 -7 572.989 161.754 3
7 2 -7 592.13 176.138 2
-7 -2 7 632.17 165.958 4
-7 -2 7 606.69 179.106 2
7 2 -6 15543.3 797.086 4
7 2 -6 15322.4 773.585 1
7 2 -6 14916.7 859.168 3
-7 -2 6 14834.3 823.47 2
-7 -2 6 14792.7 749.647 1
-7 -2 6 14977 766.653 4
7 2 -5 118.971 81.4979 1
7 2 -5 95.7828 73.9712 4
7 2 -5 139.269 104.291 3
-7 -2 5 83.317 58.409 4
-7 -2 5 73.0963 52.1249 1
-7 -2 5 37.4485 32.3835 2
7 2 -4 21641.3 851.861 4
7 2 -4 21586.9 1066.15 3
-7 -2 4 20303.6 806.15 4
-7 -2 4 21579.8 946.794 2
7 2 -4 21524.4 973.903 1
-7 -2 3 224.077 114.849 2
-7 -2 3 177.665 87.2082 4
7 2 -3 196.883 92.8699 4
7 2 -3 178.211 107.545 1
7 2 -2 1921.17 241.352 4
7 2 -2 2219.5 349.65 1
-7 -2 2 2077.66 288.601 2
-7 -2 2 1994.97 265.943 4
7 2 -1 78146.3 1551.84 4
-7 -2 1 78547.4 2088.84 3
7 2 -1 80809 2111.07 1
-7 -2 1 81752.3 1776.94 2
-7 -2 0 252.179 81.4379 4
7 2 0 412.055 130.687 4
-7 -2 0 486.538 155.369 2
-7 -2 0 537.84 206.442 3
7 2 0 425.67 169.211 1
-7 -2 -1 4517.25 436.234 2
7 2 1 4211.91 390.728 4
-7 -2 -1 4183.32 499.051 3
7 2 1 4209.64 518.166 1
7 2 2 2077.95 293.747 4
-7 -2 -2 2111.91 300.312 2
-7 -2 -2 1974.11 350.779 3
7 2 2 1996.84 379.857 1
7 2 3 15.9183 51.2909 4
7 2 3 17.5789 62.7686 1
-7 -2 -3 83.1507 75.0701 2
-7 -2 -3 59.6521 79.2426 3
7 2 4 492.247 188.307 1
-7 -2 -4 536.226 169.836 2
7 2 5 850.222 255.943 1
-7 -2 -5 370.624 43.0626 2
7 2 6 36.9925 83.4172 1
-7 -2 -6 17.6811 32.8019 3
-7 -2 -7 172.996 101.215 3
7 3 -14 6386.36 768.73 2
-7 -3 14 5931.59 727.632 4
-7 -3 13 5913.2 512.558 1
7 3 -13 6043.9 713.514 2
-7 -3 13 5493.69 669.499 4
-7 -3 12 350.73 117.607 1
7 3 -12 321.071 142.555 2
-7 -3 12 385.782 170.301 4
-7 -3 11 264.349 106.36 1
7 3 -11 175.692 113.942 2
7 3 -11 169.235 81.2191 3
-7 -3 11 206.239 116.153 4
-7 -3 10 443.138 128.667 1
7 3 -10 18.5518 146.632 2
7 3 -10 404.256 136.046 3
-7 -3 10 405.811 148.71 2
-7 -3 10 367.603 134.15 4
-7 -3 9 42.1571 13.4174 1
7 3 -9 35.9403 50.2803 2
7 3 -9 42.8284 30.0472 3
-7 -3 9 53.5513 29.9679 2
-7 -3 8 210.277 11.7022 1
7 3 -8 167.307 72.3655 4
7 3 -8 217.412 103.491 2
7 3 -8 227.641 110.078 3
-7 -3 8 164.84 82.4718 4
-7 -3 8 182.113 89.5377 2
7 3 -7 2061.61 323.945 4
7 3 -7 1997.21 314.459 3
7 3 -7 1879.38 303.167 2
-7 -3 7 1935.25 301.37 2
-7 -3 7 1921.9 299.472 4
-7 -3 7 1996.48 287.441 1
7 3 -7 2083.52 300.539 1
-7 -3 6 51.2362 7.59317 1
7 3 -6 123.95 76.4891 4
-7 -3 6 91.1812 35.5548 4
-7 -3 6 81.9225 40.47 2
7 3 -5 3330.96 368.242 4
7 3 -5 3377.1 401.452 1
-7 -3 5 3151.75 384.644 1
-7 -3 5 3350.07 368.444 2
7 3 -4 2747.74 327.086 4
-7 -3 4 2783.64 327.108 2
7 3 -4 2775.78 371.054 1
7 3 -3 26651.1 1001.05 4
-7 -3 3 26397.1 1194.36 3
7 3 -3 26944.7 1178.58 1
-7 -3 3 26831.9 972.873 2
7 3 -2 19009.1 847.203 4
-7 -3 2 19541.4 1070.85 3
7 3 -2 18990.2 1017.98 1
-7 -3 2 18863.9 809.423 2
7 3 -1 394.604 158.22 1
7 3 -1 440.643 144.958 4
-7 -3 1 320.279 104.793 2
-7 -3 1 304.713 145.522 3
-7 -3 0 1774.08 249.66 2
7 3 0 1859.02 282.731 4
-7 -3 0 1676.66 315.31 3
7 3 0 1864.39 339.91 1
7 3 1 2819.41 358.341 4
-7 -3 -1 2814.14 317.483 2
-7 -3 -1 2610.1 396.134 3
7 3 1 2773.4 434.982 1
7 3 2 5538.32 522.563 4
-7 -3 -2 5218.21 447.487 2
-7 -3 -2 5221.04 570.537 3
7 3 2 5437.05 638.014 1
7 3 3 3706.81 451.706 4
-7 -3 -3 3204.29 351.843 2
7 3 3 3388.51 533.193 1
-7 -3 -3 2242.33 326.137 3
-7 -3 -4 1230.06 208.715 2
7 3 4 1877.61 393.546 1
-7 -3 -5 2006.03 363.278 3
7 3 5 1872.69 423.367 1
-7 -3 -6 1336.8 307.467 3
7 4 -15 4443.81 666.64 2
-7 -4 14 13354.9 833.787 1
7 4 -14 13662.6 1109.48 2
-7 -4 14 12304.9 1038.3 4
-7 -4 13 13966.1 818.598 1
7 4 -13 14705.6 1103.87 2
-7 -4 13 13393.6 1031.38 4
-7 -4 12 2042.22 308.207 1
7 4 -12 2002.26 386.661 2
-7 -4 12 1888.75 370.654 4
-7 -4 11 5243.88 481.468 1
7 4 -11 5265.79 581.722 2
-7 -4 11 5075.66 573.371 4
7 4 -10 1714.88 308.467 4
7 4 -10 1533.01 271.572 2
-7 -4 10 1977.45 332.597 2
-7 -4 10 1990.62 344.431 4
-7 -4 10 2169.34 318.094 1
7 4 -9 1996.1 354.055 4
7 4 -9 1978.68 341.594 2
-7 -4 9 1808.04 310.961 2
-7 -4 9 1921.73 331.753 4
-7 -4 9 1999.1 309.752 1
7 4 -8 1332.09 301.27 4
7 4 -8 1557.14 299.215 2
-7 -4 8 1640.42 293.855 1
-7 -4 8 1427.4 302.877 4
-7 -4 8 1489.44 284.752 2
7 4 -7 41037.5 1459.59 4
7 4 -7 38482 1299.99 2
-7 -4 7 39333.8 1305.04 2
-7 -4 7 36801.2 1328.83 4
-7 -4 7 39791.7 1358.39 1
7 4 -7 40774.6 1401 1
7 4 -6 4441.25 465.309 4
-7 -4 6 4241.92 463.179 3
7 4 -6 4299.04 456.291 1
-7 -4 6 4196.36 453.15 1
-7 -4 6 4236.25 408.87 2
-7 -4 5 161.256 73.3522 2
7 4 -5 163.803 89.2309 4
7 4 -5 106.698 68.2835 1
-7 -4 5 141.874 87.3354 3
-7 -4 5 121.133 50.9984 1
-7 -4 4 497.266 130.998 2
7 4 -4 420.289 133.514 4
-7 -4 4 461.848 164.326 3
-7 -4 4 401.968 103.002 2
7 4 -4 399.46 145.367 1
7 4 -3 14461.9 806.947 4
-7 -4 3 14236.2 883.914 3
-7 -4 3 13140 626.72 2
7 4 -3 14462 900.062 1
-7 -4 3 15035.2 683.146 2
-7 -4 2 51.0879 45.7016 2
7 4 -2 59.1754 52.7568 4
7 4 -2 35.7097 57.2669 1
-7 -4 2 87.4167 84.77 3
-7 -4 1 1420.01 202.18 2
7 4 -1 1532.63 269.495 4
7 4 -1 1404.44 303.011 1
-7 -4 1 1157.87 261.378 3
7 4 0 984.953 262.125 1
7 4 0 999.62 227.848 4
-7 -4 0 1024.82 175.346 2
-7 -4 0 960.787 246.131 3
7 4 1 2214.04 349.554 4
-7 -4 -1 1983.35 248.114 2
-7 -4 -1 1259.47 197.469 3
7 4 1 2116.85 393.145 1
7 4 2 623.919 191.128 4
-7 -4 -2 528.332 135.784 2
-7 -4 -2 1004.25 302.987 3
7 4 2 532.171 213.783 1
7 4 3 80.5444 74.2518 4
-7 -4 -3 59.2188 52.355 3
7 4 3 59.1692 59.6996 1
-7 -4 -4 1428.13 312.19 3
7 4 4 1611.49 382.24 1
-7 -4 -5 2652.7 431.112 3
-7 -5 15 150.16 110.828 1
7 5 -15 -4.19895 46.1497 2
-7 -5 14 93.9599 102.482 1
7 5 -14 -11.2747 44.4946 2
-7 -5 14 31.401 53.2305 4
-7 -5 13 3420.5 424.217 1
7 5 -13 3687.28 534.836 2
-7 -5 13 3193.62 496.788 4
-7 -5 12 281.866 126.557 1
7 5 -12 148.179 94.979 2
-7 -5 12 254.681 46.926 4
-7 -5 11 1594.95 280.709 1
7 5 -11 1676.05 363.403 4
7 5 -11 1609.59 316.688 2
-7 -5 11 1611.89 334.235 4
7 5 -10 1164.96 293.797 4
-7 -5 10 996.694 222.724 1
-7 -5 10 909.255 191.718 3
7 5 -10 926.313 224.192 2
-7 -5 10 892.274 209.35 2
-7 -5 10 953.966 250.708 4
7 5 -9 5048.67 582.692 4
-7 -5 9 4689.75 460.29 3
7 5 -9 5098.72 518.788 2
-7 -5 9 4747.04 484.265 2
-7 -5 9 4518.93 526.818 4
-7 -5 9 6019.49 560.618 1
-7 -5 8 554.201 201.099 1
7 5 -8 382.8 178.82 4
-7 -5 8 440.35 158.286 3
7 5 -8 491.443 187.35 2
-7 -5 8 367.526 167.077 4
-7 -5 8 477.762 179.976 2
7 5 -7 7356.93 652.867 4
-7 -5 7 6724.56 574.015 3
-7 -5 7 7354.97 538.889 2
-7 -5 7 6963.17 604.816 1
7 5 -7 7237.52 629.443 1
7 5 -6 1006.49 239.945 1
-7 -5 6 947.901 228.178 1
7 5 -6 990.649 242.419 4
-7 -5 6 895.916 203.94 3
-7 -5 6 1057.34 195.089 2
-7 -5 5 601.77 139.764 2
7 5 -5 540.085 170.617 4
7 5 -5 469.104 157.975 1
-7 -5 5 571.563 182.758 3
-7 -5 5 453.8 151.067 1
7 5 -4 17831.6 1040.59 1
7 5 -4 18232.2 973.274 4
-7 -5 4 18034.6 962.428 3
-7 -5 4 18887.8 707.851 2
7 5 -3 6423.61 577.89 4
-7 -5 3 6292.81 589.536 3
7 5 -3 6564.17 643.693 1
-7 -5 3 6602.02 393.935 2
-7 -5 2 1377.02 173.752 2
7 5 -2 1316.93 274.806 4
-7 -5 2 1267.05 275.843 3
7 5 -2 1296.16 301.856 1
7 5 -1 3619.91 453.15 4
-7 -5 1 2774.21 374.043 3
7 5 -1 3608.15 503.613 1
7 5 0 1072.88 257.348 4
7 5 0 1054.95 287.18 1
-7 -5 0 785.573 222.825 3
7 5 1 1870.5 349.702 4
7 5 1 1840.7 380.206 1
-7 -5 -1 2036.93 372.023 3
7 5 2 3478.52 482.824 4
-7 -5 -2 3008.26 436.194 3
7 5 2 3328.82 519.697 1
7 5 3 140.537 75.2349 4
-7 -5 -3 146.618 97.1275 3
7 5 3 85.74 35.9722 1
-7 -5 -4 2093.75 382.044 3
-7 -6 15 208.403 124.673 1
7 6 -15 40.8614 85.9583 2
-7 -6 14 31.6091 71.6174 1
7 6 -14 -146.152 147.407 2
-7 -6 14 -195.521 170.356 4
-7 -6 13 31.2921 46.5595 1
7 6 -13 -25.1904 37.6654 2
-7 -6 13 -32.018 128.745 4
7 6 -12 281.423 24.1307 4
-7 -6 12 375.561 142.688 1
7 6 -12 371.149 160.605 2
-7 -6 12 351.286 164.576 4
7 6 -11 1533.26 365.577 4
7 6 -11 763.144 145.251 2
-7 -6 11 1297.28 263.435 2
-7 -6 11 1406.97 316.774 4
-7 -6 11 1376.64 274.393 1
7 6 -10 664.297 225.897 4
-7 -6 10 565.232 172.836 1
-7 -6 10 484.239 139.71 3
7 6 -10 562.792 167.623 2
-7 -6 10 508.401 143.986 2
-7 -6 10 580.667 198.673 4
7 6 -9 1122.06 278.098 4
-7 -6 9 951.441 195.601 3
7 6 -9 1114.02 234.916 2
-7 -6 9 980.077 241.321 4
-7 -6 9 1103.01 221.969 2
-7 -6 9 1832.81 335.548 1
-7 -6 8 843.861 232.669 1
7 6 -8 639.037 208.783 4
-7 -6 8 752.339 192.905 3
7 6 -8 771.063 185.941 2
-7 -6 8 490.925 162.804 4
-7 -6 8 745.192 179.172 2
-7 -6 7 56.7605 64.949 1
7 6 -7 62.6923 64.3934 1
7 6 -7 86.2912 87.4008 4
-7 -6 7 42.374 46.885 3
-7 -6 7 72.7037 53.6317 2
-7 -6 6 206.238 98.7661 2
-7 -6 6 136.514 118.096 1
7 6 -6 125.742 110.092 4
7 6 -6 168.8 127.078 1
-7 -6 6 207.222 129.091 3
7 6 -5 11171 824.763 4
-7 -6 5 11268.2 763.497 3
7 6 -5 11617.7 854.098 1
-7 -6 5 11441.9 838.637 1
7 6 -4 2085.98 363.055 4
7 6 -4 2125.82 384.418 1
-7 -6 4 1417.04 224.18 3
-7 -6 4 2024.95 371.281 1
7 6 -3 1515.66 303.036 4
-7 -6 3 744.094 100.364 3
7 6 -3 1617.66 339.905 1
7 6 -2 6529.47 645.127 4
-7 -6 2 6952.24 651.745 3
7 6 -2 6487.96 683.671 1
7 6 -1 601.736 197.073 4
-7 -6 1 763.835 241.343 3
7 6 -1 563.259 205.651 1
7 6 0 58.5901 74.1752 4
7 6 0 106.649 107.073 1
-7 -6 0 -6.72974 51.184 3
7 6 1 216.287 137.463 4
7 6 1 150.319 110.494 1
-7 -6 -1 99.865 50.3322 3
7 6 2 1138.33 282.078 4
7 6 2 1003.17 306.664 1
-7 -6 -2 834.398 239.212 3
7 6 3 1587.44 356.533 4
-7 -6 -3 1421.55 329.258 3
7 7 -15 49.8458 56.504 2
-7 -7 14 203.617 121.071 1
7 7 -14 140.437 86.9089 2
-7 -7 13 78.0184 99.8019 1
7 7 -13 38.7034 74.6074 2
-7 -7 13 66.6508 71.7521 4
-7 -7 12 2068.27 358.704 1
7 7 -12 2158.49 442.833 4
-7 -7 12 1905.31 395.743 4
7 7 -12 2173.19 373.176 2
7 7 -11 584.355 225.148 4
-7 -7 11 571.437 183.091 1
-7 -7 11 550.452 169.644 2
-7 -7 11 542.108 208.426 4
-7 -7 10 15.6518 31.3983 1
7 7 -10 70.0776 48.0381 4
-7 -7 10 21.9529 11.0237 4
-7 -7 10 42.1351 11.752 2
7 7 -9 978.727 277.978 4
-7 -7 9 1675.51 341.328 1
-7 -7 9 836.83 231.055 4
7 7 -8 2312.15 419.63 4
-7 -7 8 3223.41 405.535 3
-7 -7 8 2454.62 401.454 1
-7 -7 7 2015.14 358.38 1
7 7 -7 2096.96 388.764 4
-7 -7 7 2902.14 401.783 3
7 7 -7 1716.13 306.141 1
7 7 -6 12620.9 921.006 4
-7 -7 6 12080.3 788.662 3
7 7 -6 12825.6 938.196 1
-7 -7 6 12531.6 903.376 1
-7 -7 5 336.491 154.622 1
7 7 -5 306.268 135.956 4
7 7 -4 14719.1 1000.61 4
7 7 -4 14935.3 1029.57 1
-7 -7 4 13078.3 840.49 3
-7 -7 4 14762.4 1021.92 1
7 7 -3 203.239 128.155 1
7 7 -3 210.749 123.213 4
-7 -7 3 185.855 103.061 3
-7 -7 3 130.082 72.3145 1
7 7 -2 1345.44 312.849 4
-7 -7 2 1027.12 261.766 3
7 7 -2 1387.67 334.848 1
7 7 -1 3194.72 491.155 4
-7 -7 1 2739.54 413.239 3
7 7 -1 3201.78 508.123 1
7 7 0 4353.05 585.932 4
-7 -7 0 3525.1 482.208 3
7 7 0 4102.79 592.956 1
7 7 1 -1.86119 55.7202 4
-7 -7 -1 -4.61569 24.1747 3
7 7 1 36.7563 82.101 1
7 7 2 658.014 240.133 4
7 7 3 9757.16 973.142 4
7 8 -12 1119.2 325.192 4
-7 -8 12 1034.79 267.457 1
-7 -8 12 1008.27 291.999 4
7 8 -11 231.871 124.486 4
-7 -8 11 273.26 135.45 1
-7 -8 11 286.26 122.824 4
7 8 -10 2253.2 443.007 4
-7 -8 10 1838.9 374.486 4
-7 -8 10 2025.03 364.572 1
7 8 -9 1612.46 369.53 4
-7 -8 9 1310.26 242.222 3
7 8 -8 233.569 150.182 4
-7 -8 8 147.276 74.2469 3
7 8 -7 791.257 235.119 1
-7 -8 7 866.757 244.506 1
7 8 -7 744.546 243.326 4
-7 -8 7 585.395 170.919 3
-7 -8 6 16.5806 28.9873 1
7 8 -6 40.9665 54.1515 4
-7 -8 6 -78.9452 63.5016 3
7 8 -6 -15.364 61.5838 1
-7 -8 5 1413.86 312.139 1
7 8 -5 1363.73 329.087 1
7 8 -5 1358.34 319.037 4
-7 -8 5 1188.54 255.523 3
-7 -8 4 56.6209 8.41137 1
7 8 -4 139.567 89.2003 4
-7 -8 4 98.2443 70.2859 3
7 8 -4 98.2932 82.0573 1
7 8 -3 2501.53 447.008 4
-7 -8 3 2141.84 363.934 3
7 8 -3 2453.18 442.301 1
-7 -8 3 2383.26 432.563 1
7 8 -2 1098.34 309.447 1
7 8 -2 1130.96 313.574 4
-7 -8 2 884.478 242.937 3
-7 -8 2 965.2 269.469 1
7 8 -1 611.362 235.99 1
7 8 -1 778.232 256.997 4
-7 -8 1 528.605 193.633 3
7 8 0 1260.61 333.714 4
-7 -8 0 1142.92 291.975 3
7 8 0 1159.23 331.616 1
7 8 1 1641.32 390.219 4
7 8 2 47.6614 104.589 4
7 9 -11 20.5677 61.1421 4
-7 -9 11 65.9556 63.2082 4
7 9 -10 10657 1013.42 4
-7 -9 10 9014.24 865.289 4
-7 -9 10 9948.37 859.632 1
7 9 -9 8008.74 860.476 4
-7 -9 9 9633.64 864.124 1
-7 -9 8 544.033 224.191 1
7 9 -8 522.79 243.961 4
-7 -9 8 294.91 133.183 3
-7 -9 7 738.797 245.884 1
7 9 -7 740.74 242.956 4
-7 -9 7 578.404 180.859 3
7 9 -7 782.623 252.008 1
-7 -9 6 26.7857 38.8929 1
7 9 -6 -119.538 200.308 1
7 9 -6 8.67122 30.6952 4
-7 -9 6 20.7471 42.379 3
-7 -9 5 124.025 94.9861 1
7 9 -5 5.98447 32.8362 4
7 9 -5 108.011 113.711 1
-7 -9 5 62.7017 60.7097 3
7 9 -4 2112.52 430.985 1
-7 -9 4 2081.16 413.788 1
7 9 -4 2261.26 438.485 4
-7 -9 4 2030.16 353.121 3
7 9 -3 5330.49 696.399 4
-7 -9 3 4763.55 562.711 3
7 9 -3 4861.61 676.397 1
-7 -9 3 4949.4 668.506 1
7 9 -2 266.171 179.708 4
-7 -9 2 156.331 115.208 3
7 9 -1 27.9597 48.8199 4
7 9 0 79.9501 78.3702 4
7 10 -9 10700.3 1046.13 4
7 10 -8 2373.55 485.76 4
-7 -10 8 2115.2 334.151 3
7 10 -7 -4.91676 77.3147 4
-7 -10 7 52.0394 80.8106 3
7 10 -6 213.818 131.968 4
-7 -10 6 183.922 118.22 3
7 10 -5 720.567 253.595 4
-7 -10 5 643.563 211.571 3
7 10 -4 -32.3746 74.138 4
-7 -10 4 13.8006 59.1126 3
7 10 -3 878.562 295.066 4
-7 -11 7 64.6045 94.5285 3
-7 -11 6 -12.6241 35.2294 3
8 -11 3 2214.38 467.219 3
-8 10 4 4049.3 617.246 2
-8 10 3 79.194 77.2094 2
-8 10 2 338.963 191.226 2
8 -10 -2 490.023 257.252 3
-8 10 1 150.076 108.673 2
8 -10 -1 93.666 66.3864 3
-8 10 0 614.848 230.1 2
8 -10 0 605.615 248.335 3
8 -10 1 3920 623.67 3
-8 10 -1 3879.1 594.158 2
-8 10 -2 87.4523 30.1034 2
8 -10 2 124.84 89.07 3
8 -10 3 1.9768 36.5701 3
8 -10 4 565.475 218.536 3
-8 9 6 -9.42622 34.3379 2
8 -9 -5 5726.45 785.026 3
-8 9 5 6973.9 822.515 2
-8 9 4 429.453 221.439 2
8 -9 -4 674.549 286.468 3
-8 9 3 385.391 189.535 2
8 -9 -3 774.256 304.921 3
-8 9 2 556.585 218.393 2
8 -9 -2 668.999 252.132 3
-8 9 1 2714.89 479.874 2
8 -9 -1 2678.56 480.743 3
-8 9 0 -72.6911 90.4626 2
8 -9 0 -49.917 91.7179 3
-8 9 -1 2716.39 485.585 2
8 -9 1 3010.07 515.633 3
8 -9 2 3311.65 537.044 3
-8 9 -2 3304.36 544.567 2
-8 9 -3 3945.1 595.182 2
8 -9 3 4463.91 624.269 3
-8 9 -4 1084.13 307.628 2
8 -9 4 1170.45 314.188 3
-8 8 8 -25.6575 54.5149 2
-8 8 7 971.864 314.884 2
8 -8 -7 1381.15 400.79 3
-8 8 6 500.144 220.692 2
8 -8 -6 850.437 317.503 3
-8 8 5 56.8375 60.8218 2
8 -8 -5 385.225 234.283 3
-8 8 4 1438.96 368.503 2
8 -8 -4 1825.26 419.812 3
-8 8 3 242.097 163.349 2
8 -8 -3 383.132 211.274 3
-8 8 2 2430.29 447.983 2
8 -8 -2 2453.84 448.956 3
-8 8 1 772.123 249.13 2
8 -8 -1 853.063 259.111 3
-8 8 0 1619 362.881 2
8 -8 0 1772.13 386.75 3
-8 8 -1 407.818 189.709 2
8 -8 1 506.7 195.695 3
8 -8 2 8199.19 824.942 3
-8 8 -2 7985.59 825.551 2
-8 8 -3 3228.94 522.58 2
8 -8 3 3551.47 543.286 3
8 -8 3 3658.81 492.134 1
-8 8 -4 -10.6705 92.3581 2
8 -8 4 39.9191 77.3819 1
8 -8 4 127.372 97.8553 3
-8 8 -5 3046.76 549.394 2
8 -8 5 3387.12 528.26 3
8 -8 5 3554.91 540.941 1
8 -8 6 1175.57 331.944 1
-8 7 10 57.1988 22.0297 4
-8 7 9 758.063 240.128 4
8 -7 -9 931.763 336.72 3
-8 7 9 609.687 237.391 2
-8 7 8 1033.53 270.04 4
8 -7 -8 1354.45 399.649 3
-8 7 8 898.545 297.904 2
-8 7 7 108.781 114.21 2
-8 7 7 -70.8617 128.865 4
8 -7 -7 106.243 128.328 3
-8 7 6 843.764 274.621 2
8 -7 -6 1275.02 362.838 3
-8 7 5 1167.02 318.315 2
8 -7 -5 1638.66 406.988 3
-8 7 4 1966.33 415.422 2
8 -7 -4 2093.05 415.569 3
-8 7 3 1972.44 392.482 2
8 -7 -3 2143.68 404.227 3
8 -7 -2 4791.37 616.664 3
-8 7 2 4525.47 598.456 2
-8 7 1 -60.1075 108.593 2
8 -7 -1 7.00677 34.5623 3
-8 7 0 155.878 105.91 2
8 -7 0 114.428 108.25 3
8 -7 1 5473.56 655.544 3
8 -7 1 5589.64 532.224 1
-8 7 -1 5185.48 633.94 2
8 -7 2 3122.88 493.124 3
8 -7 2 3037.41 426.343 1
-8 7 -2 2710.27 477.704 2
-8 7 -3 -11.9156 60.4438 2
8 -7 3 -6.19268 58.5803 1
8 -7 3 16.1394 27.4669 3
-8 7 -4 967.502 285.894 2
8 -7 4 978.262 261.71 1
8 -7 4 1040.44 294.862 3
-8 7 -5 -32.2317 104.416 2
8 -7 5 -37.5024 81.1662 1
8 -7 5 20.4761 53.5223 3
8 -7 6 1718.51 405.01 1
-8 6 11 1698.7 403.613 4
-8 6 10 140.362 111.483 4
-8 6 10 -76.7879 145.548 2
-8 6 9 447.016 181.411 4
-8 6 9 288.516 129.1 2
-8 6 8 -6.80434 69.3711 4
-8 6 8 -53.0126 129.339 2
-8 6 7 272.49 108.034 4
-8 6 7 208.938 110.481 2
-8 6 6 119.021 97.9651 2
-8 6 6 79.2104 21.2052 4
8 -6 -5 3162.7 494.995 3
-8 6 5 3083.89 497.781 2
-8 6 5 3047.21 357.293 4
-8 6 4 919.526 260.202 2
8 -6 -4 1041.86 281.977 3
8 -6 -3 4506.96 572.413 3
-8 6 3 4424.72 575.196 2
8 -6 -2 12068.3 946.028 3
-8 6 2 10687.2 871.323 2
-8 6 1 1057.07 282.926 2
8 -6 -1 1276.98 304.219 3
8 -6 -1 1117.71 204.94 1
-8 6 0 759.913 230.824 2
8 -6 0 976.083 211.883 1
8 -6 0 875.558 257.287 3
-8 6 -1 1130.05 287.535 2
8 -6 1 1390.69 264.164 1
8 -6 1 1200.32 304.343 3
8 -6 2 6406.71 702.115 3
8 -6 2 6334.17 610.017 1
-8 6 -2 5617.51 671.332 2
-8 6 -3 801.544 253.244 2
8 -6 3 849.961 235.876 1
8 -6 3 778.423 246.211 3
-8 6 -4 572.814 215.534 2
8 -6 4 751.347 241.985 1
8 -6 4 732.669 240.375 3
-8 6 -5 563.527 218.217 2
8 -6 5 629.431 227.039 1
8 -6 5 611.993 223.218 3
-8 6 -6 1480.49 363.194 2
8 -6 6 1533.98 378.155 1
8 -5 -12 5740.83 757.758 3
-8 5 11 221.359 168.712 4
8 -5 -11 369.787 231.473 3
-8 5 10 101.715 122.669 4
8 -5 -10 157.008 156.086 3
8 -5 -10 69.6564 84.6547 2
-8 5 10 25.4066 55.2899 2
-8 5 9 2453.85 412.841 4
8 -5 -9 2461.13 460.825 3
-8 5 9 2134.9 454.06 2
-8 5 8 106.191 103.022 4
8 -5 -8 136.252 150.927 3
-8 5 8 -80.8632 118.537 2
-8 5 7 249.938 105.681 4
8 -5 -7 366.054 202.174 3
-8 5 7 178.765 124.34 2
8 -5 -6 46866.3 1857.69 3
-8 5 6 46632 1922 2
-8 5 6 48597.1 1468.92 4
8 -5 -5 27170.4 1369.98 3
-8 5 5 27052.7 1440.99 2
-8 5 5 27507.4 1000.34 4
8 -5 -4 4309.67 564.983 3
-8 5 4 4062.27 550.601 2
-8 5 4 4204.89 344.42 4
8 -5 -3 4970.63 595.275 3
-8 5 3 4497.49 568.546 2
-8 5 2 1505.48 315.174 2
8 -5 -2 1734.26 235.556 1
8 -5 -2 1710.76 338.475 3
-8 5 1 394.194 172.934 2
8 -5 -1 371.071 160.246 3
8 -5 -1 347.838 110.483 1
-8 5 0 1192.39 284.249 2
8 -5 0 1181.61 286.067 3
8 -5 0 1284.95 247.862 1
-8 5 -1 236.069 127.265 2
8 -5 1 181.408 73.8102 1
8 -5 1 278.612 148.403 3
-8 5 -2 195.579 139.977 2
8 -5 2 58.721 52.8141 1
8 -5 2 129.061 90.8163 3
-8 5 -3 -35.0898 87.8971 2
8 -5 3 -65.8482 103.461 1
8 -5 3 53.2035 92.0561 3
-8 5 -4 2186.33 415.705 2
8 -5 4 2231.5 409.971 1
8 -5 4 2040.4 398.936 3
-8 5 -5 550.038 218.871 2
8 -5 5 554.028 208.44 1
8 -5 5 541.232 197.428 3
-8 5 -6 1977.12 408.721 2
8 -5 6 1947.05 417.136 1
-8 4 12 2282.07 466.389 4
8 -4 -12 2202.51 428.164 3
-8 4 11 1228.48 334.208 4
8 -4 -11 1310.03 335.803 3
8 -4 -11 1164.75 370.144 2
-8 4 11 920.775 325.107 2
-8 4 10 179.839 141.076 4
8 -4 -10 131.868 112.075 3
8 -4 -10 107.931 109.802 2
-8 4 10 64.9041 113.594 2
-8 4 9 73.7127 93.6075 4
8 -4 -9 86.2511 81.5876 3
8 -4 -9 62.0668 67.023 2
-8 4 9 27.2786 69.7227 2
8 -4 -8 2271 405.673 3
-8 4 8 2340.87 362.23 4
-8 4 8 2049.21 409.725 2
8 -4 -7 3504.36 500.193 3
-8 4 7 3592.52 543.255 2
-8 4 7 3642.69 416.236 4
8 -4 -6 8444.54 760.479 3
-8 4 6 8085.07 777.15 2
-8 4 6 8131.25 567.711 4
-8 4 5 227.06 140.228 2
-8 4 5 117.006 41.571 4
8 -4 -5 206.668 122.329 3
-8 4 4 108.479 82.7548 2
-8 4 4 93.9642 44.7846 4
8 -4 -4 5.76729 53.827 3
-8 4 3 972.804 255.152 2
8 -4 -3 1078.48 258.049 3
8 -4 -3 1128.23 180.655 1
8 -4 -2 9589.27 590.94 1
8 -4 -2 9642.01 798.905 3
-8 4 2 7866.86 705.628 2
8 -4 -1 2611.8 332.71 1
8 -4 -1 2576.07 408.971 3
-8 4 1 2474.9 407.049 2
8 -4 0 22781.1 1069.54 1
8 -4 0 21798.6 1229.29 3
-8 4 0 21489.9 1203.28 2
-8 4 -1 642.748 198.428 2
8 -4 1 597.935 225.796 3
8 -4 1 692.062 194.675 1
-8 4 -2 17.0811 47.4714 2
8 -4 2 -23.0959 89.3049 1
8 -4 2 83.0519 96.7085 3
-8 4 -3 1383.87 319.991 2
8 -4 3 1643.27 323.074 1
8 -4 3 1396.07 318.769 3
-8 4 -4 2325.03 423.444 2
8 -4 4 2147.1 408.853 3
8 -4 4 2383.59 427.61 1
-8 4 -5 3413.84 516.413 2
8 -4 5 3756.02 568.315 1
-8 4 -6 2236.76 433.622 2
-8 4 -6 2290.56 412.524 3
8 -4 6 2415.92 476.509 1
-8 3 13 -169.816 293.071 4
-8 3 12 -96.1443 204.157 4
8 -3 -12 61.0271 77.6535 3
8 -3 -12 69.5202 112.064 2
-8 3 12 34.4006 75.1949 2
-8 3 11 1136.65 290.701 4
8 -3 -11 1033.55 281.801 3
8 -3 -11 1144.88 348.496 2
-8 3 11 987.475 306.831 2
8 -3 -10 4306.42 559.138 3
8 -3 -10 4450.61 657.325 2
-8 3 10 4304.74 632.936 2
-8 3 10 4014.06 495.017 4
-8 3 9 923.864 201.688 4
8 -3 -9 1411.33 322.47 3
8 -3 -9 1488.41 367.59 2
-8 3 9 1403.45 344.495 2
-8 3 8 782.075 179.969 4
8 -3 -8 1432.01 312.208 3
8 -3 -8 1136.63 304.84 2
-8 3 8 1177.04 300.447 2
8 -3 -7 3959.77 520.026 3
-8 3 7 3869.12 532.196 2
-8 3 7 4066.49 420.419 4
8 -3 -6 7301.38 701.068 3
-8 3 6 7236.2 718.068 2
-8 3 6 7488.58 520.339 4
-8 3 5 520.929 93.3932 1
-8 3 5 466.743 186.708 2
-8 3 5 578.137 133.591 4
8 -3 -5 514.868 102.119 1
8 -3 -5 515.251 178.682 3
-8 3 4 410.407 158.071 2
-8 3 4 494.729 99.3472 4
8 -3 -4 460.889 114.216 1
8 -3 -4 405.926 153.1 3
8 -3 -3 14638.4 711.845 1
-8 3 3 13992.6 673.416 1
8 -3 -3 14341.3 960.265 3
-8 3 3 13493.2 930.766 2
8 -3 -2 4862.02 442.661 1
8 -3 -2 5277.02 584.942 3
-8 3 2 4526.21 516.027 2
8 -3 -1 3622.65 406.772 1
8 -3 -1 3729.05 495.041 3
-8 3 1 3364.84 467.338 2
8 -3 0 4968.91 512.064 1
8 -3 0 4797.28 556.526 3
-8 3 0 4713.52 553.266 2
-8 3 -1 1009.01 252.06 2
8 -3 1 943.724 274.636 3
8 -3 1 1110.93 249.955 1
-8 3 -2 1061.57 262.232 2
8 -3 2 932.425 271.355 3
8 -3 2 1169.56 272.087 1
-8 3 -3 3042.11 454.171 2
8 -3 3 3293.33 484.813 1
8 -3 3 2840.92 455.983 3
8 -3 4 3448.98 526.253 1
-8 3 -4 3050.22 470.45 2
-8 3 -5 569.629 225.597 2
-8 3 -5 509.969 185.857 3
8 -3 5 639.273 246.791 1
8 -3 6 6700.35 807.542 1
-8 3 -6 6329.42 707.895 2
-8 3 -6 6690.23 714.152 3
-8 3 -7 920.679 275.041 2
-8 2 13 2117.07 434.463 4
-8 2 12 29.9984 51.6626 4
8 -2 -12 -43.4506 87.0822 3
8 -2 -12 -36.6075 96.4908 2
-8 2 12 44.7834 44.8633 2
-8 2 11 918.155 261.511 4
8 -2 -11 752.862 228.008 3
8 -2 -11 1035.23 341.741 2
-8 2 11 852.623 284.952 2
-8 2 10 350.189 152.891 4
8 -2 -10 359.842 163.047 3
8 -2 -10 361.104 195.416 2
-8 2 10 334.927 171.31 2
8 -2 -9 265.503 133.4 3
8 -2 -9 233.026 142.258 2
-8 2 9 232.189 127.007 2
-8 2 9 247.264 115.904 4
8 -2 -8 418.074 164.368 3
8 -2 -8 407.261 178.191 2
-8 2 8 417.684 174.995 2
-8 2 8 418.079 145.693 4
8 -2 -7 1544.97 316.926 3
-8 2 7 1592.02 262.648 4
-8 2 7 1470.95 147.783 1
-8 2 7 1461.91 320.857 2
8 -2 -6 4813.68 554.176 3
-8 2 6 4618.71 548.686 2
8 -2 -6 4970.97 321.955 1
-8 2 6 4998.96 313.585 1
-8 2 6 5044.63 421.545 4
8 -2 -5 7213.17 450.561 1
8 -2 -5 7061.68 665.222 3
-8 2 5 6833.39 660.338 2
-8 2 5 7245.63 445.857 4
-8 2 4 270.227 55.3394 4
-8 2 4 189.578 91.379 2
-8 2 4 467.586 171.63 1
8 -2 -4 254.624 90.7337 1
8 -2 -4 354.679 144.101 3
8 -2 -3 21032 904.93 1
8 -2 -3 22030.4 1178.09 3
-8 2 3 20380.9 1113.42 2
8 -2 -2 16715.9 866.754 1
8 -2 -2 16658.7 1035.34 3
-8 2 2 14654.1 913.252 2
8 -2 -1 5043.98 493.622 1
8 -2 -1 4820.61 546.944 3
-8 2 1 4454.56 524.287 2
8 -2 0 7053.87 619.921 1
8 -2 0 6873.7 662.244 3
-8 2 0 6619.72 639.928 2
-8 2 -1 1509.23 305.93 2
8 -2 1 1408.35 324.963 3
8 -2 1 1499.64 299.625 1
-8 2 -2 -31.1264 78.24 2
8 -2 2 5.51347 38.5328 3
8 -2 2 3.56544 22.6075 1
-8 2 -3 -13.0343 72.294 2
8 -2 3 -26.4724 53.7754 1
8 -2 4 2650.54 472.494 1
-8 2 -4 2337.32 403.878 2
-8 2 -5 148.264 111.338 2
-8 2 -5 47.7615 27.6806 3
8 -2 5 186.036 148.083 1
8 -2 6 7670.49 884.672 1
-8 2 -6 7242.78 747.358 2
-8 2 -6 7672.48 736.695 3
-8 2 -7 1050.31 306.939 2
8 -1 -13 181.513 137.47 2
-8 1 13 161.298 83.2903 2
-8 1 13 247.035 139.35 4
8 -1 -12 -34.5453 90.2353 3
8 -1 -12 30.0829 72.2448 2
-8 1 12 -52.1329 105.076 2
-8 1 12 -50.6965 87.7951 4
8 -1 -11 6096.83 641.714 3
8 -1 -11 6827.15 797.097 2
-8 1 11 6455.79 746.125 2
-8 1 11 6868.63 703.414 4
8 -1 -10 1464.29 307.772 3
8 -1 -10 1604.85 381.506 2
-8 1 10 1527.54 354.399 2
-8 1 10 1437.2 299.189 4
8 -1 -9 1675.08 336.231 3
8 -1 -9 1874.86 386.191 2
-8 1 9 1758.64 367.181 2
-8 1 9 1743.87 306.498 4
-8 1 8 467.024 93.4865 1
8 -1 -8 452.133 184.205 3
8 -1 -8 450.269 187.129 2
-8 1 8 482.857 187.912 2
-8 1 8 518.378 158.908 4
8 -1 -7 1598.92 319.431 3
-8 1 7 1363.57 172.29 1
-8 1 7 1478.59 313.785 2
-8 1 7 1535.74 252.827 4
8 -1 -6 8360.43 716.698 3
8 -1 -6 8629.57 505.255 1
-8 1 6 8263.07 469.821 1
-8 1 6 8010.21 705.164 2
-8 1 6 8548.86 545.968 4
-8 1 6 7907.91 521.753 1
8 -1 -5 5997.88 455.421 1
-8 1 5 5241.08 393.787 4
8 -1 -5 5649.01 593.956 3
-8 1 5 5455.91 575.659 2
-8 1 5 5948.84 407.695 4
-8 1 4 168.371 104.372 2
-8 1 4 155.72 61.0156 4
8 -1 -4 151.681 78.2054 1
8 -1 -4 107.704 85.6338 3
-8 1 4 174.455 61.838 4
8 -1 -3 27272.9 1287.45 3
8 -1 -3 27844.5 1094.84 1
-8 1 3 26318.9 1226.59 2
-8 1 3 24082.3 568.931 4
-8 1 2 318.639 111.299 2
8 -1 -2 413.776 132.643 1
8 -1 -2 320.696 127.894 3
8 -1 -1 11383.5 772.597 1
8 -1 -1 10846.3 823.749 3
-8 1 1 10641.7 787.264 2
-8 1 0 1410.43 285.178 2
8 -1 0 1629.48 306.521 1
8 -1 0 1506.2 317.334 3
-8 1 -1 3329.94 442.42 2
8 -1 1 3226.36 454.246 1
8 -1 1 3189.65 469.228 3
8 -1 2 2185.32 386.759 1
-8 1 -2 1914.15 343.642 2
-8 1 -3 1180.4 272.245 2
-8 1 -3 1166.18 288.601 3
8 -1 3 1285.01 308.159 1
-8 1 -4 198.07 124.968 2
-8 1 -4 123.464 81.0505 3
8 -1 4 85.546 65.2943 1
-8 1 -5 12.6805 59.9246 2
-8 1 -5 4.7413 40.4998 3
8 -1 5 -8.7854 16.4293 1
-8 1 -6 2967.76 468.782 2
-8 1 -6 3388.53 485.716 3
-8 1 -7 -540.715 301.084 2
-8 0 14 269.186 159.582 4
8 0 -13 591.582 244.045 2
-8 0 13 556.295 222.135 2
-8 0 13 552.814 207.867 4
8 0 -12 -24.7351 83.4139 2
8 0 -12 -26.547 74.3352 3
-8 0 12 -14.3987 100.15 2
-8 0 12 -64.6938 104.618 4
8 0 -11 2984.14 443.18 3
8 0 -11 3405.65 541.532 2
-8 0 11 2894.69 485.374 2
-8 0 11 3038.37 457.344 4
8 0 -10 1748.83 332.463 3
8 0 -10 2092.22 417.824 2
-8 0 10 1718.59 364.41 2
-8 0 10 1807.87 332.338 4
-8 0 9 726.641 136.405 1
8 0 -9 601.576 185.699 3
8 0 -9 737.02 240.476 2
-8 0 9 732.237 235.517 2
-8 0 9 788.519 206.25 4
8 0 -8 699.949 206.028 3
8 0 -8 741.728 235.234 2
-8 0 8 1093.78 180.282 1
-8 0 8 739.777 219.569 2
-8 0 8 726.993 188.21 4
8 0 -7 2984.71 306.761 1
8 0 -7 3058.26 434.745 3
-8 0 7 2790.02 418.08 2
-8 0 7 2919.98 293.79 1
-8 0 7 3231.19 376.081 4
8 0 -6 4515.64 394.825 1
8 0 -6 4480.57 529.049 3
-8 0 6 4200.76 373.678 1
-8 0 6 4070.38 489.891 2
-8 0 6 4323.27 398.671 4
8 0 -5 2207.48 297.812 1
-8 0 5 1972.9 249.473 4
8 0 -5 2048.84 353.966 3
-8 0 5 2100.13 342.8 2
-8 0 5 2291.06 262.695 4
-8 0 4 27163.4 858.591 4
8 0 -4 26798.6 1260.51 3
8 0 -4 28466.5 1104.19 1
-8 0 4 29718.8 873.471 4
-8 0 4 27361.9 1229.72 2
-8 0 3 94.649 93.5328 2
-8 0 3 52.2542 35.7214 4
8 0 -3 111.75 84.4606 1
8 0 -3 83.2482 88.4927 3
-8 0 3 60.9057 45.9472 4
8 0 -2 33698.4 1322.29 1
8 0 -2 33812.1 1449.51 3
-8 0 2 30571.3 690.694 4
-8 0 2 32391.7 1305.31 2
8 0 -1 2156.4 164.738 4
8 0 -1 3268.01 437.685 1
8 0 -1 3232.75 457.707 3
-8 0 1 2493.99 178.655 4
-8 0 1 3149.16 413.633 2
8 0 0 42119.5 1591 1
-8 0 0 41131 1482 2
-8 0 -1 2709.54 386.19 2
8 0 1 3002.56 438.782 1
8 0 2 507.087 192.967 1
-8 0 -2 433.466 157.052 2
-8 0 -2 397.068 159.494 3
-8 0 -3 3891.41 480.409 2
8 0 3 4019.26 569.205 1
-8 0 -3 4136.73 546.694 3
-8 0 -4 3060.42 443.629 2
8 0 4 3184.02 533.365 1
-8 0 -4 3287.62 474.562 3
8 0 5 10.5889 54.8906 1
-8 0 -5 -54.6914 83.6442 2
-8 0 -5 20.8184 43.9581 3
-8 0 -6 898.324 259.558 2
-8 0 -7 2987.37 471.552 3
-8 0 -7 -194.374 280.258 2
8 1 -14 559.453 257.873 2
-8 -1 14 449.714 206.522 2
-8 -1 14 568.932 223.312 4
8 1 -13 63.4678 87.3301 2
-8 -1 13 12.9957 34.9707 2
-8 -1 13 90.2615 70.9838 4
8 1 -12 50.3204 47.6984 2
-8 -1 12 64.0084 43.7434 2
-8 -1 12 145.586 97.7245 4
-8 -1 11 31.5368 36.1408 1
8 1 -11 -53.1551 108.821 2
8 1 -11 6.35244 23.8385 3
-8 -1 11 -79.7724 118.299 2
-8 -1 11 8.99874 15.6948 4
-8 -1 10 49.7206 47.253 1
8 1 -10 12.9929 34.6669 2
8 1 -10 25.1578 21.5151 3
-8 -1 10 28.8179 13.0157 2
-8 -1 10 89.9934 76.9974 4
8 1 -9 9436.96 759.317 3
8 1 -9 8798.38 798.688 2
-8 -1 9 8969.73 777.205 2
-8 -1 9 9549.05 721.913 4
-8 -1 9 9370.48 543.059 1
8 1 -8 8925.19 731.59 3
8 1 -8 9749.3 795.688 2
-8 -1 8 9153.3 758.101 2
-8 -1 8 9648.42 685.668 4
-8 -1 8 9868.73 577.95 1
-8 -1 7 1039.94 192.756 1
8 1 -7 997.573 244.443 3
8 1 -7 1089.28 206.664 1
-8 -1 7 1010.93 207.682 4
-8 -1 7 993.362 243.791 2
8 1 -6 11747.7 700.972 1
8 1 -6 10593.3 786.458 3
-8 -1 6 10783.6 647.86 1
-8 -1 6 10511.6 761.886 2
-8 -1 6 11021.2 640.449 4
8 1 -5 2900.45 363.012 1
8 1 -5 2500.02 279.64 4
8 1 -5 2616.41 396.002 3
-8 -1 5 2612.39 373.394 2
-8 -1 5 2855.28 306.045 4
-8 -1 4 657.897 195.906 2
-8 -1 4 537.803 133.912 4
8 1 -4 609.889 143.011 4
8 1 -4 557.882 171.77 1
8 1 -4 600.249 205.629 3
-8 -1 4 631.989 144.531 4
-8 -1 3 1643.87 211.891 4
8 1 -3 1648.92 211.199 4
8 1 -3 1673.5 289.051 1
8 1 -3 1809.01 332.768 3
-8 -1 3 1705.98 213.783 4
-8 -1 3 1744.19 291.767 2
8 1 -2 2259.32 230.184 4
8 1 -2 2384.19 364.617 1
8 1 -2 2438.01 397.41 3
-8 -1 2 2216 228.804 4
-8 -1 2 2256.35 331.703 2
8 1 -1 17617.8 637.852 4
8 1 -1 18339.2 1052.2 1
-8 -1 1 17792 935.596 2
-8 -1 0 6866.55 587.815 2
8 1 0 6715.77 401.616 4
8 1 0 7394.55 703.265 1
-8 -1 -1 724.428 186.364 2
8 1 1 833.208 242.591 1
-8 -1 -1 801.193 238.092 3
-8 -1 -2 -2.58281 20.0801 2
8 1 2 -8.24112 40.9349 1
-8 -1 -2 -22.0366 55.7471 3
8 1 3 1697.95 365.94 1
-8 -1 -3 1737.54 318.448 2
-8 -1 -3 1800.89 355.021 3
-8 -1 -4 4334.8 511.976 2
8 1 4 4360.55 615.638 1
-8 -1 -4 4455.76 557.209 3
8 1 5 1199.72 344.825 1
-8 -1 -5 1265.53 287.261 2
-8 -1 -6 2643.33 491.652 3
-8 -1 -6 -910.651 312.969 2
-8 -2 14 901.279 281.715 2
-8 -2 14 1155.36 326.793 4
8 2 -13 819.428 280.165 2
-8 -2 13 721.76 249.745 2
-8 -2 13 824.756 254.63 4
-8 -2 12 -4.9118 18.975 1
8 2 -12 -55.4048 113.364 2
-8 -2 12 -61.3396 89.2225 2
-8 -2 12 5.10856 21.5612 4
-8 -2 11 271.811 102.834 1
8 2 -11 188.045 105.337 2
8 2 -11 264.786 125.693 3
-8 -2 11 165.223 94.7141 2
-8 -2 11 185.641 106.307 4
-8 -2 10 110.076 58.7929 1
8 2 -10 118.739 90.7358 2
8 2 -10 162.64 109.235 3
-8 -2 10 97.3328 64.3639 2
-8 -2 10 134.712 89.7798 4
8 2 -9 1341.25 313.69 2
8 2 -9 1262.42 271.383 3
-8 -2 9 1300.06 291.812 2
-8 -2 9 1521.62 254.182 1
-8 -2 9 1316.15 269.478 4
8 2 -8 3961.29 482.276 3
8 2 -8 4333.67 516.994 2
-8 -2 8 4033.96 486.388 2
-8 -2 8 3997.17 440.945 4
-8 -2 8 4089.15 405.159 1
-8 -2 7 121.084 73.49 1
8 2 -7 -80.1338 141 4
8 2 -7 111.663 67.745 1
8 2 -7 76.8768 62.2888 3
-8 -2 7 114.191 68.3876 4
-8 -2 7 106.479 76.3182 2
8 2 -6 5869.21 502.473 4
8 2 -6 6032.02 533.702 1
8 2 -6 5919.46 592.14 3
-8 -2 6 5672.69 503.48 1
-8 -2 6 5521.52 532.609 2
-8 -2 6 5798.42 488.643 4
8 2 -5 5830.4 544.387 1
8 2 -5 5646.69 475.519 4
8 2 -5 5681.8 596.348 3
-8 -2 5 5589.3 460.997 4
-8 -2 5 5396.13 522.389 2
8 2 -4 7344.64 515.253 4
8 2 -4 7889.84 717.953 3
-8 -2 4 6810.11 486.319 4
8 2 -4 7488.94 635.634 1
-8 -2 4 7662.51 625.802 2
8 2 -3 6137.29 447.852 4
8 2 -3 6433.16 595.942 1
-8 -2 3 6238.53 530.515 2
8 2 -2 13231.4 654.795 4
8 2 -2 13453.4 897.029 1
-8 -2 2 13589.8 794.976 2
8 2 -1 1586.93 225.776 4
-8 -2 1 1642.23 330.208 3
8 2 -1 1731.51 329.778 1
-8 -2 1 1720.11 285.401 2
8 2 0 32.0751 30.7524 4
-8 -2 0 41.4161 43.0983 2
-8 -2 0 54.4978 75.8336 3
8 2 0 3.90651 45.4759 1
-8 -2 -1 25.7678 48.7312 2
-8 -2 -1 39.1774 61.6276 3
8 2 1 79.8327 108.057 1
-8 -2 -2 725.377 188.968 2
8 2 2 789.388 243.636 1
-8 -2 -2 717.542 236.056 3
-8 -2 -3 1416.85 274.774 2
8 2 3 1603.84 366.557 1
-8 -2 -3 1457.92 329.502 3
-8 -2 -4 4418.58 497.176 2
8 2 4 4451.57 644.54 1
-8 -2 -4 3036.47 383.738 3
-8 -2 -5 4691.27 622.141 3
-8 -2 -6 113.858 91.208 3
-8 -3 14 325.211 188.596 2
-8 -3 14 315.565 170.743 4
-8 -3 13 546.909 154.229 1
-8 -3 13 590.011 215.1 2
-8 -3 13 505.064 184.12 4
-8 -3 12 3135.07 366.67 1
8 3 -12 3299.86 518.845 2
-8 -3 12 2820.56 453.047 2
-8 -3 12 3050.42 474.653 4
-8 -3 11 66.278 54.5067 1
8 3 -11 -17.6309 81.196 2
8 3 -11 40.6545 44.8381 3
-8 -3 11 37.2546 57.9361 2
-8 -3 11 61.6469 51.8064 4
-8 -3 10 80.9757 42.8385 1
8 3 -10 57.9252 47.3368 2
8 3 -10 138.447 88.4203 3
-8 -3 10 79.6323 49.9568 2
-8 -3 10 61.2753 35.9746 4
8 3 -9 3874.37 462.789 3
8 3 -9 3953.64 506.164 2
-8 -3 9 3825.51 480.846 2
-8 -3 9 3440.46 423.629 4
-8 -3 9 4082.19 424.335 1
-8 -3 8 140.065 84.4317 1
8 3 -8 126.808 82.5146 4
8 3 -8 67.6187 12.1567 3
8 3 -8 110.566 62.1686 2
-8 -3 8 163.753 98.2795 4
-8 -3 8 139.524 89.2237 2
8 3 -7 7691.08 633.678 4
8 3 -7 7876.34 628.17 1
-8 -3 7 7220.07 610.314 2
-8 -3 7 7081.18 571.501 1
-8 -3 7 7316.4 593.975 4
8 3 -6 2043.72 317.724 4
8 3 -6 2013.69 324.277 1
-8 -3 6 1889.15 304.178 1
-8 -3 6 1955.43 291.889 4
-8 -3 6 1913.42 309.177 2
-8 -3 5 90.8802 86.9797 2
8 3 -5 58.1909 80.1459 1
8 3 -5 11.8579 42.8697 4
-8 -3 5 22.7114 46.7972 4
8 3 -4 8580.5 592.98 4
-8 -3 4 7995.62 572.163 2
8 3 -4 8405.49 688.841 1
-8 -3 3 1440.75 250.192 2
8 3 -3 1289.94 227.142 4
8 3 -3 1266.9 285.845 1
-8 -3 3 1372.99 305.68 3
8 3 -2 8497.1 588.969 4
-8 -3 2 8854.09 771.554 3
8 3 -2 8662.41 747.994 1
-8 -3 2 8863.1 607.474 2
8 3 -1 507.417 194.933 1
8 3 -1 482.817 122.834 4
-8 -3 1 514.485 142.082 2
-8 -3 1 508.732 183.107 3
8 3 0 230.122 105.495 4
-8 -3 0 196.505 79.2329 2
-8 -3 0 311.664 151.744 3
8 3 0 179.42 98.4078 1
-8 -3 -1 209.303 105.101 2
-8 -3 -1 212.918 136.839 3
8 3 1 126.473 94.5942 1
-8 -3 -2 590.38 168.767 2
-8 -3 -2 665.521 233.344 3
8 3 2 654.024 245.408 1
8 3 3 45.5125 72.4504 1
-8 -3 -4 4794.47 603.149 3
-8 -3 -5 3546.27 508.966 3
-8 -4 14 392.555 212.437 2
-8 -4 14 357.128 196.395 4
-8 -4 13 -51.6644 104.618 1
-8 -4 13 96.6836 95.5776 2
-8 -4 13 152.666 127.91 4
-8 -4 12 4087.05 441.9 1
8 4 -12 4496.33 596.194 2
-8 -4 12 3729.39 514.329 2
-8 -4 12 4094.27 552.131 4
8 4 -11 1199.85 299.378 2
-8 -4 11 1096.94 271.646 2
-8 -4 11 1247.86 292.576 4
-8 -4 11 1250.67 241.095 1
-8 -4 10 -36.4933 63.8544 1
8 4 -10 11.5303 43.2694 2
-8 -4 10 -7.25168 25.455 2
-8 -4 10 -23.3636 56.3373 4
8 4 -9 10161.1 800.296 4
8 4 -9 10331 777.015 2
-8 -4 9 9708.62 736.567 2
-8 -4 9 9084.53 727.917 4
-8 -4 9 9823.25 687.973 1
-8 -4 8 686.229 203.048 1
8 4 -8 578.649 150.354 1
8 4 -8 714.814 223.685 4
8 4 -8 694.472 228.188 2
-8 -4 8 658.42 207.686 4
-8 -4 8 664.896 200.655 2
8 4 -7 2228.72 354.625 4
8 4 -7 2137.24 344.87 1
-8 -4 7 2080.79 312.224 2
-8 -4 7 2042.17 316.924 4
-8 -4 7 1906.43 316.923 1
-8 -4 6 563.994 166.835 1
-8 -4 6 600.524 161.252 2
8 4 -6 664.449 184.144 4
-8 -4 6 559.04 176.129 3
8 4 -6 592.971 180.795 1
-8 -4 6 582.696 165.124 4
-8 -4 5 153.612 110.695 2
8 4 -5 90.0784 108.651 1
8 4 -5 139.761 125.44 4
-8 -4 5 149.515 114.468 3
-8 -4 5 43.2175 56.3634 1
-8 -4 4 1025.63 197.287 2
8 4 -4 1065.92 228.988 4
-8 -4 4 978.682 253.54 3
8 4 -4 1138.06 273.243 1
8 4 -3 10059.9 692.916 4
-8 -4 3 9283.09 762.251 3
8 4 -3 10199.2 808.31 1
-8 -4 3 9822.99 593.666 2
-8 -4 2 6826.28 495.258 2
8 4 -2 7094.16 586.363 4
-8 -4 2 6818.59 653.487 3
8 4 -2 6997.14 697.474 1
8 4 -1 282.378 131.41 4
-8 -4 1 205.134 70.5922 2
8 4 -1 263.735 134.124 1
-8 -4 1 243.219 133.416 3
8 4 0 2356.18 353.639 4
8 4 0 2384.5 428.343 1
-8 -4 0 2247.2 394.79 3
8 4 1 71.8758 43.4724 1
8 4 1 121.191 78.9635 4
-8 -4 -2 3957.12 563.861 3
8 4 2 3224.28 533.031 1
-8 -4 -3 1096.83 279.559 3
8 4 3 1207.58 347.69 1
-8 -5 14 934.815 230.476 1
-8 -5 14 869.517 271.514 2
-8 -5 14 811.092 270.765 4
-8 -5 13 1698.58 309.928 1
8 5 -13 1068.43 217.504 2
-8 -5 13 1440.75 321.507 2
-8 -5 13 1527.43 348.736 4
-8 -5 12 316.116 131.97 1
8 5 -12 173.594 67.1842 2
-8 -5 12 178.025 74.7952 2
-8 -5 12 256.749 86.7345 4
8 5 -11 4667.18 585.488 4
8 5 -11 4716.16 570.179 2
-8 -5 11 4236.24 517.041 2
-8 -5 11 4241.34 547.17 4
-8 -5 11 4528.45 490.502 1
8 5 -10 1113.53 303.457 4
-8 -5 10 900.929 228.037 3
8 5 -10 1042.4 269.881 2
-8 -5 10 1047.06 279.658 4
-8 -5 10 886.924 235.722 2
-8 -5 10 1449.09 295.803 1
8 5 -9 2988.07 486.196 4
-8 -5 9 2792.48 396.465 3
8 5 -9 3082.98 446.357 2
-8 -5 9 2902.78 414.75 2
-8 -5 9 2765.44 436.372 4
-8 -5 9 3057.77 423.868 1
8 5 -8 440.325 208.37 1
-8 -5 8 471.732 205.78 1
8 5 -8 315.331 188.823 4
-8 -5 8 420.321 184.696 3
-8 -5 8 324.212 182.224 4
-8 -5 8 475.518 214.256 2
8 5 -7 6187.42 609.566 4
-8 -5 7 5855.03 575.693 3
8 5 -7 6277.64 625.328 1
-8 -5 7 5409.77 538.472 4
-8 -5 7 6217.42 527.624 2
-8 -5 7 5969.95 585.048 1
-8 -5 6 76.614 50.0323 1
-8 -5 6 105.297 69.2132 2
8 5 -6 118.212 94.7342 4
-8 -5 6 43.9199 25.5014 3
8 5 -5 1666.38 304.387 4
8 5 -5 1694.78 333.054 1
-8 -5 5 1475.72 309.054 3
-8 -5 5 1629.94 235.909 2
-8 -5 5 1677.64 316.864 1
8 5 -4 446.018 168.956 1
-8 -5 4 439.653 112.064 2
8 5 -4 489.693 158.634 4
-8 -5 4 492.419 181.677 3
8 5 -3 2545.37 370.972 4
-8 -5 3 2394.02 391.193 3
8 5 -3 2511.21 427.038 1
8 5 -2 10321.1 770.191 4
-8 -5 2 9980.94 814.1 3
8 5 -2 10575.5 886.289 1
8 5 -1 1136.51 267.26 4
8 5 -1 1046.33 293.33 1
8 5 0 2487.16 394.605 4
8 5 0 2248.77 435.759 1
-8 -5 0 1876.6 328.531 3
8 5 1 2630.27 422.407 4
8 5 1 2442.7 464.931 1
-8 -5 -1 3758.02 540.659 3
8 5 2 1382.53 365.695 1
-8 -5 -2 1219.71 295.63 3
8 6 -15 -724.988 422.429 2
-8 -6 14 108.882 94.8856 1
-8 -6 14 6.32744 12.5463 2
-8 -6 13 491.342 177.331 1
8 6 -13 417.82 191.749 2
-8 -6 13 375.941 154.389 2
-8 -6 13 289.184 164.548 4
-8 -6 12 2385.84 373.571 1
8 6 -12 2338.06 418.354 4
8 6 -12 2626.9 433.558 2
-8 -6 12 2268.41 378.806 2
-8 -6 12 2286.44 425.275 4
8 6 -11 1405.42 348.944 4
8 6 -11 1323.14 296.56 2
-8 -6 11 1132.57 257.803 2
-8 -6 11 1307.05 318.059 4
-8 -6 11 1774.81 353.086 1
-8 -6 10 48.2937 124.803 1
8 6 -10 58.8274 73.1704 4
-8 -6 10 31.187 23.899 3
8 6 -10 42.0071 64.8656 2
-8 -6 10 -20.5786 78.2788 4
-8 -6 10 50.9685 76.4892 2
-8 -6 9 830.263 235.295 1
8 6 -9 818.295 247.457 4
-8 -6 9 736.927 186.015 3
-8 -6 9 589.021 181 4
-8 -6 9 747.967 191.075 2
8 6 -8 2140.18 355.236 1
8 6 -8 2325.83 396.066 4
-8 -6 8 2182.7 335.946 3
-8 -6 8 2545.17 396.529 1
-8 -6 8 2000.06 340.713 4
8 6 -7 3086.58 453.704 4
-8 -6 7 2958.2 402.007 3
8 6 -7 3192.52 467.308 1
-8 -6 7 3085.06 442.028 1
8 6 -6 2819.12 434.321 4
-8 -6 6 2913.14 409.33 3
8 6 -6 2813.51 425.585 1
-8 -6 6 2739.5 429.995 1
8 6 -5 6856.34 656.632 4
-8 -6 5 6896.82 648.485 3
8 6 -5 6909.57 715.175 1
-8 -6 5 6799.5 696.584 1
8 6 -4 512.861 207.006 1
8 6 -4 554.278 190.867 4
-8 -6 4 67.0437 183.421 3
-8 -6 4 435.421 175.323 1
8 6 -3 144.103 69.3722 4
8 6 -3 254.251 151.988 1
8 6 -2 539.153 189.13 4
-8 -6 2 442.522 219.484 3
8 6 -2 455.48 205.703 1
8 6 -1 3635.1 504.84 4
-8 -6 1 4054.8 548.465 3
8 6 -1 3418.65 537.387 1
8 6 0 973.945 267.003 4
8 6 0 920.728 289.102 1
-8 -6 0 688.212 219.892 3
8 6 1 1579.66 338.541 4
-8 -6 -1 1293 305.847 3
-8 -7 13 161.846 112.679 1
-8 -7 13 53.6956 22.0608 4
8 7 -12 189.084 148.977 4
-8 -7 12 92.3064 77.2511 1
-8 -7 12 172.504 130.801 4
8 7 -11 212.544 134.71 4
-8 -7 11 195.049 109.275 1
-8 -7 11 275.41 135.814 4
8 7 -10 2213.3 435.898 4
-8 -7 10 2015.02 378.139 4
-8 -7 10 2332.64 408.555 1
-8 -7 9 53.1463 63.4082 1
8 7 -9 -11.5621 87.4197 4
-8 -7 9 5.88065 54.0172 4
8 7 -8 3075.15 446.346 1
8 7 -8 3635.26 524.564 4
-8 -7 8 2325.31 301.813 3
-8 -7 8 3683.12 494.624 1
-8 -7 7 1057.35 277.858 1
8 7 -7 1057.41 291.64 4
8 7 -7 966.768 272.517 1
-8 -7 6 1939.25 380.175 1
8 7 -6 1979.77 389.64 1
8 7 -6 2067.83 385.927 4
-8 -7 6 1542.77 285.935 3
-8 -7 5 853.922 248.22 1
8 7 -5 904.391 252.85 4
8 7 -5 952.437 275.09 1
8 7 -4 1023.73 265.673 4
8 7 -4 1143.92 307.199 1
-8 -7 4 1042.3 279.529 1
8 7 -3 3765.32 520.03 4
8 7 -3 3796.71 566.499 1
-8 -7 3 2881 442.014 3
8 7 -2 1512.64 345.711 4
-8 -7 2 1136.97 281.111 3
8 7 -2 1383.92 360.228 1
8 7 -1 1032.37 283.983 4
-8 -7 1 817.738 238.085 3
8 7 -1 873.99 282.039 1
8 7 0 1374.44 333.365 4
-8 -7 0 850.088 245.805 3
8 7 1 455.392 192.401 4
8 8 -12 -48.3898 38.7617 4
-8 -8 12 10.3821 43.0336 4
8 8 -11 30.0069 79.595 4
-8 -8 11 4.63767 51.896 1
-8 -8 11 -41.3302 111.824 4
-8 -8 10 50.5294 137.297 1
8 8 -10 12.0117 24.7722 4
-8 -8 10 54.7374 28.9022 4
-8 -8 9 2291.21 407.682 1
8 8 -9 2278.21 449.047 4
-8 -8 9 1799.25 291.5 3
-8 -8 9 1885.06 366.534 4
-8 -8 8 1835.9 376.516 1
8 8 -8 1859.49 397.615 4
-8 -8 8 1555.81 285.466 3
8 8 -8 1842.09 390.19 1
-8 -8 7 2690.93 453.286 1
8 8 -7 2774.74 481.07 4
8 8 -7 2119.08 382.351 1
-8 -8 7 2239.31 352.138 3
-8 -8 6 77.0913 87.3833 1
8 8 -6 80.6881 67.5934 4
8 8 -6 77.4869 97.2278 1
-8 -8 6 -12.7663 57.5228 3
-8 -8 5 888.005 263.574 1
8 8 -5 880.008 261.164 4
-8 -8 5 655.116 214.768 3
8 8 -5 730.286 164.621 1
-8 -8 4 550.552 211.955 1
8 8 -4 500.998 199.857 4
-8 -8 4 346.079 142.64 3
8 8 -4 459.827 200.356 1
8 8 -3 1521.19 336.662 4
8 8 -3 1566.2 387.472 1
-8 -8 3 1109.86 291.174 3
-8 -8 3 1352.18 330.115 1
8 8 -2 164.217 142.589 4
-8 -8 2 30.7918 53.4223 3
8 8 -1 262.014 145.329 4
8 8 0 4965.14 670.361 4
8 9 -10 953.617 320.058 4
-8 -9 10 719.652 247.037 4
8 9 -9 842.035 279.374 4
8 9 -8 34.844 94.2639 4
-8 -9 8 29.2098 58.6845 3
8 9 -7 614.339 229.639 4
-8 -9 7 485.102 168.213 3
8 9 -6 763.004 265.497 4
-8 -9 6 514.697 188.885 3
8 9 -5 89.8328 71.752 4
-8 -9 5 133.871 89.9234 3
8 9 -4 1699.5 392.339 4
-8 -9 4 1136.02 290.508 3
8 9 -3 1094.04 306.428 4
8 9 -2 437.827 225.373 4
-8 -10 8 155.225 104.405 3
-8 -10 7 324.723 154.092 3
-8 -10 6 540.393 209.526 3
-9 9 4 1150.29 340.812 2
-9 9 3 1234.14 345.391 2
9 -9 -2 4450.32 684.883 3
-9 9 2 4444.61 660.307 2
-9 9 1 589.228 251.835 2
9 -9 -1 610.817 245.037 3
-9 9 0 71.9495 69.249 2
9 -9 0 69.5953 94.7885 3
9 -9 1 5536.49 754.053 3
9 -9 2 3143.86 556.91 3
9 -9 3 412.999 206.263 3
9 -9 4 -57.6453 135.034 3
-9 8 6 1219.38 363.379 2
-9 8 5 826.117 306.869 2
9 -8 -5 686.569 266.774 3
-9 8 4 593.187 236.162 2
9 -8 -4 529.816 228.069 3
-9 8 3 280.779 122.279 2
9 -8 -3 414.199 199.519 3
-9 8 2 66.0729 35.94 2
9 -8 -2 87.0577 39.3684 3
9 -8 -1 7004.25 815.235 3
-9 8 1 6647.44 797.58 2
-9 8 0 76.7333 99.004 2
9 -8 0 52.0919 78.2284 3
-9 8 -1 205.925 144.644 2
9 -8 1 176 115.773 3
-9 8 -2 335.653 183.145 2
9 -8 2 330.955 158.839 3
9 -8 3 96.6669 72.6269 3
9 -8 4 67.6977 52.1814 3
-9 7 7 -33.5516 74.5313 2
9 -7 -7 77.8468 104.46 3
-9 7 6 418.228 209.133 2
9 -7 -6 379.063 194.847 3
-9 7 5 170.841 128.908 2
9 -7 -5 117.929 102.015 3
-9 7 4 28.1491 40.0677 2
9 -7 -4 135.483 91.1552 3
-9 7 3 20.6957 51.1165 2
9 -7 -3 -60.4368 79.24 3
9 -7 -2 5696.53 728.632 3
-9 7 2 5080.23 669.39 2
-9 7 1 888.273 274.58 2
9 -7 -1 1207.01 331.23 3
-9 7 0 2382.46 454.462 2
9 -7 0 2759.62 492.76 3
-9 7 -1 711.753 258.535 2
9 -7 1 681.046 244.13 3
-9 7 -2 516.437 225.331 2
9 -7 2 485.265 207.942 3
-9 7 -3 750.798 263.055 2
9 -7 3 897.689 261.244 1
9 -7 3 845.682 277.437 3
9 -7 4 1389.97 346.489 1
9 -7 4 1466.96 359.431 3
9 -7 5 2972.14 537.754 1
9 -6 -9 1590.8 393.224 3
-9 6 9 1076.94 355.239 2
9 -6 -8 589.237 236.078 3
-9 6 8 532.621 229.313 2
-9 6 7 -12.0854 79.31 2
9 -6 -7 47.9047 59.1206 3
-9 6 6 186.91 139.022 2
9 -6 -6 176.528 129.177 3
-9 6 5 2585.81 484.106 2
9 -6 -5 2699.55 486.628 3
9 -6 -4 3169.47 535.264 3
-9 6 4 2927.14 508.66 2
-9 6 3 348.015 168.154 2
9 -6 -3 535.7 215.449 3
-9 6 2 1361.7 336.653 2
9 -6 -2 1601.21 356.48 3
-9 6 1 2133.47 426.569 2
9 -6 -1 2543.07 474.36 3
-9 6 0 1181.41 323.878 2
9 -6 0 1335.27 338.164 3
-9 6 -1 550.923 237.544 2
9 -6 1 656.826 254.34 3
9 -6 1 595.87 200.881 1
-9 6 -2 -18.6662 35.3579 2
9 -6 2 78.2042 85.9807 1
9 -6 2 -67.5245 111.047 3
-9 6 -3 26.4477 21.4939 2
9 -6 3 -56.474 98.084 1
9 -6 3 -18.6506 25.6131 3
-9 6 -4 266.969 144.18 2
9 -6 4 383.895 169.819 1
9 -6 4 337.332 183.529 3
9 -6 5 800.822 261.968 1
9 -6 5 837.826 270.184 3
-9 5 11 803.923 281.164 4
9 -5 -11 584.533 229.264 3
-9 5 10 336.741 166.694 4
9 -5 -10 200.709 90.6198 3
-9 5 10 131.41 78.2814 2
9 -5 -9 5701.7 725.378 3
-9 5 9 5673.15 759.444 2
9 -5 -8 649.686 228.778 3
-9 5 8 532.807 222.173 2
9 -5 -7 3367.61 559.613 3
-9 5 7 3360.26 564.843 2
-9 5 6 1102.02 316.924 2
9 -5 -6 1252.72 330.686 3
-9 5 5 51.8864 42.153 2
9 -5 -5 150.303 130.25 3
-9 5 4 5.07924 70.3177 2
9 -5 -4 5.1168 13.5623 3
9 -5 -3 3467.41 532.099 3
-9 5 3 3182.34 500.321 2
9 -5 -2 4453.06 595.217 3
-9 5 2 3953.08 560.373 2
-9 5 1 226.64 118.47 2
9 -5 -1 279.749 103.447 1
9 -5 -1 243.382 113.67 3
-9 5 0 290.993 142.414 2
9 -5 0 286.734 151.078 3
9 -5 0 350.62 130.77 1
9 -5 1 2541.61 406.908 1
-9 5 -1 2237.95 440.094 2
9 -5 1 2234.72 449.673 3
-9 5 -2 1934.06 405.13 2
9 -5 2 1816.21 384.573 3
9 -5 2 2119.63 393.096 1
-9 5 -3 1449.54 361.372 2
9 -5 3 1658.91 360.017 1
9 -5 3 1571.2 364.026 3
-9 5 -4 -48.7586 113.545 2
9 -5 4 63.1718 94.0299 1
9 -5 4 -61.6181 82.0204 3
9 -5 5 940.694 297.194 1
-9 4 12 31.3871 30.7415 4
9 -4 -12 -74.2071 108.614 3
-9 4 11 870.489 258.829 4
9 -4 -11 953.459 293.152 3
9 -4 -10 5542.21 696.689 3
-9 4 10 5112.18 722.879 2
-9 4 10 5344.75 616.523 4
9 -4 -9 22106.1 1399.64 3
-9 4 9 20488 1402.87 2
-9 4 9 21582.2 1162.9 4
9 -4 -8 8248.49 846.814 3
-9 4 8 7585.62 832.994 2
-9 4 8 7826.88 650.289 4
9 -4 -7 3991.44 581.132 3
-9 4 7 3718.31 559.927 2
-9 4 6 1192.45 316.488 2
9 -4 -6 1179.69 307.536 3
-9 4 5 878.317 261.243 2
9 -4 -5 788.353 233.83 3
-9 4 4 177.934 91.9155 2
9 -4 -4 266.212 139.218 3
9 -4 -3 8909.84 830.283 3
-9 4 3 8063.68 761.494 2
9 -4 -2 7999.77 607.387 1
9 -4 -2 7540.97 770.063 3
-9 4 2 7160.03 731.294 2
-9 4 1 110.311 83.0831 2
9 -4 -1 91.7541 50.1313 1
9 -4 -1 82.4693 81.6694 3
9 -4 0 245.523 103.527 1
-9 4 0 287.109 141.496 2
9 -4 0 254.933 137.323 3
-9 4 -1 330.436 160.156 2
9 -4 1 370.917 161.519 3
9 -4 1 433.955 165.538 1
-9 4 -2 305.331 160.376 2
9 -4 2 318.424 151.289 3
9 -4 2 407.474 179.103 1
-9 4 -3 720.476 231.416 2
9 -4 3 862.708 260.065 3
9 -4 3 994.087 290.328 1
-9 4 -4 1458.08 347.244 2
9 -4 4 1650.04 391.285 1
-9 4 -5 2600.18 475.467 2
9 -4 5 2826.1 531.077 1
-9 3 12 384.68 123.369 4
9 -3 -12 1333.93 351.933 3
-9 3 11 232.504 113.018 4
9 -3 -11 172.805 109.346 3
9 -3 -11 306 215.501 2
-9 3 11 196.344 153.679 2
9 -3 -10 4293.84 602.429 3
9 -3 -10 4205.14 672.972 2
-9 3 10 3789.47 621.53 2
-9 3 10 4128.85 530.218 4
-9 3 9 1872.24 333.853 4
9 -3 -9 1970.43 414.832 3
-9 3 9 1745.94 398.07 2
-9 3 8 1321.04 225.022 4
9 -3 -8 1408.64 331.546 3
-9 3 8 1528.61 364.445 2
9 -3 -7 52.8957 42.5612 3
-9 3 7 44.7778 28.2433 2
9 -3 -6 3120.14 485.864 3
-9 3 6 3126.79 501.467 2
-9 3 6 3286.69 339.716 4
9 -3 -5 6854.32 718.058 3
-9 3 5 6733.96 710.997 2
-9 3 4 900.785 260.372 2
9 -3 -4 912.22 176.953 1
9 -3 -4 906.943 257.16 3
9 -3 -3 6564.3 531.019 1
9 -3 -3 6481.63 706.738 3
-9 3 3 5858.19 630.394 2
-9 3 2 62.699 83.4889 2
9 -3 -2 98.6772 87.8817 1
9 -3 -2 31.6658 48.8094 3
-9 3 1 574.183 197.347 2
9 -3 -1 539.73 173.941 1
9 -3 -1 584.255 213.294 3
9 -3 0 474.276 176.322 1
-9 3 0 393.808 154.096 2
9 -3 0 463.003 209.462 3
9 -3 1 4309.65 540.547 1
9 -3 1 3948.16 566.301 3
-9 3 -1 3849 532.482 2
-9 3 -2 6424.29 695.471 2
9 -3 2 7267.64 742.455 1
9 -3 2 6714.08 732.514 3
-9 3 -3 343.103 157.955 2
9 -3 3 375.188 178.361 1
-9 3 -4 1053.8 299.541 2
9 -3 4 1267.87 354.098 1
-9 3 -5 102.988 100.086 2
-9 3 -5 -33.1364 103.652 3
9 -3 5 150.989 151.601 1
-9 2 13 288.585 171.878 4
-9 2 12 77.35 93.1683 4
9 -2 -12 -41.0295 84.6993 3
9 -2 -12 62.2198 82.7092 2
-9 2 12 63.6325 99.8872 2
-9 2 11 1763.77 358.101 4
9 -2 -11 1558.18 355.46 3
9 -2 -11 1823.7 447.819 2
-9 2 11 1639.13 405.909 2
9 -2 -10 2693.82 455.633 3
9 -2 -10 2975.06 535.78 2
-9 2 10 2976.72 439.235 4
-9 2 10 2838.9 510.53 2
-9 2 9 37.9011 27.2259 4
9 -2 -9 44.6431 55.1385 3
-9 2 9 5.24969 67.1587 2
9 -2 -8 3074.12 492.275 3
-9 2 8 2880.76 483.741 2
-9 2 8 3181.58 398.712 4
9 -2 -7 9580.69 859.618 3
-9 2 7 9370.51 849.841 2
-9 2 7 10390.4 659.84 4
-9 2 6 470.261 174.632 2
-9 2 6 553.92 131.909 4
-9 2 6 479.607 108.187 1
9 -2 -6 390.629 142.285 3
9 -2 -5 9999.27 600.687 1
9 -2 -5 9770.48 851.353 3
-9 2 5 9394.66 824.788 2
9 -2 -4 11989.3 951.932 3
9 -2 -4 11823.2 699.733 1
-9 2 4 11375.2 888.657 2
9 -2 -3 381.965 137.75 1
-9 2 3 338.167 153.947 2
9 -2 -3 342.843 158.754 3
9 -2 -2 3384.31 431.4 1
9 -2 -2 3073.83 480.976 3
-9 2 2 3115.49 462.303 2
-9 2 1 84.5249 20.2752 2
9 -2 -1 161.388 99.7033 1
9 -2 -1 170.732 117.206 3
-9 2 0 1485.87 309.575 2
9 -2 0 1641.93 317.763 1
9 -2 0 1644.73 357.757 3
9 -2 1 466.186 168.836 1
-9 2 -1 437.751 171.625 2
9 -2 1 349.727 167.943 3
9 -2 2 858.876 261.568 1
-9 2 -2 812.942 235.641 2
-9 2 -3 3148.01 488.184 2
9 -2 3 3433.59 550.494 1
-9 2 -4 165.859 105.501 2
-9 2 -4 156.219 96.2042 3
9 -2 4 157.289 125.709 1
-9 2 -5 37.9076 69.9137 2
-9 2 -5 -52.6093 70.2121 3
-9 2 -6 1550.49 352.705 3
-9 1 13 1062.71 306.583 4
9 -1 -12 116.194 95.7847 3
9 -1 -12 208.624 166.199 2
-9 1 12 193.644 161.573 2
-9 1 12 64.6337 30.7452 4
9 -1 -11 1076.03 286.525 3
9 -1 -11 1095.12 337.933 2
-9 1 11 1237.21 336.867 2
-9 1 11 1248.81 301.242 4
9 -1 -10 -2.33135 55.6763 3
9 -1 -10 -3.78567 43.1464 2
-9 1 10 11.7891 8.20166 2
-9 1 10 9.35939 14.2794 4
9 -1 -9 123.699 98.1175 3
9 -1 -9 180.837 125.843 2
-9 1 9 158.537 105.679 2
-9 1 9 104.008 66.3192 4
9 -1 -8 77.0764 60.7008 3
-9 1 8 74.4272 60.327 2
-9 1 8 31.4683 39.6889 4
9 -1 -7 3877.65 535.234 3
-9 1 7 3556.22 511.237 2
-9 1 7 3765.84 328.92 1
-9 1 7 3802.84 394.761 4
9 -1 -7 3582.18 328.332 1
-9 1 6 1589.59 337.351 2
9 -1 -6 1634.02 245.944 1
9 -1 -6 1676.73 350.622 3
-9 1 6 1515.71 222.396 1
-9 1 6 1608.42 235.166 4
9 -1 -5 4690.72 588.539 3
-9 1 5 4309.87 543.805 2
-9 1 5 4810.67 350.431 4
9 -1 -5 5000.06 459.385 1
-9 1 4 1583.3 331.295 2
9 -1 -4 1706.39 279.776 1
9 -1 -4 1543 326.69 3
-9 1 3 85.3649 87.4746 2
9 -1 -3 56.1802 71.8989 1
9 -1 -3 42.1578 66.2356 3
-9 1 2 271.995 129.421 2
9 -1 -2 222.411 103.537 1
9 -1 -2 284.988 154.429 3
-9 1 1 8.28773 8.41816 2
9 -1 -1 58.003 71.2934 1
9 -1 -1 19.2645 23.1673 3
9 -1 0 5041 585.559 1
9 -1 0 4705.06 609.841 3
-9 1 0 4648.95 555.663 2
-9 1 -1 428.388 158.659 2
9 -1 1 428.771 163.216 1
9 -1 2 1125.75 294.253 1
-9 1 -2 1144.22 286.719 2
-9 1 -3 5216.21 608.236 2
9 -1 3 5555.46 697.619 1
-9 1 -3 5499.3 672.98 3
9 -1 4 392.646 180.489 1
-9 1 -4 410.155 184.971 2
-9 1 -4 391.472 162.639 3
-9 1 -5 49.0832 71.6436 2
-9 1 -5 148.407 116.959 3
-9 1 -6 4330.23 576.595 3
9 0 -13 502.673 259.859 2
-9 0 13 384.613 182.875 2
-9 0 13 523.614 203.013 4
9 0 -12 2182.41 423.001 3
9 0 -12 2484.17 511.365 2
-9 0 12 2015.88 445.081 2
-9 0 12 2124.65 399.558 4
9 0 -11 7.66821 30.8811 3
9 0 -11 10.4678 55.3166 2
-9 0 11 50.7472 98.239 2
-9 0 11 -24.2767 71.0939 4
9 0 -10 9670.85 839.546 3
9 0 -10 9873.58 931.664 2
-9 0 10 8676.21 848.124 2
-9 0 10 8821.34 740.134 4
9 0 -9 1363.56 320.408 3
9 0 -9 1289.83 329.445 2
-9 0 9 1199.4 306.258 2
-9 0 9 1261.16 264.879 4
-9 0 8 1167.13 182.369 1
9 0 -8 1514.68 332.936 3
-9 0 8 1489.83 273.984 4
-9 0 8 1457.52 323.641 2
-9 0 7 3.39781 27.9641 1
9 0 -7 -12.2415 31.3282 1
9 0 -7 -59.5493 87.0627 3
-9 0 7 6.46116 24.6189 4
-9 0 7 -81.736 116.357 2
9 0 -6 7849.36 583.843 1
9 0 -6 6823.59 687.132 3
-9 0 6 7438.99 535.74 1
-9 0 6 7413.24 704.152 2
-9 0 6 8222.81 554.903 4
9 0 -5 3809.27 516.672 3
-9 0 5 4310.39 528.317 2
-9 0 5 4630.84 371.676 4
9 0 -5 4531.23 467.582 1
-9 0 4 239.558 134.954 2
9 0 -4 260.365 121.479 1
9 0 -4 181.01 93.1763 3
-9 0 4 307.268 82.6412 4
-9 0 3 22.1916 55.5451 2
9 0 -3 -34.3853 83.3922 1
9 0 -3 12.9451 15.6779 3
9 0 -2 4249.11 495.415 1
9 0 -2 4270.26 555.281 3
-9 0 2 4160.89 501.884 2
9 0 -1 3254.01 473.698 1
9 0 -1 3184.14 488.004 3
-9 0 1 2976.4 423.268 2
-9 0 0 43.3312 74.2243 2
9 0 0 100.39 108.037 1
-9 0 -1 -34.4985 59.2752 2
9 0 1 1.66429 31.8448 1
-9 0 -2 -79.4442 104.414 2
9 0 2 4.33719 82.2775 1
-9 0 -2 -57.8687 108.807 3
9 0 3 1692.61 384.865 1
-9 0 -3 1835.36 351.355 2
-9 0 -3 1741.18 368.16 3
9 0 4 162.974 120.807 1
-9 0 -4 202.572 120.797 2
-9 0 -4 218.685 126.423 3
-9 0 -5 3480.25 512.88 2
-9 0 -5 3943.52 550.015 3
-9 -1 14 28.9402 59.038 4
9 1 -13 2579.12 541.142 2
-9 -1 13 2074.42 441.292 2
-9 -1 13 2325.11 444.085 4
9 1 -12 214.665 171.711 2
-9 -1 12 43.4859 57.0549 2
-9 -1 12 123.846 95.5058 4
9 1 -11 8974.85 776.227 3
9 1 -11 10848.1 984.487 2
-9 -1 11 9730.15 902.948 2
-9 -1 11 9875.46 825.02 4
9 1 -10 982 272.191 3
9 1 -10 1324.46 339.755 2
-9 -1 10 1115.67 300.515 2
-9 -1 10 1152.56 269.598 4
-9 -1 10 1149.45 196.808 1
9 1 -9 648.613 216.847 3
9 1 -9 738.787 245.336 2
-9 -1 9 814.228 249.296 2
-9 -1 9 704.282 190.328 4
9 1 -8 1924.39 282.193 1
9 1 -8 1788.27 363.276 3
-9 -1 8 2044.67 318.791 4
-9 -1 8 2054.19 276.752 1
-9 -1 8 2039.11 373.818 2
9 1 -7 3039.49 460.905 3
9 1 -7 3327.91 392.587 1
-9 -1 7 3043.59 350.362 1
-9 -1 7 2959.98 432.917 2
-9 -1 7 3232.87 380.019 4
-9 -1 6 231.567 106.504 2
9 1 -6 298.525 126.212 1
9 1 -6 236.536 133.382 3
-9 -1 6 301.751 108.683 4
-9 -1 6 205.536 80.3113 1
9 1 -5 2856.52 449.56 3
-9 -1 5 2205.09 253.539 4
-9 -1 5 2882.14 415.063 2
9 1 -5 3156.45 409.263 1
9 1 -4 32108.3 981.378 4
9 1 -4 32054.6 1513.45 3
9 1 -4 33364.6 1360.53 1
-9 -1 4 32493.1 998.138 4
-9 -1 4 30425.7 1303.62 2
9 1 -3 8969.08 815.515 3
9 1 -3 8793.09 730.238 1
-9 -1 3 9042.99 488.281 4
-9 -1 3 8809.39 711.002 2
9 1 -2 10911.2 838.628 1
-9 -1 2 10648.2 777.207 2
9 1 -1 6308.12 667.689 1
-9 -1 1 5847.8 574.581 2
-9 -1 0 45.1211 46.8575 2
-9 -1 0 73.7178 44.0981 3
9 1 0 130.177 115.301 1
-9 -1 -1 219.897 98.6922 2
9 1 1 279.176 152.776 1
-9 -1 -1 284.973 150.786 3
-9 -1 -2 11.8171 34.7115 2
9 1 2 -42.8777 95.6902 1
-9 -1 -2 38.2338 49.29 3
-9 -1 -3 94.2886 82.7182 2
9 1 3 76.5884 92.0388 1
-9 -1 -3 97.7469 106.051 3
-9 -1 -4 403.66 160.48 2
-9 -1 -4 337.936 151.539 3
-9 -2 14 1486 368.606 4
9 2 -13 402.761 208.938 2
-9 -2 13 308.159 156.75 2
-9 -2 13 385.127 179.836 4
9 2 -12 183.397 126.513 2
-9 -2 12 32.5201 49.1651 2
-9 -2 12 51.1137 41.7366 4
-9 -2 11 3268.16 356.396 1
9 2 -11 2914.43 442.636 3
9 2 -11 3389.66 545.143 2
-9 -2 11 3237.88 508.307 2
-9 -2 11 3205.1 466.523 4
-9 -2 10 73.3177 54.7145 1
9 2 -10 62.5492 58.6784 3
9 2 -10 155.559 125.004 2
-9 -2 10 114.401 97.109 2
-9 -2 10 25.7718 58.6707 4
-9 -2 9 17.9075 110.41 1
9 2 -9 198.772 109.051 3
9 2 -9 204.087 141.061 2
-9 -2 9 277.056 130.228 4
-9 -2 9 199.853 124.563 2
-9 -2 8 151.293 78.1645 1
9 2 -8 99.862 65.7427 1
9 2 -8 192.382 116.2 3
-9 -2 8 117.705 61.2625 4
-9 -2 8 126.094 68.0438 2
-9 -2 7 5.37104 33.5133 1
9 2 -7 13.7931 6.18238 1
9 2 -7 7.5346 44.6931 3
-9 -2 7 -135.558 180.554 4
-9 -2 7 -70.6983 107.036 2
-9 -2 6 81.345 63.5177 2
9 2 -6 82.3852 53.2491 4
9 2 -6 151.366 102.855 1
9 2 -6 154.311 118.217 3
-9 -2 6 127.567 71.1996 4
-9 -2 6 80.4792 52.8428 1
9 2 -5 27659.8 1267.08 1
9 2 -5 27117.5 1052.74 4
9 2 -5 26844.4 1378.69 3
-9 -2 5 25928.5 1015.8 4
-9 -2 5 25912 1209.51 2
9 2 -4 8119.72 551.657 4
9 2 -4 7993.82 698.717 1
-9 -2 4 7697.6 527.07 4
-9 -2 4 7971.5 651.865 2
9 2 -3 6952.69 488.717 4
9 2 -3 7214.02 686.238 1
-9 -2 3 6544.9 463.479 4
-9 -2 3 7159.74 626.896 2
9 2 -2 2135.62 382.359 1
-9 -2 2 2152.46 325.008 2
9 2 -1 45.875 24.7881 1
-9 -2 1 118.776 75.9768 2
-9 -2 1 35.9012 36.829 3
-9 -2 0 3665.88 447.763 2
-9 -2 0 3637.66 536.063 3
9 2 0 3813.86 564.967 1
-9 -2 -1 10370.5 753.693 2
-9 -2 -1 10562 888.745 3
9 2 1 11276.7 986.488 1
-9 -2 -2 36.2679 70.18 2
-9 -2 -2 20.6215 76.3426 3
9 2 2 49.9793 70.1367 1
-9 -2 -3 493.662 202.924 3
-9 -2 -4 322.601 273.305 3
9 3 -14 1180.36 353.175 2
-9 -3 14 987.8 293.221 2
-9 -3 14 1204.48 343.871 4
9 3 -13 491.63 214.425 2
-9 -3 13 442.136 174.15 2
-9 -3 13 433.173 181.87 4
-9 -3 12 139.887 91.0304 1
9 3 -12 154.742 130.468 2
-9 -3 12 104.004 86.3509 2
-9 -3 12 69.3281 59.8291 4
-9 -3 11 309.743 115.906 1
9 3 -11 279.441 140.254 2
9 3 -11 334.308 143.805 3
-9 -3 11 310.278 157.217 2
-9 -3 11 285.564 137.199 4
9 3 -10 224.36 151.161 2
9 3 -10 168.875 95.2741 3
-9 -3 10 120.379 75.6191 4
-9 -3 10 197.339 121.781 2
9 3 -9 4721.21 567.692 3
-9 -3 9 4660.19 550.408 2
-9 -3 9 3629.92 424.084 4
-9 -3 9 4642.78 467.702 1
-9 -3 8 743.012 194.874 1
9 3 -8 442.445 62.9408 1
9 3 -8 848.355 224.426 4
-9 -3 8 848.234 217.928 4
-9 -3 8 673.502 189.543 2
9 3 -7 5975 573.181 4
9 3 -7 5902.43 574.853 1
-9 -3 7 5757.55 548.222 1
-9 -3 7 5723.3 536.576 4
-9 -3 7 5660.26 579.615 2
9 3 -6 3407.25 418.746 4
9 3 -6 3453.27 457.474 1
-9 -3 6 3194.9 423.212 1
-9 -3 6 3240.98 394.482 4
-9 -3 6 3460.83 440.986 2
9 3 -5 4534.15 544.891 1
9 3 -5 4627.19 462.488 4
-9 -3 5 4159.2 420.735 4
-9 -3 5 4516.84 480.649 2
9 3 -4 5845.74 506.984 4
-9 -3 4 5804.19 644.648 3
9 3 -4 5992.1 630.352 1
-9 -3 4 6009.94 554.165 2
-9 -3 3 198.4 91.4507 2
9 3 -3 236.11 109.176 4
-9 -3 3 142.919 77.9276 3
9 3 -3 239.435 116.752 1
-9 -3 2 384.895 132.477 2
9 3 -2 304.311 140.515 1
-9 -3 2 282.723 135.977 3
9 3 -1 46.5576 30.0532 1
-9 -3 1 61.237 23.8963 2
-9 -3 1 56.2603 59.5297 3
9 3 0 2421.91 450.822 1
-9 -3 0 2305.3 330.581 2
-9 -3 0 2306.23 408.78 3
-9 -3 -1 7175.94 737.37 3
9 3 1 7798.2 841.721 1
-9 -3 -2 -53.6865 241.476 3
9 3 2 322.471 197.983 1
-9 -3 -3 402.206 34.7478 3
9 4 -14 690.748 254.748 2
-9 -4 14 739.471 256.872 2
-9 -4 14 422.673 190.929 4
-9 -4 13 108.689 81.1567 1
9 4 -13 87.1796 61.2938 2
-9 -4 13 64.089 42.1197 2
-9 -4 13 39.8729 50.9184 4
-9 -4 12 666.385 180.905 1
9 4 -12 839.407 284.461 2
-9 -4 12 630.425 219.593 2
-9 -4 12 703.857 244.744 4
-9 -4 11 593.313 226.393 1
9 4 -11 361.58 215.716 2
-9 -4 11 332.631 195.618 2
-9 -4 11 363.092 188.977 4
9 4 -10 959.736 269.403 2
-9 -4 10 300.708 92.8318 4
-9 -4 10 904.191 248.627 2
9 4 -9 3191.09 467.153 4
-9 -4 9 2914.15 421.884 2
-9 -4 9 3010.88 429.85 4
-9 -4 9 3188.62 422.476 1
9 4 -8 990.37 251.234 1
-9 -4 8 994.47 234.794 1
9 4 -8 1058.58 265.883 4
-9 -4 8 982.693 235.618 4
-9 -4 8 904.758 220.507 2
-9 -4 7 -8.33326 53.2274 2
-9 -4 7 -9.77034 52.2755 1
9 4 -7 -43.1765 79.9684 1
9 4 -7 22.0659 59.7891 4
-9 -4 7 19.4416 53.3162 3
-9 -4 7 -14.2825 53.7894 4
-9 -4 6 -63.6437 97.9523 1
-9 -4 6 -23.3454 51.5385 2
9 4 -6 -44.4326 73.0931 4
-9 -4 6 -90.9877 115.15 3
9 4 -6 -20.2055 79.1063 1
-9 -4 6 -41.2546 74.3441 4
9 4 -5 7002.16 693.291 1
9 4 -5 6819.17 599.505 4
-9 -4 5 6700.21 685.108 3
-9 -4 5 6591.46 551.62 2
-9 -4 4 432.891 142.584 2
9 4 -4 472.733 162.781 4
-9 -4 4 344.617 151.373 3
9 4 -4 462.685 191.424 1
-9 -4 3 626.717 168.082 2
9 4 -3 651.255 175.651 4
-9 -4 3 589.041 204.39 3
9 4 -3 702.796 241.005 1
9 4 -2 313.129 164.824 1
-9 -4 2 272.933 144.154 3
9 4 -1 -1.49041 51.7754 1
-9 -4 1 55.0067 90.3779 3
9 4 0 2793.82 498.769 1
-9 -4 0 2896.73 477.316 3
9 4 1 3571.33 598.024 1
-9 -4 -1 2062.1 276.418 3
9 5 -14 910.845 294.94 2
-9 -5 14 751.233 234.226 2
-9 -5 13 1594.74 300.333 1
9 5 -13 1675.66 385.249 2
-9 -5 13 1500.02 346.652 2
-9 -5 13 1487.56 348.919 4
-9 -5 12 1170.92 257.537 1
9 5 -12 1434.03 349.4 2
-9 -5 12 1062.31 274.719 2
-9 -5 12 1175.73 304.137 4
9 5 -11 1412 327.918 4
9 5 -11 2506.39 437.289 2
-9 -5 11 2255.08 411.193 4
-9 -5 11 2241.23 396.903 2
-9 -5 11 2391.22 370.861 1
9 5 -10 1407.34 333.211 4
-9 -5 10 1296 277.054 3
9 5 -10 1377.86 301.575 2
-9 -5 10 1299.55 303.218 4
-9 -5 10 1256.05 281.47 2
-9 -5 9 576.33 190.287 1
9 5 -9 373.377 153.767 4
-9 -5 9 390.216 166.576 3
-9 -5 9 421.563 168.994 4
-9 -5 9 398.725 141.971 2
-9 -5 8 464.298 158.038 2
9 5 -8 435.505 126.404 1
-9 -5 8 418.051 159.835 1
9 5 -8 427.592 175.626 4
-9 -5 8 390.52 158.159 3
-9 -5 8 306.889 117.772 4
-9 -5 7 197.741 112.501 2
-9 -5 7 214.423 123.081 1
9 5 -7 185.307 107.002 1
9 5 -7 185.944 119.651 4
-9 -5 7 168.095 93.3241 3
-9 -5 7 140.594 75.7985 4
-9 -5 6 -0.0434 21.0195 1
9 5 -6 3.93299 46.318 4
-9 -5 6 21.2247 11.4562 3
9 5 -6 41.9999 64.7395 1
9 5 -5 2469.02 388.956 4
9 5 -5 2372.83 433.363 1
-9 -5 5 2209.8 385.494 3
-9 -5 5 2326 405.709 1
9 5 -4 84.5911 41.5748 4
-9 -5 4 140.339 102.089 3
9 5 -4 110.375 64.1682 1
9 5 -3 304.792 143.32 4
-9 -5 3 209.353 125.039 3
9 5 -3 221.711 121.946 1
9 5 -2 1069.3 244.109 4
-9 -5 2 1129.14 295.755 3
9 5 -2 1068.73 292.396 1
9 5 -1 2496.93 487.639 1
-9 -5 1 1220.89 136.771 3
-9 -5 0 2959.62 466.991 3
9 5 0 3090.6 544.542 1
-9 -6 13 1950.92 350.661 1
-9 -6 13 1834.41 406.787 4
-9 -6 12 659.458 197.426 1
-9 -6 12 733.411 249.099 4
-9 -6 11 593.005 186.878 1
9 6 -11 665.104 243.405 4
-9 -6 11 647.125 234.16 4
-9 -6 10 763.113 251.667 1
9 6 -10 347.748 163.81 4
-9 -6 10 338.887 136.044 3
-9 -6 10 354.808 157.479 4
-9 -6 9 130.846 107.485 1
9 6 -9 63.3314 73.1391 4
-9 -6 9 75.6838 91.5968 3
-9 -6 9 -4.61128 72.7629 4
-9 -6 8 778.975 229.873 1
9 6 -8 694.443 228.04 4
9 6 -8 191.617 105.021 1
-9 -6 8 727.83 214.877 3
-9 -6 8 594.38 180.956 4
-9 -6 7 548.512 205.724 1
9 6 -7 611.453 214.79 4
9 6 -7 580.34 220.144 1
-9 -6 7 633.527 210.973 3
9 6 -6 17556.2 1093.86 4
-9 -6 6 16299.7 1053.67 3
9 6 -6 16469.3 1113.03 1
-9 -6 6 16916.9 1114.75 1
9 6 -5 2600.16 430.67 4
9 6 -5 2732.95 481.3 1
-9 -6 5 2826.54 446.696 3
-9 -6 5 2662.91 457.292 1
9 6 -4 31.451 56.0023 1
9 6 -4 97.6677 92.7135 4
-9 -6 4 -58.4885 101.906 1
9 6 -3 1593.39 329.065 4
9 6 -3 1530.38 369.716 1
9 6 -2 1071.3 267.12 4
-9 -6 2 831.618 281.558 3
9 6 -2 922.744 277.698 1
-9 -6 1 1655.84 441.984 3
9 7 -12 467.348 209.201 4
-9 -7 12 339.628 152.711 1
-9 -7 12 416.817 193.174 4
-9 -7 11 175.608 105.339 1
9 7 -11 273.213 153.63 4
-9 -7 11 226.379 126.29 4
9 7 -10 154.909 100.553 4
-9 -7 10 36.7299 29.8368 4
-9 -7 9 560.301 210.705 1
9 7 -9 494.644 198.135 4
-9 -7 9 357.774 131.671 4
-9 -7 8 2541.32 434.471 1
9 7 -8 2808.39 479.205 4
9 7 -8 2590.67 456.073 1
-9 -7 8 2225.14 391.383 4
-9 -7 7 174.39 115.471 1
9 7 -7 236.075 165.262 4
9 7 -7 242.658 159.097 1
-9 -7 6 1097.64 289.838 1
9 7 -6 1203.43 310.978 4
9 7 -6 1052.24 295.704 1
-9 -7 5 364.127 175.659 1
9 7 -5 383.065 178.815 4
-9 -7 5 667.197 276.833 3
9 7 -5 321.122 163.638 1
9 7 -4 2.00697 22.1063 4
9 7 -4 40.1014 78.4009 1
-9 -7 4 -121.391 137.072 1
9 7 -3 705.726 222.077 4
-9 -7 3 483.596 207.234 3
9 7 -2 -10.3862 62.9203 4
9 8 -11 -15.6377 93.4973 4
-9 -8 11 -22.9728 101.508 4
9 8 -10 728.361 248.721 4
-9 -8 10 520.716 188.099 4
9 8 -9 4726.05 668.057 4
-9 -8 9 3329.1 434.455 3
-9 -8 9 3757.91 533.634 4
9 8 -8 69.9109 101.814 4
-9 -8 8 78.8024 67.1263 3
9 8 -7 4091.23 602.583 4
-9 -8 7 3220.5 471.156 3
9 8 -6 793.912 268.053 4
-9 -8 6 590.062 211.159 3
9 8 -5 2627.8 475.739 4
-9 -8 5 1832.32 372.209 3
9 8 -4 187.902 88.9096 4
-9 -8 4 150.684 101.652 3
9 8 -3 16.6791 10.1805 4
9 9 -8 1318.25 371.61 4
-9 -9 8 813.625 223.82 3
9 9 -7 585.149 256.152 4
-9 -9 7 376.634 154.956 3
9 9 -6 559.909 235.416 4
-9 -9 6 318.73 145.469 3
9 9 -5 -31.7786 29.3245 4
10 -8 -1 2295.16 519.116 3
10 -8 0 933.016 320.05 3
10 -8 1 58.85 54.0045 3
-10 7 5 967.782 311.13 2
10 -7 -5 867.928 311.488 3
-10 7 4 1337.6 365.202 2
10 -7 -4 1631.21 425.182 3
-10 7 3 -5.81459 33.3833 2
10 -7 -3 -8.69644 68.6463 3
-10 7 2 -52.8188 90.3413 2
10 -7 -2 75.231 111.445 3
-10 7 1 2360.24 497.084 2
10 -7 -1 2369.51 481.295 3
-10 7 0 931.99 309.698 2
10 -7 0 977.923 314.652 3
10 -7 1 3129.82 598.724 3
10 -7 2 200.601 123.71 3
10 -7 3 6133.95 809.099 3
10 -7 4 6713.73 842.448 3
-10 6 7 1188.83 361.873 2
10 -6 -7 1059.07 349.545 3
-10 6 6 -6.68867 53.3657 2
10 -6 -6 43.6571 110.84 3
-10 6 5 344.053 185.85 2
10 -6 -5 396.282 195.019 3
-10 6 4 929.312 287.513 2
10 -6 -4 1000.5 321.28 3
-10 6 3 1766.18 412.044 2
10 -6 -3 2045.29 451.97 3
-10 6 2 1697.89 413.465 2
10 -6 -2 1862 422.558 3
-10 6 1 -16.399 95.4575 2
10 -6 -1 -82.7761 134.716 3
-10 6 0 915.49 296.349 2
10 -6 0 1099.17 340.491 3
-10 6 -1 1282.23 352.019 2
10 -6 1 1297.46 348.525 3
10 -6 2 358.952 195.589 3
10 -6 3 8065.76 860.931 1
10 -6 3 7406.96 850.493 3
10 -6 4 2661.73 505.876 3
10 -5 -9 3.04928 23.7336 3
-10 5 8 2124.03 479.041 2
10 -5 -8 2181.29 494.906 3
-10 5 7 1432.94 375.867 2
10 -5 -7 1707.54 423.987 3
-10 5 6 -77.293 114.85 2
10 -5 -6 -63.3061 136.862 3
-10 5 5 1875.45 409.785 2
10 -5 -5 2155.73 452.336 3
-10 5 4 2685.31 479.932 2
10 -5 -4 3126.46 548.404 3
-10 5 3 466.203 202.17 2
10 -5 -3 422.536 169.589 3
-10 5 2 30.6732 17.1778 2
10 -5 -2 -51.3078 119.336 3
-10 5 1 1748.75 394.217 2
10 -5 -1 1998.56 448.8 3
-10 5 0 90.2872 82.2542 2
10 -5 0 0.46532 60.8618 3
10 -5 1 2011.99 381.506 1
-10 5 -1 1961.98 426.667 2
10 -5 1 1751.39 403.446 3
-10 5 -2 65.8186 44.0141 2
10 -5 2 165.922 128.487 3
10 -5 2 104.113 57.8597 1
10 -5 3 1003.03 303.564 3
10 -5 3 1064.06 322.209 1
10 -4 -11 55.7084 91.235 3
10 -4 -10 6187.42 803.66 3
10 -4 -9 19368.3 1393.23 3
-10 4 9 17924.2 1371.36 2
10 -4 -8 950.676 302.789 3
-10 4 8 881.028 306.441 2
-10 4 7 60.0868 62.7333 2
10 -4 -7 46.517 42.6612 3
-10 4 6 1086.9 311.586 2
10 -4 -6 1122.44 323.591 3
-10 4 5 2.66879 35.8419 2
10 -4 -5 60.9198 48.3389 3
-10 4 4 9.0846 47.948 2
10 -4 -4 -36.8058 81.5916 3
-10 4 3 553.36 217.222 2
10 -4 -3 614.303 241.106 3
-10 4 2 1027.89 296.085 2
10 -4 -2 1222.2 335.676 3
-10 4 1 12.8571 43.6021 2
10 -4 -1 -5.83431 66.0756 1
10 -4 -1 44.7538 29.8707 3
-10 4 0 63.3511 40.3297 2
10 -4 0 42.5447 37.1014 1
10 -4 0 60.3736 84.9288 3
10 -4 1 421.877 182.406 1
-10 4 -1 496.636 224.968 2
10 -4 1 379.502 190.506 3
-10 4 -2 4847.9 650.395 2
10 -4 2 5551.09 680.723 1
10 -4 2 4781.81 698.508 3
-10 4 -3 1249.31 332.883 2
10 -4 3 1528.99 396.19 3
10 -4 3 1409.86 357.543 1
-10 4 -5 40.9843 103.106 3
10 -3 -12 1384.85 369.934 3
10 -3 -11 380.711 188.679 3
10 -3 -10 1106.11 309.329 3
-10 3 10 1017.79 332.954 2
10 -3 -9 540.207 205.04 3
-10 3 9 585.256 245.403 2
10 -3 -8 207.221 103.285 3
-10 3 8 303.119 154.96 2
-10 3 7 1466.95 367.891 2
10 -3 -7 1631.2 380.042 3
-10 3 6 54.2429 8.53053 2
10 -3 -6 -35.2185 131.955 3
-10 3 5 147.271 88.0565 2
10 -3 -5 226.733 140.145 3
-10 3 4 249.728 154.441 2
10 -3 -4 223.357 143.25 3
10 -3 -3 7037.29 794.729 3
10 -3 -3 7384.3 620.701 1
-10 3 3 6658.09 726.97 2
-10 3 2 88.1152 77.3325 2
10 -3 -2 28.6713 59.3664 1
10 -3 -2 99.8121 79.192 3
-10 3 1 140.457 116.524 2
10 -3 -1 102.964 66.3195 1
10 -3 -1 166.742 124.943 3
-10 3 0 763.05 254.4 2
10 -3 0 799.967 228.651 1
10 -3 0 805.902 276.382 3
10 -3 1 989.103 271.386 1
-10 3 -1 1193.19 329.497 2
10 -3 1 1041.04 311.959 3
10 -3 2 2432.09 466.215 1
-10 3 -2 2107.99 418.404 2
10 -3 2 2213.11 470.209 3
-10 3 -3 3705.25 571.693 2
10 -3 3 3936.25 619.248 1
-10 3 -4 661.393 219.298 3
-10 2 13 1049.68 258.517 4
10 -2 -12 3648.81 601.916 3
-10 2 12 3827.59 558.721 4
-10 2 11 6.60844 23.3859 4
10 -2 -11 -116.781 137.101 3
-10 2 11 23.9134 69.3645 2
10 -2 -10 -54.9295 129.508 3
-10 2 10 117.908 106.857 2
10 -2 -9 5664.38 700.761 3
-10 2 9 5535.27 719.25 2
10 -2 -8 222.959 97.9664 3
-10 2 8 166.636 92.275 2
-10 2 7 419.667 176.825 2
10 -2 -7 493.079 191.369 3
-10 2 6 36.6234 39.8439 2
10 -2 -6 -98.8547 130.471 3
-10 2 5 2202.94 419.917 2
10 -2 -5 2434.28 460.658 3
-10 2 4 1902.02 374.989 2
10 -2 -4 2123.98 326.427 1
10 -2 -4 2003.56 418.185 3
10 -2 -3 3693.13 569.742 3
10 -2 -3 4106.66 487.559 1
-10 2 3 3918.59 548.436 2
-10 2 2 221.394 122.101 2
10 -2 -2 318.564 136.858 1
10 -2 -2 329.292 171.86 3
-10 2 1 1199.5 297.691 2
10 -2 -1 1358 311.274 1
10 -2 -1 1201.54 320.892 3
-10 2 0 8.63418 33.849 2
10 -2 0 28.5594 62.5805 1
10 -2 0 27.7835 40.0373 3
-10 2 -1 1562.65 340.009 2
10 -2 1 1857.23 380.829 1
10 -2 1 1796.03 422.685 3
-10 2 -2 3495.07 531.494 2
10 -2 2 3685.41 569.534 1
10 -2 3 893.281 279.845 1
-10 2 -3 1022.36 293.949 2
-10 2 -3 1003.27 300.354 3
-10 2 -4 3537.3 565.129 2
-10 2 -4 4544.63 652.485 3
-10 1 13 115.656 103.154 4
10 -1 -12 -27.7516 109.335 3
-10 1 12 -34.1486 52.6977 4
10 -1 -11 -6.68597 63.3472 3
10 -1 -11 98.0896 119.573 2
-10 1 11 79.1009 73.8303 2
-10 1 11 9.94675 41.3801 4
10 -1 -10 221.213 139.043 3
-10 1 10 200.647 133.69 2
-10 1 10 200.492 97.7057 4
10 -1 -9 165.327 91.5358 3
-10 1 9 58.155 45.0972 2
-10 1 9 127.521 72.5001 4
10 -1 -8 7413.2 817.537 3
-10 1 8 6607.74 747.955 2
-10 1 7 -11.1672 77.2224 2
10 -1 -7 -52.3902 101.929 3
10 -1 -6 6049.17 519.133 1
10 -1 -6 5601.77 689.248 3
-10 1 6 5479.29 459.368 1
-10 1 6 5701.79 669.784 2
-10 1 5 1311.45 309.255 2
10 -1 -5 1382.27 334.943 3
10 -1 -5 1390.72 260.9 1
-10 1 4 808.006 237.096 2
10 -1 -4 882.774 219.915 1
10 -1 -4 1002.94 289.895 3
10 -1 -3 3012.04 499.28 3
10 -1 -3 3173.39 434.942 1
-10 1 3 3036.77 475.488 2
10 -1 -2 4908.13 569.169 1
10 -1 -2 4640.95 627.89 3
-10 1 2 4575.05 577.011 2
10 -1 -1 3153.88 482.584 1
10 -1 -1 2792.32 496.877 3
-10 1 1 2835.27 453.473 2
-10 1 0 2075.31 394.061 2
10 -1 0 2393.55 431.553 1
-10 1 -1 1221.49 300.308 2
10 -1 1 1395.21 341.604 1
-10 1 -2 15.7752 53.2696 2
10 -1 2 0.94257 41.9701 1
-10 1 -2 60.5441 62.6323 3
-10 1 -3 1467.84 339.118 2
-10 1 -3 1662.39 402.841 3
-10 1 -4 11287.3 985.075 2
-10 0 13 1101.74 307.161 4
10 0 -12 685.055 239.076 3
10 0 -12 965.158 332.615 2
-10 0 12 820.918 290.362 2
-10 0 12 761.109 228.394 4
10 0 -11 -15.7153 39.7154 3
10 0 -11 -11.4885 78.4807 2
-10 0 11 113.185 117.615 2
-10 0 11 103.664 85.38 4
10 0 -10 413.744 174.973 3
-10 0 10 375.781 171.137 2
-10 0 10 386.707 146.505 4
10 0 -9 -37.8004 87.1517 3
-10 0 9 13.0487 20.1079 4
-10 0 9 -94.2117 122.113 2
10 0 -8 3955.05 559.877 3
-10 0 8 4021.55 563.998 2
-10 0 8 4324.25 456.852 4
-10 0 7 585.824 215.902 2
-10 0 7 584.269 148.844 1
10 0 -7 654.691 172.583 1
10 0 -7 614.692 221.362 3
10 0 -6 5094 510.313 1
10 0 -6 4598.7 612.304 3
-10 0 6 4478.05 447.496 1
-10 0 6 4757.47 600.881 2
-10 0 5 216.477 117.481 2
10 0 -5 178.781 111.57 3
10 0 -5 209.559 111.164 1
-10 0 4 847.845 237.135 2
10 0 -4 974.272 235.649 1
10 0 -4 1019.74 296.172 3
-10 0 3 110.929 89.2942 2
10 0 -3 88.4712 80.794 1
10 0 -3 56.4633 42.8902 3
10 0 -2 944.917 252.072 1
-10 0 2 873.314 245.03 2
10 0 -2 892.731 270.201 3
-10 0 1 98.0102 80.2132 2
10 0 -1 147.741 118.062 1
-10 0 0 688.706 214.431 2
10 0 0 776.776 259.851 1
-10 0 -1 1269.92 301.981 2
10 0 1 1329.83 345.059 1
-10 0 -1 1159.32 308.4 3
-10 0 -2 405.114 183.552 2
10 0 2 331.819 164.806 1
-10 0 -2 379.704 182.957 3
-10 0 -3 5190.19 622.164 2
-10 0 -3 5252.96 677.423 3
-10 0 -4 2710.27 473.169 2
-10 -1 13 549.301 195.067 4
10 1 -12 92.9073 125.189 2
-10 -1 12 54.9182 61.335 2
-10 -1 12 30.3927 17.3417 4
10 1 -11 276.057 168.307 3
10 1 -11 237.616 131.72 2
-10 -1 11 179.62 119.723 2
-10 -1 11 259.065 126.151 4
10 1 -10 1282.18 321.71 3
-10 -1 10 1389.59 297.906 4
-10 -1 10 1287.98 326.542 2
-10 -1 9 55.1935 92.2779 1
10 1 -9 171.629 116.694 3
-10 -1 9 153.543 95.7475 4
-10 -1 9 58.9199 71.2875 2
-10 -1 8 822.624 185.037 1
10 1 -8 320.13 29.3752 1
10 1 -8 730.282 233.277 3
-10 -1 8 885.15 208.47 4
-10 -1 8 756.009 224.862 2
10 1 -7 5834.55 683.203 3
10 1 -7 6156.2 563.686 1
-10 -1 7 5798.01 516.566 1
-10 -1 7 5768.43 650.795 2
-10 -1 7 6061.08 525.549 4
10 1 -6 3008.12 415.424 1
10 1 -6 2615.99 472.36 3
-10 -1 6 2689.71 364.859 1
-10 -1 6 2679.18 434.836 2
10 1 -5 4682.86 625.286 3
-10 -1 5 4557.51 548.854 2
10 1 -5 4912.66 556.384 1
-10 -1 4 2012.87 363.368 2
10 1 -4 2184.04 379.458 1
10 1 -4 2084.92 424.851 3
10 1 -3 6899.61 688.151 1
-10 -1 3 6543.62 662.562 2
-10 -1 2 1233.02 278.538 2
10 1 -2 1401.96 329.452 1
-10 -1 1 2851.67 431.456 2
10 1 -1 2906.06 485.497 1
-10 -1 0 1.31628 28.4972 2
-10 -1 0 -109.502 148.003 3
10 1 0 -48.9408 95.1694 1
-10 -1 -1 1237.69 285.933 2
-10 -1 -1 1232.92 329.742 3
10 1 1 1253.44 346.506 1
-10 -1 -2 1191.66 284.808 2
-10 -1 -2 1237.7 329.625 3
10 2 -13 856.502 308.346 2
-10 -2 13 799.152 293.692 2
-10 -2 13 874.953 273.897 4
10 2 -12 1082.82 330.944 2
-10 -2 12 994.967 303.78 2
-10 -2 12 1028.56 284.957 4
10 2 -11 566.363 215.911 3
10 2 -11 663.553 243.054 2
-10 -2 11 642.195 228.966 2
-10 -2 11 603.55 196.355 4
10 2 -10 1152.1 300.959 3
-10 -2 10 1732.18 290.701 1
-10 -2 10 1322.78 287.707 4
-10 -2 10 1231.97 316.059 2
-10 -2 9 114.495 115.304 1
10 2 -9 91.3073 83.3019 3
-10 -2 9 114.797 85.8233 4
-10 -2 9 21.4033 72.5247 2
10 2 -8 3986.05 557.235 3
-10 -2 8 3822.44 528.241 2
-10 -2 8 4004.86 440.362 1
-10 -2 8 3551.65 430.252 4
10 2 -8 4060.68 476.23 1
10 2 -7 3007.83 493.847 3
-10 -2 7 3088.23 401.022 1
-10 -2 7 2974.02 373.442 4
-10 -2 7 3042.67 459.716 2
10 2 -7 2263.82 335.893 1
-10 -2 6 1544.13 321.918 2
10 2 -6 1777.02 334.742 1
10 2 -6 1703.25 387.316 3
-10 -2 6 1539.44 293.379 1
-10 -2 5 9173.46 745.418 2
10 2 -5 10416.7 840.515 1
-10 -2 4 321.599 151.277 2
10 2 -4 333.89 159.299 1
-10 -2 3 153.408 90.7693 2
10 2 -3 154.835 105.739 1
-10 -2 2 -7.48889 40.7328 2
10 2 -2 -3.94519 52.4777 1
-10 -2 2 -72.4606 98.7957 3
10 2 -1 932.56 296.362 1
-10 -2 1 799.252 212.654 2
-10 -2 1 844.611 271.195 3
-10 -2 0 109.094 47.964 2
-10 -2 0 66.4327 55.298 3
10 2 0 -20.5016 83.3644 1
-10 -2 -1 227.339 146.568 3
10 2 1 129.658 107.183 1
10 3 -13 9.3089 57.6243 2
-10 -3 13 73.5012 115.657 2
-10 -3 13 9.01632 11.2547 4
10 3 -12 507.478 243.819 2
-10 -3 12 373.487 203.387 2
-10 -3 12 277.577 134.71 4
-10 -3 11 211.134 107.076 1
10 3 -11 270.48 165.416 2
-10 -3 11 163.955 112.377 4
-10 -3 11 192.397 140.08 2
-10 -3 10 570.575 180.902 4
-10 -3 10 481.003 177.353 2
-10 -3 9 36.4992 11.966 1
-10 -3 9 125.001 93.9535 4
-10 -3 9 -44.5978 127.163 2
10 3 -8 5731.95 598.676 1
-10 -3 8 5373.71 604.97 2
-10 -3 8 5348.05 545.799 1
-10 -3 8 4603.25 489.665 4
10 3 -7 3174.28 426.18 4
-10 -3 7 3073.02 425.772 1
-10 -3 7 2921.86 393.009 4
-10 -3 7 3123.16 452.954 2
10 3 -7 2314.74 349.715 1
-10 -3 6 352.33 146.195 2
10 3 -6 367.479 170.565 1
-10 -3 6 311.199 119.283 4
-10 -3 6 253.281 104.906 1
10 3 -5 11146.8 902.667 1
-10 -3 5 9990.2 763.248 2
-10 -3 4 461.065 158.775 2
-10 -3 4 377.424 154.762 3
10 3 -4 503.881 202.883 1
-10 -3 3 1118.5 253.275 2
-10 -3 3 1196 317.362 3
10 3 -3 1163.76 311.586 1
-10 -3 2 3545.54 550.73 3
10 3 -2 3930.77 584.834 1
10 3 -1 98.7876 117.545 1
-10 -3 1 42.5643 79.1922 3
10 3 0 318.127 183.588 1
-10 -3 0 350.642 186.525 3
10 4 -13 771.266 291.399 2
-10 -4 13 653.491 246.781 2
-10 -4 13 617.917 223.038 4
-10 -4 12 445.841 155.998 1
10 4 -12 640.145 271.76 2
-10 -4 12 680.449 248.761 4
-10 -4 12 528.348 220.892 2
-10 -4 11 389.817 141.287 1
-10 -4 11 444.838 180.195 4
-10 -4 11 464.194 198.94 2
-10 -4 10 4495.51 564.526 2
-10 -4 10 3732.42 443.662 1
-10 -4 10 2924.84 380.427 4
-10 -4 9 300.739 117.964 1
10 4 -9 316.858 154.232 4
10 4 -9 74.2617 135.98 1
-10 -4 9 344.564 153.502 4
-10 -4 9 238.973 96.1617 2
-10 -4 8 1999.45 350.175 2
-10 -4 8 2065.29 356.019 1
10 4 -8 2171.46 375.432 4
-10 -4 8 1770.82 373.938 3
10 4 -8 2196.63 386.608 1
-10 -4 8 1957.49 342.395 4
-10 -4 7 732.819 209.42 1
-10 -4 7 765.068 210.736 2
10 4 -7 780.953 226.352 4
-10 -4 7 592.759 198.447 3
-10 -4 7 670.507 188.35 4
10 4 -7 546.196 124.7 1
-10 -4 6 1278.84 260.505 2
10 4 -6 1225.95 264.114 4
10 4 -6 1338.58 323.247 1
-10 -4 6 1080.42 312.921 3
-10 -4 6 1054.06 222.434 4
-10 -4 6 1311.81 288.6 1
10 4 -5 4688.61 611.605 1
-10 -4 5 4426.78 595.202 3
-10 -4 4 677.815 231.703 3
10 4 -4 778.988 255.365 1
-10 -4 3 -6.78804 66.4247 3
10 4 -3 47.6149 74.7101 1
-10 -4 2 1012.93 279.667 3
10 4 -2 951.11 290.709 1
10 4 -1 2538.27 497.238 1
-10 -4 1 2670.79 472.259 3
-10 -5 14 254.091 157.839 2
-10 -5 13 284.206 175.219 2
-10 -5 13 263.67 154.829 4
-10 -5 12 487.842 166.639 1
-10 -5 12 414.255 168.974 4
-10 -5 11 215.155 181.328 4
-10 -5 11 1373.06 318.62 1
-10 -5 10 397.724 161.688 1
10 5 -10 348.656 165.785 4
-10 -5 10 347.697 147.461 3
-10 -5 10 348.325 165.553 4
-10 -5 9 185.567 106.856 1
10 5 -9 122.263 92.1864 4
-10 -5 9 65.0095 39.0261 3
-10 -5 9 149.673 106.328 4
-10 -5 8 206.28 127.074 1
10 5 -8 177.684 119.069 4
-10 -5 8 65.5113 36.3169 3
10 5 -8 145.377 112.886 1
-10 -5 8 165.427 94.4626 4
10 5 -7 1276.6 324.194 1
-10 -5 7 1323.68 299.702 1
10 5 -7 1356.32 291.927 4
-10 -5 7 1154.86 277.303 3
-10 -5 7 1102.83 250.098 4
-10 -5 6 2247.17 411.13 1
10 5 -6 2378.09 391.773 4
-10 -5 6 1969.12 381.299 3
10 5 -6 2376.88 443.721 1
-10 -5 6 1928.51 322.709 4
10 5 -5 221.05 127.826 1
-10 -5 5 336.9 163.646 3
-10 -5 5 118.593 14.7752 1
-10 -5 4 56.734 98.7653 3
10 5 -4 -92.3086 108.81 1
-10 -5 3 557.19 211.468 3
10 5 -3 529.684 220.938 1
-10 -5 2 4567.69 624.705 3
-10 -6 12 765.049 281.026 1
-10 -6 12 -943.062 353.272 4
10 6 -11 107.972 65.6793 4
-10 -6 11 159.132 116.763 4
-10 -6 10 1994.32 379.478 1
10 6 -10 2107.54 425 4
-10 -6 10 1702.96 324.18 3
-10 -6 10 1704.44 353.622 4
-10 -6 9 149.232 115.841 1
10 6 -9 75.54 87.832 4
-10 -6 9 141.264 102.847 3
10 6 -9 83.4725 131.313 1
-10 -6 9 58.1658 70.9236 4
-10 -6 8 2301.33 416.051 1
10 6 -8 2281.38 415.075 4
-10 -6 8 2022.32 381.872 3
10 6 -8 2457.91 452.483 1
-10 -6 8 1942.86 354.639 4
-10 -6 7 6.96376 36.0215 1
10 6 -7 14.5752 21.6887 1
10 6 -7 -1.93976 43.4489 4
-10 -6 7 30.8514 58.3224 3
-10 -6 7 26.5683 17.0373 4
-10 -6 6 -55.3014 110.325 1
10 6 -6 30.6985 56.2289 4
-10 -6 6 0.94686 23.5963 3
10 6 -6 -7.50069 17.2777 1
10 6 -5 828.435 272.917 1
-10 -6 5 889.01 264.512 3
-10 -6 5 665.572 213.337 1
10 7 -11 544.946 246.364 4
-10 -7 11 544.929 230.691 4
10 7 -10 6017.77 776.669 4
-10 -7 10 4895.58 626.079 4
10 7 -9 7380.71 824.095 4
-10 -7 9 5884.06 668.783 4
10 7 -8 1252.88 337.815 4
-10 -7 8 931.493 263.912 4
10 7 -7 167.793 128.759 4
10 7 -6 1154.96 311.45 4
-10 -7 5 17.9913 169.682 3
10 8 -9 186.185 149.86 4
-10 -8 9 63.715 40.3687 4
10 8 -8 -4.9919 90.039 4
-10 -8 8 -67.5397 115.008 4
10 8 -7 721.53 270.49 4
10 8 -6 469.593 226.105 4
-11 5 6 806.714 296.242 2
11 -5 -6 1606.19 440.206 3
-11 5 5 194.794 137.297 2
11 -5 -5 174.579 121.697 3
-11 5 4 109.998 62.4855 2
11 -5 -4 102.784 78.7425 3
-11 5 3 209.594 135.214 2
11 -5 -3 152.401 108.22 3
-11 5 2 19.3858 47.3311 2
11 -5 -2 -93.0681 154.682 3
-11 5 1 108.138 89.8148 2
11 -5 -1 128.542 107.861 3
11 -5 0 301.024 196.607 3
11 -4 -8 -54.6531 61.3592 3
-11 4 7 333.521 212.731 2
11 -4 -7 116.074 49.3722 3
-11 4 6 232.343 140.278 2
11 -4 -6 352.984 192.966 3
-11 4 5 536.559 235.163 2
11 -4 -5 634.803 273.386 3
-11 4 4 -24.3308 27.3935 2
11 -4 -4 -9.01 89.8504 3
-11 4 3 1140.17 334.176 2
11 -4 -3 1324.66 368.543 3
-11 4 2 482.691 193.658 2
11 -4 -2 423.617 208.934 3
-11 4 1 36.6436 58.9824 2
11 -4 -1 169.824 137.157 3
11 -4 0 5772.27 777.696 3
-11 4 0 5575.16 742.878 2
11 -4 1 -49.9078 134.873 1
11 -4 1 -11.8565 72.3798 3
11 -4 2 821.139 283.665 1
11 -3 -10 1555.86 405.219 3
11 -3 -9 -134.603 188.377 3
-11 3 8 1066.31 343.115 2
11 -3 -8 1023.59 322.908 3
-11 3 7 878.485 306.747 2
11 -3 -7 875.006 308.349 3
11 -3 -6 4613.62 692.616 3
-11 3 6 4112.16 628.411 2
-11 3 5 387.168 202.934 2
11 -3 -5 374.185 183.656 3
-11 3 4 151.337 88.1954 2
11 -3 -4 84.4291 79.817 3
-11 3 3 66.8414 117.338 2
11 -3 -3 -50.4219 86.0925 3
-11 3 2 -70.5466 108.238 2
11 -3 -2 -18.3744 63.138 3
11 -3 -1 3455.97 520.503 1
11 -3 -1 3181.45 571.196 3
-11 3 1 3138.49 530.25 2
-11 3 0 517.543 247.125 2
11 -3 0 402.405 191.449 1
11 -3 0 463.969 221.243 3
-11 3 -1 1310.56 325.18 2
11 -3 1 1439.65 373.779 1
11 -3 1 1347.48 381.51 3
11 -2 -11 -158.895 148.721 3
11 -2 -10 -13.6076 59.4858 3
-11 2 9 700.477 273.559 2
11 -2 -9 676.067 249.792 3
-11 2 8 128.302 109.87 2
11 -2 -8 2.7339 66.2635 3
-11 2 7 601.379 249.297 2
11 -2 -7 624.592 249.497 3
-11 2 6 592.193 223.767 2
11 -2 -6 560.15 227.543 3
-11 2 5 179.48 129.495 2
11 -2 -5 175.126 122.449 3
-11 2 4 323.145 163.824 2
11 -2 -4 327.114 187.078 3
-11 2 3 360.731 171.155 2
11 -2 -3 423.055 165.489 1
11 -2 -3 415.768 198.313 3
-11 2 2 322.836 168.173 2
11 -2 -2 319.618 173.967 3
11 -2 -2 244.782 133.227 1
11 -2 -1 9092.24 858.664 1
11 -2 -1 8570.26 934.059 3
-11 2 1 8623.33 862.519 2
-11 2 0 922.453 279.668 2
11 -2 0 950.071 307.83 1
11 -2 0 1008.98 332.396 3
-11 2 -1 80.3042 99.3168 2
11 -2 1 25.9065 70.2777 1
11 -1 -12 -25.3183 118.651 3
11 -1 -11 -41.9268 88.1071 3
11 -1 -10 671.164 244.219 3
-11 1 10 638.241 229.011 2
11 -1 -9 16.6688 85.8229 3
-11 1 9 -53.7365 68.2816 2
11 -1 -8 7711.67 853.999 3
-11 1 8 7337.24 828.369 2
-11 1 7 2057.27 435.063 2
11 -1 -7 2073.69 441.912 3
-11 1 6 2297.01 456.967 2
11 -1 -6 2431.89 479.596 3
-11 1 5 21.6502 46.7359 2
11 -1 -5 26.3611 55.3976 3
-11 1 4 334.013 150.368 2
11 -1 -4 389.432 160.503 1
11 -1 -4 328.121 180.578 3
-11 1 3 1651.99 367.779 2
11 -1 -3 1798.19 351.856 1
11 -1 -3 1806.84 426.224 3
11 -1 -2 1019.43 278.985 1
-11 1 2 912.611 268.254 2
11 -1 -2 1019.62 322.184 3
-11 1 1 1586.54 362.167 2
11 -1 -1 1666 376.179 1
-11 1 0 4092.72 579.061 2
11 -1 0 4781.61 668.475 1
-11 1 -1 659.45 218.62 2
11 -1 1 680.88 259.369 1
-11 1 -2 1356.52 331.63 2
11 0 -11 -6.98075 20.8782 3
-11 0 11 -80.4897 109.399 2
11 0 -10 1576.43 369.206 3
-11 0 10 1185.82 313.628 2
-11 0 9 2599.93 496.177 2
11 0 -9 2694.18 491.976 3
-11 0 8 2029 427.272 2
11 0 -8 1958.07 423.03 3
11 0 -7 5329.85 701.615 3
-11 0 7 5361.23 682.778 2
-11 0 6 236.109 141.383 2
11 0 -6 315.568 158.229 1
11 0 -6 211.422 108.564 3
-11 0 6 144.658 39.652 1
-11 0 5 2545.7 444.289 2
11 0 -5 2800.95 513.819 3
11 0 -5 2899.31 439.469 1
-11 0 4 138.394 81.8305 2
11 0 -4 215.673 113.036 1
11 0 -4 105.777 77.5785 3
11 0 -3 3216.21 561.021 3
11 0 -3 3383.63 508.739 1
-11 0 3 3201.68 503.284 2
-11 0 2 456.122 192.418 2
11 0 -2 427.702 192.626 1
-11 0 1 2177.02 409.047 2
11 0 -1 2178.3 439.765 1
-11 0 0 44.573 55.8173 2
-11 0 0 -35.1639 126.431 3
11 0 0 46.7462 40.7319 1
-11 0 -1 2883.78 471.982 2
-11 0 -2 538.619 219.369 2
11 1 -11 104.195 86.279 3
-11 -1 11 33.3586 111.626 2
11 1 -10 278.037 149.212 3
-11 -1 10 161.965 86.5783 2
11 1 -9 3895.46 576.887 3
-11 -1 9 3714.89 574.864 2
-11 -1 8 300.261 158.36 2
11 1 -8 267.771 151.043 3
-11 -1 7 1659.32 294.447 1
-11 -1 7 1720.23 375.516 2
11 1 -7 1500.87 368.703 3
-11 -1 6 1450.49 326.005 2
11 1 -6 1541.72 322.052 1
11 1 -6 1635.25 384.496 3
-11 -1 6 1356.43 274.911 1
-11 -1 5 211.664 123.349 2
11 1 -5 87.8015 83.5063 3
11 1 -5 259.727 148.651 1
-11 -1 4 2208.91 402.529 2
11 1 -4 2345.26 421.25 1
-11 -1 3 -47.6091 94.4548 2
11 1 -3 -19.9619 58.8853 1
-11 -1 2 53.0028 68.5189 2
11 1 -2 108.47 121.236 1
11 1 -1 552.536 240.346 1
-11 -1 1 338.358 119.596 2
-11 -1 1 439.526 182.288 3
-11 -1 0 6534.82 692.151 2
-11 -2 12 61.9727 85.7205 2
11 2 -11 373.512 189.983 3
-11 -2 11 375.755 177.229 2
11 2 -10 3751.86 562.992 3
-11 -2 10 3178.01 519.506 2
-11 -2 9 2669.38 471.552 2
11 2 -9 3058.92 512.604 3
11 2 -8 5427.55 710.057 3
11 2 -8 5462.62 599.533 1
-11 -2 8 4970.69 525.241 1
-11 -2 8 5312.91 648.759 2
11 2 -7 10520.1 820.69 1
-11 -2 7 10690.6 800.771 1
-11 -2 7 10923.2 920.368 2
11 2 -6 3817.92 524.261 1
-11 -2 6 3412.64 456.156 1
-11 -2 6 3424.79 482.021 2
-11 -2 5 143.565 101.777 2
11 2 -5 151.033 97.1313 1
-11 -2 4 1004.62 267.858 2
11 2 -4 1047.91 297.034 1
-11 -2 3 78.5079 95.0017 2
-11 -2 3 -73.8809 123.372 3
11 2 -3 -2.7746 395.276 1
11 2 -2 28.1561 18.044 1
-11 -2 2 41.6377 46.169 3
-11 -3 13 305.235 187.965 4
-11 -3 12 815.765 246.065 4
-11 -3 12 905.211 294.308 2
-11 -3 11 -14.9827 84.1516 2
-11 -3 10 382.546 168.051 2
11 3 -9 3811.41 481.612 1
-11 -3 9 4218.07 577.959 2
-11 -3 9 4317.27 497.821 1
11 3 -8 13806.8 1000.96 1
-11 -3 8 13113.7 896.915 1
-11 -3 8 13014.5 989.103 2
-11 -3 7 61.5505 78.9359 1
-11 -3 7 41.983 60.6098 2
-11 -3 6 -28.8805 58.6584 2
11 3 -6 11.647 55.8107 1
-11 -3 6 -157.393 140.128 1
11 3 -5 -0.21115 54.1812 1
-11 -3 5 -10.8424 72.8741 3
-11 -3 4 69.4151 89.5385 3
11 3 -4 130.386 115.17 1
-11 -3 3 466.172 189.779 3
11 3 -3 493.098 225.253 1
-11 -4 12 1043.13 290.896 4
-11 -4 12 1151.63 327.051 2
-11 -4 11 1921.77 373.491 4
-11 -4 11 1864.18 380.916 2
-11 -4 10 59.0281 59.8061 1
-11 -4 10 -29.3805 89.4835 3
-11 -4 9 1983.01 355.05 1
-11 -4 9 1538.93 346.583 3
11 4 -9 2028.07 363.353 1
-11 -4 8 3379.41 532.705 3
11 4 -8 4025.1 562.789 1
-11 -4 8 3774.02 501.672 1
-11 -4 7 314.553 144.688 1
-11 -4 7 246.416 174.368 3
11 4 -6 740.403 253.878 1
-11 -4 6 577.956 222.328 3
-11 -4 6 541.645 183.117 1
11 4 -5 148.039 134.089 1
-11 -4 5 31.4761 14.1631 3
-11 -4 4 153.106 121.151 3
11 4 -4 218.309 143.907 1
-11 -5 12 229.459 97.1387 4
-11 -5 11 2270.45 429.172 1
-11 -5 11 -570.343 323.738 4
-11 -5 10 -488.663 262.772 1
-11 -5 10 145.761 89.0924 3
11 5 -9 2626.21 467.268 1
-11 -5 9 2743.14 441.814 1
-11 -5 9 2420.16 431.662 3
-11 -5 8 1833.14 370.204 1
-11 -5 8 1440.35 351.098 3
11 5 -8 1790.59 397.186 1
-11 -5 7 1375.32 323.763 1
-11 -5 7 1294.32 329.87 3
11 5 -7 1443.76 354.201 1
-11 -5 6 169.97 131.86 3
-11 -6 11 397.287 168.151 4
-11 -6 10 63.2731 79.2754 3
-11 -6 10 169.327 132.325 4
-11 -6 9 729.902 238.842 3
-11 -6 8 28.0712 36.2893 3
-12 2 7 1085 332.712 2
-12 2 6 2798.29 524.161 2
-12 2 5 312.695 162.3 2
-12 2 4 64.5315 71.4885 2
-12 2 3 967.265 309.175 2
-12 2 2 1861.85 424.094 2
-12 1 8 893.53 304.945 2
12 -1 -8 1188.6 366.823 3
-12 1 7 50.0687 26.9117 2
12 -1 -7 146.456 148.367 3
-12 1 6 138.399 128.986 2
12 -1 -6 196.554 133.791 3
-12 1 5 -65.693 105.938 2
12 -1 -5 10.2972 12.0774 3
-12 1 4 1606.2 379.691 2
-12 1 3 980.587 295.734 2
-12 1 2 705.519 254.635 2
12 -1 -2 716.405 270.699 1
-12 1 1 4969.48 682.584 2
12 -1 -1 4584.19 664.272 1
12 0 -10 527.436 251.157 3
-12 0 9 1598.75 409.608 2
12 0 -9 1676.81 424.696 3
-12 0 8 93.8188 103.73 2
12 0 -8 62.2101 91.6606 3
-12 0 7 7.67296 58.9635 2
12 0 -7 90.87 92.2313 3
-12 0 6 303.322 148.614 2
12 0 -6 219.043 146.348 3
-12 0 5 285.264 124.991 2
12 0 -5 160.114 122.389 3
-12 0 4 1123.09 320.608 2
12 0 -4 1263.76 333.264 1
-12 0 3 268.244 131.979 2
12 0 -3 216.48 123.612 1
-12 0 2 262.911 174.059 2
12 0 -2 132.74 12.6648 1
-12 0 1 -113.542 162.152 2
12 1 -11 5245.58 723.577 3
-12 -1 10 -50.7348 28.3507 2
12 1 -10 4.27272 33.3439 3
-12 -1 9 141.329 159.067 2
12 1 -9 -43.7408 111.614 3
-12 -1 8 256.437 144.09 2
12 1 -8 343.023 193.72 3
-12 -1 7 513.045 189.183 2
12 1 -7 693.7 275.745 3
-12 -1 6 134.31 88.4641 2
12 1 -6 95.9992 105.705 3
-12 -1 6 -129.88 154.013 1
-12 -1 5 274.095 142.388 2
12 1 -5 371.778 175.555 1
-12 -1 4 1631.88 362.546 2
12 1 -4 1661.07 381.172 1
-12 -1 3 39.5897 71.0275 2
12 1 -3 -1.04848 25.907 1
12 2 -11 813.011 274.035 3
-12 -2 10 -33.53 66.0952 2
12 2 -10 17.9989 73.9024 3
-12 -2 9 4549.32 643.903 2
-12 -2 8 726.158 253.566 2
-12 -2 7 314.292 133.91 1
-12 -2 7 415.524 178.473 2
-12 -2 6 210.19 145.705 2
12 2 -6 207.339 131.05 1
-12 -2 6 -53.8952 135.576 1
12 2 -5 -60.6741 109.727 1
12 2 -4 70.8624 26.8074 1
-12 -3 11 3872.47 612.083 2
-12 -3 8 192.502 117.061 1
12 3 -8 200.526 127.356 1
-12 -3 7 16.8088 35.5431 1
12 3 -6 -55.8037 105.813 1
-12 -3 6 -152.07 156.568 1
-13 -1 6 1158.26 331.191 2
