#------------------------------------------------------------------------------
#$Date: 2019-11-03 12:57:12 +0200 (Sun, 03 Nov 2019) $
#$Revision: 221465 $
#$URL: file:///home/coder/svn-repositories/cod/cif/4/12/83/4128342.cif $
#------------------------------------------------------------------------------
#
# This file is available in the Crystallography Open Database (COD),
# http://www.crystallography.net/
#
# All data on this site have been placed in the public domain by the
# contributors.
#
data_4128342
loop_
_publ_author_name
'Fager, Diana C.'
'Lee, KyungA'
'Hoveyda, Amir H.'
_publ_section_title
;
 Catalytic Enantioselective Addition of an Allyl Group to Ketones
 Containing a Tri-, a Di-, or a Monohalomethyl Moiety. Stereochemical
 Control Based on Distinctive Electronic and Steric Attributes of C-Cl,
 C-Br, and C-F Bonds.
;
_journal_issue                   40
_journal_name_full               'Journal of the American Chemical Society'
_journal_page_first              16125
_journal_page_last               16138
_journal_paper_doi               10.1021/jacs.9b08443
_journal_volume                  141
_journal_year                    2019
_chemical_absolute_configuration ad
_chemical_formula_moiety         'C15 H13 Cl3 O2'
_chemical_formula_sum            'C15 H13 Cl3 O2'
_chemical_formula_weight         331.60
_space_group_crystal_system      monoclinic
_space_group_IT_number           4
_space_group_name_Hall           'P 2yb'
_space_group_name_H-M_alt        'P 1 21 1'
_symmetry_space_group_name_Hall  'P 2yb'
_symmetry_space_group_name_H-M   'P 1 21 1'
_atom_sites_solution_hydrogens   mixed
_atom_sites_solution_primary     direct
_atom_sites_solution_secondary   difmap
_audit_creation_method           SHELXL-2014/7
_cell_angle_alpha                90
_cell_angle_beta                 98.325(2)
_cell_angle_gamma                90
_cell_formula_units_Z            2
_cell_length_a                   8.0561(6)
_cell_length_b                   6.0406(4)
_cell_length_c                   14.5291(10)
_cell_measurement_reflns_used    9990
_cell_measurement_temperature    100(2)
_cell_measurement_theta_max      66.59
_cell_measurement_theta_min      3.07
_cell_volume                     699.59(8)
_computing_cell_refinement       'SAINT (Bruker, 2014)'
_computing_data_collection       'APEX2 (Bruker, 2014)'
_computing_data_reduction        'SAINT (Bruker, 2014)'
_computing_molecular_graphics    'Bruker SHELXTL'
_computing_publication_material  'Bruker SHELXTL'
_computing_structure_refinement  'SHELXL-2014 (Sheldrick, 2014)'
_computing_structure_solution    'SHELXL-2014 (Sheldrick, 2014)'
_diffrn_ambient_temperature      100(2)
_diffrn_measured_fraction_theta_full 1.000
_diffrn_measured_fraction_theta_max 1.000
_diffrn_measurement_device_type  'Bruker Kappa DUO CCD diffractometer'
_diffrn_measurement_method       '\f and \w scans'
_diffrn_radiation_monochromator  mirrors
_diffrn_radiation_type           CuK\a
_diffrn_radiation_wavelength     1.54178
_diffrn_reflns_av_R_equivalents  0.0493
_diffrn_reflns_av_unetI/netI     0.0335
_diffrn_reflns_Laue_measured_fraction_full 1.000
_diffrn_reflns_Laue_measured_fraction_max 1.000
_diffrn_reflns_limit_h_max       9
_diffrn_reflns_limit_h_min       -9
_diffrn_reflns_limit_k_max       7
_diffrn_reflns_limit_k_min       -7
_diffrn_reflns_limit_l_max       17
_diffrn_reflns_limit_l_min       -17
_diffrn_reflns_number            10919
_diffrn_reflns_point_group_measured_fraction_full 0.998
_diffrn_reflns_point_group_measured_fraction_max 0.998
_diffrn_reflns_theta_full        66.586
_diffrn_reflns_theta_max         66.586
_diffrn_reflns_theta_min         3.074
_diffrn_source                   'microfocus sealed tube'
_diffrn_source_type              'Incoatec I\uS'
_exptl_absorpt_coefficient_mu    5.913
_exptl_absorpt_correction_T_max  0.7528
_exptl_absorpt_correction_T_min  0.4327
_exptl_absorpt_correction_type   multi-scan
_exptl_absorpt_process_details
;
Sheldrick, G.M. (2013). SADABS. Bruker AXS Inc. Madison, WI USA.
;
_exptl_crystal_colour            colorless
_exptl_crystal_density_diffrn    1.574
_exptl_crystal_density_meas      ?
_exptl_crystal_density_method    none
_exptl_crystal_description       block
_exptl_crystal_F_000             340
_exptl_crystal_size_max          0.600
_exptl_crystal_size_mid          0.300
_exptl_crystal_size_min          0.180
_refine_diff_density_max         0.375
_refine_diff_density_min         -0.350
_refine_diff_density_rms         0.072
_refine_ls_abs_structure_details
;
 Classical Flack method preferred over Parsons because s.u. lower.
;
_refine_ls_abs_structure_Flack   0.00(3)
_refine_ls_extinction_method     none
_refine_ls_goodness_of_fit_ref   1.109
_refine_ls_hydrogen_treatment    mixed
_refine_ls_matrix_type           full
_refine_ls_number_parameters     185
_refine_ls_number_reflns         2470
_refine_ls_number_restraints     2
_refine_ls_restrained_S_all      1.109
_refine_ls_R_factor_all          0.0674
_refine_ls_R_factor_gt           0.0673
_refine_ls_shift/su_max          0.000
_refine_ls_shift/su_mean         0.000
_refine_ls_structure_factor_coef Fsqd
_refine_ls_weighting_details
'w=1/[\s^2^(Fo^2^)+(0.1507P)^2^+0.1466P] where P=(Fo^2^+2Fc^2^)/3'
_refine_ls_weighting_scheme      calc
_refine_ls_wR_factor_gt          0.1728
_refine_ls_wR_factor_ref         0.1729
_reflns_Friedel_coverage         0.808
_reflns_Friedel_fraction_full    0.996
_reflns_Friedel_fraction_max     0.996
_reflns_number_gt                2460
_reflns_number_total             2470
_reflns_threshold_expression     'I > 2\s(I)'
_cod_data_source_file            ja9b08443_si_004.cif
_cod_data_source_block           C15H13Cl3O2
_cod_depositor_comments
;
The following automatic conversions were performed:

'_exptl_crystal_density_meas' value 'not measured' was changed to '?'
- the value is perceived as not measured.

Automatic conversion script
Id: cif_fix_values 4973 2017-02-22 13:04:09Z antanas 
;
_cod_database_code               4128342
_shelx_shelxl_version_number     2014/7
_shelx_space_group_comment
;
The symmetry employed for this shelxl refinement is uniquely defined
by the following loop, which should always be used as a source of
symmetry information in preference to the above space-group names.
They are only intended as comments.
;
_shelx_estimated_absorpt_t_min   0.126
_shelx_estimated_absorpt_t_max   0.416
_shelx_res_file
;

    sad_a.res created by SHELXL-2014/7


TITL sad_a.res in P2(1)
CELL  1.54178   8.0561   6.0406  14.5291   90.000   98.325   90.000
ZERR   2.000   0.0006   0.0004   0.0010    0.000    0.002    0.000
LATT -1
SYMM -X, 1/2+Y, -Z
SFAC C  H  O  Cl
UNIT 30 26 4 6
L.S. 10
BOND $H
FMAP 2
PLAN 20
SIZE 0.60 0.30 0.18
TEMP -173
DFIX 0.84 O2 H2O
CONF
HTAB O2 O1
ACTA
WGHT    0.150700    0.146600
FVAR       0.64537
CL1   4    0.694174    0.207046    0.176589    11.00000    0.02432    0.01349 =
         0.02330    0.00026    0.00446    0.00201
CL2   4    0.828512    0.650232    0.188985    11.00000    0.01668    0.01987 =
         0.02349   -0.00031    0.00380   -0.00376
CL3   4    0.550051    0.545248    0.050312    11.00000    0.02329    0.02433 =
         0.01581    0.00264    0.00075   -0.00109
O1    3    0.199444    0.727013    0.121724    11.00000    0.02182    0.02752 =
         0.03322    0.00441   -0.00428    0.00255
O2    3    0.491970    0.790616    0.227998    11.00000    0.01852    0.01530 =
         0.02121    0.00055   -0.00169   -0.00012
H2O   2    0.400002    0.798844    0.192413    11.00000   -1.50000
C1    1    0.118529    0.364153    0.070428    11.00000    0.01894    0.03423 =
         0.02761   -0.00912   -0.00051    0.00161
AFIX 137
H1A   2    0.024504    0.440664    0.033272    11.00000   -1.50000
H1B   2    0.075195    0.251945    0.109471    11.00000   -1.50000
H1C   2    0.187878    0.292524    0.028931    11.00000   -1.50000
AFIX   0
C2    1    0.221830    0.527171    0.130596    11.00000    0.01224    0.02923 =
         0.02542   -0.00033    0.00525    0.00139
C3    1    0.347142    0.431750    0.208866    11.00000    0.01559    0.01775 =
         0.02159   -0.00388    0.00262   -0.00209
AFIX  23
H3A   2    0.374764    0.279292    0.191197    11.00000   -1.20000
H3B   2    0.290973    0.420491    0.264949    11.00000   -1.20000
AFIX   0
C4    1    0.514710    0.559703    0.236029    11.00000    0.01655    0.01305 =
         0.01952    0.00196    0.00060   -0.00115
C5    1    0.592876    0.507801    0.336298    11.00000    0.01186    0.01666 =
         0.01771   -0.00061    0.00204    0.00029
C6    1    0.690734    0.666358    0.386044    11.00000    0.01423    0.01291 =
         0.01884    0.00057    0.00318    0.00130
AFIX  43
H6    2    0.708761    0.804387    0.357755    11.00000   -1.20000
AFIX   0
C7    1    0.764918    0.625581    0.479159    11.00000    0.01341    0.01535 =
         0.01848   -0.00256    0.00486    0.00210
C8    1    0.871719    0.785246    0.530075    11.00000    0.01527    0.01678 =
         0.01939   -0.00177    0.00457   -0.00142
AFIX  43
H8    2    0.894074    0.921255    0.501417    11.00000   -1.20000
AFIX   0
C9    1    0.942699    0.743881    0.620432    11.00000    0.01675    0.02034 =
         0.02132   -0.00537   -0.00030   -0.00009
AFIX  43
H9    2    1.015466    0.849583    0.653663    11.00000   -1.20000
AFIX   0
C10   1    0.906438    0.542154    0.663652    11.00000    0.01945    0.02320 =
         0.01614    0.00036   -0.00057    0.00291
AFIX  43
H10   2    0.953155    0.515753    0.726546    11.00000   -1.20000
AFIX   0
C11   1    0.805850    0.385841    0.616519    11.00000    0.01971    0.02153 =
         0.01829    0.00128    0.00524    0.00320
AFIX  43
H11   2    0.784253    0.251193    0.646424    11.00000   -1.20000
AFIX   0
C12   1    0.732703    0.423821    0.522198    11.00000    0.01185    0.01918 =
         0.01871   -0.00017    0.00316    0.00441
C13   1    0.630402    0.263946    0.470512    11.00000    0.01618    0.01152 =
         0.02283    0.00159    0.00560   -0.00009
AFIX  43
H13   2    0.607259    0.128048    0.499015    11.00000   -1.20000
AFIX   0
C14   1    0.564107    0.303087    0.379486    11.00000    0.01548    0.01542 =
         0.02032   -0.00254    0.00127   -0.00039
AFIX  43
H14   2    0.498371    0.192216    0.345057    11.00000   -1.20000
AFIX   0
C15   1    0.641751    0.492327    0.166992    11.00000    0.01752    0.01530 =
         0.01784    0.00056    0.00026   -0.00154
HKLF 4

REM  sad_a.res in P2(1)
REM R1 =  0.0673 for    2460 Fo > 4sig(Fo)  and  0.0674 for all    2470 data
REM    185 parameters refined using      2 restraints

END

WGHT      0.1506      0.1481

REM Highest difference peak  0.375,  deepest hole -0.350,  1-sigma level  0.072
Q1    1   0.7801  0.7032  0.4963  11.00000  0.05    0.37
Q2    1   0.8294  0.7923  0.1811  11.00000  0.05    0.36
Q3    1   0.8139  0.5098  0.1585  11.00000  0.05    0.35
Q4    1   0.7006  0.3612  0.1658  11.00000  0.05    0.33
Q5    1   0.7104  0.3596  0.2025  11.00000  0.05    0.33
Q6    1   0.6452  0.5714  0.3568  11.00000  0.05    0.31
Q7    1   0.5444  0.3873  0.0247  11.00000  0.05    0.29
Q8    1   0.9282  0.6432  0.6398  11.00000  0.05    0.29
Q9    1   0.5376  0.4074  0.0786  11.00000  0.05    0.28
Q10   1   0.8231  0.5007  0.2175  11.00000  0.05    0.27
Q11   1   0.4581  0.5415  0.2233  11.00000  0.05    0.26
Q12   1   0.7037  0.0784  0.2009  11.00000  0.05    0.25
Q13   1   0.8975  0.4230  0.6361  11.00000  0.05    0.25
Q14   1   0.5849  0.4912  0.1990  11.00000  0.05    0.25
Q15   1   0.7702  0.5184  0.5026  11.00000  0.05    0.23
Q16   1   0.3643  0.5193  0.1464  11.00000  0.05    0.23
Q17   1   0.6436  0.5020  0.0833  11.00000  0.05    0.22
Q18   1   0.5861  0.2656  0.1413  11.00000  0.05    0.22
Q19   1   0.7900  0.4120  0.5908  11.00000  0.05    0.21
Q20   1   0.6784  0.0928  0.1444  11.00000  0.05    0.21
;
_shelx_res_checksum              74893
_shelx_hkl_file
;
   1   0   0 1056.39   71.39
   1   0   0 1126.59   70.49
  -1   0   0 1113.99   70.09
  -1   0   0 1087.59   70.09
  -1   0   0 1160.18   70.49
  -1   0   0 1170.98   71.19
   1   0   0 1069.69   70.09
   2   0   0  357.96   22.40
   2   0   0  344.87   23.70
   2   0   0  342.27   20.90
  -2   0   0  339.27   21.30
  -2   0   0  333.37   20.80
  -2   0   0  308.27   20.80
   2   0   0  311.07   21.70
   2   0   0  328.67   21.10
   2   0   0  291.97   20.80
   2   0   0  335.77   21.00
  -2   0   0  347.07   21.50
  -2   0   0  324.57   20.90
  -3   0   0  578.94   35.90
  -3   0   0  563.34   36.30
  -3   0   0  517.75   36.40
  -3   0   0  559.84   35.50
   3   0   0  586.94   35.80
   3   0   0  570.04   35.60
  -4   0   0    1.80    1.10
  -4   0   0    1.10    0.30
   4   0   0    1.40    0.60
  -5   0   0   18.10    2.60
  -5   0   0   18.70    1.50
  -5   0   0   19.50    1.70
  -5   0   0   20.60    1.40
  -6   0   0   99.79    7.20
  -6   0   0  108.79    7.40
  -6   0   0  116.49    7.60
   6   0   0  117.29    7.30
  -6   0   0  112.99    7.20
  -7   0   0    3.30    0.80
   7   0   0    3.50    0.70
   7   0   0    4.30    1.10
   7   0   0    3.00    0.70
  -7   0   0    2.50    0.50
  -8   0   0  156.98   10.70
  -8   0   0  173.08   11.10
   8   0   0  164.38   10.60
   8   0   0  165.28   11.00
   9   0   0    1.60    0.90
  -9   0   0    1.00    0.40
   9   0   0    0.70    0.50
   0  -1   0   -1.00    0.10
   0  -1   0   -0.90    0.60
   0  -1   0   -1.00    2.80
   0  -1   0   -1.00    0.70
   0  -1   0   -1.10    0.10
   0   1   0   -0.90    0.10
   0   1   0   -0.60    0.40
   0   1   0   -1.00    0.70
   0   1   0   -0.90    0.30
   0   1   0   -1.00    0.40
   0   1   0   -0.90    0.50
   1  -1   0  640.44   40.60
   1  -1   0  695.03   47.70
  -1  -1   0  622.44   40.30
  -1  -1   0  624.64   40.30
   1  -1   0  643.74   40.30
  -1  -1   0  657.33   40.60
  -1  -1   0  610.54   41.40
   1  -1   0  656.83   40.70
   1  -1   0  594.24   40.60
   1   1   0  707.23   43.10
   1   1   0  651.53   43.00
   1   1   0  700.43   44.80
   1   1   0  666.93   44.00
  -1   1   0  644.64   43.10
  -1   1   0  695.03   43.10
   2  -1   0  983.20   70.79
   2  -1   0  976.60   71.49
  -2  -1   0 1229.48   71.39
  -2  -1   0 1124.39   70.89
  -2  -1   0 1051.49   72.39
  -2  -1   0 1103.79   70.99
   2  -1   0 1168.58   71.19
  -2  -1   0 1209.68   70.69
   2  -1   0 1152.98   74.59
  -2  -1   0 1056.29   71.39
  -2  -1   0 1190.48   70.69
  -2  -1   0 1207.58   70.79
   2   1   0 1244.58   82.59
   2   1   0 1386.46   82.09
   2   1   0 1191.48   83.69
   2   1   0 1328.77   82.09
  -2   1   0 1328.07   82.69
   2   1   0 1281.97   82.39
   2   1   0 1350.06   84.99
  -3  -1   0  547.95   34.40
  -3  -1   0  514.25   34.50
   3  -1   0  571.44   34.60
  -3  -1   0  560.34   33.50
  -3  -1   0  513.15   33.40
  -3  -1   0  476.35   33.70
  -3  -1   0  560.54   33.40
   3  -1   0  526.45   34.00
   3  -1   0  481.95   33.40
  -3   1   0  665.13   40.30
  -3   1   0  614.24   39.60
  -3   1   0  613.24   40.60
  -3   1   0  549.15   39.60
   3   1   0  669.43   39.90
   3   1   0  579.04   43.10
  -3   1   0  667.53   40.00
   3   1   0  662.43   39.70
   4  -1   0  568.84   37.70
  -4  -1   0  596.44   36.10
  -4  -1   0  520.55   37.50
  -4  -1   0  596.94   36.30
  -4   1   0  539.85   35.20
   4   1   0  573.64   34.70
  -4   1   0  510.05   34.20
   4   1   0  544.85   34.40
  -5  -1   0  141.69   11.50
  -5  -1   0  153.08   10.00
  -5  -1   0  151.48   10.00
  -5  -1   0  160.18    9.80
  -5   1   0  175.08   11.70
  -5   1   0  173.38   11.30
   5   1   0  183.68   11.90
  -6  -1   0   28.80    2.10
  -6  -1   0   28.50    2.40
  -6  -1   0   27.90    2.10
  -6  -1   0   29.10    2.40
  -6  -1   0   22.10    3.80
   6  -1   0   30.80    2.10
   6   1   0   43.30    3.00
   6   1   0   40.50    3.50
  -6   1   0   43.80    3.40
  -6   1   0   44.10    3.10
   7  -1   0   58.79    4.40
  -7  -1   0   56.79    4.30
  -7  -1   0   53.89    3.90
   7  -1   0   56.79    3.90
  -7   1   0   56.19    4.00
   7   1   0   56.19    4.10
   7   1   0   53.39    3.80
   7   1   0   53.09    3.70
  -8  -1   0    3.30    0.90
  -8  -1   0    3.80    0.60
  -8  -1   0    3.30    1.10
   8  -1   0    4.30    0.70
   8  -1   0    3.10    1.20
  -8   1   0    3.80    0.90
  -8   1   0    2.70    0.50
   8   1   0    4.00    0.70
   8   1   0    3.30    1.10
  -9  -1   0   30.30    2.60
   9  -1   0   26.90    2.50
   9   1   0   37.80    3.10
   9   1   0   39.80    2.80
  -9   1   0   41.20    2.80
   0  -2   0  536.95   36.10
   0  -2   0  542.95   35.80
   0  -2   0  508.25   39.70
   0  -2   0  585.54   34.80
   0  -2   0  571.54   35.20
   0   2   0  768.52   51.89
   0   2   0  896.81   52.19
   0   2   0  817.02   53.19
   0   2   0  762.82   52.09
   0   2   0  851.91   51.79
   0   2   0  825.52   54.19
   1  -2   0  139.79   10.40
   1  -2   0  154.18   19.60
  -1  -2   0  162.88   11.40
  -1  -2   0  123.89    9.10
  -1  -2   0  131.19   10.50
  -1  -2   0  144.89    9.70
  -1  -2   0  146.19   10.40
   1  -2   0  144.59    9.20
  -1  -2   0  145.59    9.20
   1  -2   0  135.49   10.50
   1   2   0  176.08   11.50
  -1   2   0  190.28   11.50
  -1   2   0  190.08   12.50
  -1   2   0  182.18   11.70
   1   2   0  178.48   11.50
  -1   2   0  158.78   11.60
   1   2   0  189.78   15.00
  -1   2   0  172.98   12.20
   1   2   0  177.38   11.90
   1   2   0  168.68   13.40
  -1   2   0  173.38   12.00
   1   2   0  197.58   12.10
   1   2   0  184.68   11.60
   1   2   0  174.58   12.30
  -1   2   0  189.58   11.90
  -2  -2   0  321.27   21.50
  -2  -2   0  286.67   22.30
  -2  -2   0  329.67   21.10
  -2  -2   0  364.66   22.00
   2  -2   0  333.77   22.50
  -2  -2   0  341.97   22.40
   2  -2   0  340.37   21.10
   2   2   0  415.36   26.40
  -2   2   0  401.26   26.50
   2   2   0  403.26   25.70
   2   2   0  408.46   25.80
  -2   2   0  400.26   25.80
  -2   2   0  415.96   26.40
   2   2   0  415.66   25.80
   2   2   0  397.46   26.10
  -3  -2   0   55.79    4.70
  -3  -2   0   59.29    5.60
  -3  -2   0   59.19    4.30
  -3  -2   0   70.09    4.20
   3  -2   0   62.99    4.20
   3  -2   0   69.49    5.80
   3   2   0   97.49    7.20
   3   2   0  100.39    6.40
  -3   2   0   97.49    7.50
   3   2   0  103.99    6.90
   3   2   0  103.09    6.50
   3   2   0   96.59    6.40
   4  -2   0   15.30    1.40
  -4  -2   0   15.50    1.80
  -4  -2   0   16.50    1.30
   4  -2   0   18.70    2.90
  -4  -2   0   18.70    1.70
  -4  -2   0   15.10    2.80
   4   2   0   23.20    1.90
  -4   2   0   28.60    3.20
   4   2   0   24.40    2.20
  -5  -2   0   46.20    5.50
   5  -2   0   60.19    9.10
  -5  -2   0   49.90    3.60
  -5  -2   0   53.99    3.60
  -5   2   0   66.99    4.70
   5   2   0   65.09    4.90
  -6  -2   0  156.48   13.60
  -6  -2   0  185.38   11.10
  -6  -2   0  168.38   11.10
  -6   2   0  222.18   14.80
   6   2   0  227.88   15.10
  -7  -2   0   14.60    1.40
  -7  -2   0   13.00    2.00
   7  -2   0   12.90    1.30
   7   2   0   21.70    1.60
   7   2   0   17.60    1.90
   7   2   0   23.30    2.20
   7   2   0   17.30    1.70
  -8  -2   0  137.89    9.60
   8   2   0  179.88   11.90
   8   2   0  190.38   12.20
  -9  -2   0   48.20    3.20
  -9  -2   0   48.20    3.70
   9   2   0   63.39    4.50
   0  -3   0   -0.10    1.50
   0  -3   0    0.10    0.40
   0  -3   0   -0.20    2.70
   0  -3   0    0.00    1.10
   0   3   0    0.10    0.70
   0   3   0    0.00    0.30
   0   3   0    0.00    0.70
  -1  -3   0  317.57   21.20
  -1  -3   0  295.47   22.50
  -1  -3   0  335.67   20.40
   1  -3   0  318.17   22.60
   1  -3   0  312.27   22.30
   1  -3   0  333.37   20.50
  -1  -3   0  318.47   28.60
  -1  -3   0  339.27   22.40
  -1   3   0  477.25   28.30
   1   3   0  476.65   29.10
   1   3   0  453.55   28.40
   1   3   0  432.26   28.30
  -1   3   0  412.76   28.90
   1   3   0  434.06   28.90
  -1   3   0  443.66   28.70
   2  -3   0  350.76   24.20
   2  -3   0  366.26   22.00
  -2  -3   0  303.77   23.90
  -2  -3   0  329.67   22.70
  -2  -3   0  351.96   24.00
   2  -3   0  340.67   22.00
  -2  -3   0  369.36   22.00
   2   3   0  520.75   32.90
   2   3   0  514.25   33.30
  -2   3   0  475.15   33.40
   2   3   0  513.85   32.70
  -2   3   0  544.85   32.70
   2   3   0  533.25   33.70
  -3  -3   0  211.18   12.40
  -3  -3   0  171.18   13.10
  -3  -3   0  200.28   12.60
   3  -3   0  197.58   14.70
   3  -3   0  190.58   19.70
  -3  -3   0  186.68   14.60
   3  -3   0  190.18   12.50
   3   3   0  242.98   17.10
   3   3   0  256.27   16.70
   3   3   0  258.87   16.20
   3   3   0  255.77   16.00
  -3   3   0  248.88   16.00
  -4  -3   0  134.79   12.00
   4  -3   0  135.49    9.70
   4  -3   0  167.98   17.20
  -4  -3   0  143.89    9.90
  -4  -3   0  158.38    9.70
   4  -3   0  152.58   12.10
   4   3   0  187.78   12.40
   4   3   0  177.88   11.60
  -5  -3   0   21.90    4.00
  -5  -3   0   23.80    1.90
  -5  -3   0   20.70    2.20
   5   3   0   31.80    2.90
  -6  -3   0  155.38   11.60
  -6  -3   0  172.18   11.70
  -6  -3   0  174.68   11.30
   6   3   0  247.28   15.90
   6   3   0  247.28   16.00
  -7  -3   0   86.29    6.30
  -7  -3   0   76.89    6.20
  -7  -3   0   85.19    5.40
   7   3   0  141.99    9.80
   7   3   0  152.98    9.60
  -8  -3   0   27.70    2.00
  -8  -3   0   29.90    2.70
   8   3   0   50.49    3.70
   8   3   0   50.49    3.40
   0  -4   0  115.79   10.60
   0  -4   0  127.49    8.10
   0  -4   0  134.79   10.80
   0  -4   0  125.29    8.10
   0  -4   0  113.59   16.80
   0   4   0  202.78   13.20
   0   4   0  209.48   13.70
   0   4   0  208.18   14.10
   0   4   0  202.88   13.90
  -1  -4   0  294.47   20.00
   1  -4   0  258.97   17.10
   1  -4   0  270.87   17.10
  -1  -4   0  271.77   17.10
   1  -4   0  256.27   19.80
  -1  -4   0  253.47   19.80
  -1  -4   0  256.07   27.90
  -1   4   0  388.56   25.40
   1   4   0  407.56   25.90
   1   4   0  375.66   25.50
  -1   4   0  401.36   25.00
   1   4   0  392.86   26.00
   1   4   0  391.46   25.00
   2  -4   0  822.92   53.19
  -2  -4   0  819.22   53.09
  -2  -4   0  715.13   52.79
  -2  -4   0  813.82   51.19
   2  -4   0  826.52   50.09
  -2  -4   0  738.53   62.89
  -2   4   0 1166.68   73.69
   2   4   0 1183.18   73.79
   2   4   0 1189.38   73.99
  -2   4   0 1129.39   74.09
   2   4   0 1149.98   74.99
   2   4   0 1188.08   74.69
   3  -4   0  290.57   18.20
   3  -4   0  259.57   27.10
   3  -4   0  303.07   21.30
  -3  -4   0  264.57   30.40
  -3  -4   0  292.37   21.30
  -3   4   0  353.86   24.20
   3   4   0  373.26   25.70
   3   4   0  399.16   24.40
   3   4   0  384.56   24.20
   3   4   0  398.46   25.20
  -4  -4   0    5.80    5.90
   4  -4   0    6.00    2.40
  -4  -4   0    8.20    3.70
  -4  -4   0    9.70    2.60
  -4  -4   0    5.30    1.10
   4  -4   0    8.00    1.20
  -4  -4   0    7.00    1.50
   4   4   0   16.30    3.30
  -4   4   0   15.30    4.70
   4   4   0   15.10    2.10
   4   4   0   14.60    1.30
  -5  -4   0   10.50    1.90
  -5  -4   0   11.10    2.00
  -5  -4   0   12.80    1.80
   5   4   0   21.70    1.90
   5   4   0   24.20    3.40
  -6  -4   0  122.19    8.50
  -6  -4   0  109.39    8.30
   6   4   0  166.28   12.40
   6   4   0  179.78   11.30
  -7  -4   0   10.30    1.60
  -7  -4   0   12.20    1.80
   7   4   0   15.10    1.30
   0  -5   0    0.30    1.50
   0  -5   0    0.50    4.30
   0  -5   0    0.00    0.20
   0  -5   0    0.10    0.40
   0   5   0    0.80    0.90
   0   5   0   -0.10    0.70
  -1  -5   0  144.99    9.80
  -1  -5   0  163.88   10.80
  -1  -5   0  155.18   10.10
   1  -5   0  163.48    9.80
   1  -5   0  159.08   10.00
  -1  -5   0  148.69   13.30
   1  -5   0  139.99   15.70
  -1   5   0  296.97   18.20
  -1   5   0  279.67   18.60
   1   5   0  269.07   17.90
   1   5   0  277.77   18.20
   2  -5   0   82.99    5.40
  -2  -5   0   76.69    5.40
  -2  -5   0   82.09    6.20
   2  -5   0   80.19    5.20
  -2   5   0   95.89    6.80
  -2   5   0   94.89    6.30
   2   5   0   96.59    6.20
   2   5   0   88.79    7.50
   2   5   0   90.59    6.40
   3  -5   0  335.47   20.90
  -3  -5   0  315.57   21.10
  -3  -5   0  339.17   22.00
   3   5   0  498.15   33.80
  -3   5   0  504.25   34.20
   3   5   0  538.35   33.90
   3   5   0  587.54   35.10
  -4  -5   0   30.30    3.00
  -4  -5   0   26.20    2.30
   4  -5   0   28.50    1.90
   4   5   0   35.70    2.50
  -4   5   0   34.60    2.80
  -5  -5   0  108.89    8.00
  -5  -5   0  110.49    8.00
   5   5   0  208.18   13.90
   5   5   0  186.48   12.80
  -6  -5   0   39.70    3.50
  -6  -5   0   43.40    3.50
   6   5   0   64.99    5.60
   6   5   0   63.29    4.30
   0  -6   0   57.79    4.10
   0  -6   0   63.49    4.30
   0  -6   0   68.49    5.00
   0   6   0  102.99    6.50
   0   6   0  102.59    6.80
   0   6   0   93.69    7.80
   0   6   0   99.99    7.20
   1  -6   0   22.20    1.70
  -1  -6   0   22.50    2.40
  -1  -6   0   18.70    1.40
   1  -6   0   19.50    1.40
  -1  -6   0   21.20    1.70
   1   6   0   27.20    3.60
   1   6   0   29.50    2.10
  -1   6   0   27.20    2.80
  -1   6   0   29.70    2.50
   2  -6   0   11.00    0.90
   2  -6   0   13.60    1.10
  -2  -6   0   11.50    1.90
  -2  -6   0   10.90    1.20
  -2   6   0   19.50    2.20
   2   6   0   21.00    3.20
  -2   6   0   21.20    2.00
   2   6   0   19.80    1.60
  -3  -6   0   18.70    1.60
   3  -6   0   21.20    1.40
  -3  -6   0   21.40    2.40
  -3   6   0   31.20    2.70
   3   6   0   38.60    4.00
   3   6   0   36.70    2.50
  -4  -6   0   36.30    3.00
  -4  -6   0   26.50    2.20
   4   6   0   53.49    3.30
  -4   6   0   44.00    3.30
  -5  -6   0   38.70    3.20
   5   6   0   63.89    5.30
   0  -7   0   -0.20    0.20
   0  -7   0    0.30    0.30
   0   7   0    0.20    1.00
   1  -7   0  169.68   10.70
  -1  -7   0  165.38   10.80
   1  -7   0  168.98   10.60
  -1   7   0  253.27   17.80
   1   7   0  291.97   17.90
   1   7   0  261.97   17.10
  -2  -7   0    1.70    0.40
   2  -7   0    2.00    0.40
  -2  -7   0    1.00    0.60
   2   7   0    1.90    0.40
   2   7   0    2.30    1.20
  -9   0   1  100.79    6.50
   9   0  -1   98.09    6.50
   9   0  -1   99.79    6.80
   8   0  -1  419.46   27.40
  -8   0   1  438.56   27.60
  -8   0   1  421.76   27.20
   8   0  -1  426.86   27.10
  -7   0   1  108.49    7.40
   7   0  -1  113.59    7.50
   7   0  -1  105.19    7.70
  -7   0   1  124.49    7.80
   7   0  -1  117.39    7.40
  -6   0   1  552.84   34.90
  -6   0   1  500.95   36.80
  -6   0   1  498.25   34.70
  -6   0   1  599.34   35.10
  -6   0   1  571.24   34.70
   6   0  -1  561.74   34.70
  -5   0   1   66.59    5.90
   5   0  -1   63.49    4.80
  -5   0   1   72.49    4.40
  -5   0   1   63.19    4.50
  -4   0   1   73.49    6.00
   4   0  -1   77.69    5.30
  -4   0   1   76.19    4.90
   4   0  -1   76.99    5.00
   3   0  -1  282.17   18.60
  -3   0   1  304.37   19.00
   3   0  -1  309.97   23.30
  -3   0   1  291.57   18.60
  -3   0   1  290.57   19.50
  -3   0   1  262.57   18.70
  -3   0   1  332.07   19.50
   3   0  -1  319.07   18.80
  -3   0   1  247.38   18.50
   2   0  -1 1343.87   85.99
  -2   0   1 1412.26   86.09
   2   0  -1 1463.25   91.69
  -2   0   1 1311.07   85.99
   2   0  -1 1392.06   86.29
  -2   0   1 1233.08   86.39
  -2   0   1 1360.06   85.99
  -2   0   1 1466.55   87.39
  -2   0   1 1341.07   86.89
   2   0  -1 1301.27   86.79
   2   0  -1 1373.26   86.29
  -2   0   1 1374.66   86.59
  -1   0   1 1143.39   76.69
  -1   0   1 1196.88   74.99
   1   0  -1 1215.98   76.49
   1   0  -1 1201.18   74.99
   0   0  -1   18.00    1.10
   0   0  -1   17.60    1.70
   0   0   1   15.20    2.10
   0   0   1   18.50    1.70
   0   0  -1   16.90    2.10
   0   0   1   17.40    1.10
   0   0  -1   20.00    1.50
   0   0   1   16.00    1.50
   1   0   1   24.90    1.60
  -1   0  -1   24.50    1.70
  -1   0  -1   25.10    1.60
   1   0   1   25.20    2.60
  -1   0  -1   27.00    2.10
   1   0   1   27.40    1.90
  -1   0  -1   25.60    2.60
   2   0   1  506.55   31.00
  -2   0  -1  476.35   30.80
  -2   0  -1  466.15   31.00
   2   0   1  502.25   32.50
  -2   0  -1  504.95   30.80
   2   0   1  467.05   31.90
  -2   0  -1  509.45   31.60
   2   0   1  472.75   31.10
  -2   0  -1  501.75   30.90
   2   0   1  484.25   30.80
  -3   0  -1  212.48   15.20
  -3   0  -1  244.48   14.80
  -3   0  -1  218.88   15.60
  -3   0  -1  234.68   14.60
   3   0   1  250.57   14.90
   3   0   1  213.38   15.00
  -4   0  -1    2.70    0.60
   4   0   1    2.60    0.70
  -4   0  -1    3.00    0.40
  -4   0  -1    3.40    1.20
  -5   0  -1   40.10    2.70
  -5   0  -1   40.90    3.00
  -5   0  -1   38.80    2.80
   6   0   1   10.40    1.10
  -6   0  -1   10.30    1.30
  -6   0  -1    9.30    1.10
  -6   0  -1    8.00    0.90
  -7   0  -1  308.37   19.10
   7   0   1  289.47   19.00
  -7   0  -1  273.37   18.70
   7   0   1  291.77   18.60
   7   0   1  299.27   18.70
   8   0   1    2.80    1.10
   8   0   1    3.10    0.70
  -8   0  -1    3.00    0.60
  -8   0  -1    2.40    0.90
  -9   0  -1   -0.30    0.60
  -9   0  -1    0.20    0.40
   9   0   1    0.30    0.90
   9   0   1    0.20    0.50
  -9  -1   1   12.10    1.50
  -9  -1   1   12.90    1.20
   9  -1  -1   11.70    1.60
  -9   1   1   17.80    1.40
   9   1  -1   18.00    1.40
   9   1  -1   16.50    1.90
   8  -1  -1   10.70    1.00
  -8  -1   1   10.10    1.10
   8  -1  -1    9.20    1.50
  -8  -1   1    8.50    1.60
  -8  -1   1   10.40    1.50
   8   1  -1    8.50    0.90
  -8   1   1    7.90    1.20
  -8   1   1    7.70    0.90
   8   1  -1    8.10    1.30
  -7  -1   1  121.09    8.30
   7  -1  -1  121.19    7.80
   7  -1  -1  114.79    8.20
  -7  -1   1  119.69    7.80
   7   1  -1  115.09    7.50
  -7   1   1  117.69    7.80
   7   1  -1  112.59    7.50
   7   1  -1  115.09    7.80
  -6  -1   1  113.49    7.50
  -6  -1   1  103.59    9.70
  -6  -1   1  124.49    7.90
   6  -1  -1  120.19    7.50
  -6  -1   1  114.49    7.80
  -6  -1   1  115.09    7.60
  -6   1   1  127.09    8.10
   6   1  -1  114.69    7.60
  -6   1   1  116.49    7.60
  -6   1   1  113.59    7.70
   6   1  -1  115.39    8.20
  -5  -1   1  262.17   16.70
   5  -1  -1  276.67   23.90
  -5  -1   1  256.67   16.50
  -5  -1   1  253.87   16.70
  -5  -1   1  242.68   18.40
   5   1  -1  310.27   19.10
   5   1  -1  284.67   18.80
  -5   1   1  277.37   18.60
  -5   1   1  300.57   20.10
  -4  -1   1  366.66   23.00
   4  -1  -1  381.16   24.70
  -4  -1   1  340.27   24.50
  -4   1   1  386.56   24.50
   4   1  -1  356.96   23.60
  -4   1   1  342.67   23.40
   4   1  -1  397.66   23.90
  -3  -1   1  634.64   41.60
   3  -1  -1  653.63   41.60
  -3  -1   1  636.24   40.40
  -3  -1   1  667.43   40.40
  -3  -1   1  641.64   41.20
  -3  -1   1  600.94   40.80
   3   1  -1  764.82   52.99
  -3   1   1  788.02   50.29
   3   1  -1  776.72   49.50
   3   1  -1  701.43   49.60
  -3   1   1  859.01   49.60
   3   1  -1  793.12   49.20
  -3   1   1  864.81   49.20
  -3   1   1  685.33   49.60
  -2  -1   1  176.58   11.40
  -2  -1   1  182.18   11.10
  -2  -1   1  178.68   11.20
   2  -1  -1  182.48   11.10
   2  -1  -1  155.48   11.90
  -2  -1   1  185.78   11.70
  -2  -1   1  179.88   12.90
  -2  -1   1  185.28   11.20
  -2  -1   1  175.28   11.60
  -2  -1   1  178.98   11.10
  -2  -1   1  166.78   12.00
   2  -1  -1  149.09   14.60
   2   1  -1  212.88   13.80
  -2   1   1  225.88   14.60
   2   1  -1  221.48   13.80
   2   1  -1  198.38   15.30
   2   1  -1  205.28   14.10
   2   1  -1  225.78   13.90
   2   1  -1  228.88   13.90
   1  -1  -1 1329.07   89.89
  -1  -1   1 1390.46   88.99
  -1  -1   1 1335.87   88.49
  -1  -1   1 1421.56   87.99
   1  -1  -1 1431.06   87.79
   1  -1  -1 1352.36   95.89
  -1  -1   1 1401.86   87.79
  -1  -1   1 1478.35   88.59
   1   1  -1 1502.25   98.69
  -1   1   1 1547.35   98.19
  -1   1   1 1570.24   98.29
   1   1  -1 1549.94   98.19
   1   1  -1 1524.95  100.69
  -1   1   1 1477.45   98.59
  -1   1   1 1616.64   98.79
  -1   1   1 1676.33   99.99
  -1   1   1 1561.64   99.49
   0  -1   1 1328.17   82.49
   0  -1  -1 1116.29   87.79
   0  -1   1 1193.38   81.09
   0  -1   1 1343.47   80.49
   0  -1  -1 1332.97   81.59
   0  -1  -1 1349.86   80.49
   0   1   1 1364.46   86.89
   0   1   1 1427.26   88.89
   0   1   1 1378.66   86.79
   0   1   1 1420.26   89.39
   0   1  -1 1425.66   88.89
   0   1   1 1182.08   87.19
   0   1   1 1380.36   87.39
   0   1  -1 1438.66   86.79
  -1  -1  -1   35.00    4.10
  -1  -1  -1   32.80    2.10
  -1  -1  -1   31.30    2.10
   1  -1   1   38.40    6.90
   1  -1   1   33.60    2.10
  -1  -1  -1   28.30    2.10
   1  -1   1   28.90    2.20
   1  -1   1   32.40    2.60
  -1  -1  -1   32.70    2.70
   1  -1   1   35.40    2.50
  -1   1  -1   32.70    2.30
  -1   1  -1   26.40    7.00
   1   1   1   28.10    2.00
   1   1   1   30.90    2.50
  -1   1  -1   31.70    1.90
   1   1   1   31.00    4.10
   1   1   1   29.40    2.30
   1   1   1   30.50    2.00
   1   1   1   29.10    3.30
   2  -1   1   70.59    6.10
  -2  -1  -1   79.79    5.40
  -2  -1  -1   74.19    6.10
  -2  -1  -1   83.39    5.40
   2  -1   1   82.99    5.90
   2  -1   1   94.19    6.00
  -2  -1  -1   82.79    5.30
  -2  -1  -1   89.19    5.40
   2  -1   1   94.89    8.50
   2  -1   1   86.39    5.30
  -2  -1  -1   87.69    5.30
   2  -1   1   75.49    5.40
  -2  -1  -1   85.89    6.10
   2   1   1  106.49    6.50
   2   1   1   92.99    6.80
   2   1   1  106.89    6.40
   2   1   1   97.19    9.00
   2   1   1   95.49    6.40
  -2   1  -1   98.59    7.10
   2   1   1  109.09    6.70
  -3  -1  -1 2335.57  162.68
  -3  -1  -1 2844.02  159.38
   3  -1   1 2394.56  158.68
  -3  -1  -1 2224.38  158.48
  -3  -1  -1 2375.36  158.58
   3  -1   1 2572.94  160.28
   3  -1   1 2607.54  158.98
  -3  -1  -1 2729.43  159.38
  -3   1  -1 3149.28  202.18
   3   1   1 3434.66  201.18
   3   1   1 3356.76  199.88
  -3   1  -1 3088.19  199.48
  -3   1  -1 3138.39  200.78
   3   1   1 2819.62  202.88
   4  -1   1  536.05   35.70
  -4  -1  -1  487.75   30.20
  -4  -1  -1  474.45   30.30
  -4  -1  -1  470.85   30.40
  -4  -1  -1  408.76   31.40
   4   1   1  614.84   36.80
  -4   1  -1  547.45   36.60
  -4   1  -1  565.24   36.40
  -5  -1  -1  225.68   17.90
  -5  -1  -1  268.27   16.60
  -5  -1  -1  271.17   16.60
  -5   1  -1  251.37   16.40
   5   1   1  252.07   16.50
  -6  -1  -1  196.48   13.00
  -6  -1  -1  206.08   13.40
  -6  -1  -1  202.28   13.40
   6  -1   1  203.68   13.00
   6   1   1  229.28   14.50
  -6   1  -1  236.58   14.70
   6   1   1  205.98   15.10
  -6   1  -1  235.98   15.00
   7  -1   1  111.59    7.30
   7  -1   1  115.49    7.40
  -7  -1  -1  107.49    7.40
   7  -1   1  102.99    7.70
  -7  -1  -1  121.49    7.80
   7   1   1  113.39    7.80
   7   1   1  113.59    7.40
   7   1   1  112.99    7.50
  -7   1  -1  116.39    7.70
   8  -1   1    2.50    1.10
  -8  -1  -1    1.00    0.80
   8  -1   1    1.50    0.60
  -8  -1  -1    2.00    0.50
  -8   1  -1    1.80    0.70
  -8   1  -1    1.10    0.40
   8   1   1    1.70    1.00
   8   1   1    1.40    0.60
  -9  -1  -1   89.09    6.30
   9   1   1  102.59    7.20
   9   1   1  112.59    7.00
  -9  -2   1    0.10    0.30
  -9  -2   1    0.30    0.60
   9   2  -1    0.90    0.80
  -8  -2   1   98.59    7.10
   8   2  -1  132.99    8.90
  -7  -2   1   58.89    3.90
   7  -2  -1   58.99    4.50
   7  -2  -1   57.69    3.80
  -7  -2   1   49.10    4.50
  -7   2   1   59.29    4.30
   7   2  -1   65.89    4.30
   7   2  -1   63.89    4.60
  -6  -2   1  121.29    8.10
   6  -2  -1  128.89   15.60
  -6  -2   1  113.49   10.60
  -6  -2   1  123.59    8.00
  -6   2   1  146.29   10.10
   6   2  -1  153.68   10.40
  -5  -2   1  197.08   12.70
  -5  -2   1  178.68   12.50
   5  -2  -1  218.98   20.30
  -5  -2   1  177.08   14.90
   5  -2  -1  198.78   14.80
   5   2  -1  230.08   14.90
   5   2  -1  218.58   14.50
  -4  -2   1  139.49    8.70
  -4  -2   1  129.79   10.70
   4  -2  -1  150.08   10.70
  -4  -2   1  119.39    8.90
   4   2  -1  179.58   12.40
  -4   2   1  206.68   12.70
   4   2  -1  174.28   12.00
   3  -2  -1  219.58   14.90
  -3  -2   1  233.68   16.60
   3  -2  -1  240.98   21.20
   3  -2  -1  242.08   16.50
  -3  -2   1  251.57   14.90
  -3  -2   1  210.28   15.50
   3   2  -1  298.97   18.70
   3   2  -1  296.57   19.10
   3   2  -1  289.97   18.60
   3   2  -1  296.57   19.40
  -3   2   1  287.47   19.80
   3   2  -1  289.87   18.60
   2  -2  -1  262.37   17.60
  -2  -2   1  285.67   19.00
  -2  -2   1  274.47   17.70
   2  -2  -1  270.87   19.00
  -2  -2   1  256.67   18.10
  -2  -2   1  307.67   17.60
  -2   2   1  349.96   22.20
   2   2  -1  347.27   22.70
  -2   2   1  350.26   23.10
   2   2  -1  348.97   22.30
   2   2  -1  357.36   22.30
   2   2  -1  381.56   23.00
  -2   2   1  326.67   22.70
   2   2  -1  349.67   22.40
   1  -2  -1 1046.00   67.29
   1  -2  -1 1035.70   68.49
  -1  -2   1 1209.88   69.49
  -1  -2   1  944.21   68.59
   1  -2  -1 1216.48   69.29
  -1  -2   1 1008.00   68.29
   1  -2  -1 1038.20   81.39
  -1  -2   1 1025.60   67.19
   1  -2  -1  961.80   72.59
  -1  -2   1 1060.99   67.79
   1  -2  -1 1057.69   67.19
  -1  -2   1 1208.78   67.19
   1  -2  -1 1036.80   68.49
  -1   2   1 1168.18   82.79
   1   2  -1 1298.37   82.49
  -1   2   1 1313.17   83.89
   1   2  -1 1237.68   82.89
   1   2  -1 1327.57   82.49
   1   2  -1 1338.97   82.59
  -1   2   1 1371.96   82.49
  -1   2   1 1339.57   82.79
   1   2  -1 1289.07   84.39
   1   2  -1 1401.06   86.19
   0  -2   1  385.66   26.70
   0  -2  -1  396.76   38.90
   0  -2  -1  439.26   25.30
   0  -2  -1  389.26   30.40
   0  -2  -1  425.36   26.40
   0  -2   1  351.56   29.90
   0  -2   1  419.76   25.30
   0  -2  -1  396.06   26.50
   0  -2   1  397.76   26.30
   0  -2   1  369.26   36.60
   0  -2   1  409.36   25.70
   0   2   1  487.35   33.00
   0   2  -1  507.35   33.80
   0   2   1  486.15   32.00
   0   2  -1  496.75   31.50
   0   2   1  507.95   31.50
   0   2   1  494.85   34.00
   0   2   1  534.45   31.80
   0   2   1  465.85   31.70
   0   2  -1  482.15   31.90
   0   2  -1  512.35   32.80
  -1  -2  -1  854.51   57.79
  -1  -2  -1 1056.69   57.79
   1  -2   1 1001.40   58.59
  -1  -2  -1  932.61   58.99
   1  -2   1  966.10   57.89
   1  -2   1  803.92   58.79
  -1  -2  -1  932.81   58.29
   1  -2   1  892.51   59.29
  -1  -2  -1  957.60   58.69
  -1  -2  -1  853.61   59.09
  -1  -2  -1  826.22   58.09
   1   2   1 1226.88   77.69
  -1   2  -1 1185.98   74.49
   1   2   1 1134.39   76.09
  -1   2  -1 1194.18   74.09
   1   2   1 1106.69   74.19
   1   2   1 1123.29   73.89
  -1   2  -1 1090.99   73.89
  -1   2  -1 1197.08   74.69
   1   2   1 1151.28   73.89
   1   2   1 1271.27   74.39
  -1   2  -1 1240.28   74.09
   1   2   1 1136.49   73.89
  -2  -2  -1  280.17   19.70
   2  -2   1  304.97   18.50
  -2  -2  -1  241.58   19.60
   2  -2   1  298.57   19.30
   2  -2   1  273.37   19.90
  -2  -2  -1  316.57   19.40
  -2  -2  -1  326.87   18.40
  -2  -2  -1  289.97   18.50
  -2  -2  -1  273.67   18.90
  -2  -2  -1  293.67   18.50
   2   2   1  347.07   21.70
   2   2   1  351.46   21.60
  -2   2  -1  339.17   22.50
  -2   2  -1  325.27   21.50
  -2   2  -1  313.77   21.70
   2   2   1  353.46   21.60
   2   2   1  349.07   22.00
  -2   2  -1  346.97   21.80
   2   2   1  345.97   22.20
   3  -2   1  260.27   17.90
   3  -2   1  252.87   16.30
  -3  -2  -1  276.37   16.20
  -3  -2  -1  264.27   16.30
  -3  -2  -1  234.98   17.70
  -3  -2  -1  236.88   16.30
   3   2   1  359.66   22.50
   3   2   1  379.76   22.90
   3   2   1  341.37   22.40
   3   2   1  337.07   23.20
  -4  -2  -1  241.28   14.70
   4  -2   1  218.38   14.60
  -4  -2  -1  214.08   16.30
  -4  -2  -1  233.68   14.50
   4   2   1  284.67   17.80
  -4   2  -1  272.57   17.90
   4   2   1  279.37   18.20
  -5  -2  -1   86.79    5.30
  -5  -2  -1   71.29    7.20
  -5  -2  -1   78.09    5.50
  -5  -2  -1   76.09    5.30
  -5   2  -1   94.39    6.70
   5   2   1  101.39    7.00
  -6  -2  -1    8.00    1.00
  -6  -2  -1    6.60    1.80
  -6  -2  -1    8.10    1.00
   6   2   1   11.70    1.20
   6   2   1   10.80    1.50
   6   2   1   11.90    1.20
   6   2   1   10.90    1.20
  -6   2  -1   10.30    1.30
   6   2   1    9.10    2.10
  -7  -2  -1  260.37   17.70
  -7  -2  -1  295.27   17.00
  -7  -2  -1  235.38   17.60
   7   2   1  332.77   21.80
   7   2   1  363.36   21.90
   7   2   1  351.56   22.10
   7   2   1  325.57   21.90
  -8  -2  -1   14.20    2.00
   8   2   1   23.10    1.80
   8   2   1   24.40    2.30
  -9  -2  -1  133.19    8.50
  -9  -2  -1  115.69    7.90
   9   2   1  148.39    9.60
  -8  -3   1   26.40    2.50
  -8  -3   1   27.40    1.90
   8   3  -1   39.10    3.00
   8   3  -1   39.30    2.70
  -7  -3   1  175.88   11.00
  -7  -3   1  167.28   11.80
   7   3  -1  262.77   17.90
   7   3  -1  292.97   17.80
  -6  -3   1   99.49    7.40
  -6  -3   1   89.59    7.30
  -6  -3   1  104.89    6.50
  -6  -3   1  108.09    7.10
   6   3  -1  161.88   12.20
   6   3  -1  185.58   11.00
   6   3  -1  156.18   11.10
  -5  -3   1   10.50    3.20
   5  -3  -1   11.90    5.30
  -5  -3   1   11.40    1.20
   5  -3  -1   11.40    3.10
  -5  -3   1   10.80    1.60
   5   3  -1    9.20    1.10
   5   3  -1   11.60    1.70
  -4  -3   1   61.29    4.50
   4  -3  -1   66.89   10.70
   4  -3  -1   56.49    4.30
  -4  -3   1   58.99    6.60
  -4  -3   1   65.59    4.30
   4  -3  -1   66.69    6.50
   4   3  -1   88.09    5.70
   4   3  -1   90.99    5.80
  -4   3   1   82.79    7.10
   4   3  -1   87.99    6.40
  -3  -3   1  183.68   13.30
  -3  -3   1  202.48   14.90
  -3  -3   1  162.18   14.60
   3  -3  -1  200.68   14.70
  -3  -3   1  216.78   12.40
  -3  -3   1  209.38   12.60
   3  -3  -1  196.78   12.50
   3  -3  -1  175.98   19.80
   3  -3  -1  190.48   12.50
   3   3  -1  253.87   16.20
   3   3  -1  256.87   16.10
   3   3  -1  257.67   16.80
   3   3  -1  243.68   17.20
  -3   3   1  249.58   16.00
   3   3  -1  259.37   16.20
  -2  -3   1   49.00    5.70
   2  -3  -1   59.29    3.90
   2  -3  -1   58.69    5.80
  -2  -3   1   60.79    3.90
   2  -3  -1   54.49    3.90
  -2  -3   1   55.59    4.60
  -2  -3   1   60.59    5.80
   2   3  -1   56.59    4.60
   2   3  -1   50.19    4.20
   2   3  -1   54.39    3.80
   2   3  -1   55.29    3.60
   2   3  -1   53.19    3.60
  -2   3   1   55.59    3.60
   1  -3  -1  209.48   21.80
  -1  -3   1  211.68   22.20
   1  -3  -1  244.98   16.60
  -1  -3   1  229.88   15.30
   1  -3  -1  228.88   16.60
   1  -3  -1  237.88   14.60
  -1  -3   1  237.78   16.50
  -1  -3   1  209.28   16.70
  -1  -3   1  229.18   14.50
  -1   3   1  277.07   19.90
   1   3  -1  310.87   19.50
   1   3  -1  327.57   20.20
   1   3  -1  300.07   19.40
  -1   3   1  305.37   19.80
   1   3  -1  295.17   20.10
  -1   3   1  320.37   19.40
   0  -3   1  175.88   11.20
   0  -3   1  168.88   13.40
   0  -3   1  177.18   12.00
   0  -3   1  173.28   12.90
   0  -3  -1  176.98   18.60
   0  -3  -1  172.68   13.20
   0  -3  -1  185.58   13.10
   0  -3   1  151.28   17.80
   0  -3  -1  186.38   11.20
   0   3  -1  231.88   14.20
   0   3  -1  230.98   14.70
   0   3  -1  200.48   14.80
   0   3   1  234.88   14.70
   0   3   1  226.58   14.10
   0   3   1  203.48   14.60
   1  -3   1 1005.10   60.09
  -1  -3  -1  959.30   68.99
   1  -3   1  855.11   61.69
   1  -3   1  805.42   67.19
  -1  -3  -1 1041.30   62.09
  -1  -3  -1  929.81   62.09
   1  -3   1  980.50   62.49
  -1  -3  -1 1027.30   60.89
  -1   3  -1 1358.26   85.19
   1   3   1 1327.57   84.79
   1   3   1 1313.87   84.89
  -1   3  -1 1269.87   85.59
   1   3   1 1309.77   85.39
   1   3   1 1429.86   85.59
  -1   3  -1 1401.56   84.79
  -2  -3  -1  310.37   18.60
  -2  -3  -1  288.37   20.50
  -2  -3  -1  265.37   26.40
   2  -3   1  288.57   20.80
  -2  -3  -1  288.57   19.20
   2  -3   1  297.17   18.60
   2   3   1  374.96   24.50
   2   3   1  381.56   24.00
  -2   3  -1  363.16   23.90
  -2   3  -1  374.16   24.90
   2   3   1  387.66   23.90
   2   3   1  382.86   24.80
   3  -3   1   86.99    6.00
  -3  -3  -1   93.19    6.10
  -3  -3  -1   94.79    5.80
   3  -3   1   85.49   11.60
  -3  -3  -1   82.79    7.80
   3  -3   1   88.49    8.10
  -3   3  -1  119.39    7.70
   3   3   1  117.49    7.70
   3   3   1  116.69    8.80
   3   3   1  121.89    7.80
   3   3   1  122.89    8.40
  -3   3  -1  124.29    9.00
  -4  -3  -1   68.49    7.00
   4  -3   1   67.59    4.90
   4  -3   1   74.19    7.10
  -4  -3  -1   69.69    5.00
  -4  -3  -1   74.69    4.80
   4   3   1   99.69    7.00
   4   3   1   96.19    6.30
  -5  -3  -1  225.18   13.60
  -5  -3  -1  210.88   13.80
  -5  -3  -1  191.98   16.20
   5   3   1  293.37   19.40
  -6  -3  -1   90.99    7.20
  -6  -3  -1   99.39    7.20
  -6  -3  -1   95.69    6.70
   6   3   1  137.99    9.10
   6   3   1  139.39    9.20
  -7  -3  -1   53.69    4.60
  -7  -3  -1   58.49    4.70
   7   3   1   81.09    5.30
   7   3   1   77.99    5.60
  -8  -3  -1   84.79    6.20
   8   3   1  117.39    7.60
   8   3   1  110.39    7.30
  -7  -4   1   23.00    2.30
  -7  -4   1   25.80    2.50
   7   4  -1   43.40    3.00
  -6  -4   1   48.30    4.20
  -6  -4   1   54.79    4.40
   6   4  -1   80.59    7.00
   6   4  -1   82.79    5.50
  -5  -4   1   33.00    3.20
  -5  -4   1   33.00    2.80
  -5  -4   1   30.00    3.10
   5   4  -1   72.49    5.50
   5   4  -1   88.99    6.80
   4  -4  -1  224.08   14.30
   4  -4  -1  247.28   24.20
   4  -4  -1  251.67   17.50
  -4  -4   1  193.48   27.20
  -4  -4   1  230.48   18.10
  -4  -4   1  202.38   14.20
  -4  -4   1  191.98   14.80
   4   4  -1  293.87   19.20
   4   4  -1  302.57   19.80
  -4   4   1  256.07   20.00
   4   4  -1  290.97   18.30
   3  -4  -1  117.99    9.90
  -3  -4   1  113.79   10.20
  -3  -4   1  102.49   17.80
   3  -4  -1  109.19    7.10
   3  -4  -1   92.59   14.80
  -3  -4   1   97.99    8.00
   3   4  -1  139.59   10.40
  -3   4   1  122.09   10.70
   3   4  -1  145.49    9.00
  -3   4   1  135.79    8.90
   3   4  -1  145.49    9.20
   3   4  -1  144.39   10.00
  -2  -4   1  148.29   11.10
   2  -4  -1  161.98   12.80
   2  -4  -1  160.18   10.10
   2  -4  -1  165.18   10.10
  -2  -4   1  162.18   13.00
  -2  -4   1  143.39   20.50
  -2  -4   1  139.39   12.80
   2   4  -1  233.98   16.50
  -2   4   1  240.28   15.20
   2   4  -1  232.68   15.30
   2   4  -1  244.18   16.30
  -2   4   1  249.28   15.70
   2   4  -1  231.78   15.50
  -1  -4   1   21.00    3.90
  -1  -4   1   20.10    3.80
  -1  -4   1   18.10    2.50
  -1  -4   1   21.90    1.70
   1  -4  -1   20.00    3.60
   1  -4  -1   20.30    7.70
   1  -4  -1   21.80    1.70
  -1  -4   1   17.10    7.70
   1  -4  -1   20.20    1.70
   1   4  -1   31.20    2.40
   1   4  -1   34.00    3.30
  -1   4   1   32.60    2.80
  -1   4   1   30.00    2.70
   1   4  -1   31.40    2.80
  -1   4   1   32.60    2.30
   1   4  -1   30.80    2.30
   1   4  -1   29.90    3.20
   0  -4  -1   21.80    3.70
   0  -4  -1   20.60    1.70
   0  -4   1   21.80    4.00
   0  -4  -1   24.20    3.90
   0  -4  -1   19.80    7.60
   0  -4   1   19.60    3.80
   0  -4   1   21.40    1.70
   0  -4   1   17.80    7.50
   0   4  -1   30.60    3.10
   0   4  -1   27.70    2.20
   0   4  -1   29.10    2.60
   0   4  -1   27.70    2.80
   0   4   1   28.90    2.70
   0   4   1   31.20    2.20
   0   4   1   28.40    2.90
  -1  -4  -1  321.77   32.30
  -1  -4  -1  326.57   24.20
   1  -4   1  333.27   24.60
   1  -4   1  343.17   21.50
  -1  -4  -1  364.46   24.30
  -1  -4  -1  327.67   21.50
   1   4   1  489.95   30.50
   1   4   1  473.35   31.00
  -1   4  -1  464.25   30.80
   1   4   1  488.55   31.50
   1   4   1  496.65   31.20
  -1   4  -1  463.25   31.50
  -1   4  -1  481.65   30.50
  -2  -4  -1  333.57   34.40
   2  -4   1  367.26   23.50
  -2  -4  -1  375.76   26.20
   2  -4   1  387.76   26.70
   2   4   1  653.73   41.10
   2   4   1  632.84   40.30
  -2   4  -1  616.34   40.30
  -2   4  -1  606.34   40.60
   2   4   1  623.94   41.50
   2   4   1  684.83   40.50
   3  -4   1   12.60    3.40
  -3  -4  -1   11.30    3.40
  -3  -4  -1    8.60    5.80
   3  -4   1   10.00    1.10
   3   4   1   15.10    2.60
   3   4   1   16.00    1.20
  -3   4  -1   15.40    1.20
   3   4   1   16.90    1.50
   3   4   1   17.30    2.10
  -4  -4  -1  190.68   13.50
  -4  -4  -1  211.38   14.30
  -4  -4  -1  211.68   13.50
   4  -4   1  203.98   19.00
  -4  -4  -1  220.48   14.30
   4   4   1  334.17   21.70
   4   4   1  308.07   21.50
   4   4   1  365.06   22.70
   4   4   1  342.67   21.50
  -5  -4  -1   30.40    3.20
  -5  -4  -1   29.90    2.70
  -5  -4  -1   32.60    3.30
   5   4   1   45.50    3.40
   5   4   1   47.60    4.70
  -6  -4  -1   19.10    2.40
  -6  -4  -1   18.70    2.50
   6   4   1   26.30    2.40
   6   4   1   27.90    2.20
  -7  -4  -1   31.50    3.00
  -7  -4  -1   30.70    2.90
   7   4   1   41.00    2.70
   7   4   1   33.50    2.80
  -6  -5   1  116.39    8.20
  -6  -5   1  121.49    8.40
   6   5  -1  169.68   12.10
   6   5  -1  170.98   11.00
  -5  -5   1  181.48   11.80
  -5  -5   1  160.38   11.70
   5   5  -1  317.47   19.60
   5   5  -1  257.87   18.40
   4  -5  -1   60.99    4.00
  -4  -5   1   64.79    5.10
  -4  -5   1   59.99    5.00
  -4   5   1   77.69    5.70
   4   5  -1   83.39    5.30
   3  -5  -1   11.30    0.90
  -3  -5   1   11.50    1.90
  -3  -5   1   10.50    1.10
   3   5  -1   38.80    2.90
   3   5  -1   42.30    3.10
   3   5  -1   45.20    4.40
  -3   5   1   38.30    3.50
  -2  -5   1   46.90    3.90
   2  -5  -1   42.00    2.90
   2  -5  -1   46.00    3.10
  -2  -5   1   44.00    3.20
   2   5  -1   61.69    3.90
  -2   5   1   60.09    4.20
   2   5  -1   48.90    4.20
  -2   5   1   56.79    4.60
   2   5  -1   57.59    5.20
  -1  -5   1   49.70    7.70
   1  -5  -1   62.59    9.40
  -1  -5   1   66.69    5.00
   1  -5  -1   63.79    4.30
  -1  -5   1   58.39    9.40
  -1  -5   1   64.29    4.30
   1  -5  -1   66.69    4.10
   1   5  -1  112.49    7.40
   1   5  -1  118.29    7.20
   1   5  -1   92.19    8.20
  -1   5   1  125.19    7.50
   1   5  -1   99.19    7.70
  -1   5   1  118.79    8.00
   1   5  -1  103.79    8.30
   0  -5   1   51.59    6.70
   0  -5   1   52.09    4.70
   0  -5   1   53.59    3.70
   0  -5  -1   51.99    3.70
   0  -5  -1   52.89    6.40
   0  -5  -1   57.29    3.90
   0  -5   1   54.69    3.50
   0  -5  -1   46.50   12.80
   0  -5  -1   51.89    3.40
   0   5   1  117.19    7.30
   0   5  -1  107.69    7.20
   0   5   1  101.09    7.70
   0   5  -1   97.99    7.60
   1  -5   1   62.19    4.70
  -1  -5  -1   55.39    4.10
   1  -5   1   60.09    3.80
  -1  -5  -1   52.49    3.80
  -1  -5  -1   65.29    4.20
   1  -5   1   58.69    4.00
  -1  -5  -1   60.69    4.90
   1   5   1   84.29    6.00
  -1   5  -1   89.69    6.00
   1   5   1   86.59    5.80
  -1   5  -1   86.59    6.40
  -2  -5  -1  380.36   24.90
   2  -5   1  388.96   23.80
   2  -5   1  388.06   24.00
  -2  -5  -1  349.47   24.10
   2   5   1  639.24   40.70
  -2   5  -1  678.83   40.80
  -2   5  -1  642.54   41.20
   2   5   1  646.64   40.90
   2   5   1  601.74   41.90
   3  -5   1   26.00    1.80
  -3  -5  -1   23.60    2.10
  -3  -5  -1   28.40    3.00
   3  -5   1   29.80    2.00
   3   5   1   52.09    3.70
   3   5   1   54.09    3.90
   3   5   1   60.49    5.40
  -3   5  -1   51.29    4.10
  -4  -5  -1   66.89    4.90
  -4  -5  -1   75.39    5.90
   4  -5   1   73.89    4.60
  -4   5  -1  115.29    7.80
   4   5   1  117.49    7.60
  -5  -5  -1  189.98   13.10
   5   5   1  338.97   22.50
   5   5   1  333.07   21.50
  -6  -5  -1   14.20    1.90
   6   5   1   46.20    3.20
  -5  -6   1   47.30    3.70
   5   6  -1   83.99    6.50
   4  -6  -1   29.20    1.90
  -4  -6   1   27.10    2.70
   4   6  -1   46.40    4.10
   4   6  -1   37.70    2.60
  -4   6   1   34.20    2.80
  -3  -6   1    1.00    0.40
   3  -6  -1    1.00    0.20
  -3  -6   1    1.80    0.90
   3   6  -1    3.70    1.50
  -3   6   1    3.50    0.80
   3   6  -1    3.70    0.60
  -3   6   1    3.10    1.20
  -2  -6   1  124.09    8.70
  -2  -6   1  135.79    9.40
   2  -6  -1  144.19    8.70
   2  -6  -1  129.69    8.50
   2   6  -1  201.68   13.90
  -2   6   1  182.58   13.30
   2   6  -1  201.48   12.70
  -2   6   1  208.48   13.00
   1  -6  -1   98.19    6.20
  -1  -6   1   88.39    6.10
   1  -6  -1   89.49    6.00
  -1  -6   1   95.69    6.90
   1   6  -1  118.19    9.40
  -1   6   1  119.49    9.00
   1   6  -1  131.09    8.30
  -1   6   1  142.19    8.70
   0  -6   1  166.48   10.80
   0  -6   1  159.48   10.10
   0  -6  -1  156.18   10.10
   0  -6  -1  147.99    9.90
   0  -6   1  148.69    9.90
   0   6   1  225.18   15.50
   0   6   1  233.28   14.80
   0   6   1  204.58   15.70
   0   6  -1  217.38   15.00
   0   6   1  240.88   14.50
   0   6  -1  243.78   14.40
   0   6  -1  211.68   15.50
   0   6  -1  231.28   14.70
   1  -6   1  174.28   11.10
  -1  -6  -1  175.68   11.40
   1  -6   1  186.38   11.30
  -1  -6  -1  179.38   12.10
  -1  -6  -1  158.88   11.10
   1   6   1  282.37   17.20
  -1   6  -1  265.37   17.70
  -1   6  -1  233.38   18.50
  -1   6  -1  291.67   17.40
   1   6   1  272.17   18.60
  -2  -6  -1  112.19    7.80
   2  -6   1  115.69    7.50
  -2  -6  -1  118.69    8.60
   2  -6   1  126.89    7.70
   2   6   1  177.48   12.10
  -2   6  -1  150.38   11.10
   2   6   1  170.38   10.70
  -2   6  -1  165.18   10.80
  -3  -6  -1    4.90    0.80
  -3  -6  -1    5.70    1.50
   3  -6   1    5.00    0.50
   3  -6   1    5.00    0.60
   3   6   1    9.50    1.00
   3   6   1   11.80    2.80
  -3   6  -1    9.00    1.20
  -4  -6  -1  117.79    7.90
  -4  -6  -1  101.49    7.10
   4   6   1  167.98   11.30
   4   6   1  185.18   12.40
  -5  -6  -1   11.50    1.50
   5   6   1   20.60    2.80
  -2  -7   1   69.99    4.50
   2  -7  -1   76.39    4.40
   2  -7  -1   66.49    4.50
  -2  -7   1   63.09    4.90
   2   7  -1  111.49    7.50
   2   7  -1  124.99    8.30
  -1  -7   1   19.30    2.00
   1  -7  -1   23.80    1.50
  -1  -7   1   23.60    1.60
   1  -7  -1   24.20    1.70
   1   7  -1   25.10    1.80
  -1   7   1   25.30    2.90
   1   7  -1   28.40    2.80
   0  -7  -1  112.09    7.60
   0  -7  -1  121.79    7.70
   0  -7   1  123.79    7.70
   0   7   1  191.18   12.30
   0   7   1  164.18   11.30
   0   7  -1  176.48   11.90
   1  -7   1   10.90    0.90
  -1  -7  -1   10.90    1.00
   1   7   1   14.30    1.20
   1   7   1   17.60    2.60
   2  -7   1   21.70    1.50
  -2  -7  -1   20.70    1.60
   2   7   1   31.30    3.30
   2   7   1   30.90    2.10
  -9   0   2  163.08   10.70
   9   0  -2  169.28   11.00
  -8   0   2    3.00    0.50
   8   0  -2    1.30    1.00
   8   0  -2    2.90    0.70
  -8   0   2    2.20    0.90
  -7   0   2   63.89    4.50
   7   0  -2   62.19    4.80
  -7   0   2   72.79    4.90
   7   0  -2   67.59    4.50
  -6   0   2  124.59   10.60
  -6   0   2  132.89    8.50
  -6   0   2  136.99    8.70
   6   0  -2  132.29    8.50
  -6   0   2  124.69    8.40
  -5   0   2   86.49    5.40
  -5   0   2   77.89    5.50
  -5   0   2   81.69    7.00
  -4   0   2   44.70    4.20
   4   0  -2   44.00    3.10
   4   0  -2   47.90    3.30
  -4   0   2   44.10    3.70
  -4   0   2   45.50    3.00
  -4   0   2   41.80    3.30
  -3   0   2   38.30    3.50
  -3   0   2   39.20    2.50
   3   0  -2   39.20    2.70
  -3   0   2   37.60    2.80
  -3   0   2   35.50    3.80
   3   0  -2   38.30    2.60
   3   0  -2   40.30    6.70
  -2   0   2  118.59    7.10
   2   0  -2  111.79    7.20
  -2   0   2  107.29    7.50
   2   0  -2  105.89    7.10
  -2   0   2   99.89    7.20
  -2   0   2  113.99    7.30
   2   0  -2  110.79    8.10
  -2   0   2  121.79    7.80
   2   0  -2  106.29    7.10
  -2   0   2  109.99    7.10
  -2   0   2  114.69    8.20
  -1   0   2   21.90    4.90
  -1   0   2   16.50    1.50
  -1   0   2   17.90    1.30
  -1   0   2   18.10    1.30
   0   0   2  108.99    8.10
   0   0   2  109.79    7.60
   0   0  -2  115.69    7.10
   0   0   2  116.69    7.10
   0   0  -2  113.69    8.30
   0   0  -2  100.09    8.70
   0   0  -2  114.99    7.70
  -1   0  -2  435.46   28.90
   1   0   2  433.66   28.80
  -1   0  -2  426.66   27.40
   1   0   2  435.26   27.40
  -1   0  -2  439.16   27.90
   2   0   2  158.48    9.90
   2   0   2  150.88   11.80
  -2   0  -2  155.18   10.70
   2   0   2  161.18   10.30
   2   0   2  149.19   10.10
   2   0   2  146.49    9.90
  -2   0  -2  158.08    9.90
  -2   0  -2  157.18   10.00
  -2   0  -2  166.28   11.70
  -2   0  -2  158.88    9.90
  -3   0  -2   11.00    1.00
   3   0   2    9.50    0.80
   3   0   2   10.20    1.30
   3   0   2   10.30    1.10
  -3   0  -2    9.70    1.70
  -3   0  -2    9.40    1.40
  -4   0  -2   34.10    2.50
  -5   0  -2   14.70    1.30
  -5   0  -2   12.80    1.40
  -6   0  -2  798.52   50.49
   6   0   2  819.32   49.99
  -6   0  -2  734.13   49.99
  -6   0  -2  810.52   50.29
   7   0   2  363.96   22.90
   7   0   2  371.36   23.00
  -7   0  -2  383.46   23.40
  -7   0  -2  333.57   23.00
   7   0   2  349.27   23.20
  -8   0  -2   71.59    5.10
   8   0   2   74.09    4.70
   8   0   2   60.69    5.10
   8   0   2   70.49    4.70
  -8   0  -2   71.89    4.80
   9   0   2   79.89    4.80
  -9   0  -2   71.59    5.30
   9   0   2   69.29    5.10
  -9  -1   2   36.40    2.60
  -9  -1   2   38.60    2.60
   9  -1  -2   37.60    3.00
   9   1  -2   47.40    3.60
  -9   1   2   47.20    3.20
  -8  -1   2   38.70    3.70
   8  -1  -2   45.80    3.70
  -8  -1   2   46.50    3.70
  -8  -1   2   47.10    3.20
   8  -1  -2   47.80    3.10
  -8   1   2   55.89    3.90
   8   1  -2   56.59    3.90
   8   1  -2   59.09    4.30
  -7  -1   2   34.20    3.40
   7  -1  -2   41.00    2.90
   7  -1  -2   37.00    3.30
  -7  -1   2   43.50    2.90
  -7  -1   2   43.10    3.40
   7   1  -2   32.70    2.90
   7   1  -2   35.80    2.50
  -7   1   2   35.90    2.80
  -6  -1   2  174.08   10.90
  -6  -1   2  154.88   13.10
  -6  -1   2  158.68   10.80
  -6  -1   2  162.78   10.60
  -6  -1   2  165.18   10.60
  -6   1   2  200.68   12.70
  -6   1   2  205.88   12.90
   6   1  -2  189.08   12.80
  -6   1   2  198.78   14.90
  -5  -1   2  848.92   55.69
  -5  -1   2  881.71   55.99
  -5  -1   2  867.61   57.99
   5  -1  -2  928.51   64.49
   5   1  -2  970.30   65.49
   5   1  -2 1071.89   65.89
  -5   1   2 1099.79   67.09
  -5   1   2 1002.60   65.39
  -4  -1   2   52.49    4.40
   4  -1  -2   56.69    5.30
  -4  -1   2   50.69    3.70
  -4  -1   2   54.89    3.80
  -4  -1   2   56.09    5.30
   4  -1  -2   63.39    9.00
   4   1  -2   54.79    3.90
  -4   1   2   57.79    3.80
  -4   1   2   59.59    4.90
   4   1  -2   61.49    4.20
  -3  -1   2 1644.04  103.09
  -3  -1   2 1589.24   99.59
  -3  -1   2 1603.84   99.09
   3  -1  -2 1505.45  104.19
  -3  -1   2 1535.35   98.99
  -3  -1   2 1522.15   99.79
   3  -1  -2 1609.54  101.99
  -3  -1   2 1546.45   99.29
   3   1  -2 1598.64  102.09
   3   1  -2 1546.55  100.79
   3   1  -2 1626.74  100.89
  -3   1   2 1550.34  101.09
  -3   1   2 1487.85  100.89
  -3   1   2 1551.84  101.79
  -3   1   2 1658.93  101.19
  -3   1   2 1751.62  100.79
   2  -1  -2  943.51   68.89
  -2  -1   2 1096.29   65.89
  -2  -1   2  997.70   65.79
   2  -1  -2 1065.29   66.29
  -2  -1   2 1025.80   66.69
  -2  -1   2 1022.00   64.89
   2  -1  -2 1068.49   64.89
  -2  -1   2 1015.80   65.09
  -2  -1   2 1078.89   65.39
   2  -1  -2  979.50   66.09
   2  -1  -2  950.80   64.79
  -2  -1   2 1025.10   64.79
  -2  -1   2 1095.29   64.99
   2   1  -2 1064.99   61.89
   2   1  -2  974.10   61.89
  -2   1   2  951.60   62.19
   2   1  -2  958.60   61.79
   2   1  -2  983.20   61.79
  -2   1   2  930.41   61.69
  -2   1   2 1032.00   62.29
   2   1  -2  885.71   61.99
  -2   1   2 1059.09   61.79
   2   1  -2  875.01   63.29
  -2   1   2 1060.79   62.09
  -1  -1   2  271.07   16.80
  -1  -1   2  280.57   16.40
   1  -1  -2  228.58   16.40
   1  -1  -2  292.17   16.40
  -1  -1   2  263.27   17.70
   1  -1  -2  240.58   16.50
  -1  -1   2  275.27   16.40
   1  -1  -2  228.38   17.00
   1  -1  -2  241.88   24.20
  -1  -1   2  252.87   17.30
  -1  -1   2  250.47   16.60
  -1  -1   2  255.17   16.60
   1  -1  -2  285.77   18.20
   1   1  -2  266.27   16.10
  -1   1   2  246.18   16.40
  -1   1   2  251.77   16.80
   1   1  -2  259.77   15.90
  -1   1   2  254.97   15.90
  -1   1   2  237.68   17.00
   1   1  -2  252.37   15.90
  -1   1   2  243.78   15.90
   1   1  -2  249.58   16.00
   1   1  -2  222.38   16.20
  -1   1   2  261.27   16.10
   1   1  -2  270.37   17.20
   0  -1   2 1303.77   76.29
   0  -1   2 1355.26   75.79
   0  -1   2 1083.69   77.09
   0  -1  -2 1305.77   75.79
   0  -1   2 1249.28   77.59
   0  -1   2 1195.28   76.29
   0  -1  -2 1202.98   76.59
   0  -1   2 1074.29   80.39
   0  -1  -2 1050.99   83.69
   0   1  -2 1537.95   87.09
   0   1   2 1339.77   86.79
   0   1  -2 1360.76   85.39
   0   1   2 1299.07   85.79
   0   1  -2 1302.67   85.29
   0   1   2 1334.57   84.99
   0   1  -2 1321.37   84.99
   0   1   2 1323.17   84.99
   0   1  -2 1326.27   85.69
   0   1   2 1343.07   85.79
  -1  -1  -2    9.40    0.80
   1  -1   2   11.20    1.40
   1  -1   2   10.40    0.90
   1  -1   2    8.10    1.40
  -1  -1  -2   10.60    0.70
  -1  -1  -2   10.30    2.70
  -1  -1  -2    9.80    1.60
   1  -1   2   12.50    1.60
  -1  -1  -2    8.50    1.40
  -1  -1  -2    9.10    0.90
  -1   1  -2    8.70    1.60
   1   1   2    7.10    2.40
   1   1   2    6.10    1.00
  -1   1  -2    7.50    0.50
  -1   1  -2    7.70    0.70
  -1   1  -2    6.30    0.70
  -1   1  -2    6.70    4.30
  -1   1  -2    6.90    1.00
   1   1   2    8.50    0.80
   1   1   2    5.50    0.60
  -2  -1  -2  654.73   41.80
  -2  -1  -2  640.24   41.90
  -2  -1  -2  729.63   41.80
   2  -1   2  658.13   42.50
   2  -1   2  557.44   42.70
  -2  -1  -2  593.14   42.60
  -2  -1  -2  723.33   45.10
   2  -1   2  626.04   41.90
   2  -1   2  755.82   44.90
  -2  -1  -2  702.63   42.90
  -2  -1  -2  658.83   42.00
   2   1   2  724.83   49.60
  -2   1  -2  731.83   46.50
  -2   1  -2  709.33   47.10
   2   1   2  798.92   46.60
   2   1   2  749.03   46.80
   2   1   2  697.93   46.40
  -3  -1  -2  617.44   40.80
   3  -1   2  611.14   40.80
  -3  -1  -2  694.13   42.10
   3  -1   2  643.74   41.50
  -3  -1  -2  568.74   41.70
  -3  -1  -2  735.23   41.00
  -3   1  -2  806.32   53.89
  -3   1  -2  785.32   54.69
   3   1   2  960.90   54.09
  -4  -1  -2   90.59    5.80
  -4  -1  -2   90.79    5.80
  -4  -1  -2   75.59    6.80
  -4   1  -2   83.09    5.80
   4   1   2   89.49    6.00
  -5  -1  -2  130.39    8.60
  -5  -1  -2  125.79    8.60
   5   1   2  125.99    8.70
  -5   1  -2  125.89    8.50
   6  -1   2  171.58   11.10
  -6  -1  -2  168.48   11.20
  -6  -1  -2  186.28   11.50
  -6  -1  -2  164.38   11.40
  -6  -1  -2  169.38   11.50
   6   1   2  191.78   12.10
  -6   1  -2  179.98   12.50
  -6   1  -2  185.18   12.40
  -6   1  -2  192.68   12.20
   7  -1   2   62.79    4.10
  -7  -1  -2   51.79    5.00
  -7  -1  -2   59.59    4.20
   7  -1   2   66.19    4.20
  -7  -1  -2   64.59    4.70
  -7   1  -2   59.89    4.40
   7   1   2   62.59    4.50
   7   1   2   59.59    4.20
   7   1   2   61.79    4.10
   8  -1   2   12.60    1.30
  -8  -1  -2   13.20    1.30
  -8   1  -2   10.50    1.30
   8   1   2   10.30    1.10
   8   1   2   10.10    1.50
  -8   1  -2   10.50    1.10
   8   1   2    9.40    1.20
  -9  -1  -2    5.00    1.10
   9  -1   2    6.50    0.70
   9   1   2    8.40    0.80
   9   1   2    5.00    1.10
  -9  -2   2   64.69    4.00
  -9  -2   2   57.39    4.40
   9   2  -2   78.09    5.30
  -8  -2   2    4.90    0.70
  -8  -2   2    3.10    1.00
   8  -2  -2    3.90    1.20
  -8   2   2    5.70    0.90
   8   2  -2    4.50    1.10
  -7  -2   2  182.68   10.70
  -7  -2   2  146.59   11.10
   7  -2  -2  159.58   10.90
   7   2  -2  207.78   14.00
   7   2  -2  219.58   13.70
   6  -2  -2   10.50    5.50
  -6  -2   2   10.60    1.10
  -6  -2   2    9.90    3.00
  -6  -2   2    9.80    1.20
   6   2  -2   17.00    2.00
  -5  -2   2  110.89   10.50
   5  -2  -2  135.69   15.50
   5  -2  -2  125.99   10.30
  -5  -2   2  120.99    8.10
  -5   2   2  122.69    8.50
   5   2  -2  127.79    8.70
   5   2  -2  140.19    9.20
  -5   2   2  143.39   10.30
  -4  -2   2  732.73   51.69
   4  -2  -2  867.21   52.99
  -4  -2   2  771.42   53.19
  -4  -2   2  741.03   51.09
  -4  -2   2  834.92   50.99
   4  -2  -2  881.51   59.49
  -4   2   2  973.10   61.59
   4   2  -2  896.71   61.79
  -4   2   2 1095.29   62.59
   4   2  -2  946.71   62.19
  -3  -2   2  325.57   18.80
   3  -2  -2  294.87   25.40
  -3  -2   2  281.77   19.50
  -3  -2   2  311.67   20.70
   3  -2  -2  264.97   18.70
  -3  -2   2  276.97   18.90
   3  -2  -2  301.77   20.30
   3   2  -2  382.76   24.80
  -3   2   2  418.16   24.60
   3   2  -2  376.96   25.20
  -3   2   2  378.46   25.60
   3   2  -2  398.66   25.50
  -3   2   2  385.26   26.00
   3   2  -2  385.96   24.70
  -2  -2   2  113.69    8.10
  -2  -2   2  101.49    8.10
   2  -2  -2   97.19   12.40
  -2  -2   2  124.49    7.80
  -2  -2   2  130.69    7.40
  -2  -2   2  116.69    7.60
   2  -2  -2  113.39    8.70
  -2  -2   2  121.89    9.00
   2  -2  -2  107.39    7.50
   2  -2  -2  128.59   19.10
  -2   2   2  102.89    8.00
  -2   2   2  129.39    7.80
   2   2  -2  130.29    7.90
   2   2  -2  128.49    8.40
   2   2  -2  121.59    8.00
   2   2  -2  124.19    7.90
   2   2  -2  122.89    7.90
  -1  -2   2  639.24   42.50
   1  -2  -2  654.13   41.70
   1  -2  -2  622.64   42.90
  -1  -2   2  606.64   43.40
  -1  -2   2  608.84   41.70
  -1  -2   2  685.93   42.30
  -1  -2   2  713.53   41.60
   1  -2  -2  683.93   56.79
   1  -2  -2  620.84   47.30
   1  -2  -2  686.73   41.80
  -1  -2   2  649.83   42.90
  -1  -2   2  688.93   42.00
  -1  -2   2  721.83   44.00
   1   2  -2  756.72   49.60
   1   2  -2  774.32   47.80
   1   2  -2  767.52   47.70
   1   2  -2  734.43   47.70
  -1   2   2  676.93   49.50
   1   2  -2  725.53   54.49
  -1   2   2  782.92   48.00
   1   2  -2  754.22   48.20
  -1   2   2  828.42   47.70
   0  -2  -2  168.48   16.10
   0  -2   2  163.78   13.00
   0  -2   2  167.08   20.50
   0  -2  -2  181.28   12.60
   0  -2  -2  192.38   11.50
   0  -2   2  179.48   11.40
   0  -2  -2  173.88   23.30
   0  -2   2  188.28   12.00
   0  -2  -2  203.08   12.30
   0  -2   2  190.58   12.40
   0  -2   2  196.28   13.00
   0  -2   2  159.38   12.30
   0  -2  -2  167.38   12.50
   0  -2   2  171.08   11.90
   0   2   2  169.88   12.00
   0   2  -2  189.98   12.60
   0   2  -2  179.78   11.90
   0   2  -2  206.18   13.40
   0   2  -2  200.68   12.00
   0   2   2  205.48   12.40
   0   2   2  170.98   12.20
   0   2  -2  192.88   14.40
   0   2   2  191.28   14.70
   0   2   2  190.98   12.00
   0   2   2  177.18   13.70
  -1  -2  -2  207.08   12.80
  -1  -2  -2  196.88   11.40
  -1  -2  -2  167.08   16.20
  -1  -2  -2  189.78   11.60
  -1  -2  -2  176.68   11.50
   1  -2   2  168.48   13.00
  -1  -2  -2  178.28   12.70
  -1  -2  -2  161.48   12.50
   1  -2   2  199.08   12.30
   1  -2   2  170.08   12.40
   1  -2   2  154.18   15.40
   1  -2   2  187.68   11.50
  -1  -2  -2  188.68   11.40
   1  -2   2  172.88   12.00
   1   2   2  281.07   18.30
  -1   2  -2  266.27   18.30
   1   2   2  304.07   18.80
   1   2   2  291.07   18.20
   1   2   2  283.87   18.50
  -1   2  -2  314.07   19.00
  -1   2  -2  288.17   19.30
  -1   2  -2  274.47   18.30
  -2  -2  -2  109.69    6.80
  -2  -2  -2  112.79    8.00
  -2  -2  -2   99.29    6.80
  -2  -2  -2   98.49    8.00
   2  -2   2   97.99    8.30
   2  -2   2  107.59    6.80
   2  -2   2  109.89    7.60
  -2  -2  -2  107.89    6.70
   2  -2   2   87.49   10.40
   2   2   2  134.49    8.70
   2   2   2  137.29    8.70
  -2   2  -2  125.09    8.80
   2   2   2  135.79    8.70
  -2   2  -2  138.39    8.90
   2   2   2  145.69    9.10
   2   2   2  135.49    9.30
  -3  -2  -2  257.77   18.90
  -3  -2  -2  291.67   17.60
   3  -2   2  271.67   17.50
  -3  -2  -2  294.77   17.40
   3  -2   2  268.17   19.10
  -3  -2  -2  256.77   17.60
   3   2   2  405.56   24.10
  -3   2  -2  359.36   23.80
   3   2   2  359.36   24.40
   3   2   2  369.36   23.60
   4  -2   2   20.20    1.70
  -4  -2  -2   22.90    1.90
  -4  -2  -2   24.10    1.70
  -4  -2  -2   19.80    3.10
  -4   2  -2   19.90    1.70
   4   2   2   20.80    1.90
  -5  -2  -2    2.40    0.70
  -5  -2  -2    3.30    0.60
  -5  -2  -2    4.70    0.70
   5   2   2    1.90    0.50
   5   2   2    1.70    0.80
  -5   2  -2    2.20    0.70
   6  -2   2  180.88   11.80
  -6  -2  -2  204.38   12.00
  -6  -2  -2  167.28   12.80
   6   2   2  204.08   14.00
   6   2   2  226.78   14.10
   6   2   2  226.18   14.20
   6   2   2  214.48   13.90
  -7  -2  -2   41.90    4.00
  -7  -2  -2   45.50    3.50
   7   2   2   43.50    3.30
   7   2   2   42.50    2.90
   7   2   2   38.80    2.90
   7   2   2   39.00    2.90
  -8  -2  -2  218.78   14.10
  -8  -2  -2  198.08   14.10
   8   2   2  310.17   19.50
   8   2   2  293.17   19.20
  -8  -3   2   42.90    3.50
  -8  -3   2   45.00    3.00
   8   3  -2   65.09    4.30
  -7  -3   2   49.50    4.20
  -7  -3   2   53.29    3.50
   7   3  -2   85.49    5.70
  -6  -3   2   52.89    3.60
  -6  -3   2   59.69    4.30
  -6  -3   2   48.90    4.40
   6   3  -2   78.29    5.30
   6   3  -2   76.79    6.80
  -5  -3   2  184.18   11.80
   5  -3  -2  187.68   14.50
  -5  -3   2  167.58   15.00
  -5  -3   2  171.68   12.10
   5  -3  -2  194.68   20.60
   5   3  -2  233.78   15.80
   5   3  -2  255.77   16.40
  -4  -3   2  123.99    7.60
  -4  -3   2  123.99    7.90
  -4  -3   2  116.29   10.60
   4  -3  -2  109.89    7.70
   4  -3  -2  121.19    9.90
  -4  -3   2   98.79    8.50
   4  -3  -2  119.19   15.20
   4   3  -2  146.79   11.20
   4   3  -2  160.08   10.00
  -4   3   2  152.68   11.40
   4   3  -2  156.48   10.70
   4   3  -2  157.58   10.10
   3  -3  -2  476.35   39.40
  -3  -3   2  450.85   31.20
   3  -3  -2  484.75   30.30
  -3  -3   2  511.95   33.10
   3  -3  -2  515.45   32.60
  -3  -3   2  520.35   30.40
  -3  -3   2  418.56   33.00
   3  -3  -2  427.86   30.20
   3   3  -2  643.34   40.60
   3   3  -2  635.64   41.30
   3   3  -2  630.24   40.70
   3   3  -2  676.73   40.70
  -3   3   2  614.04   42.00
   3   3  -2  636.24   41.70
  -3   3   2  655.53   40.50
  -2  -3   2  146.29   10.50
  -2  -3   2  134.99   12.00
  -2  -3   2  158.88   11.90
   2  -3  -2  131.99   16.60
   2  -3  -2  137.09    9.60
   2  -3  -2  158.08   11.60
  -2  -3   2  158.78    9.60
   2  -3  -2  154.88    9.60
   2   3  -2  214.38   14.90
   2   3  -2  228.28   14.20
   2   3  -2  227.18   15.10
   2   3  -2  222.88   14.20
  -2   3   2  222.48   14.10
   2   3  -2  213.88   14.30
   1  -3  -2  345.97   23.70
  -1  -3   2  325.47   21.70
  -1  -3   2  348.07   22.60
  -1  -3   2  318.57   24.20
   1  -3  -2  362.56   21.80
  -1  -3   2  358.26   23.70
   1  -3  -2  331.17   29.70
  -1   3   2  448.36   29.50
  -1   3   2  466.95   29.10
   1   3  -2  448.66   29.10
   1   3  -2  484.35   29.90
   1   3  -2  445.66   29.90
   1   3  -2  462.25   29.20
   1   3  -2  460.95   29.10
   0  -3  -2  140.89   11.00
   0  -3  -2  158.98   11.20
   0  -3  -2  145.09   16.30
   0  -3   2  157.18   27.00
   0  -3   2  139.49    9.20
   0  -3   2  153.08   10.10
   0  -3   2  123.19   15.50
   0  -3   2  130.49   10.80
   0  -3   2  140.39   11.60
   0   3   2  142.49   10.00
   0   3  -2  149.09    9.60
   0   3  -2  152.48    9.60
   0   3   2  154.98   10.20
   0   3  -2  152.38   10.20
   0   3   2  150.98    9.60
   0   3  -2  143.59   10.40
  -1  -3  -2  263.17   17.40
   1  -3   2  217.08   21.90
   1  -3   2  244.18   18.00
  -1  -3  -2  234.48   17.20
   1  -3   2  253.07   15.50
  -1  -3  -2  237.78   23.00
   1   3   2  307.47   20.80
   1   3   2  350.76   21.60
  -1   3  -2  320.87   21.80
   1   3   2  329.37   20.80
  -1   3  -2  322.17   21.20
   1   3   2  335.77   21.30
  -2  -3  -2   69.99   11.20
  -2  -3  -2   81.19    5.20
  -2  -3  -2   73.99    6.90
   2  -3   2   76.79    7.40
   2  -3   2   78.79    5.20
   2   3   2  108.29    7.50
   2   3   2  105.09    7.10
   2   3   2  104.29    7.80
   2   3   2  106.99    6.90
  -2   3  -2  113.59    8.20
  -3  -3  -2   56.89    6.00
  -3  -3  -2   62.09    4.10
  -3  -3  -2   65.89    4.40
   3  -3   2   58.49    4.30
   3  -3   2   64.59    6.50
   3   3   2   91.59    7.40
  -3   3  -2  103.69    8.00
   3   3   2   98.99    6.50
   3   3   2  106.69    7.00
   3   3   2   96.49    6.40
   4  -3   2  374.26   25.40
  -4  -3  -2  389.26   27.80
  -4  -3  -2  405.86   25.60
  -4  -3  -2  418.46   25.30
   4   3   2  598.14   38.20
   4   3   2  611.64   38.90
  -5  -3  -2  229.68   14.90
  -5  -3  -2  204.58   17.10
  -5  -3  -2  240.98   14.60
  -5  -3  -2  227.78   15.60
   5   3   2  295.07   20.10
   5   3   2  311.67   20.40
   5   3   2  319.57   20.00
  -6  -3  -2    4.30    1.00
  -6  -3  -2    3.80    1.30
  -6  -3  -2    4.40    1.40
   6   3   2    9.00    1.20
   6   3   2    8.60    1.20
  -7  -3  -2   80.19    6.10
  -7  -3  -2   76.19    6.00
   7   3   2  125.09    8.00
   7   3   2  118.49    8.20
  -8  -3  -2    6.70    1.40
  -8  -3  -2    7.00    1.30
   8   3   2    8.80    1.40
  -7  -4   2   76.39    5.70
  -6  -4   2  131.39    9.60
  -6  -4   2  146.29    9.80
   6   4  -2  224.18   14.80
   6   4  -2  236.58   16.20
  -5  -4   2    4.00    1.10
  -5  -4   2    3.80    1.20
  -5  -4   2    2.80    1.00
   5   4  -2   18.00    1.70
   5   4  -2   20.10    3.20
  -4  -4   2  360.16   42.90
  -4  -4   2  333.07   24.30
   4  -4  -2  433.16   37.10
  -4  -4   2  333.47   24.60
  -4  -4   2  405.16   28.40
  -4   4   2  615.24   44.20
   4   4  -2  734.63   43.60
   4   4  -2  669.43   42.50
   4   4  -2  659.03   43.50
  -3  -4   2  112.59   11.70
   3  -4  -2  119.99   17.20
   3  -4  -2  137.59    8.70
  -3  -4   2  142.49   12.20
  -3  -4   2  124.09    9.80
   3  -4  -2  143.79   11.50
   3  -4  -2  142.19    8.70
   3   4  -2  170.68   10.70
   3   4  -2  154.48   11.90
   3   4  -2  172.78   11.60
  -3   4   2  165.58   10.40
  -3   4   2  145.69   12.30
  -3   4   2  167.38   11.10
   3   4  -2  165.48   10.50
  -2  -4   2   97.69   10.00
   2  -4  -2  112.19    7.00
  -2  -4   2  108.19    9.90
   2  -4  -2  107.99    7.00
  -2  -4   2  109.09    8.20
   2  -4  -2   87.29   14.70
   2  -4  -2  113.49    9.60
   2   4  -2  133.79    8.30
   2   4  -2  133.09    9.40
  -2   4   2  141.29    9.00
  -2   4   2  136.39    8.30
   2   4  -2  108.69    8.60
   2   4  -2  130.39    9.60
  -2   4   2  113.09    9.90
   1  -4  -2   55.19    3.90
   1  -4  -2   49.99   11.00
  -1  -4   2   56.69    6.70
   1  -4  -2   64.79    6.40
  -1  -4   2   52.69    6.20
  -1  -4   2   47.30   11.30
  -1  -4   2   59.09    5.00
  -1   4   2   90.59    6.30
  -1   4   2   88.29    5.60
   1   4  -2   82.79    5.70
  -1   4   2   78.69    6.10
   1   4  -2   84.29    6.50
   1   4  -2   79.89    6.00
   1   4  -2   87.29    5.60
   1   4  -2   82.09    6.60
   0  -4   2   93.09    6.00
   0  -4  -2   89.19    6.10
   0  -4  -2  103.89    8.80
   0  -4   2   79.99   13.80
   0  -4   2   86.69    8.30
   0  -4  -2   85.59   14.00
   0  -4   2   88.99    9.00
   0  -4  -2   96.19    8.50
   0   4  -2  160.98   10.70
   0   4   2  166.88   10.70
   0   4   2  158.98   11.40
   0   4  -2  165.48   11.10
   0   4  -2  157.98   11.30
   0   4   2  172.28   11.40
   0   4  -2  171.78   11.80
   1  -4   2   77.49    8.00
  -1  -4  -2   83.49    7.60
  -1  -4  -2   73.09    5.00
   1  -4   2   76.39    5.00
   1  -4   2   60.29   11.60
  -1  -4  -2   72.29   12.90
   1   4   2  118.99    7.50
  -1   4  -2  113.39    7.50
  -1   4  -2  113.09    7.80
   1   4   2  115.09    8.50
   1   4   2  113.79    8.20
  -1   4  -2  113.19    8.70
  -2  -4  -2   31.10    4.50
   2  -4   2   31.10    4.90
  -2  -4  -2   28.50    8.70
   2  -4   2   30.80    2.40
  -2   4  -2   50.99    5.00
   2   4   2   54.79    4.30
   2   4   2   56.09    3.80
  -2   4  -2   52.39    3.90
   2   4   2   52.49    3.50
   2   4   2   51.29    4.80
  -2   4  -2   47.50    3.50
   3  -4   2   64.89    7.10
   3  -4   2   62.19    4.30
  -3  -4  -2   59.49    6.70
  -3  -4  -2   55.59   12.10
   3   4   2   73.49    5.20
  -3   4  -2   57.79    4.50
   3   4   2   70.79    4.50
   3   4   2   62.09    4.30
  -4  -4  -2  148.29    9.20
  -4  -4  -2  143.89   10.10
  -4  -4  -2  125.29    9.10
   4   4   2  192.88   13.20
   4   4   2  211.58   13.10
   4   4   2  212.48   13.40
   4   4   2  205.68   14.40
  -5  -4  -2   85.09    6.10
  -5  -4  -2   91.09    6.90
  -5  -4  -2   84.29    6.70
   5   4   2  136.19    9.00
   5   4   2  137.19    9.10
  -6  -4  -2   14.50    2.30
  -6  -4  -2   16.60    2.30
   6   4   2   29.20    2.50
   6   4   2   29.50    2.30
  -7  -4  -2   14.30    1.80
  -7  -4  -2   10.10    1.70
   7   4   2   25.30    1.90
   7   4   2   22.90    2.10
  -6  -5   2  115.49    8.30
  -6  -5   2  127.39    8.50
   6   5  -2  198.68   13.60
   6   5  -2  225.18   14.80
  -5  -5   2   29.30    2.90
  -5  -5   2   33.20    3.10
   5   5  -2   44.10    3.50
   5   5  -2   56.09    4.90
  -4  -5   2   50.39    4.10
  -4  -5   2   46.00    4.00
   4  -5  -2   46.80    3.10
   4   5  -2   85.89    5.80
   4   5  -2   98.29    7.10
  -4   5   2   79.59    6.30
  -3  -5   2   24.40    2.00
   3  -5  -2   25.70    1.80
  -3  -5   2   28.60    2.80
  -3  -5   2   26.50    2.70
   3   5  -2   46.90    3.60
   3   5  -2   48.20    3.30
   3   5  -2   51.19    4.70
  -3   5   2   49.80    4.10
   2  -5  -2   60.59    3.90
  -2  -5   2   60.49    4.10
  -2  -5   2   57.99    4.80
  -2   5   2  122.59    7.80
  -2   5   2  117.09    8.30
   2   5  -2  101.69    8.50
   2   5  -2  117.29    7.50
  -1  -5   2   23.40    1.90
   1  -5  -2   22.30    1.90
   1  -5  -2   26.90    2.10
   1  -5  -2   23.60    1.60
  -1  -5   2   23.60    2.50
  -1   5   2   40.30    3.20
   1   5  -2   37.70    2.90
   1   5  -2   39.20    2.70
  -1   5   2   39.00    3.70
   0  -5  -2  112.09    7.60
   0  -5   2  116.99    7.60
   0  -5   2  115.59    8.20
   0  -5  -2  114.29   10.40
   0  -5   2  115.19    7.40
   0  -5  -2  121.29    7.80
   0  -5  -2  113.69    7.40
   0   5   2  183.28   10.60
   0   5  -2  166.08   10.40
   0   5   2  167.98   11.20
   0   5   2  153.38   10.20
   0   5  -2  134.39   11.50
   0   5  -2  163.28   10.80
   0   5   2  130.19   13.20
  -1  -5  -2   26.80    2.90
   1  -5   2   27.50    2.70
  -1  -5  -2   25.10    2.10
  -1  -5  -2   25.40    1.80
  -1  -5  -2   27.80    2.20
   1  -5   2   27.40    2.00
   1  -5   2   27.80    1.80
  -1   5  -2   83.39    5.60
   1   5   2   77.79    5.40
   1   5   2   83.69    5.80
  -1   5  -2   80.19    6.00
  -2  -5  -2   31.70    2.50
   2  -5   2   29.30    2.90
  -2  -5  -2   32.60    3.30
   2  -5   2   34.80    2.30
   2  -5   2   33.20    2.20
  -2   5  -2   43.40    3.50
   2   5   2   42.00    3.00
   2   5   2   43.00    3.20
   2   5   2   39.20    4.70
  -2   5  -2   43.80    3.20
   3  -5   2   24.60    1.70
  -3  -5  -2   20.50    1.90
   3  -5   2   23.00    1.60
  -3  -5  -2   23.50    2.80
   3   5   2   38.60    4.40
   3   5   2   38.20    2.80
  -3   5  -2   38.70    3.10
   3   5   2   36.00    2.70
  -4  -5  -2  160.48   11.10
  -4  -5  -2  147.29   10.10
   4   5   2  210.68   14.10
  -4   5  -2  207.38   14.30
   4   5   2  241.88   15.40
  -5  -5  -2   47.60    4.20
   5   5   2   74.69    5.40
   5   5   2   86.09    6.70
  -6  -5  -2    4.00    1.10
   6   5   2    7.80    0.90
  -5  -6   2   12.90    1.50
   5   6  -2   19.30    2.80
   4  -6  -2   46.10    2.90
  -4  -6   2   41.90    3.60
   4   6  -2   87.89    6.20
   4   6  -2   74.89    5.00
  -4   6   2   67.19    5.20
   3  -6  -2  114.79    7.00
  -3  -6   2  103.19    7.10
  -3  -6   2  111.29    7.80
   3   6  -2  188.58   12.00
   3   6  -2  196.58   13.00
  -3   6   2  176.78   12.30
  -2  -6   2  233.18   16.10
  -2  -6   2  250.87   16.80
   2  -6  -2  251.77   16.00
   2  -6  -2  274.57   16.20
  -2   6   2  440.86   26.30
  -2   6   2  374.16   26.60
   2   6  -2  417.46   25.90
   2   6  -2  400.66   26.90
   1  -6  -2   50.79    3.50
  -1  -6   2   52.39    3.70
  -1  -6   2   55.59    4.40
   1  -6  -2   59.09    3.80
  -1   6   2  112.99    7.10
   1   6  -2  102.89    6.60
   1   6  -2   93.29    7.60
  -1   6   2   95.99    7.50
   0  -6  -2   42.30    3.00
   0  -6   2   42.70    3.60
   0  -6  -2   38.70    2.70
   0  -6   2   40.90    2.70
   0  -6   2   42.50    2.90
   0   6   2   74.09    4.80
   0   6   2   68.99    5.10
   0   6  -2   74.99    4.70
   0   6  -2   70.19    5.90
   0   6  -2   73.39    4.90
   0   6  -2   67.69    5.20
   1  -6   2    0.50    0.40
  -1  -6  -2    0.80    0.20
   1  -6   2    0.50    0.20
   1  -6   2    0.20    0.70
  -1  -6  -2    0.70    0.50
   1   6   2    1.00    1.70
  -1   6  -2    1.70    0.80
   1   6   2    1.20    0.50
  -1   6  -2    2.10    0.70
   2  -6   2   29.70    2.00
   2  -6   2   28.30    1.90
  -2  -6  -2   25.10    2.80
  -2  -6  -2   28.30    2.20
   2   6   2   44.70    4.70
   2   6   2   46.10    3.00
  -2   6  -2   42.30    3.10
  -2   6  -2   38.40    3.30
   3  -6   2   35.90    2.40
  -3  -6  -2   32.00    3.20
  -3  -6  -2   33.60    2.50
  -3   6  -2   39.90    3.10
   3   6   2   46.80    4.50
   3   6   2   46.20    3.10
  -4  -6  -2   15.30    1.30
  -4  -6  -2   13.00    1.90
   4   6   2   21.30    1.80
   4   6   2   27.50    3.20
  -2  -7   2    8.00    0.70
  -2  -7   2    7.40    1.20
   2  -7  -2    8.40    0.60
   2   7  -2   24.20    1.60
   2   7  -2   26.80    2.50
  -2   7   2   19.10    2.60
   1  -7  -2   56.99    3.50
   1  -7  -2   56.09    3.60
  -1  -7   2   46.80    3.90
  -1  -7   2   56.89    3.60
   1   7  -2   86.99    6.10
  -1   7   2   81.39    6.50
   1   7  -2   83.29    5.40
   0  -7   2   50.99    3.30
   0  -7  -2   49.20    3.30
   0  -7  -2   46.50    3.10
   0   7   2   81.59    6.30
   0   7   2   77.09    5.10
   1  -7   2   85.59    5.50
  -1  -7  -2   83.79    5.60
   1   7   2  136.99    9.90
   1   7   2  140.49    8.90
  -9   0   3   11.70    1.00
  -9   0   3   12.00    1.10
   9   0  -3   13.80    1.70
  -8   0   3    5.00    1.10
   8   0  -3    5.00    0.80
  -8   0   3    5.20    0.80
   8   0  -3    4.70    1.20
   7   0  -3    2.90    0.70
   7   0  -3    1.80    1.00
   7   0  -3    2.80    2.80
  -7   0   3    2.50    0.50
  -7   0   3    3.00    0.90
  -6   0   3  125.49    8.00
  -6   0   3  115.49    8.00
  -6   0   3  130.39    8.40
  -6   0   3  124.19   10.50
  -5   0   3   83.29    6.70
  -5   0   3   82.89    7.10
  -5   0   3   77.19    5.20
   5   0  -3   82.89    5.30
  -5   0   3   74.79    5.40
  -4   0   3    3.40    0.80
  -4   0   3    2.60    1.00
  -4   0   3    4.40    0.50
  -4   0   3    5.60    1.60
   4   0  -3    4.00    0.50
  -3   0   3  323.17   19.50
  -3   0   3  294.17   20.50
   3   0  -3  316.47   19.60
   3   0  -3  294.67   19.50
  -3   0   3  278.07   21.10
  -3   0   3  305.17   19.70
  -3   0   3  325.67   20.20
  -3   0   3  319.17   20.20
  -2   0   3 9999.00  577.04
   2   0  -3 8219.38  595.14
  -2   0   3 9320.47  580.04
   2   0  -3 9778.72  580.04
   2   0  -3 9181.48  574.04
  -2   0   3 8264.37  577.44
   2   0  -3 8910.01  573.04
  -1   0   3  263.57   17.60
   1   0  -3  246.08   16.50
  -1   0   3  249.18   16.40
   1   0  -3  290.97   17.90
   1   0  -3  228.78   16.50
  -1   0   3  284.77   16.80
  -1   0   3  232.58   17.10
   1   0  -3  276.37   16.40
  -1   0   3  275.47   16.60
   1   0  -3  222.28   16.50
  -1   0   3  276.87   21.90
   0   0  -3 2062.79  134.89
   0   0  -3 2057.39  134.59
   0   0  -3 2225.78  131.79
   0   0   3 2127.29  132.79
   0   0   3 1865.81  132.49
   0   0   3 2111.19  135.09
   0   0   3 2212.68  131.79
   0   0  -3 2062.49  133.59
   1   0   3  192.78   13.50
  -1   0  -3  185.18   13.30
  -1   0  -3  211.98   13.40
   1   0   3  226.28   13.30
  -1   0  -3  204.08   13.40
  -1   0  -3  223.98   15.60
  -1   0  -3  211.28   14.10
   1   0   3  217.78   15.20
  -2   0  -3   28.30    1.90
   2   0   3   28.80    2.50
  -2   0  -3   29.50    3.00
  -2   0  -3   28.10    2.10
  -2   0  -3   31.90    2.20
   2   0   3   30.30    2.10
   2   0   3   25.10    3.80
  -2   0  -3   28.10    3.80
   3   0   3  117.09    8.60
   3   0   3  126.39    8.00
  -3   0  -3  124.59    8.20
  -3   0  -3  130.59    9.40
  -4   0  -3    1.10    0.40
  -4   0  -3    2.20    0.50
  -5   0  -3  108.99    7.50
   5   0   3  123.19    7.50
  -5   0  -3  112.19    7.60
  -5   0  -3  106.69    7.60
  -6   0  -3  713.83   46.20
   6   0   3  746.53   45.90
  -6   0  -3  721.03   46.40
  -6   0  -3  776.72   46.30
  -6   0  -3  667.03   45.90
   7   0   3   25.70    2.00
   7   0   3   20.60    2.40
  -7   0  -3   22.50    1.90
   7   0   3   25.70    2.00
  -7   0  -3   26.30    2.30
  -8   0  -3   52.79    3.70
   8   0   3   57.49    3.60
   8   0   3   42.20    3.90
   8   0   3   53.29    3.60
  -8   0  -3   53.99    4.00
   9   0   3   91.59    5.90
  -9   0  -3   89.49    6.40
   9  -1  -3    5.50    1.10
  -9  -1   3    6.10    0.70
  -9  -1   3    5.80    0.80
  -9   1   3    7.00    0.80
   9   1  -3    7.10    1.10
   8  -1  -3  111.39    7.90
  -8  -1   3  120.49    7.60
  -8  -1   3  114.69    8.10
  -8   1   3  143.99    9.30
   8   1  -3  133.49    8.80
   8   1  -3  136.99    9.20
  -8   1   3  133.19    8.90
  -7  -1   3   45.30    3.10
   7  -1  -3   43.80    3.10
   7  -1  -3   40.30    3.50
  -7  -1   3   46.60    3.60
   7   1  -3   49.40    3.70
   7   1  -3   46.30    3.20
  -7   1   3   43.20    3.20
   7   1  -3   42.40    5.30
  -7   1   3   49.90    3.60
  -6  -1   3  236.08   15.70
  -6  -1   3  235.68   15.70
  -6  -1   3  243.68   18.70
  -6  -1   3  244.08   16.00
  -6  -1   3  263.37   16.10
   6   1  -3  242.28   16.10
  -6   1   3  258.27   18.30
  -6   1   3  247.68   15.90
  -6   1   3  249.28   16.10
  -5  -1   3  158.88   10.60
   5  -1  -3  156.58   17.50
  -5  -1   3  151.08   10.30
  -5  -1   3  172.38   12.90
  -5   1   3  192.28   12.20
  -5   1   3  175.78   13.20
   5   1  -3  192.98   12.40
  -5   1   3  217.58   14.20
  -5   1   3  183.68   12.40
  -4  -1   3  806.92   54.49
  -4  -1   3  875.31   55.09
  -4  -1   3  840.42   53.99
  -4  -1   3  919.41   56.19
   4  -1  -3  831.12   55.69
   4  -1  -3  841.52   60.99
  -4  -1   3  870.71   54.09
  -4   1   3 1012.20   63.19
   4   1  -3 1048.10   63.69
  -4   1   3  986.50   64.49
   4   1  -3  960.80   63.29
  -3  -1   3  227.68   13.90
   3  -1  -3  211.08   13.90
  -3  -1   3  209.68   13.90
  -3  -1   3  221.88   14.80
   3  -1  -3  201.48   14.00
  -3  -1   3  204.38   14.70
  -3  -1   3  232.78   15.50
  -3  -1   3  212.68   14.20
   3  -1  -3  218.88   15.10
   3  -1  -3  241.38   19.40
   3   1  -3  220.18   14.80
  -3   1   3  238.58   14.40
   3   1  -3  226.68   14.50
  -3   1   3  236.58   15.00
   3   1  -3  229.48   14.60
   3   1  -3  219.68   14.40
  -3   1   3  230.18   15.00
  -3   1   3  222.08   14.60
  -2  -1   3 2475.05  157.58
   2  -1  -3 2504.55  160.18
   2  -1  -3 2566.24  163.18
   2  -1  -3 2364.26  156.68
  -2  -1   3 2516.55  157.58
   2  -1  -3 2380.76  156.88
   2  -1  -3 2178.48  157.88
  -2  -1   3 2354.06  155.88
   2  -1  -3 2742.53  170.08
  -2  -1   3 2222.58  156.18
  -2  -1   3 2512.75  158.78
  -2  -1   3 2435.16  156.28
  -2  -1   3 2474.85  158.48
  -2  -1   3 2727.03  158.78
  -2  -1   3 2408.76  157.88
  -2  -1   3 2733.53  156.38
  -2   1   3 2953.80  171.08
   2   1  -3 2507.35  169.98
   2   1  -3 2478.35  170.98
  -2   1   3 2568.24  172.18
  -2   1   3 2837.12  172.98
   2   1  -3 2733.53  170.48
   2   1  -3 2670.83  170.28
   2   1  -3 2608.94  170.58
  -2   1   3 2633.14  169.98
  -2   1   3 2994.90  172.18
  -1  -1   3  115.09    7.40
  -1  -1   3  103.69    7.00
   1  -1  -3   99.19    6.90
  -1  -1   3  100.29    7.50
   1  -1  -3  101.09    7.50
   1  -1  -3  104.39    6.80
  -1  -1   3  112.49    6.80
  -1  -1   3  109.59    6.80
  -1  -1   3  113.79    7.60
  -1  -1   3  104.39    7.10
  -1  -1   3  105.99    8.20
   1  -1  -3  113.79   14.60
  -1  -1   3   96.79    7.50
  -1   1   3   91.89    6.00
  -1   1   3   90.09    5.50
   1   1  -3   95.49    7.00
   1   1  -3   85.69    5.50
  -1   1   3   87.99    5.50
   1   1  -3   82.59    5.50
   1   1  -3   76.39    5.80
   1   1  -3   85.39    5.60
   1   1  -3   81.99    5.50
  -1   1   3   78.79    7.00
   0  -1  -3  234.98   15.80
   0  -1   3  240.18   16.30
   0  -1  -3  263.97   15.60
   0  -1   3  280.37   17.00
   0  -1   3  253.87   15.70
   0  -1   3  248.38   16.10
   0  -1  -3  215.68   16.30
   0  -1  -3  282.97   18.50
   0  -1   3  267.17   15.60
   0  -1   3  263.57   15.80
   0  -1   3  211.88   18.60
   0  -1  -3  228.28   15.60
   0  -1   3  255.87   16.10
   0  -1  -3  213.78   23.20
   0  -1  -3  268.07   16.90
   0  -1   3  226.88   16.00
   0   1   3  251.77   16.20
   0   1  -3  255.27   16.00
   0   1   3  243.98   18.00
   0   1  -3  269.17   17.40
   0   1  -3  241.48   16.50
   0   1   3  253.27   15.90
   0   1   3  252.77   15.90
   0   1   3  269.57   16.30
   0   1  -3  256.87   15.90
   0   1   3  246.98   15.90
   0   1  -3  238.08   16.30
   0   1  -3  234.08   16.00
  -1  -1  -3  264.37   20.10
  -1  -1  -3  317.27   19.60
  -1  -1  -3  346.87   22.60
  -1  -1  -3  317.57   20.60
  -1  -1  -3  308.07   19.50
  -1  -1  -3  308.37   19.50
   1  -1   3  270.17   19.40
   1  -1   3  303.17   19.90
   1  -1   3  319.27   20.80
   1  -1   3  286.87   20.10
  -1  -1  -3  334.17   19.40
   1  -1   3  313.67   20.00
   1  -1   3  309.47   19.50
  -1   1  -3  328.47   23.60
   1   1   3  330.37   21.80
   1   1   3  383.86   22.00
   1   1   3  356.36   24.70
   1   1   3  341.37   22.20
  -1   1  -3  311.27   21.90
  -1   1  -3  333.67   21.90
  -1   1  -3  362.56   21.80
  -1   1  -3  353.56   21.90
  -1   1  -3  352.46   22.40
   1   1   3  339.27   21.80
  -2  -1  -3  452.05   31.90
   2  -1   3  444.66   28.60
  -2  -1  -3  469.85   29.70
   2  -1   3  455.35   29.20
  -2  -1  -3  479.55   28.40
  -2  -1  -3  477.45   28.60
  -2  -1  -3  463.45   28.70
   2  -1   3  384.66   29.10
  -2  -1  -3  429.16   28.50
   2   1   3  391.76   25.20
  -2   1  -3  385.86   25.70
   2   1   3  431.96   25.00
  -2   1  -3  391.86   24.90
   2   1   3  386.76   24.80
  -2   1  -3  347.17   24.90
   2   1   3  421.16   24.80
   2   1   3  372.26   28.20
   3  -1   3  475.55   31.70
  -3  -1  -3  465.95   30.80
  -3  -1  -3  535.95   31.00
  -3  -1  -3  557.84   30.90
   3  -1   3  467.05   30.90
  -3  -1  -3  417.46   31.80
  -3   1  -3  551.24   34.50
  -3   1  -3  520.35   34.50
   3   1   3  588.14   34.60
  -3   1  -3  509.45   35.50
  -4  -1  -3  248.08   16.60
  -4  -1  -3  261.57   16.80
  -4  -1  -3  266.47   16.80
  -4   1  -3  285.27   17.50
   4   1   3  262.77   17.60
  -4   1  -3  264.27   17.40
  -5  -1  -3   95.59    6.60
  -5  -1  -3  101.39    6.70
   5  -1   3   99.39    6.30
  -5  -1  -3   87.49    6.50
  -5  -1  -3   95.69    6.40
   5   1   3   73.99    5.70
  -5   1  -3   74.29    5.20
  -5   1  -3   81.39    5.60
   5   1   3   83.99    5.20
  -5   1  -3   85.19    5.60
  -6  -1  -3    8.40    1.20
  -6  -1  -3    9.80    1.40
   6  -1   3   10.80    1.10
  -6  -1  -3   10.00    1.10
  -6  -1  -3   12.20    1.50
  -6   1  -3   18.20    1.60
   6   1   3   17.10    1.60
  -6   1  -3   16.40    1.80
   6   1   3   18.90    1.70
  -6   1  -3   16.00    1.80
  -7  -1  -3   14.60    1.40
  -7  -1  -3   14.20    1.80
   7  -1   3   16.10    1.40
   7  -1   3   15.00    1.40
   7  -1   3   13.90    1.30
  -7  -1  -3   11.80    2.30
  -7   1  -3   12.90    1.20
   7   1   3   15.00    1.40
  -7   1  -3   14.50    1.60
   7   1   3   13.30    1.40
   7   1   3   13.40    1.80
  -8  -1  -3   16.20    2.30
  -8  -1  -3   14.90    1.40
   8  -1   3   13.90    1.40
   8   1   3   17.20    1.40
   8   1   3   12.90    1.90
  -8   1  -3   13.20    1.30
  -9  -1  -3  196.08   13.40
   9  -1   3  209.38   12.90
   9   1   3  245.58   15.60
  -9  -2   3   13.00    1.50
  -9  -2   3   16.10    1.10
   9   2  -3   16.10    1.60
  -8  -2   3   97.49    7.20
  -8  -2   3  107.79    6.70
   8   2  -3  125.99    8.10
   8   2  -3  114.49    9.40
   7  -2  -3    3.90    1.10
  -7  -2   3    3.30    1.10
   7   2  -3    6.50    1.20
  -7   2   3    5.90    1.00
   7   2  -3    5.10    2.20
   7   2  -3    7.20    0.80
   6  -2  -3   55.89   10.60
  -6  -2   3   55.79    3.80
  -6  -2   3   51.69    6.70
  -6  -2   3   50.79    3.70
  -6   2   3   68.49    6.60
   6   2  -3   64.19    4.60
   5  -2  -3  211.58   15.90
  -5  -2   3  194.08   13.50
   5  -2  -3  211.78   21.60
  -5  -2   3  212.18   16.70
  -5  -2   3  223.38   13.60
   5   2  -3  278.37   18.70
   5   2  -3  298.57   19.20
  -5   2   3  308.27   20.50
  -5   2   3  282.87   18.50
   4  -2  -3    8.60    2.20
   4  -2  -3   10.30    4.80
  -4  -2   3    7.70    2.70
  -4  -2   3    9.90    1.00
  -4  -2   3    8.60    1.70
  -4  -2   3    9.40    1.30
  -4   2   3    6.30    1.40
   4   2  -3    6.50    1.20
  -4   2   3    6.30    1.40
   4   2  -3    6.30    0.80
  -4   2   3    6.80    0.60
  -3  -2   3  237.78   16.60
   3  -2  -3  253.77   21.60
  -3  -2   3  224.38   15.40
   3  -2  -3  189.18   14.40
  -3  -2   3  211.58   14.60
  -3  -2   3  217.88   14.90
  -3  -2   3  246.88   14.50
   3  -2  -3  226.18   15.90
   3   2  -3  241.88   15.40
   3   2  -3  247.98   15.30
   3   2  -3  233.48   15.40
   3   2  -3  237.08   15.80
  -3   2   3  247.58   16.20
   3   2  -3  251.67   15.40
  -3   2   3  223.68   15.20
  -2  -2   3  295.77   18.40
  -2  -2   3  306.97   19.20
   2  -2  -3  279.57   19.50
  -2  -2   3  287.37   18.60
   2  -2  -3  272.17   18.30
   2  -2  -3  306.67   32.80
  -2  -2   3  321.47   18.30
  -2  -2   3  260.47   19.10
   2  -2  -3  250.97   23.80
   2  -2  -3  291.07   18.40
  -2  -2   3  288.87   19.90
  -2   2   3  364.96   24.60
   2   2  -3  389.96   24.50
   2   2  -3  375.56   24.50
  -2   2   3  390.26   25.30
  -2   2   3  405.36   24.40
   2   2  -3  375.46   24.90
   2   2  -3  404.26   24.40
   2   2  -3  376.56   24.50
  -1  -2   3  342.07   21.00
  -1  -2   3  311.77   22.30
  -1  -2   3  316.77   20.20
   1  -2  -3  312.17   21.40
  -1  -2   3  332.07   22.40
   1  -2  -3  284.67   25.30
  -1  -2   3  312.87   21.10
  -1  -2   3  333.27   20.50
  -1  -2   3  305.07   20.70
  -1  -2   3  304.17   21.40
   1  -2  -3  352.36   34.90
   1  -2  -3  352.76   20.30
  -1  -2   3  283.77   20.20
   1   2  -3  451.15   27.70
  -1   2   3  441.56   27.90
  -1   2   3  435.46   28.40
   1   2  -3  424.66   28.20
  -1   2   3  469.85   27.60
   1   2  -3  433.76   29.60
   1   2  -3  436.96   27.60
   1   2  -3  422.76   27.70
   1   2  -3  414.26   27.60
   0  -2  -3  889.01   53.19
   0  -2   3  869.41   52.59
   0  -2   3  781.62   53.79
   0  -2  -3  767.02   52.89
   0  -2   3  852.11   52.99
   0  -2   3  861.81   52.59
   0  -2  -3  884.41   52.09
   0  -2   3  829.62   51.89
   0  -2  -3  801.32   67.39
   0  -2  -3  843.32   53.19
   0  -2  -3  757.62   57.09
   0  -2   3  722.23   60.49
   0   2   3 1098.69   66.79
   0   2  -3 1028.60   66.89
   0   2  -3 1103.39   66.89
   0   2   3  944.41   68.79
   0   2   3 1055.69   67.49
   0   2   3 1027.60   66.99
   0   2   3 1019.20   66.79
   0   2   3 1136.19   67.29
   0   2  -3 1112.59   67.49
  -1  -2  -3   59.29    3.50
  -1  -2  -3   60.09    5.10
   1  -2   3   52.99    4.60
  -1  -2  -3   45.60    3.60
  -1  -2  -3   45.40    7.30
  -1  -2  -3   59.99    3.80
   1  -2   3   49.00    5.20
   1  -2   3   57.49    3.60
   1  -2   3   50.29    4.10
  -1  -2  -3   52.59    4.70
   1  -2   3   58.69    4.40
   1   2   3   71.09    4.80
  -1   2  -3   65.89    4.90
   1   2   3   78.59    5.40
   1   2   3   70.69    4.80
  -1   2  -3   81.39    5.00
  -1   2  -3   68.49    6.10
   1   2   3   79.49    5.10
   1   2   3   76.29    5.40
  -1   2  -3   79.79    5.80
  -2  -2  -3  371.86   22.00
  -2  -2  -3  352.06   22.20
   2  -2   3  354.56   22.10
  -2  -2  -3  374.76   23.70
  -2  -2  -3  317.17   23.30
   2  -2   3  311.17   23.60
  -2  -2  -3  341.77   22.10
   2   2   3  386.76   23.40
   2   2   3  367.96   24.10
  -2   2  -3  342.37   23.60
   2   2   3  407.16   23.80
  -2   2  -3  346.77   23.60
  -3  -2  -3  100.99    6.40
  -3  -2  -3   91.29    7.80
  -3  -2  -3   90.59    6.50
   3  -2   3   98.09    6.40
  -3  -2  -3  105.39    6.60
   3   2   3  138.49    8.90
   3   2   3  134.59    9.70
   3   2   3  153.18    9.30
  -3   2  -3  134.99    9.10
  -3   2  -3  130.49    9.00
  -4  -2  -3   39.90    5.20
  -4  -2  -3   47.80    3.10
   4  -2   3   41.20    3.20
  -4  -2  -3   49.20    3.40
  -4   2  -3   65.69    4.50
   4   2   3   62.99    4.70
  -5  -2  -3    8.50    1.00
  -5  -2  -3    9.20    1.10
  -5  -2  -3    8.10    1.20
   5   2   3   13.30    1.70
   5   2   3   14.50    1.30
  -5   2  -3   14.00    1.50
  -6  -2  -3  163.48   10.40
  -6  -2  -3  151.78   11.30
   6  -2   3  158.48   10.20
   6   2   3  202.58   13.40
   6   2   3  208.48   13.50
   6   2   3  224.58   13.60
   6   2   3  197.48   13.30
  -7  -2  -3  147.29   10.60
   7   2   3  203.98   12.90
   7   2   3  194.78   12.60
  -7   2  -3  189.38   12.80
   7   2   3  198.78   12.60
   7   2   3  192.18   12.60
  -8  -2  -3   59.49    4.60
  -8  -2  -3   53.49    4.50
   8   2   3   65.19    4.50
   8   2   3   66.89    4.70
   8   2   3   66.79    4.40
  -8  -3   3   21.00    2.10
  -8  -3   3   22.60    1.60
   8   3  -3   24.40    1.80
  -7  -3   3   52.39    3.40
  -7  -3   3   49.60    4.10
   7   3  -3   60.69    3.70
   7   3  -3   42.70    5.40
  -6  -3   3   81.69    6.30
  -6  -3   3   78.49    5.60
  -6  -3   3   96.79    6.30
   6   3  -3  112.99    9.10
   6   3  -3  118.49    7.60
  -5  -3   3  205.88   13.80
   5  -3  -3  223.38   22.90
  -5  -3   3  194.98   17.10
  -5  -3   3  200.18   13.50
   5  -3  -3  215.98   16.20
   5   3  -3  226.58   15.40
  -5   3   3  246.78   17.50
  -5   3   3  228.18   16.60
   5   3  -3  252.57   16.10
  -4  -3   3  330.57   24.80
  -4  -3   3  311.57   27.10
   4  -3  -3  430.56   34.20
  -4  -3   3  370.26   27.10
  -4  -3   3  414.66   24.00
   4  -3  -3  392.46   26.10
  -4  -3   3  341.37   23.60
  -4   3   3  460.05   31.40
  -4   3   3  519.55   31.20
   4   3  -3  424.06   31.30
   4   3  -3  499.25   30.10
   4   3  -3  463.15   30.20
   4   3  -3  475.35   30.90
   3  -3  -3   66.49    6.30
   3  -3  -3   63.69    4.40
  -3  -3   3   63.49    5.50
  -3  -3   3   66.79    7.00
   3  -3  -3   68.69   11.20
  -3  -3   3   58.79    7.20
  -3  -3   3   68.79    4.60
   3   3  -3   81.29    5.20
  -3   3   3   77.49    6.50
   3   3  -3   81.69    6.10
   3   3  -3   76.19    6.40
  -3   3   3   81.59    5.20
   3   3  -3   81.09    5.40
   3   3  -3   79.29    5.30
  -2  -3   3  199.38   14.90
  -2  -3   3  187.58   12.50
  -2  -3   3  197.58   13.60
  -2  -3   3  192.88   15.70
   2  -3  -3  213.58   14.60
   2  -3  -3  179.78   20.00
   2  -3  -3  176.78   12.60
   2  -3  -3  214.28   12.60
   2   3  -3  284.57   18.90
   2   3  -3  304.27   19.10
   2   3  -3  298.67   18.10
   2   3  -3  272.67   18.20
  -2   3   3  275.77   19.30
  -2   3   3  301.87   18.00
   2   3  -3  285.97   18.00
  -2   3   3  243.48   18.30
  -1  -3   3  404.96   23.80
   1  -3  -3  383.96   24.70
   1  -3  -3  336.07   22.70
  -1  -3   3  326.27   24.50
   1  -3  -3  349.87   30.70
  -1  -3   3  329.17   30.70
  -1  -3   3  365.76   25.80
   1   3  -3  562.74   35.30
   1   3  -3  571.94   34.50
   1   3  -3  565.44   34.40
  -1   3   3  578.54   34.40
   1   3  -3  546.15   34.50
  -1   3   3  460.45   34.80
  -1   3   3  544.45   34.90
  -1   3   3  517.85   35.50
   0  -3  -3  175.38   12.20
   0  -3   3  174.88   18.60
   0  -3  -3  206.68   14.20
   0  -3   3  189.48   14.90
   0  -3  -3  190.58   13.80
   0  -3   3  189.28   12.10
   0  -3   3  200.98   13.10
   0  -3  -3  183.78   19.30
   0   3  -3  321.77   20.30
   0   3   3  277.67   20.80
   0   3   3  320.37   20.60
   0   3   3  309.47   19.90
   0   3  -3  318.27   20.90
   0   3  -3  335.37   20.00
   1  -3   3    7.00    1.60
  -1  -3  -3    7.50    4.60
  -1  -3  -3    7.20    2.40
  -1  -3  -3    5.10    0.80
   1  -3   3    5.90    2.40
   1  -3   3    5.60    0.80
   1   3   3    4.50    0.60
  -1   3  -3    3.70    0.70
  -1   3  -3    3.90    1.50
  -1   3  -3    4.30    0.80
   1   3   3    4.20    1.20
   1   3   3    3.90    1.30
   1   3   3    4.40    0.90
   2  -3   3  138.19   11.40
  -2  -3  -3  125.49   15.80
   2  -3   3  143.99    8.90
  -2  -3  -3  124.79    9.00
  -2  -3  -3  140.09    9.00
  -2  -3  -3  143.99   10.90
   2   3   3  249.18   14.70
  -2   3  -3  216.58   15.60
   2   3   3  217.68   14.30
   2   3   3  215.78   15.10
   2   3   3  222.18   14.20
  -2   3  -3  214.38   14.40
  -3  -3  -3  132.69   17.20
   3  -3   3  149.99    9.70
  -3  -3  -3  149.49    9.50
   3  -3   3  136.89   12.00
  -3  -3  -3  158.58    9.80
  -3  -3  -3  152.18   11.80
   3   3   3  241.38   14.50
  -3   3  -3  203.38   15.60
   3   3   3  219.78   13.90
   3   3   3  200.48   14.90
  -3   3  -3  221.38   14.20
  -4  -3  -3  311.47   19.60
  -4  -3  -3  315.97   19.90
  -4  -3  -3  299.07   22.10
   4  -3   3  301.27   19.80
   4   3   3  452.05   29.30
  -5  -3  -3   84.09    6.50
  -5  -3  -3   79.09    5.90
  -5  -3  -3   83.39    6.70
   5   3   3  116.69    7.90
   5   3   3  119.09    7.90
  -6  -3  -3   30.20    3.40
  -6  -3  -3   31.60    2.80
  -6  -3  -3   28.40    3.20
   6   3   3   35.50    2.70
   6   3   3   36.30    2.90
  -7  -3  -3   26.10    2.90
  -7  -3  -3   32.70    3.20
   7   3   3   43.60    3.40
   7   3   3   44.60    3.10
  -8  -3  -3   19.40    2.00
  -8  -3  -3   18.60    2.00
   8   3   3   34.70    2.70
  -7  -4   3    5.10    1.20
   7   4  -3    4.30    2.00
   7   4  -3    5.90    0.70
  -6  -4   3   22.50    2.50
   6   4  -3   52.99    5.20
   6   4  -3   49.00    3.60
  -5  -4   3  104.99    7.80
  -5  -4   3  112.89    7.90
   5   4  -3  208.68   13.90
   5   4  -3  185.28   12.80
  -4  -4   3  100.29    7.50
  -4  -4   3  107.39    7.60
  -4  -4   3  105.69    8.40
  -4   4   3  182.08   13.60
  -4   4   3  159.68   13.10
   4   4  -3  169.88   11.10
   4   4  -3  187.58   12.30
   4   4  -3  169.38   11.20
   3  -4  -3  222.28   15.70
  -3  -4   3  175.68   16.50
   3  -4  -3  202.98   22.90
  -3  -4   3  195.68   14.20
  -3  -4   3  184.78   16.20
   3  -4  -3  197.28   12.80
   3   4  -3  279.67   17.50
   3   4  -3  282.97   17.70
  -3   4   3  262.67   19.40
  -3   4   3  274.77   17.50
   3   4  -3  258.97   19.30
   3   4  -3  283.97   18.70
   2  -4  -3   38.90    9.70
  -2  -4   3   31.90   10.20
  -2  -4   3   45.50    4.30
   2  -4  -3   46.60    5.30
  -2  -4   3   41.20    6.10
   2  -4  -3   43.00    3.00
  -2  -4   3   34.10    5.30
  -2   4   3   66.79    4.20
  -2   4   3   62.89    5.90
  -2   4   3   64.29    5.00
   2   4  -3   65.19    5.50
   2   4  -3   66.79    4.30
   2   4  -3   50.49    4.40
   2   4  -3   63.09    5.40
  -1  -4   3   66.09    7.70
  -1  -4   3   57.79    6.60
   1  -4  -3   66.59    4.40
   1  -4  -3   59.99   11.70
  -1  -4   3   63.09   12.50
  -1  -4   3   67.39    5.60
  -1   4   3  103.49    7.60
  -1   4   3  121.79    8.30
   1   4  -3  117.29    8.70
   1   4  -3  114.39    7.50
   1   4  -3  121.69    7.50
  -1   4   3  102.19    9.00
   1   4  -3  114.29    8.50
  -1   4   3  110.19    8.00
  -1   4   3  119.99    7.40
   1   4  -3  116.99    7.90
   0  -4   3  374.96   23.70
   0  -4   3  308.67   33.50
   0  -4   3  353.56   22.30
   0  -4   3  341.27   25.90
   0  -4  -3  339.87   22.30
   0  -4  -3  330.77   32.50
   0  -4  -3  365.06   25.10
   0  -4  -3  370.16   24.80
   0   4   3  567.94   35.30
   0   4  -3  587.34   34.60
   0   4   3  545.55   34.70
   0   4   3  537.15   35.30
   0   4   3  492.95   35.90
   0   4  -3  500.15   35.20
   0   4  -3  560.64   35.90
   0   4  -3  566.04   34.90
   0   4   3  545.85   34.50
   0   4  -3  532.45   34.60
   1  -4   3   19.20    4.20
  -1  -4  -3   17.90    3.50
  -1  -4  -3   17.60    7.00
   1  -4   3   17.50    1.60
  -1  -4  -3   18.10    1.60
  -1   4  -3   25.20    2.00
  -1   4  -3   27.40    2.40
  -1   4  -3   26.80    3.50
   1   4   3   27.40    3.10
  -1   4  -3   28.30    2.30
   1   4   3   26.70    2.00
   1   4   3   28.10    2.40
  -2  -4  -3   92.99    8.70
   2  -4   3   95.69    6.30
   2  -4   3   95.89    9.50
  -2  -4  -3   85.59   14.40
   2   4   3  138.99   10.30
   2   4   3  136.59    9.00
  -2   4  -3  145.29   10.90
  -2   4  -3  128.29    9.00
   2   4   3  148.19    9.20
  -2   4  -3  139.89    9.30
  -3  -4  -3   42.80   10.50
  -3  -4  -3   49.20    5.90
   3  -4   3   52.19    3.60
   3  -4   3   48.10    6.20
   3   4   3   63.99    5.00
  -3   4  -3   64.89    4.60
  -3   4  -3   60.99    6.20
   3   4   3   66.19    4.40
  -4  -4  -3  128.79    8.00
   4  -4   3  103.99    7.50
  -4  -4  -3  122.39    8.90
  -4  -4  -3  110.99    7.80
   4   4   3  183.38   12.20
   4   4   3  189.68   12.20
  -5  -4  -3   22.60    2.90
  -5  -4  -3   19.10    1.80
   5   4   3   46.70    3.40
   5   4   3   45.30    3.50
  -6  -4  -3   20.00    2.50
   6   4   3   56.19    4.10
   6   4   3   58.69    4.10
  -7  -4  -3  129.39    8.70
  -7  -4  -3  118.79    8.50
   7   4   3  188.68   11.80
   7   4   3  177.98   11.90
  -6  -5   3   32.60    2.80
  -6  -5   3   28.80    2.60
   6   5  -3   46.30    4.40
   6   5  -3   40.10    3.00
  -5  -5   3   41.50    3.50
  -5  -5   3   43.20    3.70
   5   5  -3   60.79    3.90
  -5   5   3   50.99    4.20
  -4  -5   3  124.89    8.60
  -4  -5   3  116.39    8.50
  -4   5   3  193.48   13.90
   4   5  -3  201.18   13.20
   4   5  -3  223.68   14.40
   3  -5  -3   51.09    3.30
  -3  -5   3   49.70    4.20
  -3  -5   3   49.20    4.20
   3   5  -3   76.89    5.60
  -3   5   3   83.69    6.30
   3   5  -3   84.59    6.50
   3   5  -3   83.29    5.30
  -3   5   3   74.19    5.70
  -2  -5   3   14.00    2.00
  -2  -5   3   15.30    1.40
   2  -5  -3   15.90    1.10
  -2  -5   3   14.80    2.00
   2  -5  -3   16.20    1.60
   2   5  -3   22.40    3.00
   2   5  -3   26.00    1.90
  -2   5   3   27.20    3.10
  -2   5   3   22.60    2.40
   1  -5  -3  142.69    9.40
   1  -5  -3  160.38    9.80
  -1  -5   3  147.09    9.60
  -1  -5   3  139.29   10.20
   1  -5  -3  148.89    9.60
   1   5  -3  232.48   17.50
   1   5  -3  253.77   17.10
   1   5  -3  278.97   17.00
  -1   5   3  290.57   18.20
  -1   5   3  279.97   17.50
   0  -5   3  179.18   10.80
   0  -5   3  172.48   11.00
   0  -5  -3  169.78   11.20
   0  -5  -3  159.08   10.80
   0  -5  -3  172.18   11.10
   0  -5   3  166.78   11.60
   0   5   3  246.78   15.50
   0   5  -3  236.88   15.20
   0   5   3  233.48   16.10
   0   5   3  216.68   15.10
   0   5  -3  240.88   15.60
   1  -5   3  469.95   28.70
  -1  -5  -3  432.66   28.80
   1  -5   3  455.85   29.30
  -1  -5  -3  404.96   28.50
   1  -5   3  489.15   28.50
  -1  -5  -3  450.45   28.80
   1   5   3  664.23   42.80
  -1   5  -3  696.13   42.80
  -1   5  -3  715.73   43.30
   1   5   3  620.54   43.00
  -2  -5  -3   30.10    2.50
   2  -5   3   34.00    2.20
   2  -5   3   33.30    2.30
  -2  -5  -3   31.40    3.40
   2   5   3   38.10    2.80
  -2   5  -3   36.30    3.10
   2   5   3   35.30    2.70
  -2   5  -3   42.20    2.80
   2   5   3   28.90    4.30
   3  -5   3   48.50    3.70
   3  -5   3   44.70    3.10
  -3  -5  -3   45.00    4.30
  -3  -5  -3   42.70    3.30
   3   5   3   55.89    3.90
   3   5   3   54.79    5.40
  -3   5  -3   55.89    4.10
   3   5   3   55.29    3.90
  -4  -5  -3   49.40    3.70
  -4  -5  -3   54.49    4.80
  -4   5  -3   59.49    4.50
   4   5   3   73.99    5.70
   4   5   3   62.19    4.40
  -5  -5  -3   22.90    1.80
  -5  -5  -3   22.70    2.70
   5   5   3   43.10    3.20
  -6  -5  -3   90.69    6.60
   6   5   3  161.38   10.40
  -5  -6   3   44.90    3.20
  -5  -6   3   38.20    3.20
   5   6  -3   89.59    6.70
   4  -6  -3    2.10    0.30
  -4  -6   3    1.60    0.70
  -4  -6   3    1.90    0.90
  -4   6   3   10.40    1.30
   4   6  -3    8.50    2.30
   4   6  -3    7.40    0.80
   3  -6  -3  224.78   13.60
  -3  -6   3  204.88   14.30
   3   6  -3  390.46   25.00
   3   6  -3  398.16   25.90
  -3   6   3  393.76   25.30
  -2  -6   3   34.70    2.50
   2  -6  -3   34.60    2.30
  -2  -6   3   36.30    3.10
   2   6  -3   70.19    4.30
   2   6  -3   66.59    5.30
  -2   6   3   59.39    5.20
  -2   6   3   63.49    4.90
  -1  -6   3   40.30    2.90
   1  -6  -3   42.80    2.80
   1  -6  -3   45.00    3.00
  -1  -6   3   40.70    3.50
  -1   6   3   81.09    5.30
  -1   6   3   68.19    5.70
   1   6  -3   64.89    5.60
   1   6  -3   72.59    4.70
   0  -6  -3   34.60    2.40
   0  -6   3   35.60    2.50
   0  -6   3   37.90    2.40
   0  -6  -3   36.80    2.70
   0  -6   3   35.70    3.20
   0   6  -3   37.40    3.20
   0   6  -3   42.30    2.80
   0   6  -3   41.20    3.00
   0   6   3   43.00    2.90
   1  -6   3   21.40    1.50
   1  -6   3   15.50    2.00
  -1  -6  -3   20.40    1.70
  -1  -6  -3   18.80    1.40
   1  -6   3   21.10    1.30
   1   6   3   32.60    4.50
   1   6   3   41.40    2.70
  -1   6  -3   39.20    2.80
  -1   6  -3   34.80    3.00
   2  -6   3   34.10    2.30
   2  -6   3   30.90    2.70
  -2  -6  -3   31.90    2.50
   2   6   3   43.50    4.70
  -2   6  -3   42.10    3.40
   2   6   3   47.40    3.20
   3  -6   3   49.20    3.40
  -3  -6  -3   52.69    3.60
   3   6   3   80.79    5.40
  -3   6  -3   72.49    5.30
   3   6   3   90.59    6.60
   4   6   3   97.19    6.50
   4   6   3   72.39    5.50
   1  -7  -3   70.09    5.10
  -1  -7   3   88.69    5.10
   1   7  -3  119.09    7.30
  -1   7   3  110.59    8.40
   0  -7  -3   26.70    1.70
   0  -7   3   21.40    2.10
   0  -7   3   28.60    1.80
   0  -7  -3   23.70    1.80
   0   7   3   40.90    2.60
   0   7   3   36.60    4.00
   1  -7   3  141.49   10.30
   1  -7   3  173.18   10.00
  -1  -7  -3  153.38   10.00
   1   7   3  243.78   17.90
   1   7   3  294.67   17.10
  -9   0   4  107.29    6.60
   9   0  -4  100.49    6.90
  -9   0   4   95.19    6.50
   8   0  -4  337.07   26.80
   8   0  -4  401.76   25.60
  -8   0   4  449.76   25.30
  -7   0   4   41.30    2.90
   7   0  -4   42.40    3.00
  -7   0   4   47.50    3.50
   7   0  -4   38.00    3.40
   7   0  -4   37.60    5.10
  -6   0   4   37.60    2.60
  -6   0   4   39.60    3.00
  -6   0   4   35.10    4.80
  -6   0   4   38.00    2.70
  -5   0   4  962.40   62.39
   5   0  -4 1044.20   62.19
  -5   0   4  936.61   62.59
  -5   0   4 1001.70   64.29
  -5   0   4  971.60   62.09
  -4   0   4  422.86   26.10
  -4   0   4  419.96   27.10
   4   0  -4  435.56   26.20
   4   0  -4  406.06   26.40
  -4   0   4  388.06   26.50
  -4   0   4  403.06   27.70
   3   0  -4  579.34   39.30
  -3   0   4  698.43   40.10
  -3   0   4  577.04   39.50
  -3   0   4  648.84   40.10
   3   0  -4  601.34   39.40
   3   0  -4  590.04   44.40
  -3   0   4  655.43   39.20
   2   0  -4 1357.56   91.59
  -2   0   4 1522.85   91.89
  -2   0   4 1493.45   91.39
  -2   0   4 1525.35   92.49
   2   0  -4 1375.46   91.49
  -2   0   4 1433.26   92.69
  -2   0   4 1309.97   92.89
  -2   0   4 1545.15   91.49
   2   0  -4 1579.54   98.09
   2   0  -4 1346.97   91.69
  -1   0   4  125.49    8.90
  -1   0   4  125.29    8.70
  -1   0   4  148.99    8.40
   1   0  -4  116.59    8.40
  -1   0   4  142.79    9.20
  -1   0   4  142.69    8.90
  -1   0   4  133.39    8.50
   1   0  -4  132.49   10.40
   1   0  -4  140.39    8.60
   1   0  -4  119.99    8.60
   1   0  -4  138.49    8.40
  -1   0   4  130.99   10.00
   1   0  -4  128.49    8.50
   0   0   4  146.29    9.20
   0   0  -4  166.48   12.20
   0   0  -4  123.59    9.40
   0   0   4  155.98    9.90
   0   0  -4  139.89    9.20
   0   0  -4  140.59    9.30
   0   0  -4  139.39   10.30
   0   0  -4  139.99    9.20
   0   0   4  146.49    9.20
   0   0   4  150.38   11.20
   0   0  -4  144.69   11.70
   0   0   4  151.18    9.50
   0   0  -4  135.99    9.20
   1   0   4 1885.21  129.49
   1   0   4 1983.60  128.59
   1   0   4 1902.31  127.69
  -1   0  -4 2069.79  127.29
  -1   0  -4 1997.70  128.09
  -1   0  -4 1909.91  127.39
  -1   0  -4 2141.19  130.69
  -1   0  -4 2280.67  128.09
  -1   0  -4 2210.68  128.49
   1   0   4 1820.32  127.19
   2   0   4    4.30    0.70
  -2   0  -4    4.30    0.60
   2   0   4    2.60    0.90
  -2   0  -4    4.10    0.70
  -2   0  -4    4.00    1.30
   3   0   4   66.89    4.40
   3   0   4   61.89    5.10
  -3   0  -4   65.79    4.60
  -3   0  -4   68.29    4.50
  -4   0  -4   66.69    4.60
  -4   0  -4   57.19    4.40
  -4   0  -4   71.39    4.50
  -5   0  -4  117.99    8.00
  -5   0  -4  119.09    7.90
   5   0   4  128.89    7.60
  -5   0  -4  102.09    7.80
   6   0   4    0.00    0.50
   6   0   4   -0.30    0.50
  -6   0  -4    0.90    0.40
   6   0   4    0.30    0.60
  -6   0  -4    0.20    0.60
  -7   0  -4   22.80    2.20
   7   0   4   25.90    2.00
  -7   0  -4   19.30    1.80
   7   0   4   23.90    1.90
   7   0   4   23.30    1.80
   7   0   4   22.40    2.50
  -8   0  -4   40.00    4.80
   8   0   4   51.79    3.30
  -8   0  -4   48.40    3.40
   8   0   4   48.90    3.30
  -9  -1   4   97.49    6.30
   9   1  -4  101.39    7.00
  -9   1   4  107.79    6.80
  -8  -1   4   63.49    4.20
   8  -1  -4   59.89    4.50
  -8  -1   4   57.99    4.00
   8   1  -4   66.69    4.90
  -8   1   4   69.39    4.50
   8   1  -4   64.59    6.50
  -7  -1   4  133.19    9.00
   7  -1  -4  122.19    8.80
  -7  -1   4  133.59    8.50
   7   1  -4  122.99    8.70
   7   1  -4  128.09   10.60
   7   1  -4  135.49    9.10
  -7   1   4  136.59    8.70
  -7   1   4  148.09    9.20
  -6  -1   4  170.78   11.60
  -6  -1   4  187.88   11.80
  -6  -1   4  177.48   14.80
  -6  -1   4  187.58   12.10
   6   1  -4  180.58   12.10
  -6   1   4  193.28   14.50
  -6   1   4  185.38   12.30
  -5  -1   4  113.29    7.90
  -5  -1   4  123.99    9.00
   5  -1  -4  120.29   14.80
  -5  -1   4  122.29    7.80
  -5  -1   4  109.39    7.60
  -5  -1   4  114.79   10.10
  -5  -1   4  114.79    8.20
  -5   1   4  166.08   12.90
  -5   1   4  176.08   11.10
  -5   1   4  167.28   11.30
   5   1  -4  175.98   11.30
  -5   1   4  185.98   12.30
   4  -1  -4  410.46   30.10
  -4  -1   4  328.67   23.00
  -4  -1   4  341.17   23.70
  -4  -1   4  344.07   22.80
  -4  -1   4  355.76   24.70
  -4  -1   4  348.27   22.50
  -4  -1   4  353.06   22.60
   4   1  -4  348.27   20.80
   4   1  -4  336.97   21.00
  -4   1   4  319.97   22.00
  -4   1   4  292.07   20.80
  -4   1   4  336.77   21.00
  -3  -1   4  477.15   29.50
  -3  -1   4  464.05   30.10
   3  -1  -4  475.05   29.20
  -3  -1   4  422.06   30.00
  -3  -1   4  427.56   29.10
  -3  -1   4  474.85   30.10
   3  -1  -4  464.25   30.40
  -3  -1   4  409.96   30.50
  -3  -1   4  515.65   29.10
   3   1  -4  621.24   38.60
   3   1  -4  620.24   38.50
   3   1  -4  614.04   38.40
   3   1  -4  589.94   38.80
  -3   1   4  624.54   38.70
  -3   1   4  671.63   39.10
  -3   1   4  565.04   38.40
  -3   1   4  559.64   39.00
   2  -1  -4  293.97   18.10
  -2  -1   4  246.88   18.90
   2  -1  -4  312.47   22.40
   2  -1  -4  278.27   18.00
  -2  -1   4  305.97   18.20
  -2  -1   4  299.97   17.90
  -2  -1   4  304.97   19.00
   2  -1  -4  288.37   18.90
  -2  -1   4  250.47   17.90
  -2  -1   4  239.68   18.60
   2   1  -4  342.97   20.00
   2   1  -4  341.37   20.10
  -2   1   4  307.77   21.40
   2   1  -4  337.47   20.10
  -2   1   4  302.17   20.20
   2   1  -4  306.87   20.10
   2   1  -4  304.47   20.30
  -2   1   4  283.37   20.00
   1  -1  -4  334.37   21.90
  -1  -1   4  353.16   21.60
   1  -1  -4  329.77   21.20
  -1  -1   4  288.27   21.80
  -1  -1   4  298.97   21.10
  -1  -1   4  306.37   21.70
   1  -1  -4  362.36   30.90
  -1  -1   4  330.07   21.10
  -1  -1   4  357.56   21.40
  -1  -1   4  362.46   22.20
  -1  -1   4  351.86   23.00
   1  -1  -4  326.97   21.30
  -1  -1   4  338.77   21.20
  -1   1   4  349.57   21.40
   1   1  -4  342.37   21.10
  -1   1   4  370.16   21.60
  -1   1   4  312.97   21.40
   1   1  -4  343.77   21.20
   1   1  -4  388.56   23.20
  -1   1   4  288.87   22.90
   1   1  -4  339.77   21.20
   1   1  -4  334.07   21.10
  -1   1   4  326.77   21.10
   1   1  -4  313.27   21.20
  -1   1   4  319.67   21.10
   1   1  -4  302.17   21.50
   0  -1  -4   16.60    1.20
   0  -1   4   16.90    1.80
   0  -1  -4   15.80    1.10
   0  -1  -4   15.80    6.30
   0  -1  -4   18.20    2.50
   0  -1   4   16.80    1.30
   0  -1   4   17.90    1.50
   0  -1   4   17.30    1.10
   0  -1   4   17.90    2.60
   0  -1   4   16.10    2.10
   0  -1   4   12.80    1.70
   0  -1  -4   16.00    1.40
   0  -1   4   14.60    1.70
   0  -1  -4   15.80    1.20
   0   1   4   14.90    1.10
   0   1   4   16.10    1.20
   0   1  -4   17.30    1.10
   0   1  -4   17.90    1.30
   0   1  -4   16.50    1.20
   0   1   4   14.80    1.50
   0   1  -4   17.20    2.10
   0   1  -4   13.10    1.70
   0   1   4   14.10    3.00
   0   1  -4   14.90    2.70
   0   1  -4   16.50    1.30
   0   1   4   16.40    1.10
   0   1   4   18.40    1.60
  -1  -1  -4  891.21   64.09
  -1  -1  -4 1008.40   64.89
   1  -1   4 1089.69   65.49
  -1  -1  -4  961.40   63.49
   1  -1   4 1055.89   64.39
  -1  -1  -4 1074.59   63.59
  -1  -1  -4  961.30   63.69
  -1   1  -4 1236.98   79.79
   1   1   4 1233.78   79.09
  -1   1  -4 1308.97   78.79
   1   1   4 1310.87   78.89
  -1   1  -4 1124.99   78.99
   1   1   4 1342.47   79.29
  -1   1  -4 1289.07   78.99
   1   1   4 1234.48   82.19
  -1   1  -4 1217.88   84.49
   1   1   4 1267.57   78.89
   1   1   4 1249.97   79.29
  -1   1  -4 1185.18   79.09
  -2  -1  -4  251.57   15.70
  -2  -1  -4  258.57   15.80
   2  -1   4  244.88   16.50
  -2  -1  -4  232.38   15.60
   2  -1   4  258.77   15.70
  -2  -1  -4  265.07   17.20
   2  -1   4  210.38   16.30
  -2   1  -4  208.28   14.60
   2   1   4  218.88   13.70
  -2   1  -4  223.98   13.60
   2   1   4  230.98   14.00
   2   1   4  188.38   13.50
  -2   1  -4  204.58   13.60
  -3  -1  -4 1089.39   64.89
   3  -1   4  993.50   64.89
  -3  -1  -4  952.50   64.79
  -3  -1  -4 1068.09   65.09
  -3   1  -4 1064.19   64.69
   3   1   4 1013.10   64.79
  -3   1  -4  987.00   64.69
   4  -1   4  301.57   21.60
  -4  -1  -4  338.77   21.60
  -4  -1  -4  366.06   21.80
  -4  -1  -4  344.87   21.80
  -4   1  -4  403.36   23.20
  -4   1  -4  363.46   23.50
  -4   1  -4  374.06   23.40
   4   1   4  318.87   23.60
  -5  -1  -4  227.68   14.80
   5  -1   4  239.28   14.40
  -5  -1  -4  206.08   14.50
  -5  -1  -4  238.28   14.90
  -5  -1  -4  214.58   14.60
  -5   1  -4  226.18   14.30
  -5   1  -4  219.88   14.50
  -5   1  -4  216.58   14.50
   5   1   4  222.78   14.20
   6  -1   4   45.10    3.10
   6  -1   4   46.80    3.20
  -6  -1  -4   46.50    3.70
  -6  -1  -4   41.00    3.30
   6  -1   4   48.80    3.20
   6   1   4   50.09    3.20
   6   1   4   45.50    3.20
   6   1   4   47.70    3.30
   6   1   4   46.80    3.50
  -6   1  -4   40.40    3.40
  -7  -1  -4   61.39    4.80
  -7  -1  -4   72.19    5.30
   7  -1   4   76.49    4.70
   7  -1   4   78.79    4.80
  -7  -1  -4   57.99    5.70
   7  -1   4   74.29    4.70
   7   1   4   75.99    4.70
  -7   1  -4   61.19    4.70
  -7   1  -4   71.09    5.10
   7   1   4   66.99    5.10
   7   1   4   77.59    4.80
  -8  -1  -4    4.20    0.70
   8  -1   4    4.00    0.70
  -8  -1  -4    3.60    1.20
   8   1   4    1.50    0.90
   8   1   4    4.50    0.80
  -8   1  -4    2.40    0.50
   8   1   4    3.90    0.70
  -9  -2   4   32.20    2.10
  -9  -2   4   31.90    2.20
   9   2  -4   37.40    2.80
  -8  -2   4  128.89    9.30
  -8  -2   4  142.99    8.80
   8   2  -4  188.28   12.40
   8   2  -4  201.38   13.90
  -8   2   4  177.98   12.10
  -8   2   4  191.18   12.60
   7  -2  -4   75.19    5.20
   7  -2  -4   70.59    6.90
  -7  -2   4   66.79    5.30
  -7  -2   4   70.49    4.70
   7   2  -4   73.99    6.10
   7   2  -4  100.09    5.80
  -7   2   4   95.59    6.10
   7   2  -4   74.59    7.50
  -6  -2   4   45.00    4.30
   6  -2  -4   43.20    7.70
  -6  -2   4   55.89    9.40
   6  -2  -4   51.49    4.00
  -6  -2   4   50.89    3.50
   6  -2  -4   57.59   14.60
  -6  -2   4   63.89    3.90
   6   2  -4   67.09    4.90
   6   2  -4   77.39    4.70
  -6   2   4   69.09    6.90
   6   2  -4   65.99    6.50
  -6   2   4   67.89    4.90
  -5  -2   4   64.69    7.50
  -5  -2   4   63.99    4.90
   5  -2  -4   72.89   11.30
  -5  -2   4   60.89    5.80
   5  -2  -4   63.19    6.50
  -5  -2   4   68.59    4.60
   5   2  -4   54.59    3.90
  -5   2   4   58.09    5.60
   5   2  -4   59.89    5.00
  -5   2   4   59.39    3.70
  -5   2   4   51.79    3.90
   4  -2  -4  196.38   13.90
  -4  -2   4  191.98   12.00
  -4  -2   4  189.68   13.40
  -4  -2   4  181.08   12.20
  -4  -2   4  183.48   14.70
  -4  -2   4  169.88   12.50
   4   2  -4  207.08   14.10
  -4   2   4  203.58   13.90
   4   2  -4  230.08   14.60
  -4   2   4  225.28   14.90
  -4   2   4  229.48   15.00
  -3  -2   4  464.95   30.10
   3  -2  -4  527.25   37.60
   3  -2  -4  467.95   31.40
  -3  -2   4  413.16   31.90
  -3  -2   4  449.46   30.30
  -3  -2   4  479.25   31.10
  -3  -2   4  490.05   29.90
   3   2  -4  590.44   36.30
  -3   2   4  577.74   37.10
  -3   2   4  584.44   36.90
   3   2  -4  557.84   36.40
   3   2  -4  560.54   36.30
  -3   2   4  586.94   36.40
   3   2  -4  540.15   36.80
   3   2  -4  579.84   36.20
  -2  -2   4  429.56   26.40
   2  -2  -4  409.16   26.60
   2  -2  -4  426.16   27.80
   2  -2  -4  390.26   32.40
  -2  -2   4  441.16   26.90
  -2  -2   4  355.46   27.90
  -2  -2   4  447.96   26.60
  -2  -2   4  402.76   27.60
  -2  -2   4  451.55   27.60
  -2   2   4  544.85   31.80
   2   2  -4  506.85   31.80
   2   2  -4  469.85   31.90
  -2   2   4  529.15   32.70
   2   2  -4  473.75   32.40
   2   2  -4  476.65   31.90
   2   2  -4  507.35   31.90
  -2   2   4  509.15   32.10
   1  -2  -4  871.31   68.09
  -1  -2   4  733.63   51.19
  -1  -2   4  819.92   55.49
  -1  -2   4  886.71   52.19
  -1  -2   4  795.62   51.79
  -1  -2   4  830.82   52.49
   1  -2  -4  787.32   52.39
  -1  -2   4  772.32   51.19
   1  -2  -4  780.52   51.39
  -1  -2   4  835.62   51.59
  -1   2   4  945.01   62.49
   1   2  -4 1006.60   62.19
   1   2  -4  953.30   62.19
  -1   2   4 1037.60   62.89
   1   2  -4  955.50   62.79
   1   2  -4  967.60   62.09
  -1   2   4 1020.30   62.09
   0  -2   4  117.29    8.20
   0  -2   4  100.79    9.00
   0  -2  -4   96.29   11.30
   0  -2   4  112.39    7.00
   0  -2  -4  104.39    8.20
   0  -2  -4  106.19    7.80
   0  -2   4  110.29    7.70
   0  -2  -4  102.09    7.10
   0  -2  -4  107.79    8.50
   0  -2   4  115.09    7.80
   0  -2  -4  108.39   18.20
   0   2  -4  113.69    8.70
   0   2   4  141.59    9.10
   0   2   4  137.69    8.60
   0   2   4  146.89    9.30
   0   2   4  135.09    8.60
   0   2  -4  138.89    9.50
   0   2  -4  126.59    8.70
  -1  -2  -4  778.12   56.39
   1  -2   4  737.03   56.99
  -1  -2  -4  813.62   55.29
   1  -2   4  966.10   55.39
   1  -2   4  796.02   55.79
  -1  -2  -4  981.50   55.19
   1  -2   4  919.81   56.29
  -1  -2  -4  962.90   57.19
  -1  -2  -4  957.60   55.49
   1  -2   4  941.81   56.59
  -1  -2  -4  767.02   70.89
   1   2   4 1064.29   68.49
   1   2   4 1112.69   68.39
  -1   2  -4 1022.20   68.59
   1   2   4 1129.59   68.69
  -1   2  -4 1145.69   68.59
   1   2   4 1163.08   69.09
   1   2   4 1120.49   69.09
  -1   2  -4  922.51   69.29
  -2  -2  -4  293.77   18.40
  -2  -2  -4  252.67   23.80
   2  -2   4  318.77   18.40
  -2  -2  -4  299.17   18.20
  -2  -2  -4  278.47   18.50
  -2  -2  -4  274.27   19.70
   2   2   4  359.76   21.90
  -2   2  -4  321.27   22.10
   2   2   4  367.06   22.30
   2   2   4  338.97   22.70
  -2   2  -4  341.57   22.10
   2   2   4  348.27   22.00
   3  -2   4   12.20    1.20
  -3  -2  -4   13.80    1.40
  -3  -2  -4   11.90    1.10
  -3  -2  -4   11.70    1.40
  -3  -2  -4   13.80    4.20
   3   2   4   16.50    1.60
  -3   2  -4   14.50    1.30
   3   2   4   12.50    1.10
  -3   2  -4   14.30    1.40
  -4  -2  -4    2.90    0.80
  -4  -2  -4    2.70    0.80
  -4  -2  -4    3.30    0.60
   4  -2   4    3.20    0.80
  -4   2  -4    6.00    0.90
  -4   2  -4    3.90    0.80
   4   2   4    4.90    1.10
  -5  -2  -4  247.38   16.60
  -5  -2  -4  262.17   17.00
  -5  -2  -4  261.77   16.60
   5   2   4  310.17   18.60
  -5   2  -4  282.37   18.80
   5   2   4  278.87   19.20
  -5   2  -4  290.77   18.90
  -6  -2  -4   73.39    6.40
   6  -2   4   77.99    5.10
   6  -2   4   78.99    5.10
   6   2   4  112.59    7.20
   6   2   4  107.39    7.10
  -6   2  -4  101.69    7.10
   6   2   4  104.89    7.00
   6   2   4  109.59    7.30
   7  -2   4  225.18   12.90
  -7  -2  -4  176.68   13.80
   7   2   4  257.27   16.20
   7   2   4  250.97   16.00
   7   2   4  255.67   15.90
  -7   2  -4  229.28   16.20
   7   2   4  254.47   16.00
  -8  -2  -4   65.79    4.80
  -8  -2  -4   56.59    4.70
   8   2   4   76.79    5.20
   8   2   4   75.29    4.90
   8   2   4   71.79    5.00
  -8  -3   4   39.00    3.30
  -8  -3   4   44.50    2.80
   8   3  -4   69.19    4.50
   8   3  -4   66.09    6.10
  -7  -3   4   54.49    4.40
  -7  -3   4   57.29    3.70
  -7   3   4   70.49    5.00
   7   3  -4   70.89    6.60
   6  -3  -4   12.30    3.60
  -6  -3   4   13.00    1.10
  -6  -3   4   13.40    1.90
  -6  -3   4   16.00    2.10
  -6   3   4   13.40    1.50
   6   3  -4   15.70    1.40
   6   3  -4   14.30    3.20
   5  -3  -4  400.36   27.00
  -5  -3   4  345.47   28.10
  -5  -3   4  381.36   24.50
  -5   3   4  399.56   29.30
  -5   3   4  423.56   30.30
   5   3  -4  447.86   28.20
   5   3  -4  491.45   29.00
  -4  -3   4   29.80    5.80
  -4  -3   4   34.60    5.50
  -4  -3   4   34.30    3.90
  -4  -3   4   35.80    3.00
   4  -3  -4   39.80    4.70
  -4   3   4   37.80    2.60
   4   3  -4   38.70    2.80
   4   3  -4   36.40    4.00
   4   3  -4   36.40    2.80
   4   3  -4   39.10    3.50
  -4   3   4   42.70    3.80
  -4   3   4   40.20    4.00
  -3  -3   4  241.48   20.80
   3  -3  -4  278.27   19.10
  -3  -3   4  276.87   17.10
   3  -3  -4  291.47   26.20
  -3  -3   4  221.78   19.50
  -3  -3   4  275.17   18.50
  -3   3   4  331.67   22.20
   3   3  -4  324.37   22.00
   3   3  -4  320.87   20.80
   3   3  -4  322.37   21.70
  -3   3   4  327.67   20.70
  -3   3   4  296.67   21.00
   3   3  -4  335.17   20.70
   3   3  -4  349.47   20.90
   2  -3  -4  149.79   17.60
   2  -3  -4  179.98   12.60
   2  -3  -4  147.19   10.60
  -2  -3   4  182.38   12.00
  -2  -3   4  157.68   14.00
   2   3  -4  242.58   15.10
  -2   3   4  253.67   14.90
  -2   3   4  209.08   15.30
   2   3  -4  237.48   15.00
   2   3  -4  236.58   15.90
  -2   3   4  242.88   16.30
   2   3  -4  234.28   15.10
  -2   3   4  218.68   15.40
   1  -3  -4  133.39    9.20
  -1  -3   4  147.29   10.80
  -1  -3   4  139.19   12.40
  -1  -3   4  132.79   16.00
   1  -3  -4  150.58   10.90
   1  -3  -4  127.09   15.70
  -1  -3   4  161.88   10.50
  -1   3   4  199.28   13.50
   1   3  -4  206.68   13.10
   1   3  -4  199.98   13.20
  -1   3   4  191.88   14.10
  -1   3   4  212.48   12.90
   1   3  -4  204.48   14.00
  -1   3   4  199.98   13.50
   1   3  -4  207.38   13.00
   0  -3  -4  144.39   11.10
   0  -3  -4  129.89    9.20
   0  -3  -4  141.59   10.60
   0  -3   4  140.99    9.20
   0  -3  -4  133.19   15.80
   0  -3   4  140.19   12.10
   0  -3   4  154.88   10.20
   0   3   4  164.68   11.80
   0   3   4  163.48   10.70
   0   3   4  168.68   10.80
   0   3  -4  173.78   12.00
   0   3  -4  172.08   11.00
   0   3   4  147.19   11.30
   0   3  -4  174.68   10.90
   0   3   4  177.78   11.50
  -1  -3  -4  112.99    7.90
   1  -3   4  126.19    7.90
  -1  -3  -4  128.39    9.80
   1  -3   4  116.59   10.60
   1  -3   4  123.69    8.80
  -1  -3  -4  110.49   14.30
  -1   3  -4  166.68   11.70
  -1   3  -4  159.88   10.50
   1   3   4  165.28   10.20
   1   3   4  169.58   11.20
   1   3   4  151.08   10.30
  -1   3  -4  148.49   10.40
   2  -3   4  274.37   16.90
  -2  -3  -4  247.28   24.80
  -2  -3  -4  280.47   19.10
   2  -3   4  241.38   19.40
  -2  -3  -4  244.78   16.80
  -2  -3  -4  284.77   16.90
  -2   3  -4  366.46   24.90
   2   3   4  434.26   25.20
   2   3   4  379.26   25.70
  -2   3  -4  337.07   26.20
   2   3   4  393.86   24.80
  -2   3  -4  417.36   25.00
   2   3   4  403.66   24.70
  -3  -3  -4  359.66   21.70
  -3  -3  -4  349.96   22.00
  -3  -3  -4  350.16   24.20
   3  -3   4  349.67   21.90
  -3  -3  -4  293.27   30.20
   3   3   4  457.65   33.10
   3   3   4  532.25   32.70
  -3   3  -4  498.55   32.40
   3   3   4  535.15   32.10
  -4  -3  -4   18.10    2.00
   4  -3   4   19.00    1.70
  -4  -3  -4   18.70    1.50
   4   3   4   23.40    2.30
  -4   3  -4   20.80    1.90
  -4   3  -4   18.10    3.50
  -5  -3  -4   58.39    5.60
  -5  -3  -4   72.69    5.30
   5  -3   4   72.99    5.20
  -5  -3  -4   72.09    5.00
  -5  -3  -4   78.29    6.20
   5   3   4  109.29    7.40
   5   3   4  111.19    7.50
  -6  -3  -4   24.60    2.90
   6   3   4   61.09    4.60
   6   3   4   65.39    4.50
  -7  -3  -4   21.30    2.60
  -7  -3  -4   22.80    2.50
   7   3   4   32.60    2.80
   7   3   4   34.60    2.50
  -8  -3  -4   22.80    2.00
  -8  -3  -4   17.50    2.00
   8   3   4   32.00    2.50
  -7  -4   4  146.69    9.20
  -7  -4   4  139.29    9.70
   7   4  -4  253.17   14.50
   7   4  -4  197.38   15.60
  -6  -4   4  267.27   18.40
  -6  -4   4  288.57   17.70
   6   4  -4  397.36   25.30
  -6   4   4  374.86   25.90
   6   4  -4  415.26   26.60
  -5  -4   4   45.80    3.90
  -5  -4   4   43.60    4.20
   5   4  -4   72.69    5.80
  -5   4   4   61.19    5.10
   5   4  -4   65.19    4.60
  -4  -4   4  155.08   10.60
  -4  -4   4  149.69   10.50
   4   4  -4  298.77   18.80
  -4   4   4  278.47   19.60
   4   4  -4  285.97   18.90
   4   4  -4  316.77   19.90
  -3  -4   4   50.69   13.00
  -3  -4   4   53.49    7.80
   3  -4  -4   59.19   11.40
   3  -4  -4   56.59    4.00
  -3  -4   4   59.89    5.60
   3   4  -4  102.19    7.50
   3   4  -4   96.59    6.50
  -3   4   4   89.79    7.90
   3   4  -4   95.79    6.20
  -3   4   4   88.69    7.10
  -2  -4   4   73.59    6.20
  -2  -4   4   65.79    8.40
   2  -4  -4   68.39    4.70
   2  -4  -4   57.89   11.60
   2  -4  -4   80.19    7.20
  -2  -4   4   60.29   12.90
  -2   4   4   99.39    6.60
   2   4  -4   96.19    7.70
  -2   4   4   84.19    7.20
   2   4  -4  101.99    7.70
  -2   4   4   96.09    8.10
   2   4  -4  102.49    6.40
  -2   4   4  103.99    6.30
   2   4  -4   88.59    7.20
  -1  -4   4  364.46   23.40
  -1  -4   4  329.97   26.00
   1  -4  -4  286.77   30.90
   1  -4  -4  372.96   24.40
   1  -4  -4  345.57   21.90
   1   4  -4  509.05   30.70
   1   4  -4  479.25   31.70
  -1   4   4  457.45   31.40
   1   4  -4  498.85   32.10
  -1   4   4  447.56   31.20
  -1   4   4  448.36   32.10
  -1   4   4  464.35   30.80
  -1   4   4  529.65   30.60
   1   4  -4  492.05   30.70
   1   4  -4  490.15   30.90
   0  -4  -4   64.99    4.50
   0  -4  -4   59.79   11.60
   0  -4   4   63.79    7.90
   0  -4   4   68.69    5.80
   0  -4   4   66.89    4.50
   0   4   4  108.89    8.00
   0   4  -4  114.09    7.40
   0   4  -4  115.09    8.70
   0   4  -4   97.69    7.80
   0   4  -4  115.79    7.10
   0   4   4  104.09    7.90
   0   4   4  100.99    8.40
   0   4   4  109.69    7.10
   0   4  -4  110.89    7.20
   0   4   4   98.39    7.30
  -1  -4  -4   37.40    2.90
  -1  -4  -4   35.50    9.20
  -1  -4  -4   41.70    5.20
   1  -4   4   42.00    2.90
   1  -4   4   38.00    5.90
   1   4   4   60.59    4.80
   1   4   4   64.09    5.60
  -1   4  -4   66.59    4.60
   1   4   4   68.49    4.50
  -1   4  -4   73.29    6.40
  -1   4  -4   66.79    4.80
  -1   4  -4   69.79    4.60
   2  -4   4  155.28   14.00
  -2  -4  -4  171.58   13.40
  -2  -4  -4  147.59   19.60
  -2  -4  -4  157.48   10.60
   2  -4   4  175.28   10.70
  -2   4  -4  247.38   17.10
   2   4   4  275.87   17.20
  -2   4  -4  280.87   17.40
   2   4   4  271.87   17.10
   2   4   4  264.37   18.50
  -2   4  -4  266.27   19.20
   3  -4   4   15.90    1.80
  -3  -4  -4   15.00    6.90
  -3  -4  -4   16.70    1.80
  -3  -4  -4   16.80    3.60
   3  -4   4   22.00    1.60
  -3  -4  -4   20.60    3.40
   3  -4   4   20.60    2.50
  -3   4  -4   23.10    1.90
   3   4   4   20.50    1.70
  -3   4  -4   17.20    3.60
  -4  -4  -4  205.98   13.30
  -4  -4  -4  198.78   14.30
   4   4   4  299.27   19.40
   4   4   4  301.67   19.40
  -5  -4  -4   16.40    1.60
  -5  -4  -4   16.00    2.70
   5   4   4   27.80    2.40
   5   4   4   27.50    2.30
  -6  -4  -4    3.90    1.30
   6   4   4   16.80    1.50
   6   4   4   14.30    1.70
  -7  -4  -4   78.49    5.80
   7   4   4  134.69    8.70
   7   4   4  133.59    8.80
  -6  -5   4   27.90    2.50
   6   5  -4   36.10    2.60
   6   5  -4   38.30    4.00
  -5  -5   4   48.80    4.00
  -5  -5   4   48.50    3.90
   5   5  -4   97.69    7.00
  -5   5   4   84.79    6.50
   5   5  -4   80.39    5.60
   5   5  -4   81.39    5.70
  -4  -5   4   50.19    4.10
  -4  -5   4   49.99    4.20
  -4   5   4   79.19    6.50
   4   5  -4   85.69    5.50
   4   5  -4   87.69    6.70
  -3  -5   4   50.39    4.30
   3  -5  -4   52.89    3.40
  -3  -5   4   54.49    4.30
   3   5  -4   84.79    5.40
   3   5  -4   85.49    6.50
  -3   5   4   79.29    6.60
   3   5  -4   76.79    5.70
   2  -5  -4   17.90    1.70
  -2  -5   4   14.70    2.00
   2  -5  -4   18.30    1.20
  -2  -5   4   17.30    1.40
  -2  -5   4   14.40    2.10
  -2   5   4   45.50    4.30
   2   5  -4   36.80    3.90
   2   5  -4   43.20    2.90
  -1  -5   4   24.90    2.50
   1  -5  -4   26.10    2.10
  -1  -5   4   20.70    2.50
   1  -5  -4   26.60    2.20
  -1  -5   4   26.70    1.90
   1  -5  -4   26.30    1.80
  -1   5   4   33.70    3.30
   1   5  -4   43.50    2.70
   1   5  -4   39.50    2.90
  -1   5   4   39.30    4.10
   0  -5  -4  330.27   22.50
   0  -5   4  335.77   23.10
   0  -5  -4  362.26   22.90
   0  -5   4  344.27   23.20
   0  -5   4  372.66   22.60
   0  -5  -4  365.96   22.80
   0  -5   4  372.46   22.40
   0   5   4  529.65   36.50
   0   5   4  563.04   36.20
   0   5  -4  600.94   36.30
   0   5   4  539.45   37.20
   0   5  -4  617.24   36.70
  -1  -5  -4   79.69    5.50
   1  -5   4   78.39    5.90
   1  -5   4   83.79    5.30
   1  -5   4   84.49    5.10
  -1  -5  -4   70.09    5.10
  -1  -5  -4   75.69    5.50
   1   5   4  122.59    8.20
  -1   5  -4  121.99    8.20
  -1   5  -4  129.39    8.60
   2  -5   4    7.80    1.50
   2  -5   4   10.80    1.00
  -2  -5  -4   10.90    1.30
  -2   5  -4   18.90    1.70
   2   5   4   17.50    1.70
   2   5   4   17.50    3.50
   2   5   4   18.60    1.80
  -2   5  -4   19.60    2.00
   3  -5   4   93.59    6.20
  -3  -5  -4   81.39    6.00
   3  -5   4   84.19    5.70
   3   5   4  141.09    9.50
  -3   5  -4  150.68    9.70
   3   5   4  146.19   10.70
  -4  -5  -4    9.80    2.10
   4  -5   4   12.20    1.00
   4   5   4   23.90    1.90
  -4   5  -4   23.90    1.90
  -5  -5  -4   12.00    2.00
   5   5   4   39.60    2.90
   5   5   4   37.70    3.00
  -6  -5  -4   54.79    4.30
   6   5   4  114.59    7.50
  -5  -6   4   13.70    1.30
  -5  -6   4   10.80    1.40
   5   6  -4   27.70    3.00
  -4  -6   4  154.18   11.90
  -4  -6   4  181.38   12.00
   4  -6  -4  203.28   11.40
   4   6  -4  306.37   18.60
  -4   6   4  261.77   18.80
   4   6  -4  309.37   19.50
   3  -6  -4   37.60    2.20
  -3  -6   4   32.50    2.90
  -3  -6   4   28.90    2.90
   3   6  -4   42.50    2.70
   3   6  -4   41.40    3.70
  -3   6   4   36.10    3.30
  -2  -6   4   41.30    3.60
   2  -6  -4   48.80    3.00
  -2  -6   4   46.20    3.10
  -2  -6   4   44.80    3.70
   2   6  -4   93.09    6.60
  -2   6   4   78.99    6.30
   2   6  -4   97.39    5.70
  -2   6   4   79.39    6.80
  -1  -6   4  158.18   11.10
   1  -6  -4  164.98   10.40
   1  -6  -4  162.28   10.60
  -1  -6   4  168.18   10.50
  -1   6   4  210.28   14.20
  -1   6   4  220.68   14.90
   0  -6  -4   83.29    5.50
   0  -6   4   85.29    5.30
   0  -6   4   75.19    5.90
   0  -6  -4   78.79    5.20
   0   6  -4  123.19    7.90
   0   6  -4  132.89    7.80
   0   6   4   99.79    8.40
   0   6  -4  111.09    8.10
   0   6   4  133.29    7.90
  -1  -6  -4   30.00    2.10
  -1  -6  -4   32.70    2.50
   1  -6   4   32.50    2.20
  -1   6  -4   60.59    4.00
   1   6   4   51.49    5.60
   1   6   4   67.39    4.10
  -1   6  -4   54.99    4.20
  -2  -6  -4   69.19    4.70
   2  -6   4   66.79    4.90
   2  -6   4   67.79    4.50
   2   6   4  100.79    7.80
  -2   6  -4   93.59    6.50
   2   6   4  100.19    6.50
  -3  -6  -4   21.80    2.40
  -3  -6  -4   24.70    1.90
   3  -6   4   23.40    2.60
   3   6   4   43.30    3.10
   3   6   4   51.89    4.30
  -3   6  -4   39.40    3.00
  -4  -6  -4  187.58   12.40
  -4  -6  -4  198.48   12.90
   4   6   4  248.28   15.80
  -9   0   5  127.09    7.80
  -9   0   5  115.09    7.70
   9   0  -5  116.99    8.00
  -8   0   5    6.20    0.70
   8   0  -5    4.70    2.20
  -8   0   5    6.40    0.90
  -8   0   5    4.40    1.10
   8   0  -5    5.20    1.10
   7   0  -5    4.80    2.20
  -7   0   5    4.20    1.10
   7   0  -5    5.40    1.20
  -7   0   5    4.30    0.80
  -6   0   5  211.18   13.80
  -6   0   5  238.48   14.20
  -6   0   5  190.68   16.30
  -6   0   5  212.98   13.70
  -5   0   5  609.84   41.10
  -5   0   5  638.94   39.80
   5   0  -5  682.13   39.90
  -5   0   5  616.84   40.10
  -5   0   5  596.54   40.30
  -4   0   5  284.67   20.90
  -4   0   5  337.07   20.50
  -4   0   5  327.47   19.40
  -4   0   5  290.87   19.80
   4   0  -5  296.97   19.60
   4   0  -5  314.57   19.40
  -4   0   5  284.87   19.60
   3   0  -5   18.50    1.40
  -3   0   5   20.50    2.40
  -3   0   5   19.70    1.40
  -3   0   5   23.30    2.30
  -3   0   5   18.80    1.50
  -3   0   5   20.80    2.50
  -3   0   5   18.50    1.80
   3   0  -5   18.00    4.90
   3   0  -5   19.50    1.60
   2   0  -5   57.19    6.90
  -2   0   5   69.79    5.00
   2   0  -5   64.29    4.30
   2   0  -5   58.59    4.10
  -2   0   5   69.79    4.80
   2   0  -5   63.39    4.10
  -2   0   5   67.79    4.90
  -2   0   5   63.59    4.40
  -2   0   5   61.89    4.10
   2   0  -5   56.39    4.30
  -1   0   5   13.90    2.80
   1   0  -5   17.80    1.30
  -1   0   5   16.40    1.60
  -1   0   5   22.20    1.90
   1   0  -5   15.50    1.30
  -1   0   5   20.50    1.30
   1   0  -5   16.00    1.30
   1   0  -5   16.50    1.50
  -1   0   5   19.50    1.30
  -1   0   5   16.40    1.30
  -1   0   5   21.20    2.20
   1   0  -5   13.70    1.50
   0   0   5  892.81   54.89
   0   0   5  872.91   53.99
   0   0  -5  802.72   54.09
   0   0  -5  854.21   57.49
   0   0   5  841.02   54.29
   0   0  -5  887.51   53.99
   0   0  -5  838.12   54.09
   0   0  -5  837.52   55.39
   0   0   5  884.81   53.99
   0   0  -5  818.52   54.09
   0   0   5  924.21   54.29
   0   0   5  897.01   56.49
   0   0  -5  779.52   54.19
  -1   0  -5  533.45   31.00
   1   0   5  556.64   31.40
  -1   0  -5  475.55   31.10
  -1   0  -5  444.96   31.20
  -1   0  -5  452.85   32.40
  -1   0  -5  496.65   31.20
   1   0   5  470.55   33.70
   1   0   5  550.74   32.00
  -1   0  -5  430.26   34.60
  -2   0  -5   16.30    1.50
   2   0   5   18.00    1.40
  -2   0  -5   19.40    2.70
  -2   0  -5   17.20    1.40
   2   0   5   17.00    2.10
  -3   0  -5   76.29    5.10
  -3   0  -5   79.39    5.00
  -3   0  -5   73.29    5.20
   3   0   5   70.09    5.00
  -4   0  -5  315.67   19.80
  -4   0  -5  316.57   19.80
  -4   0  -5  291.47   19.90
  -5   0  -5  120.59    8.60
  -5   0  -5  130.09    8.70
   5   0   5  137.79    8.30
  -5   0  -5  123.09    8.60
  -6   0  -5  490.05   35.50
   6   0   5  614.74   35.10
  -6   0  -5  541.75   35.20
   6   0   5  565.84   35.10
  -7   0  -5   18.00    1.70
   7   0   5   18.80    1.60
   7   0   5   22.10    1.80
   7   0   5   18.90    1.60
  -7   0  -5   17.20    2.00
  -8   0  -5  530.85   36.20
   8   0   5  554.34   35.40
   8   0   5  550.44   35.50
  -8   0  -5  600.34   35.50
  -9  -1   5   34.80    2.30
  -9   1   5   31.30    2.20
   9   1  -5   30.30    2.50
   9   1  -5   30.10    3.70
  -8  -1   5    8.50    0.90
   8  -1  -5    7.80    1.20
   8  -1  -5    8.70    2.40
  -8  -1   5    8.40    1.00
  -8   1   5    8.90    1.00
   8   1  -5    9.60    1.60
   8   1  -5    9.40    2.50
  -8   1   5    9.50    1.50
   7  -1  -5  110.39    7.90
   7  -1  -5  107.19    9.60
  -7  -1   5  109.69    7.50
  -7  -1   5  127.69    8.20
  -7  -1   5  120.89    7.60
  -7   1   5  131.19    8.80
   7   1  -5  125.69    9.10
  -7   1   5  153.18    9.40
   7   1  -5  132.39   10.60
  -6  -1   5   89.09    5.70
  -6  -1   5   75.69    6.10
  -6  -1   5   94.59    6.20
  -6  -1   5   77.79    8.60
   6   1  -5   98.89    6.30
  -6   1   5   90.39    6.10
  -6   1   5  103.89    6.60
  -6   1   5   80.49    8.30
  -5  -1   5  548.65   38.70
  -5  -1   5  627.94   39.30
   5  -1  -5  687.53   48.40
  -5  -1   5  592.14   40.20
  -5  -1   5  631.64   38.60
  -5  -1   5  523.15   41.20
  -5  -1   5  649.04   39.00
  -5   1   5  638.14   45.70
  -5   1   5  657.83   44.10
   5   1  -5  703.73   44.00
  -5   1   5  742.93   43.90
  -5   1   5  725.43   45.10
   4  -1  -5  134.69    9.60
  -4  -1   5  139.59   10.00
   4  -1  -5  166.48   16.00
  -4   1   5  119.09    7.90
   4   1  -5  122.49    7.60
  -4   1   5  112.99    8.40
  -4   1   5  123.39    7.50
  -4   1   5  108.89    8.40
  -4   1   5  103.49    7.70
  -4   1   5  125.19    9.00
   4   1  -5  114.99    7.80
  -3  -1   5   94.79    7.30
  -3  -1   5  104.39    6.80
  -3  -1   5   81.79    6.50
   3  -1  -5  110.39    6.60
   3  -1  -5   96.09    6.40
   3  -1  -5   95.59    7.60
  -3  -1   5   94.99    7.60
  -3   1   5  153.98    9.30
  -3   1   5  148.09    9.60
   3   1  -5  139.59    9.30
   3   1  -5  136.19    9.50
   3   1  -5  141.29    9.40
  -3   1   5  153.18   10.10
  -2  -1   5 1198.78   82.29
   2  -1  -5 1231.98   82.49
   2  -1  -5 1403.76   81.69
  -2  -1   5 1122.79   81.39
  -2  -1   5 1426.86   81.89
   2  -1  -5 1361.16   81.49
  -2   1   5 1462.45   91.99
  -2   1   5 1434.96   91.59
   2   1  -5 1417.66   91.69
  -2   1   5 1468.95   92.09
   2   1  -5 1493.45   91.79
   2   1  -5 1551.24   91.69
   2   1  -5 1295.87   91.89
   2   1  -5 1502.65   91.89
   2   1  -5 1442.96   91.69
  -1  -1   5  160.68   10.30
   1  -1  -5  145.49    9.80
   1  -1  -5  168.68    9.70
   1  -1  -5  143.29   10.30
   1  -1  -5  175.98   18.70
  -1  -1   5  139.79    9.60
  -1  -1   5  165.98   11.90
  -1  -1   5  127.99   10.20
  -1  -1   5  145.09    9.50
  -1  -1   5  159.98    9.60
  -1  -1   5  138.69   10.80
   1  -1  -5  133.19   12.50
   1   1  -5  207.68   12.80
  -1   1   5  199.98   12.50
   1   1  -5  182.68   13.10
   1   1  -5  193.28   12.70
   1   1  -5  187.58   12.70
  -1   1   5  211.88   13.00
   1   1  -5  208.98   12.60
   1   1  -5  194.38   12.60
   0  -1   5  214.68   16.80
   0  -1  -5  198.48   22.40
   0  -1   5  232.48   16.00
   0  -1  -5  254.77   14.80
   0  -1  -5  233.48   14.90
   0  -1  -5  241.98   15.10
   0  -1   5  240.08   15.10
   0  -1   5  241.38   14.90
   0  -1  -5  221.78   14.90
   0  -1   5  233.58   15.60
   0  -1  -5  248.88   16.60
   0   1   5  248.38   14.60
   0   1  -5  233.08   15.80
   0   1   5  199.58   15.00
   0   1  -5  217.68   14.80
   0   1  -5  217.08   14.70
   0   1  -5  217.38   15.30
   0   1  -5  194.28   17.20
   0   1  -5  251.57   14.90
   0   1   5  249.28   15.00
   0   1   5  254.57   15.30
   0   1  -5  255.17   14.80
   0   1  -5  240.78   14.70
   0   1   5  223.68   14.70
   1  -1   5  634.54   39.00
  -1  -1  -5  607.94   38.30
  -1  -1  -5  576.54   38.00
   1  -1   5  593.04   39.10
  -1  -1  -5  583.74   39.70
  -1  -1  -5  614.94   37.90
  -1  -1  -5  594.24   38.10
   1   1   5  571.04   40.00
  -1   1  -5  585.24   41.00
   1   1   5  608.74   40.40
   1   1   5  728.23   40.40
   1   1   5  607.14   39.80
  -1   1  -5  573.84   40.00
  -1   1  -5  691.43   40.00
   1   1   5  673.93   39.80
  -2  -1  -5   17.20    1.90
  -2  -1  -5   21.40    1.60
  -2  -1  -5   20.60    1.50
   2  -1   5   19.70    2.50
  -2  -1  -5   21.20    1.80
   2  -1   5   23.50    1.70
  -2   1  -5   37.40    2.70
   2   1   5   40.70    2.40
  -2   1  -5   38.30    2.70
   2   1   5   34.00    3.00
  -2   1  -5   35.30    3.70
   2   1   5   33.90    2.70
  -2   1  -5   37.20    2.70
  -3  -1  -5  138.69    9.40
  -3  -1  -5  146.89    9.50
   3  -1   5  148.99    9.60
  -3  -1  -5  150.08    9.80
  -3   1  -5  154.98    9.50
   3   1   5  132.19    9.60
  -3   1  -5  139.79    9.20
  -3   1  -5  160.68    9.50
  -3   1  -5  120.49    9.40
   3   1   5  155.88    9.30
  -4  -1  -5  566.24   37.50
  -4  -1  -5  595.14   37.70
   4  -1   5  566.14   37.60
  -4  -1  -5  638.64   37.90
  -4   1  -5  640.64   41.60
  -4   1  -5  634.14   41.60
  -4   1  -5  682.53   41.40
  -5  -1  -5   34.80    2.90
  -5  -1  -5   44.40    3.40
  -5  -1  -5   42.10    3.10
  -5  -1  -5   37.50    3.30
   5  -1   5   48.10    2.90
  -5   1  -5   40.10    3.40
  -5   1  -5   46.10    3.20
   5   1   5   45.40    3.10
  -5   1  -5   46.00    3.40
  -6  -1  -5  137.69   10.30
   6  -1   5  163.18   10.20
   6  -1   5  156.78   10.20
   6  -1   5  166.38   10.20
  -6  -1  -5  144.99   10.70
   6  -1   5  176.68   10.20
   6   1   5  203.48   12.40
   6   1   5  174.88   12.50
   6   1   5  181.78   12.30
   6   1   5  203.28   12.30
  -6   1  -5  193.08   12.60
  -7  -1  -5   13.10    2.50
  -7  -1  -5   16.40    1.50
   7  -1   5   18.30    1.60
   7  -1   5   17.40    1.50
   7  -1   5   17.40    1.50
  -7  -1  -5   13.90    1.80
   7   1   5   17.20    1.70
   7   1   5   19.00    2.10
  -7   1  -5   19.50    1.60
   7   1   5   19.40    1.70
  -7   1  -5   17.00    1.90
  -8  -1  -5   46.90    4.20
   8  -1   5   53.39    3.50
  -8  -1  -5   52.99    3.50
   8   1   5   67.39    4.60
   8   1   5   62.99    4.40
   8   1   5   63.69    4.50
  -8   1  -5   69.29    4.50
  -9  -2   5  180.28   11.30
  -9  -2   5  175.88   11.30
   9   2  -5  188.88   13.10
  -8  -2   5  123.59    7.60
   8  -2  -5  110.29    9.30
  -8   2   5  161.88   10.20
   8   2  -5  137.19   10.30
   8   2  -5  174.38   11.90
  -7  -2   5  309.07   21.00
  -7  -2   5  331.27   20.40
   7   2  -5  353.56   27.20
  -7   2   5  428.26   26.20
   7   2  -5  433.26   25.80
   6  -2  -5  403.16   29.20
  -6  -2   5  420.16   27.80
   6  -2  -5  431.26   27.50
  -6  -2   5  455.55   27.10
  -6   2   5  617.34   40.50
   6   2  -5  650.13   40.20
  -5  -2   5  293.87   18.20
  -5  -2   5  249.18   17.80
  -5  -2   5  288.07   19.70
  -5   2   5  374.56   24.40
  -5   2   5  302.47   23.30
  -5   2   5  362.36   22.00
   5   2  -5  353.36   22.30
  -5   2   5  343.57   22.40
  -4  -2   5    3.60    0.70
  -4  -2   5    3.80    1.00
  -4  -2   5    4.60    2.80
   4  -2  -5    3.90    1.60
  -4  -2   5    5.20    1.20
  -4  -2   5    4.60    1.80
   4  -2  -5    5.80    3.70
  -4   2   5    6.60    0.70
   4   2  -5    6.70    0.80
   4   2  -5    6.90    1.30
  -4   2   5    7.60    1.00
  -4   2   5    4.50    1.40
   4   2  -5    7.20    1.00
  -3  -2   5  145.39   11.00
  -3  -2   5  144.79    9.90
   3  -2  -5  171.68   16.20
  -3  -2   5  141.29   10.10
   3  -2  -5  151.68   11.20
  -3  -2   5  138.09   10.90
   3   2  -5  176.48   10.90
   3   2  -5  169.78   10.90
   3   2  -5  160.78   11.50
  -3   2   5  186.48   11.90
  -3   2   5  162.28   11.10
   3   2  -5  173.78   10.80
  -3   2   5  172.38   11.10
  -3   2   5  155.38   10.80
  -3   2   5  169.18   11.60
   3   2  -5  165.58   11.00
   2  -2  -5   99.29    6.30
  -2  -2   5  100.29    6.60
   2  -2  -5   98.29    7.50
   2  -2  -5   86.29   10.90
  -2  -2   5   79.39    6.00
  -2  -2   5   95.79    7.30
  -2  -2   5   93.29    6.30
  -2  -2   5   93.69    7.60
   2   2  -5   71.89    4.80
   2   2  -5   76.29    4.80
  -2   2   5   76.09    5.60
   2   2  -5   69.49    4.80
   2   2  -5   63.49    5.30
  -2   2   5   68.79    4.60
  -2   2   5   66.49    5.20
  -2   2   5   74.99    5.00
   2   2  -5   74.69    4.70
  -1  -2   5   33.70    2.50
   1  -2  -5   38.70   10.90
  -1  -2   5   34.50    3.40
   1  -2  -5   35.50    3.50
  -1  -2   5   36.90    3.90
  -1  -2   5   33.30    3.10
   1  -2  -5   35.90    2.70
   1   2  -5   41.60    3.00
   1   2  -5   42.20    2.90
   1   2  -5   40.10    3.70
  -1   2   5   45.20    2.80
   1   2  -5   41.00    3.00
  -1   2   5   37.30    3.30
  -1   2   5   49.40    3.80
   0  -2   5  324.47   20.10
   0  -2  -5  292.27   19.00
   0  -2   5  311.47   19.10
   0  -2  -5  315.77   21.00
   0  -2  -5  262.07   19.20
   0  -2   5  278.17   19.80
   0  -2   5  333.57   20.60
   0  -2  -5  267.97   32.20
   0   2  -5  395.66   25.80
   0   2  -5  352.26   26.40
   0   2   5  426.16   26.40
   0   2   5  406.56   25.60
   0   2   5  424.26   26.20
   0   2   5  403.56   25.60
   0   2  -5  417.76   25.80
  -1  -2  -5  191.98   11.70
  -1  -2  -5  156.48   25.70
  -1  -2  -5  158.18   12.70
   1  -2   5  180.18   12.90
  -1  -2  -5  185.28   11.60
   1  -2   5  196.88   11.60
  -1   2  -5  276.17   16.80
   1   2   5  274.67   16.60
   1   2   5  252.97   16.70
  -1   2  -5  257.37   16.80
   1   2   5  269.57   17.40
  -1   2  -5  252.87   17.70
   1   2   5  252.77   18.10
   2  -2   5   58.79    5.40
  -2  -2  -5   58.99    4.30
  -2  -2  -5   54.89    4.20
  -2  -2  -5   61.69    4.00
   2  -2   5   65.39    4.20
   2   2   5   89.39    5.40
  -2   2  -5   71.99    5.60
   2   2   5   84.19    6.20
  -2   2  -5   83.59    5.60
   2   2   5   88.79    5.80
  -2   2  -5   81.99    5.50
   3  -2   5   40.90    3.00
  -3  -2  -5   41.80    2.90
  -3  -2  -5   42.10    3.20
  -3  -2  -5   38.70    3.20
  -3   2  -5   49.30    3.40
  -3   2  -5   49.60    3.60
   3   2   5   49.90    3.30
   3   2   5   51.29    3.80
  -3   2  -5   51.89    3.60
  -4  -2  -5  193.98   13.00
  -4  -2  -5  199.28   13.10
  -4  -2  -5  194.48   12.70
   4  -2   5  197.18   12.80
  -4   2  -5  209.38   13.40
   4   2   5  222.88   13.20
  -4   2  -5  181.78   13.10
  -4   2  -5  212.68   13.50
   4   2   5  202.18   13.70
  -5  -2  -5  208.88   13.40
   5  -2   5  192.28   13.90
  -5  -2  -5  169.48   14.00
  -5  -2  -5  233.78   13.40
  -5  -2  -5  216.38   13.90
   5  -2   5  212.38   13.30
   5   2   5  247.38   15.20
   5   2   5  254.77   15.40
  -5   2  -5  273.07   15.20
  -5   2  -5  205.28   15.40
  -5   2  -5  216.88   15.50
   5   2   5  216.28   15.40
   6  -2   5  245.88   15.80
   6  -2   5  247.48   15.80
   6   2   5  290.27   20.40
   6   2   5  322.47   20.30
   6   2   5  325.37   20.20
  -6   2  -5  324.37   20.40
   6   2   5  323.77   20.40
  -7  -2  -5   19.90    2.60
   7   2   5   38.30    3.10
  -7   2  -5   36.70    3.00
  -7   2  -5   41.30    2.70
   7   2   5   37.10    2.80
   7   2   5   38.80    2.80
  -8  -2  -5   87.79    6.60
  -8  -2  -5   97.39    6.60
   8   2   5  103.69    7.40
   8   2   5  124.49    7.60
  -8  -3   5   95.39    7.00
  -8  -3   5  107.49    6.60
   8   3  -5  141.69   10.20
   8   3  -5  131.79    8.80
  -7  -3   5   20.20    2.20
  -7  -3   5   21.90    1.50
   7  -3  -5   17.10    3.70
  -7   3   5   29.30    2.40
   7   3  -5   24.10    4.00
  -6  -3   5  141.59    9.40
  -6  -3   5  139.89   10.10
  -6  -3   5  154.38   10.00
  -6   3   5  232.58   15.90
   6   3  -5  266.37   15.60
   6   3  -5  227.38   16.90
  -5  -3   5   31.80    3.80
  -5  -3   5   16.50    7.50
  -5  -3   5   25.20    5.90
  -5  -3   5   27.10    2.80
  -5  -3   5   25.60    1.90
  -5  -3   5   24.50    2.60
  -5   3   5   36.10    3.10
   5   3  -5   38.30    4.10
   5   3  -5   37.00    3.20
  -5   3   5   44.10    6.30
   5   3  -5   33.70    3.80
   5   3  -5   39.70    2.80
   4  -3  -5  333.77   22.30
  -4  -3   5  311.87   21.60
  -4  -3   5  277.17   19.90
   4   3  -5  386.96   24.60
   4   3  -5  385.26   25.40
  -4   3   5  376.76   24.40
  -4   3   5  365.16   24.90
   4   3  -5  376.56   26.00
  -4   3   5  344.07   25.50
  -4   3   5  414.66   26.00
   4   3  -5  427.96   24.60
  -3  -3   5  372.96   31.40
  -3  -3   5  476.55   29.00
   3  -3  -5  381.06   27.00
  -3  -3   5  468.95   28.20
  -3   3   5  475.65   36.40
   3   3  -5  578.84   36.60
  -3   3   5  607.74   38.00
   3   3  -5  603.54   36.70
   3   3  -5  582.54   36.50
   3   3  -5  572.44   37.50
  -3   3   5  613.14   37.50
  -2  -3   5    9.50    2.30
  -2  -3   5    9.60    2.30
   2  -3  -5    7.20    0.90
  -2  -3   5    7.10    3.10
   2  -3  -5    7.60    4.70
   2  -3  -5    9.90    2.20
  -2   3   5   11.20    1.70
   2   3  -5   10.00    1.30
   2   3  -5   10.50    1.10
  -2   3   5   10.10    2.00
   2   3  -5    9.90    1.90
   2   3  -5    9.40    0.90
  -2   3   5   10.50    0.90
  -2   3   5    9.20    1.30
  -1  -3   5  157.28   11.30
   1  -3  -5  119.89   15.50
   1  -3  -5  139.39    9.50
   1  -3  -5  166.88   11.20
  -1  -3   5  149.59   10.70
  -1  -3   5  135.09   12.80
   1   3  -5  222.48   13.60
  -1   3   5  212.98   14.70
  -1   3   5  189.88   14.10
  -1   3   5  216.38   14.30
   1   3  -5  207.98   13.80
   1   3  -5  210.48   14.70
  -1   3   5  225.98   13.60
   1   3  -5  211.38   13.70
   0  -3  -5   31.30    2.40
   0  -3  -5   28.50    7.10
   0  -3   5   33.60    2.40
   0  -3   5   35.40    4.10
   0  -3   5   31.00    3.30
   0  -3   5   28.10    4.90
   0   3   5   54.79    3.60
   0   3  -5   50.59    3.80
   0   3  -5   53.69    4.90
   0   3   5   56.19    4.70
   0   3   5   53.39    3.70
   0   3  -5   56.99    3.90
   0   3   5   57.79    4.50
   0   3   5   52.19    4.40
   1  -3   5   99.29    6.00
   1  -3   5   81.49    6.80
  -1  -3  -5   91.29    6.00
   1  -3   5   78.39    8.50
  -1  -3  -5   96.89    8.00
  -1  -3  -5   84.09   12.20
  -1   3  -5  139.39    9.10
   1   3   5  140.79    9.00
  -1   3  -5  141.19    9.10
  -1   3  -5  117.79   10.20
   1   3   5  141.99    9.80
   1   3   5  143.69    8.80
  -2  -3  -5  657.43   43.90
  -2  -3  -5  701.33   41.70
   2  -3   5  652.53   41.80
  -2  -3  -5  610.44   41.70
   2   3   5  867.21   53.49
   2   3   5  891.71   53.69
   2   3   5  835.32   54.59
  -2   3  -5  835.02   53.79
  -2   3  -5  890.01   53.89
  -2   3  -5  767.12   55.29
  -3  -3  -5   50.09    3.80
   3  -3   5   52.69    3.80
  -3   3  -5   80.49    5.30
  -3   3  -5   84.59    7.30
   3   3   5   71.49    6.20
   3   3   5   78.99    5.20
   3   3   5   77.49    5.70
  -3   3  -5   78.99    5.40
  -4  -3  -5   47.10    3.20
  -4  -3  -5   44.10    3.60
   4  -3   5   45.00    3.40
  -4   3  -5   68.99    5.00
   4   3   5   59.79    5.20
  -4   3  -5   72.79    6.90
  -4   3  -5   78.59    4.70
   5  -3   5   36.80    3.00
  -5  -3  -5   35.60    3.20
   5  -3   5   38.40    2.50
  -5  -3  -5   35.00    2.90
   5   3   5   60.49    4.50
   5   3   5   64.59    4.50
  -5   3  -5   63.49    4.20
   5   3   5   60.99    4.30
  -6  -3  -5   15.90    2.20
  -6  -3  -5   10.10    2.30
   6  -3   5   16.80    1.20
  -6  -3  -5   13.20    1.70
   6   3   5   31.50    2.40
  -6   3  -5   28.30    2.20
   6   3   5   25.70    2.50
   6   3   5   30.50    2.20
  -7  -3  -5   41.80    3.30
  -7  -3  -5   34.20    3.40
   7   3   5   52.79    3.70
   7   3   5   57.59    4.00
   7   3   5   51.09    3.60
  -7  -4   5   76.89    4.80
  -7  -4   5   70.99    5.30
   7   4  -5   87.39    7.80
   7   4  -5  112.19    6.60
  -6  -4   5   31.50    2.20
  -6  -4   5   29.30    2.90
  -6   4   5   45.60    4.00
   6   4  -5   50.49    5.10
   6   4  -5   54.69    3.50
  -5  -4   5  103.29    7.70
  -5  -4   5  110.69    7.00
  -5   4   5  171.58   12.30
   5   4  -5  178.08   11.60
   5   4  -5  186.98   12.80
  -4  -4   5   95.99    6.20
  -4  -4   5   93.29    6.90
  -4  -4   5   93.09    6.90
  -4   4   5  184.08   13.00
   4   4  -5  180.58   12.20
   4   4  -5  191.78   12.00
   4   4  -5  196.58   13.20
  -3  -4   5   75.09   10.20
   3  -4  -5   81.99    6.00
   3  -4  -5   96.99    8.50
   3  -4  -5   93.49   14.10
  -3  -4   5   87.69    7.80
   3   4  -5  120.99    9.10
   3   4  -5  116.39    7.90
   3   4  -5  126.39    8.10
  -3   4   5  116.79    9.50
  -3   4   5   99.89    8.80
  -3   4   5  118.49    8.00
  -3   4   5  135.59    8.90
   3   4  -5  118.79    7.80
  -2  -4   5  296.47   25.50
   2  -4  -5  321.27   20.70
   2  -4  -5  291.07   30.10
   2  -4  -5  365.36   23.30
  -2  -4   5  330.17   22.50
   2   4  -5  456.75   29.80
   2   4  -5  456.65   31.10
   2   4  -5  461.85   29.70
  -2   4   5  496.15   30.70
  -2   4   5  458.25   31.40
  -2   4   5  493.25   29.60
   2   4  -5  451.75   31.20
  -2   4   5  490.05   29.90
   2   4  -5  434.26   30.00
  -1  -4   5  205.38   18.20
  -1  -4   5  225.28   15.40
   1  -4  -5  232.98   13.80
   1  -4  -5  179.38   22.10
   1   4  -5  342.07   21.00
  -1   4   5  354.66   21.00
   1   4  -5  325.27   22.20
   1   4  -5  333.97   22.60
  -1   4   5  349.77   21.30
  -1   4   5  275.87   21.60
   1   4  -5  334.87   21.10
  -1   4   5  307.37   22.50
   1   4  -5  339.07   21.30
   1   4  -5  330.87   21.20
  -1   4   5  329.57   22.00
   0  -4  -5  122.19    7.80
   0  -4  -5  103.99   15.60
   0  -4   5  110.89   11.60
   0  -4   5  126.19    9.30
   0  -4   5  113.19    7.80
   0   4  -5  169.58   12.90
   0   4  -5  186.98   11.30
   0   4  -5  180.28   11.40
   0   4   5  168.28   12.20
   0   4   5  162.68   12.50
   0   4   5  158.78   12.10
   0   4  -5  164.08   12.10
   0   4   5  181.48   11.60
   0   4   5  172.58   11.20
   0   4  -5  190.28   11.60
  -1  -4  -5   43.40    5.40
  -1  -4  -5   43.00    3.20
   1  -4   5   47.00    3.20
   1  -4   5   36.80    6.10
  -1  -4  -5   37.50    9.50
  -1   4  -5   65.49    4.60
   1   4   5   64.49    4.40
  -1   4  -5   69.49    4.80
  -1   4  -5   69.99    4.60
  -1   4  -5   60.49    6.30
   1   4   5   64.39    5.60
   1   4   5   72.79    4.90
  -2  -4  -5   73.79   14.00
  -2  -4  -5   90.99    6.10
   2  -4   5   95.39    6.20
  -2  -4  -5   95.59    8.80
   2   4   5  143.19    9.30
  -2   4  -5  141.29    9.50
   3  -4   5  183.78   12.20
  -3  -4  -5  166.28   12.10
   3  -4   5  205.58   12.30
   3  -4   5  174.98   11.80
   3   4   5  207.38   13.00
  -3   4  -5  218.28   13.20
   3   4   5  185.08   13.20
   3   4   5  195.48   13.10
   4  -4   5   55.89    3.90
  -4  -4  -5   46.40    3.70
   4  -4   5   45.60    3.70
   4   4   5   59.09    4.10
  -4   4  -5   56.49    3.80
   4   4   5   50.89    4.00
  -5  -4  -5   44.00    4.30
   5   4   5  139.99    8.80
   5   4   5  123.99    8.80
  -6  -4  -5  140.89    9.70
  -6  -4  -5  158.18   10.60
   6   4   5  237.98   16.20
   6   4   5  263.07   16.20
  -6  -5   5   27.30    2.40
   6   5  -5   51.29    3.50
   6   5  -5   51.69    4.70
  -5  -5   5   12.00    1.80
  -5  -5   5   13.00    1.60
  -5   5   5   22.40    2.30
   5   5  -5   31.20    3.50
   5   5  -5   27.40    2.00
  -4  -5   5   54.39    4.20
  -4  -5   5   50.09    4.20
   4   5  -5  101.89    6.20
   4   5  -5   96.89    7.40
  -4   5   5   88.39    6.70
  -3  -5   5   77.39    5.80
   3  -5  -5   79.79    5.00
  -3  -5   5   69.79    5.70
   3  -5  -5   80.19    5.40
   3   5  -5  119.89    9.00
   3   5  -5  138.89    9.40
  -3   5   5  121.49    8.90
   3   5  -5  138.99    8.40
  -2  -5   5   10.60    1.80
  -2  -5   5   14.10    1.90
   2  -5  -5   14.20    1.10
   2  -5  -5   16.60    1.60
  -2   5   5   16.70    3.10
   2   5  -5   27.10    1.70
  -2   5   5   22.90    2.50
   2   5  -5   19.20    2.80
   1  -5  -5   40.90    3.30
  -1  -5   5   47.50    3.00
  -1  -5   5   42.10    3.60
   1  -5  -5   45.50    2.90
  -1  -5   5   35.40    3.50
   1   5  -5  105.79    7.00
  -1   5   5  103.19    7.00
  -1   5   5   86.69    8.10
   1   5  -5  118.99    6.90
  -1   5   5  107.89    7.50
   0  -5   5  107.09    7.60
   0  -5   5  104.89    7.70
   0  -5  -5  105.59    7.00
   0  -5  -5  105.89    7.30
   0  -5  -5  109.89    7.40
   0  -5   5  115.79    7.10
   0   5  -5  214.98   13.60
   0   5  -5  228.18   13.40
   0   5   5  207.48   13.60
   0   5   5  190.88   13.90
   0   5  -5  208.58   13.90
  -1  -5  -5   16.50    1.70
  -1  -5  -5   15.80    1.70
   1  -5   5   18.90    1.40
   1  -5   5   18.00    2.00
  -1  -5  -5   16.70    1.30
   1  -5   5   14.60    1.90
  -1   5  -5   24.20    2.20
   1   5   5   22.10    2.00
  -1   5  -5   22.00    1.90
   2  -5   5  129.09    9.70
   2  -5   5  153.38    9.20
  -2  -5  -5  142.99    9.50
   2   5   5  201.78   13.20
  -2   5  -5  223.98   13.50
   2   5   5  185.88   14.40
   2   5   5  209.38   13.20
   2   5   5  190.58   13.60
  -2   5  -5  210.98   13.20
   3  -5   5   40.90    2.80
  -3  -5  -5   37.20    3.80
  -3  -5  -5   43.10    3.20
   3   5   5   73.59    5.30
  -3   5  -5   81.69    5.30
   3   5   5   70.99    5.10
  -3   5  -5   75.19    5.10
   4  -5   5   12.40    1.30
  -4  -5  -5    8.50    1.90
  -4  -5  -5    9.30    1.30
   4   5   5   15.00    1.50
   4   5   5   19.40    1.80
   4   5   5   18.20    1.80
  -5  -5  -5  140.19    9.90
  -5  -5  -5  165.28   10.70
   5   5   5  271.67   16.50
   5   5   5  240.98   16.40
  -4  -6   5  172.48   10.60
  -4  -6   5  145.39   10.60
   4   6  -5  287.37   19.40
   4   6  -5  301.17   18.70
  -3  -6   5    2.10    0.80
  -3  -6   5    1.90    0.90
   3  -6  -5    2.00    0.30
   3   6  -5    4.50    0.60
   3   6  -5    3.40    1.20
  -3   6   5    1.90    1.00
  -2  -6   5   90.29    6.90
   2  -6  -5  108.89    6.30
  -2  -6   5   94.49    6.90
  -2  -6   5   98.29    6.40
   2   6  -5  167.08    9.80
  -2   6   5  136.79   10.30
  -1  -6   5   27.60    1.90
   1  -6  -5   27.70    1.80
  -1  -6   5   24.90    2.40
   1  -6  -5   24.10    2.20
  -1  -6   5   23.80    2.40
  -1   6   5   41.10    2.90
  -1   6   5   35.50    3.40
   1   6  -5   44.70    2.80
   0  -6   5   35.50    2.30
   0  -6   5   29.40    2.80
   0  -6  -5   33.40    2.20
   0  -6  -5   30.70    2.40
   0   6  -5   51.79    3.30
   0   6  -5   46.20    3.40
   0   6   5   50.59    3.50
   1  -6   5   20.30    1.40
   1  -6   5   15.60    1.80
  -1  -6  -5   18.60    1.70
  -1  -6  -5   19.40    1.30
   1   6   5   22.60    1.80
  -1   6  -5   20.20    1.70
   1   6   5   18.70    3.50
   2  -6   5   14.60    1.20
  -2  -6  -5   12.80    1.40
   2  -6   5   15.60    1.50
   2   6   5   25.40    2.00
   2   6   5   26.20    3.30
  -2   6  -5   23.10    1.90
   3   6   5  335.97   22.00
  -3   6  -5  355.26   21.90
  -4  -6  -5   28.10    2.10
   4   6   5   62.89    4.30
   9   0  -6    0.40    1.40
   8   0  -6   61.89    4.90
   8   0  -6   67.39    6.40
  -8   0   6   68.09    5.20
  -8   0   6   72.99    4.60
   7   0  -6   68.49    5.30
   7   0  -6   69.99    6.90
  -7   0   6   78.99    5.00
  -6   0   6  308.97   22.60
  -6   0   6  299.87   23.80
  -6   0   6  338.57   21.00
  -6   0   6  367.76   21.60
  -5   0   6   15.30    1.40
   5   0  -6   20.20    1.50
  -5   0   6   20.60    3.40
  -5   0   6   18.00    2.00
  -5   0   6   22.70    2.80
  -5   0   6   17.70    1.80
  -5   0   6   18.60    1.50
  -4   0   6   72.49    5.60
  -4   0   6   90.09    6.40
   4   0  -6   78.59    5.50
  -4   0   6   75.69    5.80
  -4   0   6   77.99    5.30
   4   0  -6   78.29    5.30
  -4   0   6   92.79    7.10
  -3   0   6  297.77   19.80
  -3   0   6  325.57   21.10
   3   0  -6  300.77   20.10
   3   0  -6  288.77   20.10
  -3   0   6  333.37   21.20
   3   0  -6  324.07   19.90
  -3   0   6  304.27   20.30
  -3   0   6  330.87   20.80
  -2   0   6  869.81   51.59
   2   0  -6  703.63   54.59
   2   0  -6  782.62   51.59
  -2   0   6  749.42   51.89
  -2   0   6  938.61   52.79
   2   0  -6  768.82   51.79
  -2   0   6  915.41   52.29
  -2   0   6  823.42   51.59
   2   0  -6  801.62   51.59
   1   0  -6  266.37   19.80
   1   0  -6  303.17   19.70
   1   0  -6  267.37   19.90
  -1   0   6  351.86   20.10
  -1   0   6  360.36   20.30
   1   0  -6  286.97   19.70
  -1   0   6  346.77   19.70
   1   0  -6  299.87   19.90
   0   0  -6  865.01   54.29
   0   0  -6  801.92   54.19
   0   0   6  873.71   54.19
   0   0   6  732.73   54.19
   0   0  -6  795.72   55.79
   0   0  -6  811.92   54.39
   0   0   6  966.70   54.59
   0   0   6  941.51   55.29
   0   0  -6  875.91   54.09
   0   0   6  921.61   54.19
   0   0  -6  850.81   54.19
  -1   0  -6  768.32   54.09
   1   0   6  855.11   52.39
   1   0   6  841.72   52.49
   1   0   6  880.71   53.29
   1   0   6  905.41   52.69
  -1   0  -6  706.83   52.39
   1   0   6  869.61   53.49
  -1   0  -6  760.92   52.59
  -1   0  -6  798.22   52.39
  -1   0  -6  906.21   52.59
  -2   0  -6  659.13   42.90
  -2   0  -6  712.13   42.80
   2   0   6  729.93   42.70
  -2   0  -6  694.13   42.70
  -2   0  -6  574.94   42.60
  -3   0  -6  156.18    9.90
  -3   0  -6  161.28   10.00
  -3   0  -6  163.78   10.10
  -3   0  -6  148.59   10.20
   3   0   6  135.59   10.00
  -4   0  -6  720.53   47.30
   4   0   6  781.82   46.90
  -4   0  -6  755.12   47.10
  -4   0  -6  704.33   47.10
  -5   0  -6   76.89    5.20
  -5   0  -6   67.79    5.10
   5   0   6   73.79    4.90
  -5   0  -6   68.69    5.30
  -6   0  -6  173.18   10.70
   6   0   6  161.38   10.70
   6   0   6  152.08   10.60
  -6   0  -6  170.68   11.10
   7   0   6  237.58   16.10
  -7   0  -6  278.37   16.30
   7   0   6  235.48   16.10
  -7   0  -6  256.97   16.60
   7   0   6  250.67   16.20
   8   0   6    1.30    0.60
  -8   0  -6    2.40    1.00
  -8   0  -6    1.00    0.50
   8   0   6    0.80    0.50
  -9  -1   6    3.00    0.40
  -9  -1   6    2.60    0.40
   9  -1  -6    1.70    1.50
   9   1  -6    0.90    1.50
  -9   1   6    1.40    0.30
   9   1  -6    1.50    0.70
   8  -1  -6   13.10    3.40
  -8  -1   6   10.80    1.20
  -8  -1   6   10.70    1.00
   8   1  -6   10.60    2.50
   8   1  -6    9.00    1.30
  -8   1   6   10.20    1.10
  -8   1   6    9.60    1.60
   7  -1  -6    2.00    1.90
  -7  -1   6    2.00    0.50
  -7  -1   6    1.70    0.60
   7  -1  -6    2.80    1.00
  -7   1   6    2.20    1.00
   7   1  -6    3.40    1.90
   7   1  -6    2.30    1.00
  -7   1   6    2.30    0.50
   7   1  -6    2.40    0.60
   6  -1  -6  382.46   23.20
  -6  -1   6  381.56   22.40
  -6  -1   6  283.17   25.30
  -6   1   6  487.55   28.20
  -6   1   6  419.46   27.60
  -6   1   6  434.36   29.10
  -6   1   6  382.36   30.00
   6   1  -6  448.36   27.80
  -5  -1   6   61.09    4.00
  -5  -1   6   62.19    6.80
  -5  -1   6   52.09    4.00
  -5  -1   6   51.69    5.40
  -5  -1   6   63.39    4.80
  -5   1   6   95.29    7.70
  -5   1   6   91.39    5.60
  -5   1   6   93.39    6.90
   5   1  -6   83.69    5.80
  -5   1   6   73.59    5.60
   5   1  -6   81.19    6.00
  -4  -1   6  573.94   38.00
  -4  -1   6  586.44   38.60
  -4  -1   6  586.04   39.50
  -4  -1   6  570.04   40.30
   4  -1  -6  659.13   45.40
   4  -1  -6  619.74   38.20
  -4   1   6  605.94   41.40
  -4   1   6  648.74   42.10
  -4   1   6  732.33   42.80
   4   1  -6  638.54   41.40
  -4   1   6  596.14   41.10
   4   1  -6  671.03   41.30
  -4   1   6  660.83   41.60
  -3  -1   6  101.69    7.30
  -3  -1   6  100.29    8.50
   3  -1  -6  106.69    7.00
   3  -1  -6  112.59   11.50
   3  -1  -6  104.79    7.10
  -3  -1   6  106.19    8.10
  -3  -1   6  101.59    6.90
   3   1  -6  149.88    9.60
   3   1  -6  153.78    9.60
  -3   1   6  139.79    9.90
  -3   1   6  146.09   10.00
   3   1  -6  150.08    9.80
  -3   1   6  164.18    9.60
  -3   1   6  138.09   10.50
   2  -1  -6  979.90   65.29
  -2  -1   6  967.80   61.49
   2  -1  -6  960.90   61.09
  -2  -1   6  999.10   60.99
   2  -1  -6  947.61   61.29
  -2  -1   6  896.11   62.19
  -2  -1   6 1008.70   62.09
   2   1  -6  988.40   62.99
   2   1  -6 1010.80   63.29
   2   1  -6  958.50   63.09
  -2   1   6 1102.09   63.39
  -2   1   6  917.31   62.99
   2   1  -6  956.70   63.19
  -2   1   6 1026.70   62.99
  -2   1   6 1058.59   63.99
   2   1  -6  967.60   63.09
   1  -1  -6  139.39    9.70
  -1  -1   6  165.58   10.60
   1  -1  -6  147.29    9.80
   1  -1  -6  137.89   10.00
  -1  -1   6  158.58   10.20
  -1  -1   6  139.79    9.80
  -1  -1   6  157.78    9.70
  -1  -1   6  146.89   11.20
   1  -1  -6  172.78   18.70
   1   1  -6  166.38   10.70
  -1   1   6  143.79   10.90
   1   1  -6  158.58   11.10
  -1   1   6  149.29   10.50
   1   1  -6  173.58   10.50
   1   1  -6  158.88   10.70
   1   1  -6  182.88   10.60
   1   1  -6  146.49   10.70
  -1   1   6  187.88   10.40
   1   1  -6  177.78   10.50
   0  -1  -6  392.46   25.70
   0  -1   6  346.57   26.20
   0  -1  -6  425.46   25.70
   0  -1  -6  414.36   27.60
   0  -1  -6  441.06   25.60
   0   1  -6  383.06   25.10
   0   1  -6  412.46   25.10
   0   1  -6  431.16   25.00
   0   1  -6  389.36   26.30
   0   1  -6  401.26   25.60
   0   1   6  352.06   25.30
   0   1  -6  384.86   24.90
  -1  -1  -6  509.45   34.90
  -1  -1  -6  589.94   35.00
  -1  -1  -6  583.14   34.70
   1  -1   6  520.65   36.10
   1  -1   6  483.35   34.80
  -1  -1  -6  603.14   34.80
   1   1   6  575.24   40.90
  -1   1  -6  601.64   42.00
  -1   1  -6  681.43   40.60
   1   1   6  656.63   41.20
   1   1   6  666.23   40.50
  -1   1  -6  636.34   40.70
  -1   1  -6  583.04   40.60
   1   1   6  717.53   40.40
  -2  -1  -6  109.99    7.70
  -2  -1  -6  105.49    7.90
  -2  -1  -6  135.39    7.90
   2  -1   6  126.89    7.90
  -2  -1  -6  120.09    8.10
  -2   1  -6  145.29    9.80
  -2   1  -6  132.89    9.60
  -2   1  -6  167.18    9.80
  -2   1  -6  151.18    9.90
  -2   1  -6  156.38    9.90
   3  -1   6  203.58   13.00
  -3  -1  -6  205.98   13.00
  -3  -1  -6  186.58   13.10
  -3  -1  -6  188.38   12.80
  -3  -1  -6  210.98   13.20
  -3   1  -6  230.18   14.50
   3   1   6  231.88   14.60
  -3   1  -6  218.78   14.70
  -3   1  -6  228.98   14.70
  -3   1  -6  220.88   14.80
  -3   1  -6  227.98   14.50
  -4  -1  -6  104.49    7.60
  -4  -1  -6  114.39    7.50
   4  -1   6  103.89    7.40
  -4  -1  -6  101.39    7.30
  -4  -1  -6  115.19    7.70
  -4  -1  -6  120.99    7.30
  -4   1  -6  148.49    9.20
  -4   1  -6  143.79    9.40
  -4   1  -6  129.69    9.40
   4   1   6  137.69    9.10
  -4   1  -6  140.79    9.40
  -5  -1  -6   15.80    1.70
  -5  -1  -6   17.20    1.50
  -5  -1  -6   12.60    1.80
   5  -1   6   16.60    1.50
  -5  -1  -6   15.20    1.80
  -5  -1  -6   16.10    1.90
  -5   1  -6   13.80    1.60
  -5   1  -6   11.10    1.60
  -5   1  -6   11.30    1.60
  -5   1  -6   13.10    1.30
   5   1   6   13.70    1.40
   6  -1   6   13.50    1.40
  -6  -1  -6   12.30    1.20
   6  -1   6   12.20    1.30
   6  -1   6   10.80    1.20
  -6  -1  -6   12.80    1.70
  -6  -1  -6   14.20    1.40
  -6  -1  -6   11.30    1.50
   6   1   6    9.50    1.00
   6   1   6    9.50    1.20
   6   1   6    7.80    1.00
  -6   1  -6    9.40    1.30
   6   1   6   10.80    1.60
   7  -1   6  178.98   11.40
   7  -1   6  156.48   11.40
   7  -1   6  190.48   11.40
  -7  -1  -6  170.08   12.40
  -7  -1  -6  188.08   11.50
   7   1   6  179.48   12.30
   7   1   6  187.58   12.20
   7   1   6  196.88   12.40
  -7   1  -6  192.88   12.30
  -7   1  -6  192.08   12.60
  -8  -1  -6   59.59    4.70
   8   1   6   57.39    3.90
   8  -2  -6   88.99    8.00
  -8  -2   6  101.29    6.40
  -8  -2   6  102.99    6.30
   8   2  -6  149.39   10.80
  -8   2   6  136.09    9.20
  -7  -2   6  131.39    8.50
   7  -2  -6  132.79   10.70
  -7   2   6  196.58   12.40
   7   2  -6  172.78   13.90
   7   2  -6  197.08   12.40
  -7   2   6  200.68   12.90
  -6  -2   6   65.99    5.00
  -6  -2   6   59.59    4.20
   6  -2  -6   63.69    6.60
   6   2  -6  123.39    7.80
  -6   2   6  113.79    7.80
  -6   2   6  121.99    8.30
  -5  -2   6   98.59    8.80
  -5  -2   6   89.89    6.90
  -5  -2   6  123.29    8.20
  -5  -2   6  112.19    7.40
  -5  -2   6   91.69   10.00
  -5   2   6  115.99   10.00
  -5   2   6  140.29    8.80
  -5   2   6  137.59    9.30
  -5   2   6  149.19   11.10
   5   2  -6  140.69    9.00
   4  -2  -6   21.90    3.30
  -4  -2   6   22.80    2.30
  -4  -2   6   16.10    2.10
  -4  -2   6   18.20    1.70
  -4  -2   6   19.00    4.00
  -4   2   6   39.20    2.50
  -4   2   6   33.90    2.90
   4   2  -6   36.20    2.40
   4   2  -6   36.20    2.60
  -4   2   6   36.20    3.60
   4   2  -6   32.40    2.80
   3  -2  -6  200.38   12.50
  -3  -2   6  186.18   12.90
  -3  -2   6  180.68   12.20
   3  -2  -6  188.38   14.00
  -3  -2   6  189.78   14.10
  -3  -2   6  165.38   14.30
   3  -2  -6  219.38   18.90
  -3   2   6  266.17   16.40
   3   2  -6  233.38   15.10
   3   2  -6  216.38   15.90
  -3   2   6  248.38   15.20
  -3   2   6  230.38   15.60
  -3   2   6  224.58   16.00
   3   2  -6  246.08   15.30
   3   2  -6  247.48   15.30
  -3   2   6  217.68   15.50
   3   2  -6  250.67   15.50
   2  -2  -6  339.17   22.60
  -2  -2   6  298.67   21.00
   2  -2  -6  319.27   26.80
  -2  -2   6  341.17   21.70
  -2  -2   6  332.57   23.10
   2  -2  -6  357.96   21.40
   2   2  -6  406.16   25.80
  -2   2   6  435.76   26.20
  -2   2   6  389.96   26.40
  -2   2   6  442.26   26.80
   2   2  -6  406.26   25.90
   2   2  -6  366.36   26.50
   2   2  -6  391.06   25.90
   2   2  -6  407.76   26.00
  -1  -2   6  116.29    9.90
   1  -2  -6  158.38   10.30
   1  -2  -6  134.39    9.30
  -1  -2   6  143.79    9.00
  -1   2   6  188.58   11.50
  -1   2   6  168.88   10.40
  -1   2   6  174.78   10.50
   1   2  -6  165.68   10.60
   1   2  -6  151.88   11.40
   1   2  -6  161.38   10.70
  -1   2   6  144.99   10.90
   1   2  -6  153.58   10.50
  -1   2   6  165.38   11.00
   0  -2  -6  268.87   17.00
   0  -2  -6  259.47   16.60
   0  -2   6  260.67   16.80
   0  -2   6  253.37   18.40
   0   2  -6  230.98   16.80
   0   2   6  254.77   15.80
   0   2   6  270.67   16.70
   0   2   6  235.58   16.40
   0   2   6  242.78   15.90
   0   2  -6  260.17   16.00
   0   2  -6  245.68   16.00
  -1  -2  -6  479.55   30.50
   1  -2   6  451.15   31.90
   1  -2   6  508.75   30.40
  -1  -2  -6  435.56   30.40
  -1  -2  -6  467.35   30.30
  -1  -2  -6  513.75   30.10
  -1   2  -6  568.14   36.60
  -1   2  -6  533.75   35.60
   1   2   6  557.54   36.10
   1   2   6  556.44   35.40
   1   2   6  579.24   35.40
  -1   2  -6  547.25   35.50
  -1   2  -6  575.14   35.60
   2  -2   6   49.99    5.20
   2  -2   6   56.39    3.80
  -2  -2  -6   55.49    4.00
  -2  -2  -6   57.89    3.60
  -2  -2  -6   47.40    3.80
  -2  -2  -6   50.89    3.80
  -2   2  -6   59.69    4.00
  -2   2  -6   58.09    4.10
  -2   2  -6   62.39    3.90
   2   2   6   61.69    4.70
   2   2   6   48.40    3.80
  -3  -2  -6   50.19    3.60
   3  -2   6   54.49    3.80
  -3  -2  -6   50.19    4.00
  -3  -2  -6   55.59    4.10
   3   2   6   51.49    4.00
  -3   2  -6   49.99    3.90
  -3   2  -6   55.79    3.80
  -3   2  -6   54.69    3.70
  -4  -2  -6  152.88   11.10
  -4  -2  -6  159.08   10.70
  -4  -2  -6  168.88   11.00
   4  -2   6  171.58   10.90
   4   2   6  222.58   13.70
  -4   2  -6  230.78   13.70
  -4   2  -6  202.78   13.70
  -4   2  -6  202.18   13.90
  -4   2  -6  200.18   14.00
  -5  -2  -6  265.57   18.80
   5  -2   6  265.57   17.40
   5  -2   6  292.87   17.50
  -5  -2  -6  266.57   17.50
   5  -2   6  276.97   17.90
   5   2   6  323.97   21.30
  -5   2  -6  342.87   21.30
   5   2   6  342.27   21.40
   5   2   6  328.67   21.20
   5   2   6  326.77   21.40
   6  -2   6   47.50    3.40
   6  -2   6   51.49    3.40
  -6  -2  -6   50.49    4.70
   6   2   6   60.09    4.30
   6   2   6   59.79    4.30
   6   2   6   67.39    4.50
   6   2   6   59.19    4.20
  -6   2  -6   61.59    4.40
  -7  -2  -6  173.28   12.30
   7  -2   6  180.88   11.40
   7   2   6  250.37   14.60
   7   2   6  208.28   14.40
   7   2   6  203.78   14.40
  -7   2  -6  236.28   14.40
  -8  -2  -6   20.20    2.00
  -8  -2  -6   22.10    2.10
   8   2   6   22.50    1.70
   8   2   6   22.40    1.90
  -8  -3   6   77.89    5.90
  -8  -3   6   94.09    5.60
   8   3  -6  141.19    9.70
   8   3  -6  115.59    8.20
   7  -3  -6   32.70    4.50
  -7  -3   6   35.40    3.10
  -7  -3   6   37.20    2.50
  -7   3   6   51.89    4.00
   7   3  -6   50.79    5.30
  -7   3   6   52.69    3.60
  -6  -3   6   42.40    3.60
   6  -3  -6   42.40    5.40
  -6  -3   6   43.30    2.90
   6   3  -6   48.10    5.10
   6   3  -6   53.69    3.50
  -6   3   6   47.40    4.00
  -5  -3   6   27.90    2.00
   5  -3  -6   28.90    4.60
  -5  -3   6   26.50    2.70
   5   3  -6   32.80    3.80
  -5   3   6   28.80    2.90
   5   3  -6   32.30    2.40
   4  -3  -6  447.06   28.70
  -4  -3   6  386.66   29.60
  -4  -3   6  381.86   28.00
   4   3  -6  575.34   35.00
  -4   3   6  488.25   35.50
   4   3  -6  524.15   35.90
   4   3  -6  568.44   35.20
   4   3  -6  540.85   36.60
  -4   3   6  609.34   36.70
   3  -3  -6  145.99   10.80
  -3  -3   6  117.79   10.20
   3  -3  -6  109.29    8.50
   3  -3  -6  148.09   16.30
  -3  -3   6  123.29    8.50
   3   3  -6  169.38   10.50
  -3   3   6  140.19   10.40
  -3   3   6  179.98   11.90
  -3   3   6  147.89   11.20
  -3   3   6  147.39   10.90
   3   3  -6  176.48   10.60
   3   3  -6  163.08   10.30
   3   3  -6  158.58   11.40
   2  -3  -6   56.99    9.90
   2  -3  -6   69.29    6.00
  -2  -3   6   66.89    6.40
  -2  -3   6   55.19    5.70
   2  -3  -6   56.29    4.30
   2  -3  -6   67.99    4.50
  -2   3   6   79.19    5.60
   2   3  -6   83.09    5.50
  -2   3   6   70.29    5.90
   2   3  -6   78.19    5.20
  -2   3   6   74.79    6.30
  -2   3   6   77.89    5.90
   2   3  -6   79.19    5.30
   2   3  -6   74.29    6.20
  -2   3   6   80.39    5.10
  -1  -3   6   46.50    6.90
  -1  -3   6   52.99    5.10
   1  -3  -6   58.49    4.10
   1  -3  -6   58.09    3.90
   1  -3  -6   49.20    9.20
  -1  -3   6   66.19    6.10
   1   3  -6   60.69    4.40
  -1   3   6   67.79    5.50
  -1   3   6   66.99    5.20
   1   3  -6   66.99    4.60
  -1   3   6   68.29    4.40
   1   3  -6   66.19    4.50
   1   3  -6   60.19    5.50
   0  -3   6   78.09    6.70
   0  -3  -6   88.69    5.80
   0  -3   6   96.29    8.00
   0  -3   6   95.89    5.70
   0  -3   6   69.69    8.60
   0  -3  -6   71.99   11.30
   0  -3  -6   87.79    5.90
   0   3  -6   90.59    7.70
   0   3   6  102.99    6.30
   0   3   6   94.99    7.40
   0   3   6   99.29    7.20
   0   3  -6   93.49    6.60
   0   3  -6  105.39    6.60
   0   3   6   95.59    7.20
   1  -3   6  263.17   16.10
  -1  -3  -6  236.48   16.00
  -1  -3  -6  241.98   18.00
   1   3   6  294.47   18.30
   1   3   6  279.37   19.30
  -1   3  -6  293.77   18.60
   1   3   6  295.87   18.40
  -1   3  -6  276.47   20.00
  -1   3  -6  289.87   18.60
   2  -3   6  392.66   25.60
  -2  -3  -6  421.66   25.40
  -2  -3  -6  377.26   25.50
  -2   3  -6  489.15   32.10
   2   3   6  503.65   32.90
   2   3   6  428.16   31.70
  -2   3  -6  519.55   33.80
  -2   3  -6  518.45   32.00
   2   3   6  556.54   31.90
  -3  -3  -6   19.70    2.00
   3  -3   6   18.10    1.80
  -3   3  -6   14.20    1.30
   3   3   6   12.10    1.20
  -3   3  -6   17.90    3.10
  -3   3  -6   12.60    1.40
   4  -3   6   57.49    3.90
   4  -3   6   48.70    3.30
  -4  -3  -6   51.09    3.90
  -4  -3  -6   38.70    4.60
  -4   3  -6   65.79    4.60
  -4   3  -6   62.79    4.50
   4   3   6   65.49    4.70
   4   3   6   64.89    4.40
   4   3   6   69.19    4.70
  -5  -3  -6   53.89    4.30
   5  -3   6   59.29    4.30
  -5  -3  -6   54.69    5.20
   5  -3   6   56.69    3.80
   5   3   6   69.09    4.80
   5   3   6   58.19    4.80
  -5   3  -6   68.79    4.50
   5   3   6   69.79    4.80
   5   3   6   66.09    4.50
  -6  -3  -6    0.30    1.00
   6  -3   6    0.60    0.40
  -6  -3  -6    0.40    0.60
   6   3   6    1.10    0.70
  -6   3  -6    1.60    0.50
   6   3   6    1.20    0.60
   6   3   6    1.30    0.90
  -7  -3  -6    3.50    1.00
   7   3   6    8.40    1.30
   7   3   6    6.80    0.80
   7   3   6    7.60    0.80
  -7  -4   6   10.60    1.40
  -7  -4   6   11.50    1.00
   7   4  -6   18.20    3.30
   7   4  -6   22.20    1.60
  -6  -4   6   10.60    1.70
  -6  -4   6   11.10    1.00
   6   4  -6   13.00    3.00
   6   4  -6   14.80    1.30
  -6   4   6   12.90    2.00
  -6   4   6   13.90    1.60
  -5  -4   6   88.99    5.70
  -5  -4   6   85.19    6.40
   5   4  -6  139.19    9.80
   5   4  -6  136.19    8.50
  -5   4   6  111.09    8.60
  -5   4   6  133.49    9.30
  -4  -4   6    3.80    0.60
  -4  -4   6    2.70    1.10
  -4   4   6    5.40    1.10
   4   4  -6    5.80    1.60
   4   4  -6    5.40    1.00
  -4   4   6    6.60    1.70
   4   4  -6    6.10    0.70
  -3  -4   6  157.28   11.40
  -3  -4   6  153.98   10.80
  -3  -4   6  162.78   11.50
   3  -4  -6  193.98   11.20
   3  -4  -6  175.88   10.70
   3   4  -6  321.17   21.10
  -3   4   6  352.26   22.00
   3   4  -6  285.37   21.40
   3   4  -6  344.17   21.90
  -3   4   6  307.67   21.10
   3   4  -6  342.87   20.70
  -2  -4   6   33.80    4.30
   2  -4  -6   40.00    4.70
   2  -4  -6   33.00    8.50
   2  -4  -6   35.10    2.70
  -2  -4   6   25.60    6.20
   2   4  -6   63.59    6.00
  -2   4   6   69.39    4.90
  -2   4   6   65.19    6.10
  -2   4   6   79.29    5.90
   2   4  -6   65.29    4.60
   2   4  -6   66.49    4.90
   2   4  -6   63.19    4.70
  -1  -4   6  128.09    9.60
   1  -4  -6  117.69   16.20
  -1  -4   6  102.19   12.00
   1   4  -6  208.08   16.10
  -1   4   6  206.58   15.90
   1   4  -6  228.38   14.80
   1   4  -6  222.78   14.80
  -1   4   6  255.17   14.90
   1   4  -6  235.28   14.60
   1   4  -6  213.68   14.60
  -1   4   6  226.88   14.60
  -1   4   6  243.68   15.80
   0  -4   6  151.88   11.20
   0  -4   6  140.49   13.90
   0  -4  -6  144.19   18.50
   0   4   6  271.67   17.90
   0   4  -6  298.27   18.00
   0   4  -6  244.68   19.60
   0   4  -6  308.97   18.30
   0   4  -6  302.37   18.30
   0   4   6  297.77   18.30
   0   4  -6  239.78   18.10
   1  -4   6   18.50    4.70
  -1  -4  -6   22.30    2.00
   1  -4   6   21.70    2.00
   1   4   6   24.50    1.90
  -1   4  -6   17.80    3.60
   1   4   6   22.30    1.70
  -1   4  -6   24.50    2.10
  -1   4  -6   23.50    1.90
   2  -4   6   13.00    1.70
   2  -4   6   11.90    1.70
  -2  -4  -6   12.00    1.50
   2  -4   6   13.70    1.20
  -2  -4  -6   10.70    1.50
   2   4   6   24.30    2.20
  -2   4  -6   25.90    2.00
  -2   4  -6   27.60    2.20
   2   4   6   24.00    2.40
   2   4   6   26.40    2.10
  -3  -4  -6  149.69    9.80
  -3  -4  -6  141.59   10.90
   3   4   6  230.48   15.40
   3   4   6  247.18   15.60
  -4  -4  -6  196.08   15.00
   4  -4   6  234.58   14.20
  -4   4  -6  259.47   17.20
   4   4   6  252.57   17.30
   4   4   6  289.47   17.40
   5  -4   6  136.49    9.40
  -5  -4  -6  144.79   10.20
   5   4   6  204.58   13.50
   5   4   6  208.88   13.50
  -6  -4  -6   60.89    4.20
   6   4   6  160.88    9.70
   6   4   6  133.29    9.60
  -6  -5   6   45.60    3.50
   6   5  -6   67.89    4.40
   6   5  -6   64.39    5.50
  -5  -5   6   25.10    2.40
  -5   5   6   38.30    2.90
   5   5  -6   33.70    3.80
  -4  -5   6   80.79    6.30
  -4  -5   6   91.09    6.30
   4   5  -6  169.48   10.00
  -4   5   6  136.39   11.10
  -4   5   6  157.28   10.50
   4   5  -6  158.08   11.10
  -3  -5   6   22.90    2.40
   3  -5  -6   23.60    2.00
   3  -5  -6   23.60    1.60
  -3  -5   6   18.90    2.30
  -3   5   6   38.20    3.30
  -3   5   6   35.30    4.10
   3   5  -6   37.50    3.90
   3   5  -6   40.10    2.60
   2  -5  -6  164.58   10.40
  -2  -5   6  149.69   10.70
   2  -5  -6  153.08    9.90
  -2   5   6  260.27   19.30
  -2   5   6  305.37   18.50
   2   5  -6  257.97   18.40
   2   5  -6  303.07   18.00
  -1  -5   6  238.88   18.60
  -1  -5   6  275.77   18.80
   1  -5  -6  320.47   18.60
  -1  -5   6  307.77   18.20
   1  -5  -6  284.77   18.10
   1   5  -6  453.65   30.10
   1   5  -6  527.35   30.10
  -1   5   6  450.75   31.40
  -1   5   6  459.35   30.60
  -1   5   6  479.85   30.30
   0  -5  -6   30.30    2.60
   0  -5  -6   35.60    2.30
   0  -5   6   32.20    2.90
   0  -5   6   30.20    3.00
   0  -5   6   37.30    2.40
   0  -5  -6   36.50    2.90
   0   5  -6   55.49    4.10
   0   5   6   45.40    4.20
   0   5  -6   57.39    3.90
   0   5   6   56.59    4.00
   0   5   6   52.79    4.30
   0   5  -6   62.29    3.70
  -1  -5  -6   43.50    3.50
  -1  -5  -6   40.20    3.40
  -1  -5  -6   43.70    3.10
   1  -5   6   50.99    3.20
   1  -5   6   46.60    3.60
  -1   5  -6   69.69    4.60
  -1   5  -6   66.69    4.40
   1   5   6   61.99    4.40
   1   5   6   64.69    4.50
   1   5   6   53.39    4.60
  -2  -5  -6  107.19    8.30
   2  -5   6  122.39    8.50
   2  -5   6  129.59    8.00
   2  -5   6  131.29    8.40
   2   5   6  146.29   10.90
  -2   5  -6  171.78   10.70
   2   5   6  164.08   10.90
  -2   5  -6  179.78   11.00
   3  -5   6   63.09    4.40
   3  -5   6   55.79    4.30
  -3   5  -6  100.49    6.20
   3   5   6   84.89    6.20
   3   5   6   82.39    6.10
  -3   5  -6   95.09    6.00
  -4  -5  -6   55.29    4.60
   4  -5   6   58.89    4.10
   4   5   6   66.79    4.80
  -4   5  -6   70.19    4.60
   4   5   6   72.49    4.90
  -5  -5  -6   24.20    1.90
   5   5   6   62.29    3.90
   5   5   6   49.99    3.90
  -4  -6   6    3.80    0.90
  -4  -6   6    4.60    0.90
   4   6  -6   11.20    0.90
   4   6  -6   10.90    2.00
   3  -6  -6   92.39    5.40
  -3  -6   6   78.79    5.90
  -3  -6   6   83.19    6.00
   3   6  -6  163.28    9.60
  -3   6   6  135.99   10.00
  -2  -6   6   40.30    3.50
   2  -6  -6   50.29    3.00
  -2  -6   6   46.30    3.50
   2   6  -6   64.59    4.00
  -2   6   6   56.49    4.60
  -1  -6   6   71.29    4.60
   1  -6  -6   72.69    4.50
  -1  -6   6   65.69    5.00
  -1   6   6   89.69    6.80
   1   6  -6  104.39    6.30
  -1   6   6   98.89    6.50
   0  -6  -6   31.70    2.10
   0  -6   6   33.10    2.60
   0  -6  -6   24.90    2.30
   0  -6   6   33.10    2.20
   0   6  -6   42.40    2.80
   0   6   6   47.10    3.10
   0   6  -6   39.80    2.90
   1  -6   6   15.30    1.20
   1  -6   6   14.40    1.60
  -1  -6  -6   15.30    1.10
   1   6   6   26.40    2.10
   1   6   6   24.30    3.40
  -1   6  -6   24.60    1.90
   2  -6   6  116.69    7.80
   2   6   6  138.49    9.40
  -2   6  -6  150.48    9.30
   3  -6   6   57.49    4.00
   3   6   6   72.29    4.80
  -9   0   7   37.50    2.50
   9   0  -7   36.40    4.00
   8   0  -7   -0.10    1.50
   8   0  -7    0.50    0.80
  -8   0   7   -0.10    0.80
  -8   0   7    0.10    0.50
   7   0  -7  334.17   24.20
  -7   0   7  418.36   24.70
   7   0  -7  364.86   25.60
  -7   0   7  386.26   24.00
  -6   0   7   45.00    3.50
   6   0  -7   31.80    3.20
  -6   0   7   45.60    2.90
   6   0  -7   33.10    4.40
  -6   0   7   35.50    4.20
  -5   0   7   41.30    3.00
  -5   0   7   40.70    3.00
  -5   0   7   46.90    4.40
  -5   0   7   42.90    5.10
  -5   0   7   43.30    3.70
  -5   0   7   42.40    3.50
   5   0  -7   45.00    3.40
   4   0  -7  249.68   16.20
  -4   0   7  268.77   17.60
  -4   0   7  209.48   15.90
  -4   0   7  245.88   16.60
  -4   0   7  265.97   17.10
  -4   0   7  278.27   17.90
  -4   0   7  223.98   16.30
  -4   0   7  253.87   15.90
  -3   0   7  229.38   15.00
  -3   0   7  249.68   16.50
   3   0  -7  232.58   15.40
   3   0  -7  233.98   15.10
   3   0  -7  244.98   15.40
  -3   0   7  227.78   15.60
  -3   0   7  214.28   15.10
  -3   0   7  243.38   16.00
  -3   0   7  252.07   16.40
  -2   0   7   82.49    5.70
  -2   0   7   76.19    4.80
  -2   0   7   68.89    5.30
   2   0  -7   65.79    5.20
   2   0  -7   74.19    5.10
  -2   0   7   83.39    5.80
   2   0  -7   66.69    4.90
  -2   0   7   74.69    5.00
   2   0  -7   68.89    4.90
  -2   0   7   85.09    6.20
   1   0  -7  431.06   28.90
  -1   0   7  489.45   29.30
   1   0  -7  458.75   29.10
   1   0  -7  431.36   29.00
  -1   0   7  494.85   30.10
  -1   0   7  464.35   28.80
  -1   0   7  445.26   29.40
   1   0  -7  462.15   28.90
   1   0  -7  408.06   29.10
  -1   0   7  472.85   28.90
   0   0  -7 1560.84  107.49
   0   0  -7 1634.24  107.29
   0   0  -7 1543.55  107.49
   0   0   7 1881.01  107.89
   0   0   7 1768.42  108.49
   0   0   7 1720.83  107.19
   0   0  -7 1693.83  107.29
   0   0   7 1774.52  107.29
   0   0  -7 1726.33  107.49
  -1   0  -7 2061.99  124.39
  -1   0  -7 1808.02  123.99
  -1   0  -7 1857.91  123.79
   1   0   7 2252.97  123.89
   1   0   7 2034.90  125.09
  -1   0  -7 1757.62  123.79
  -2   0  -7  314.87   19.50
   2   0   7  329.77   19.60
  -2   0  -7  301.37   19.80
  -2   0  -7  300.27   19.50
  -2   0  -7  309.67   19.70
  -2   0  -7  320.47   19.50
  -2   0  -7  256.87   19.40
  -3   0  -7   99.39    6.50
   3   0   7   94.89    6.60
  -3   0  -7   97.69    6.70
  -3   0  -7   94.09    6.90
  -3   0  -7   99.09    6.60
  -3   0  -7  102.09    6.60
   4   0   7  110.09    7.50
  -4   0  -7  109.69    8.00
  -4   0  -7  108.19    7.80
  -4   0  -7  124.39    7.80
  -4   0  -7  120.69    7.80
   5   0   7   14.00    1.50
   5   0   7   14.50    1.40
   5   0   7   15.70    1.60
  -5   0  -7   19.10    1.80
   5   0   7   17.10    1.50
  -5   0  -7   19.50    1.50
  -6   0  -7   11.50    1.60
  -6   0  -7   11.50    1.40
   6   0   7   10.40    1.30
  -6   0  -7   13.80    1.30
   6   0   7   10.40    1.40
   6   0   7   11.40    1.30
   7   0   7  136.19    8.60
   7   0   7  122.89    8.60
   7   0   7  132.99    8.70
  -7   0  -7  141.89    8.80
  -8   0  -7    3.70    1.00
   8   0   7    3.30    0.50
   9  -1  -7   10.70    2.50
  -9  -1   7   10.20    0.90
  -9  -1   7    9.40    0.80
  -9   1   7   13.40    1.10
   9   1  -7   14.60    2.80
  -8  -1   7   11.10    1.00
   8  -1  -7   13.20    3.20
  -8  -1   7    9.20    1.00
   8   1  -7   14.60    3.10
   8   1  -7    8.60    1.60
  -8   1   7   13.10    1.30
   7  -1  -7    7.30    2.30
  -7  -1   7    6.80    0.80
  -7  -1   7    8.80    1.10
  -7   1   7    6.50    1.00
   7   1  -7    4.90    2.10
  -7   1   7    6.30    1.40
  -6  -1   7   73.49    5.00
   6  -1  -7   75.49    5.50
   6  -1  -7   79.89    7.00
   6   1  -7   72.29    6.90
  -6   1   7   95.49    6.10
  -6   1   7   82.59    5.40
   6   1  -7   75.29    5.40
  -5  -1   7  276.07   18.70
  -5  -1   7  272.07   17.80
  -5  -1   7  272.47   19.60
  -5  -1   7  282.27   20.90
  -5  -1   7  287.67   17.90
   5   1  -7  318.97   19.50
  -5   1   7  311.97   19.90
  -5   1   7  274.47   19.40
  -5   1   7  289.77   20.00
   5   1  -7  313.07   19.80
  -5   1   7  297.87   20.60
  -5   1   7  329.77   21.60
  -5   1   7  297.27   19.40
   4  -1  -7   48.70    7.90
  -4  -1   7   48.10    4.00
  -4  -1   7   51.39    3.40
  -4  -1   7   51.99    4.90
  -4  -1   7   38.60    3.90
   4  -1  -7   46.60    3.50
  -4  -1   7   50.19    5.50
  -4   1   7   51.19    4.10
   4   1  -7   51.09    3.90
  -4   1   7   61.39    5.10
  -4   1   7   51.99    4.50
  -4   1   7   49.00    4.00
  -4   1   7   50.69    3.50
   4   1  -7   54.09    3.60
  -4   1   7   50.29    4.70
   3  -1  -7  325.67   21.80
   3  -1  -7  349.17   26.60
  -3  -1   7  338.87   22.10
   3  -1  -7  354.06   21.70
  -3  -1   7  317.27   21.70
  -3  -1   7  356.16   22.90
  -3  -1   7  304.87   23.30
  -3  -1   7  358.46   21.50
  -3  -1   7  332.07   23.30
   3   1  -7  364.36   22.80
   3   1  -7  360.16   23.10
  -3   1   7  307.27   23.20
  -3   1   7  397.46   24.10
  -3   1   7  339.87   23.60
  -3   1   7  345.57   23.30
   3   1  -7  360.96   22.90
  -3   1   7  397.76   22.80
  -2  -1   7   37.60    3.60
  -2  -1   7   36.90    4.20
  -2  -1   7   36.90    2.80
  -2  -1   7   33.20    3.10
   2  -1  -7   35.90    2.70
   2  -1  -7   35.20    2.90
  -2  -1   7   37.80    2.50
   2   1  -7   31.30    2.20
   2   1  -7   30.00    2.50
   2   1  -7   32.20    2.60
   2   1  -7   33.00    2.60
  -2   1   7   30.10    3.00
   2   1  -7   30.80    2.40
  -2   1   7   38.10    2.30
  -2   1   7   38.60    2.80
  -1  -1   7  302.37   18.80
   1  -1  -7  276.67   18.90
  -1  -1   7  308.07   19.00
   1  -1  -7  315.27   19.20
  -1  -1   7  297.37   19.80
   1  -1  -7  276.57   19.00
   1   1  -7  266.17   18.60
  -1   1   7  262.07   18.40
   1   1  -7  337.87   18.70
  -1   1   7  246.48   18.30
  -1   1   7  256.37   18.80
   1   1  -7  326.57   18.40
   1   1  -7  285.57   18.60
   1   1  -7  331.37   18.50
   0  -1   7  391.96   26.40
   0  -1  -7  387.76   24.70
   0  -1  -7  393.76   24.90
   0  -1  -7  416.56   24.60
   0  -1  -7  383.06   24.70
   0  -1   7  350.66   24.70
   0   1  -7  327.47   23.00
   0   1   7  370.26   22.80
   0   1   7  375.26   22.30
   0   1   7  324.47   23.20
   0   1  -7  336.27   22.40
   0   1  -7  338.17   22.60
   0   1   7  352.76   22.40
   0   1  -7  369.06   22.60
   0   1  -7  374.16   22.50
  -1  -1  -7  444.36   26.10
  -1  -1  -7  437.56   26.30
  -1  -1  -7  391.36   26.30
   1  -1   7  405.86   26.30
  -1  -1  -7  438.76   26.50
   1  -1   7  359.46   27.60
  -1  -1  -7  404.76   26.30
  -1   1  -7  380.06   26.30
  -1   1  -7  429.36   26.50
  -1   1  -7  394.46   26.50
  -1   1  -7  451.25   26.40
   1   1   7  372.46   26.80
   1   1   7  417.76   26.20
   1   1   7  446.66   26.30
  -1   1  -7  393.96   26.30
  -1   1  -7  440.36   26.50
   1   1   7  418.56   28.00
  -2  -1  -7  305.77   18.40
   2  -1   7  265.07   18.40
  -2  -1  -7  312.97   18.40
  -2  -1  -7  251.17   18.50
  -2  -1  -7  281.37   18.30
  -2  -1  -7  300.57   18.70
  -2   1  -7  337.77   20.70
  -2   1  -7  315.47   20.90
  -2   1  -7  303.37   21.00
  -2   1  -7  329.07   20.80
  -2   1  -7  336.57   20.70
  -3  -1  -7  195.88   11.70
  -3  -1  -7  187.38   12.10
  -3  -1  -7  163.08   11.60
   3  -1   7  161.18   11.70
  -3  -1  -7  186.28   11.80
   3   1   7  191.28   12.50
  -3   1  -7  197.08   12.60
  -3   1  -7  176.88   12.80
  -3   1  -7  202.68   12.50
  -3   1  -7  179.78   12.70
  -3   1  -7  209.48   12.40
  -4  -1  -7  261.27   16.40
  -4  -1  -7  258.57   16.70
   4  -1   7  229.68   16.30
  -4  -1  -7  229.18   16.20
  -4  -1  -7  276.47   16.60
   4   1   7  251.67   16.20
  -4   1  -7  282.27   16.30
  -4   1  -7  254.37   16.60
  -4   1  -7  255.17   16.50
  -4   1  -7  216.18   16.60
   5  -1   7  448.66   28.00
  -5  -1  -7  389.76   28.00
  -5  -1  -7  401.66   29.00
   5  -1   7  455.35   28.10
  -5  -1  -7  507.35   28.40
   5  -1   7  442.66   28.00
   5   1   7  456.05   30.40
   5   1   7  435.36   30.50
   5   1   7  491.45   30.60
   5   1   7  482.65   30.50
  -5   1  -7  533.35   30.80
   6  -1   7   28.00    2.10
   6  -1   7   27.00    2.00
   6  -1   7   28.40    2.20
  -6  -1  -7   27.70    2.30
  -6  -1  -7   25.30    2.00
  -6   1  -7   43.50    3.20
   6   1   7   33.10    2.80
   6   1   7   34.70    3.00
  -6   1  -7   43.40    2.90
   6   1   7   48.80    4.10
   6   1   7   39.30    2.90
  -7  -1  -7   45.00    3.30
   7  -1   7   51.29    3.40
   7  -1   7   42.90    3.20
  -7  -1  -7   47.10    4.20
  -7   1  -7   59.69    4.00
   7   1   7   55.99    4.00
   7   1   7   58.79    4.00
  -8  -1  -7   13.60    1.60
  -8  -1  -7   14.70    1.70
   8   1   7   20.70    1.60
  -8   1  -7   22.80    2.20
  -8  -2   7   28.30    2.10
   8  -2  -7   32.00    4.00
  -8  -2   7   30.00    2.10
  -8   2   7   31.40    2.50
   8   2  -7   33.30    2.40
   8   2  -7   40.50    4.30
   7  -2  -7   59.19    6.00
  -7  -2   7   55.69    3.90
  -7  -2   7   59.29    3.90
   7   2  -7   70.69    6.50
  -7   2   7   72.09    5.40
  -7   2   7   69.19    4.80
   7   2  -7   69.89    4.80
   6  -2  -7   45.90    5.20
  -6  -2   7   42.80    3.00
  -6  -2   7   40.90    2.90
   6   2  -7   57.29    3.90
  -6   2   7   51.59    3.80
  -6   2   7   58.59    4.50
  -5  -2   7   33.00    5.50
  -5  -2   7   35.60    2.70
   5  -2  -7   37.40    8.00
  -5   2   7   49.50    3.90
  -5   2   7   41.30    4.30
   5   2  -7   47.20    3.40
  -5   2   7   43.10    3.30
  -5   2   7   53.29    5.30
  -4  -2   7  289.07   21.40
  -4  -2   7  296.77   19.20
  -4  -2   7  308.07   18.40
  -4  -2   7  246.78   20.20
   4   2  -7  309.97   21.40
  -4   2   7  303.17   21.10
  -4   2   7  368.26   22.90
   4   2  -7  333.37   21.20
  -4   2   7  310.57   21.60
  -4   2   7  310.27   22.40
  -4   2   7  381.06   21.10
   3  -2  -7  185.08   11.10
  -3  -2   7  160.08   12.90
  -3  -2   7  170.18   11.50
  -3  -2   7  175.88   10.60
   3  -2  -7  156.08   12.40
  -3  -2   7  159.78   12.40
  -3  -2   7  148.09   10.90
   3   2  -7  208.18   13.30
   3   2  -7  207.48   13.10
   3   2  -7  211.58   13.10
  -3   2   7  174.68   13.40
  -3   2   7  207.28   12.90
  -3   2   7  211.38   14.30
  -3   2   7  204.48   13.40
   3   2  -7  192.78   12.90
   2  -2  -7   27.20    2.30
   2  -2  -7   33.70    3.60
  -2  -2   7   30.80    2.90
  -2  -2   7   32.90    3.70
   2  -2  -7   33.90    6.20
  -2  -2   7   29.60    2.40
   2  -2  -7   29.40    2.50
  -2  -2   7   23.70    3.90
   2   2  -7   43.30    3.10
  -2   2   7   37.30    3.40
  -2   2   7   39.50    3.50
   2   2  -7   39.70    2.80
  -2   2   7   35.60    2.70
   2   2  -7   36.70    3.00
   2   2  -7   40.20    2.90
  -2   2   7   44.60    3.90
  -2   2   7   46.60    3.30
   2   2  -7   38.30    3.60
  -1  -2   7  354.46   27.10
   1  -2  -7  422.36   25.40
  -1  -2   7  409.06   26.30
   1  -2  -7  386.06   25.20
  -1   2   7  499.45   29.40
   1   2  -7  432.56   29.70
   1   2  -7  485.25   29.60
   1   2  -7  443.36   30.40
  -1   2   7  474.05   30.00
  -1   2   7  473.15   30.10
   1   2  -7  473.15   29.50
  -1   2   7  492.05   30.60
   1   2  -7  421.06   29.40
  -1   2   7  441.46   30.00
   0  -2  -7    4.20    0.80
   0  -2   7    3.70    2.00
   0  -2  -7    4.50    0.70
   0  -2   7    5.70    1.10
   0  -2  -7    3.20    0.80
   0  -2   7    2.60    1.80
   0   2   7    2.00    0.50
   0   2  -7    3.10    0.60
   0   2  -7    1.70    0.40
   0   2   7    1.40    0.30
   0   2   7    2.00    1.10
   0   2   7    1.50    0.90
   0   2  -7    2.00    1.10
   0   2  -7    2.60    0.70
  -1  -2  -7  336.67   21.00
   1  -2   7  297.77   22.60
   1  -2   7  309.47   20.80
  -1  -2  -7  336.77   20.50
  -1  -2  -7  331.37   20.70
  -1   2  -7  375.76   22.70
  -1   2  -7  355.36   22.80
  -1   2  -7  378.96   23.80
   1   2   7  329.17   22.60
   1   2   7  337.17   23.30
   2  -2   7   44.00    3.40
  -2  -2  -7   45.30    3.50
  -2  -2  -7   49.40    3.10
  -2  -2  -7   46.00    3.60
   2  -2   7   41.50    4.90
  -2   2  -7   48.60    3.60
  -2   2  -7   53.09    3.80
  -2   2  -7   54.09    3.70
   2   2   7   49.80    4.40
  -2   2  -7   56.29    4.90
   2   2   7   55.49    3.50
  -2   2  -7   51.39    3.60
  -3  -2  -7  114.79    7.10
  -3  -2  -7   98.89    7.40
   3  -2   7  102.89    7.30
  -3  -2  -7  112.39    7.60
  -3   2  -7  106.69    7.20
  -3   2  -7  106.29    6.90
   3   2   7  107.39    6.80
  -3   2  -7   91.79    6.90
  -3   2  -7  119.99    7.10
  -3   2  -7   96.99    6.70
  -4  -2  -7  201.48   12.50
   4  -2   7  174.18   12.10
  -4  -2  -7  167.88   12.30
  -4  -2  -7  191.38   11.90
   4   2   7  243.08   16.40
  -4   2  -7  284.57   16.50
  -4   2  -7  219.58   16.80
  -4   2  -7  241.68   16.70
  -4   2  -7  288.27   16.50
   5  -2   7   23.90    1.70
  -5  -2  -7   17.00    2.40
  -5  -2  -7   27.20    3.20
  -5  -2  -7   22.10    2.10
   5  -2   7   21.90    1.80
  -5  -2  -7   21.20    1.80
   5  -2   7   24.80    2.30
  -5   2  -7   31.40    2.40
   5   2   7   30.90    2.40
   5   2   7   30.10    2.50
   5   2   7   34.00    2.60
   5   2   7   26.20    2.30
  -6  -2  -7   26.10    3.10
  -6  -2  -7   22.20    2.10
   6  -2   7   25.00    1.80
   6  -2   7   23.40    1.90
   6   2   7   22.80    2.10
   6   2   7   24.00    2.10
  -6   2  -7   28.00    2.20
   6   2   7   29.40    2.40
   6   2   7   25.50    2.10
  -7  -2  -7   48.20    3.90
   7  -2   7   47.90    3.30
  -7  -2  -7   52.09    4.20
   7   2   7   70.39    4.70
   7   2   7   76.49    4.90
   7   2   7   67.99    4.80
  -7   2  -7   69.39    4.70
  -8  -3   7   25.00    1.80
   8   3  -7   25.10    3.30
   8   3  -7   20.10    1.60
  -7  -3   7  133.79    8.30
  -7  -3   7  115.19    8.70
   7  -3  -7  138.49   10.30
   7   3  -7  183.58   10.40
  -7   3   7  150.48   10.30
   7   3  -7  154.68   11.70
  -7   3   7  150.58   10.40
  -6  -3   7   35.40    2.50
  -6  -3   7   33.90    3.10
   6  -3  -7   37.30    4.80
   6   3  -7   46.40    3.10
   6   3  -7   35.10    4.50
  -6   3   7   39.60    3.60
  -6   3   7   45.80    3.10
  -5  -3   7  136.79   10.50
  -5  -3   7  151.78    9.90
   5  -3  -7  158.58   12.20
  -5  -3   7  168.58   10.50
  -5   3   7  186.48   13.60
   5   3  -7  198.18   14.30
  -5   3   7  205.28   13.10
   5   3  -7  213.68   13.00
  -4  -3   7   26.60    6.60
  -4  -3   7   34.30    2.90
   4  -3  -7   33.70    4.60
   4  -3  -7   40.20    8.30
  -4   3   7   43.90    3.60
   4   3  -7   57.79    3.70
  -4   3   7   44.70    3.50
  -4   3   7   54.99    5.10
   4   3  -7   50.09    3.50
  -4   3   7   48.60    4.20
   3  -3  -7  228.08   21.30
   3  -3  -7  212.58   15.40
  -3  -3   7  200.08   13.10
  -3  -3   7  167.98   17.80
  -3   3   7  271.37   16.80
   3   3  -7  256.37   15.30
   3   3  -7  229.68   15.00
  -3   3   7  204.38   15.00
   3   3  -7  259.47   15.30
  -3   3   7  217.78   16.10
  -3   3   7  225.28   15.00
  -3   3   7  253.07   15.90
   3   3  -7  216.68   16.10
  -3   3   7  213.98   15.20
   2  -3  -7   39.20    4.30
   2  -3  -7   35.80    2.80
  -2  -3   7   30.50    4.10
   2  -3  -7   36.20    7.60
  -2  -3   7   29.00    6.00
  -2  -3   7   38.90    5.00
   2  -3  -7   39.40    3.00
  -2   3   7   36.60    3.70
  -2   3   7   36.30    3.30
  -2   3   7   28.80    3.20
   2   3  -7   35.90    2.80
  -2   3   7   34.50    2.60
  -2   3   7   31.20    2.40
   2   3  -7   31.20    3.50
  -2   3   7   26.20    2.30
   2   3  -7   35.70    2.60
  -2   3   7   33.60    2.90
   2   3  -7   32.40    2.40
  -1  -3   7  319.87   21.30
  -1  -3   7  256.07   19.60
  -1  -3   7  260.97   22.30
   1  -3  -7  298.57   18.40
   1  -3  -7  283.67   18.60
  -1   3   7  382.16   23.80
   1   3  -7  341.87   24.20
  -1   3   7  332.87   23.50
   1   3  -7  373.76   23.10
  -1   3   7  383.46   23.10
  -1   3   7  375.66   22.80
   1   3  -7  367.16   23.00
  -1   3   7  348.57   24.10
  -1   3   7  309.77   23.50
   1   3  -7  381.06   23.70
   0  -3   7  223.18   19.70
   0  -3   7  230.68   20.30
   0  -3  -7  272.77   17.10
   0  -3  -7  286.47   17.30
   0  -3   7  272.77   17.00
   0  -3   7  284.67   19.70
   0   3   7  341.47   23.50
   0   3  -7  365.46   22.60
   0   3  -7  372.36   22.60
   0   3   7  303.37   23.10
   0   3   7  364.26   22.30
   0   3  -7  371.06   22.40
   0   3  -7  341.57   23.90
  -1  -3  -7  340.27   22.90
   1  -3   7  360.86   22.90
  -1  -3  -7  362.56   23.00
   1   3   7  433.66   27.20
  -1   3  -7  453.75   27.40
  -1   3  -7  418.06   27.20
  -1   3  -7  421.36   27.50
   1   3   7  442.86   27.30
   1   3   7  409.26   28.20
  -1   3  -7  423.66   28.90
  -2  -3  -7  118.89    8.50
  -2  -3  -7  123.49    8.70
  -2  -3  -7  137.29    8.40
   2  -3   7  121.49    8.60
   2   3   7  137.29   10.00
  -2   3  -7  169.88   12.00
   2   3   7  152.98   11.10
  -2   3  -7  173.38   10.10
  -2   3  -7  156.88   10.20
   2   3   7  140.09   10.00
  -2   3  -7  155.48    9.90
  -3  -3  -7  426.16   27.80
   3  -3   7  396.36   27.90
   3  -3   7  475.75   28.40
  -3   3  -7  573.04   32.70
  -3   3  -7  508.55   32.40
  -3   3  -7  530.25   34.60
  -3   3  -7  527.95   32.60
   3   3   7  443.46   32.50
  -3   3  -7  488.35   32.70
   4  -3   7    9.90    1.40
  -4  -3  -7   10.90    1.70
   4  -3   7   10.60    1.50
  -4  -3  -7    9.60    2.40
  -4  -3  -7    7.20    1.30
   4  -3   7    9.00    1.00
  -4   3  -7    7.90    1.10
   4   3   7   10.40    1.40
  -4   3  -7    9.00    1.10
   4   3   7    7.20    1.00
   4   3   7    9.10    1.40
   4   3   7    9.10    1.10
  -5  -3  -7    2.30    1.30
  -5  -3  -7    1.20    0.70
   5  -3   7    1.60    0.50
   5  -3   7    2.30    0.90
   5   3   7    3.60    0.90
   5   3   7    3.40    0.70
  -5   3  -7    3.90    0.70
   5   3   7    3.40    0.80
   5   3   7    3.30    0.90
   6  -3   7   51.09    3.30
  -6  -3  -7   56.09    4.40
  -6  -3  -7   41.40    3.50
   6   3   7   62.99    4.50
   6   3   7   70.39    4.60
  -7  -3  -7   53.89    4.20
   7   3   7   68.69    4.70
   7   3   7   79.09    4.90
   7   3   7   70.19    4.70
  -7  -4   7    6.50    0.70
  -7  -4   7    6.10    1.10
   7   4  -7   11.40    2.70
   7   4  -7   11.70    1.10
  -6  -4   7   17.80    1.40
  -6  -4   7   17.80    2.00
  -6   4   7   24.40    2.10
   6   4  -7   28.60    2.00
   6   4  -7   22.30    3.40
  -5  -4   7   16.30    1.40
  -5  -4   7   17.20    2.10
   5   4  -7   33.00    2.30
   5   4  -7   32.00    3.80
  -5   4   7   25.10    2.50
  -5   4   7   31.00    3.20
  -4  -4   7   58.39    4.60
  -4  -4   7   56.59    3.90
   4   4  -7  128.99    8.00
  -4   4   7  137.29    9.30
   4   4  -7  122.59    9.20
   4   4  -7  114.69    8.20
  -4   4   7  121.19    8.40
  -3  -4   7   31.20    3.10
  -3  -4   7   32.10    2.40
   3  -4  -7   38.00    2.80
   3  -4  -7   35.10    2.30
  -3   4   7   43.70    4.00
   3   4  -7   34.00    3.10
   3   4  -7   39.00    2.60
  -3   4   7   37.00    3.10
  -2  -4   7   31.60    2.40
  -2  -4   7   28.20    3.00
  -2  -4   7   32.80    3.00
   2  -4  -7   36.10    9.60
   2  -4  -7   39.80    2.40
   2  -4  -7   40.90    2.90
  -2   4   7   61.09    4.20
   2   4  -7   52.59    4.20
  -2   4   7   59.89    5.10
   2   4  -7   47.00    4.10
   2   4  -7   55.79    3.70
  -1  -4   7  197.88   15.50
  -1  -4   7  208.68   18.90
   1  -4  -7  232.28   32.60
   1   4  -7  356.76   20.70
  -1   4   7  362.96   22.00
   1   4  -7  301.87   22.40
   1   4  -7  286.57   20.90
  -1   4   7  313.77   20.70
  -1   4   7  374.66   21.10
   1   4  -7  291.87   20.80
  -1   4   7  304.77   22.20
   0  -4   7   39.40    6.70
   0  -4  -7   44.60    3.40
   0   4   7   59.29    4.10
   0   4   7   60.29    4.60
   0   4  -7   66.09    4.20
   0   4  -7   56.39    4.40
   0   4  -7   70.09    4.50
   0   4  -7   56.39    6.00
   1  -4   7   52.99    4.70
   1  -4   7   50.79    3.90
  -1  -4  -7   55.49    3.70
   1  -4   7   55.29    4.20
  -1  -4  -7   60.39    4.30
   1   4   7   92.49    6.00
   1   4   7   81.19    6.10
  -1   4  -7   80.09    6.20
  -1   4  -7   94.79    5.90
   1   4   7   83.69    6.20
  -1   4  -7   94.99    6.10
  -2  -4  -7  654.93   43.60
   2  -4   7  752.32   44.10
  -2  -4  -7  672.33   44.10
   2  -4   7  658.83   43.70
   2  -4   7  708.23   44.20
  -2   4  -7 1006.30   61.99
   2   4   7  963.50   62.09
   2   4   7  858.51   62.09
   2   4   7  978.30   62.29
  -2   4  -7 1093.99   62.19
   3  -4   7   72.49    5.10
   3  -4   7   66.99    5.00
   3   4   7   65.19    5.40
   3   4   7   80.99    5.70
   3   4   7   80.69    5.50
  -3   4  -7   87.39    5.20
  -4  -4  -7   62.59    5.40
   4  -4   7   66.19    4.70
   4  -4   7   65.09    4.70
  -4   4  -7   92.69    6.30
   4   4   7   96.89    6.50
   4   4   7  103.09    6.50
  -4   4  -7   86.09    6.10
  -5  -4  -7  166.18   10.50
  -5  -4  -7  128.79    9.70
   5  -4   7  145.39    9.70
   5   4   7  252.47   14.50
   5   4   7  193.68   14.50
  -6  -4  -7    5.90    1.20
  -6  -4  -7    5.20    0.80
   6   4   7    5.10    0.90
   6   4   7    6.10    0.90
  -6  -5   7   29.00    2.40
   6   5  -7   42.30    4.10
   6   5  -7   50.79    3.20
  -5  -5   7   54.79    4.20
  -5   5   7   91.29    5.80
   5   5  -7   75.19    6.40
  -4  -5   7   20.90    2.30
   4   5  -7   41.30    4.10
   4   5  -7   46.20    2.90
  -4   5   7   40.30    4.10
  -4   5   7   43.90    3.40
  -3  -5   7   47.20    3.90
   3  -5  -7   49.80    3.20
   3  -5  -7   45.70    3.60
  -3   5   7   62.79    5.30
  -3   5   7   76.79    5.40
  -3   5   7   73.59    6.30
   3   5  -7   79.79    4.80
   2  -5  -7  264.27   16.00
  -2  -5   7  241.48   16.60
   2  -5  -7  245.98   16.40
  -2   5   7  391.96   25.20
  -2   5   7  357.56   25.10
   2   5  -7  420.56   24.70
  -2   5   7  385.86   26.10
  -1  -5   7   38.50    3.50
   1  -5  -7   41.30    2.80
  -1  -5   7   45.40    2.90
   1  -5  -7   40.40    3.30
  -1  -5   7   38.10    3.40
  -1   5   7   50.69    4.20
   1   5  -7   48.50    3.70
  -1   5   7   56.29    4.30
   1   5  -7   62.69    3.70
  -1   5   7   55.99    4.00
   0  -5   7   51.09    4.00
   0  -5  -7   52.79    4.00
   0  -5  -7   52.49    3.50
   0   5  -7   92.69    6.10
   0   5   7   87.49    6.30
   0   5  -7   89.89    6.30
   0   5  -7   95.69    5.90
   0   5   7   90.09    6.40
   1  -5   7   28.80    1.90
   1  -5   7   21.20    2.30
  -1  -5  -7   24.80    1.80
  -1  -5  -7   22.70    2.30
   1  -5   7   26.80    2.30
   1   5   7   35.50    2.90
   1   5   7   39.80    3.10
  -1   5  -7   38.80    2.70
  -1   5  -7   35.90    2.90
  -2  -5  -7   48.90    3.40
   2  -5   7   53.89    4.00
  -2   5  -7   80.29    4.90
   2   5   7   60.39    5.00
   2   5   7   77.49    5.20
   3  -5   7   86.19    6.10
   3  -5   7   91.49    6.20
   3   5   7  102.89    6.80
  -3   5  -7   93.89    6.70
  -3   5  -7  104.69    6.50
  -3   5  -7  111.19    7.00
   3   5   7   89.59    6.60
   4  -5   7   23.50    1.90
  -4  -5  -7   21.60    1.90
  -4   5  -7   37.00    2.50
   4   5   7   29.60    2.70
   4   5   7   40.90    2.80
  -5  -5  -7   15.80    1.30
  -5  -5  -7   15.10    1.60
   5   5   7   28.70    2.20
   5   5   7   26.20    2.10
  -4  -6   7   19.60    1.80
   4   6  -7   33.80    2.20
   3  -6  -7   12.50    1.00
  -3  -6   7   12.40    1.40
  -3  -6   7   14.70    1.50
   3   6  -7   23.90    1.70
  -2  -6   7    7.10    1.20
   2  -6  -7    6.50    0.60
  -2  -6   7    5.20    1.10
  -2   6   7   12.70    1.70
   2   6  -7   12.10    1.00
  -1  -6   7   52.09    3.50
   1  -6  -7   49.90    3.50
  -1  -6   7   55.99    3.90
  -1   6   7   85.49    5.90
   1   6  -7   91.09    5.70
   0  -6   7    2.60    0.40
   0  -6   7    2.90    0.80
   0  -6   7    1.90    0.70
   0  -6  -7    2.00    0.40
   0   6  -7    2.70    0.50
   0   6  -7    2.50    0.40
   0   6   7    2.70    1.60
   0   6   7    2.80    0.80
   1  -6   7   50.09    3.60
  -1  -6  -7   46.30    3.40
   1  -6   7   49.70    3.50
  -1   6  -7   59.49    3.90
   1   6   7   54.89    4.00
   2  -6   7  147.39    9.40
  -2  -6  -7  138.09    9.30
   2   6   7  194.48   12.50
   9   0  -8    1.20    1.30
  -9   0   8    0.70    0.30
  -8   0   8  139.09    8.70
   8   0  -8  129.59   10.10
  -8   0   8  128.59    8.50
  -7   0   8  357.16   22.60
   7   0  -8  339.17   24.00
  -7   0   8  359.56   23.20
   6   0  -8   38.80    4.60
   6   0  -8   39.10    2.80
  -6   0   8   40.50    2.90
  -6   0   8   44.60    3.60
   6   0  -8   33.60    3.10
  -5   0   8   19.20    3.40
  -5   0   8   21.70    2.30
  -5   0   8   20.70    1.70
   5   0  -8   19.90    2.00
  -5   0   8   21.50    3.00
  -5   0   8   20.60    2.40
  -5   0   8   18.10    1.70
  -4   0   8   49.80    4.90
   4   0  -8   50.29    3.70
  -4   0   8   49.99    3.30
  -4   0   8   44.30    3.80
  -4   0   8   42.70    4.00
  -4   0   8   51.69    5.00
  -4   0   8   50.89    4.50
  -4   0   8   42.00    3.80
  -3   0   8   45.40    4.50
  -3   0   8   45.70    4.00
   3   0  -8   40.30    3.30
   3   0  -8   40.30    3.40
  -3   0   8   46.90    4.20
  -3   0   8   42.70    3.00
  -2   0   8   35.90    3.00
   2   0  -8   32.20    2.50
  -2   0   8   35.40    2.40
  -2   0   8   38.80    3.30
  -2   0   8   36.30    2.60
  -2   0   8   38.90    3.80
   2   0  -8   31.90    2.70
   2   0  -8   31.00    2.80
  -1   0   8   58.09    3.50
  -1   0   8   51.49    3.90
  -1   0   8   53.49    4.80
   1   0  -8   50.19    3.30
   1   0  -8   50.89    3.60
  -1   0   8   49.00    3.30
  -1   0   8   46.70    4.00
   1   0  -8   48.30    3.70
   1   0  -8   45.70    3.60
   0   0  -8  126.69    7.90
   0   0   8  130.19    8.30
   0   0   8  127.39    7.90
   0   0   8  127.99    8.00
   0   0  -8  117.69    7.90
   0   0  -8  134.79    8.20
   0   0  -8  110.79    8.20
   0   0  -8  115.49    8.00
   0   0  -8  112.49    8.10
   0   0   8  122.29    9.30
  -1   0  -8  289.27   19.60
  -1   0  -8  308.57   19.30
  -1   0  -8  304.07   19.30
  -1   0  -8  327.07   19.50
   1   0   8  337.77   19.40
  -1   0  -8  259.87   19.70
  -1   0  -8  302.07   19.30
   1   0   8  291.57   20.60
  -2   0  -8   15.40    1.50
  -2   0  -8   15.30    1.30
   2   0   8   16.50    1.40
  -2   0  -8   13.40    1.30
  -2   0  -8   14.80    1.60
  -2   0  -8   15.00    1.30
  -2   0  -8   15.50    1.40
   3   0   8   17.80    1.50
  -3   0  -8   19.30    1.50
   3   0   8   15.90    1.60
  -3   0  -8   16.40    1.90
  -3   0  -8   16.60    1.60
  -3   0  -8   17.00    1.80
  -3   0  -8   17.90    1.60
  -4   0  -8  253.07   19.20
  -4   0  -8  281.57   19.00
  -4   0  -8  328.67   19.00
  -4   0  -8  302.67   18.90
   4   0   8  288.87   18.60
   5   0   8   14.30    1.50
  -5   0  -8   18.10    1.80
   5   0   8   17.30    1.40
  -5   0  -8   17.90    1.50
   5   0   8   17.80    1.60
   5   0   8   16.00    1.50
  -5   0  -8   14.70    1.40
  -6   0  -8  411.26   26.40
  -6   0  -8  414.66   26.70
   6   0   8  375.86   26.20
   6   0   8  434.06   26.20
   6   0   8  407.56   26.30
  -6   0  -8  433.16   26.30
   7   0   8   43.70    3.20
   7   0   8   50.19    3.20
   7   0   8   45.50    3.20
  -7   0  -8   47.70    3.30
  -8  -1   8   11.60    1.00
   8  -1  -8   12.10    3.00
  -8  -1   8   10.60    1.00
  -8   1   8   10.40    1.10
  -8   1   8   13.80    1.40
   8   1  -8   12.60    3.00
   7  -1  -8   12.30    3.20
  -7  -1   8   12.30    1.10
  -7  -1   8   12.80    1.20
   7   1  -8   14.40    3.30
  -7   1   8   16.50    1.60
  -7   1   8   16.70    2.20
  -7   1   8   15.10    1.30
   7   1  -8   14.40    1.40
   6  -1  -8   56.79    5.70
  -6  -1   8   53.29    3.80
  -6  -1   8   60.19    3.80
   6   1  -8   51.89    5.30
  -6   1   8   64.29    4.60
   6   1  -8   45.50    3.70
  -6   1   8   57.89    3.90
  -5  -1   8  105.39    6.80
   5  -1  -8  101.59    7.10
  -5  -1   8  101.89    8.60
  -5  -1   8   98.19    9.40
  -5   1   8  105.29    7.50
   5   1  -8  108.69    7.60
  -5   1   8  115.09    8.70
  -5   1   8  113.89    8.10
  -5   1   8  126.39    9.60
   5   1  -8  116.29    7.90
  -4  -1   8  570.94   37.40
  -4  -1   8  563.44   36.00
  -4  -1   8  546.95   36.50
  -4  -1   8  579.44   35.70
   4  -1  -8  587.94   36.00
   4  -1  -8  517.25   42.60
  -4  -1   8  566.94   38.10
  -4   1   8  525.95   35.70
   4   1  -8  570.64   36.10
  -4   1   8  611.74   35.70
  -4   1   8  548.45   36.70
  -4   1   8  578.64   37.30
  -4   1   8  520.35   36.30
  -4   1   8  624.04   37.40
  -4   1   8  561.04   36.30
   4   1  -8  522.65   35.80
  -3  -1   8  138.59    9.90
  -3  -1   8  134.49    8.70
   3  -1  -8  126.79    8.90
  -3  -1   8  132.59    8.50
  -3  -1   8  116.89    9.10
  -3  -1   8  130.29   10.50
   3  -1  -8  131.89    8.70
   3   1  -8  113.49    7.90
  -3   1   8  111.79    8.90
  -3   1   8  129.39    7.60
   3   1  -8  108.59    7.60
  -3   1   8  114.79    8.10
  -3   1   8  135.29    8.90
  -3   1   8  107.19    8.20
   3   1  -8  109.69    7.60
  -3   1   8  117.69    8.50
  -3   1   8  117.89    7.50
  -2  -1   8  122.49    7.70
  -2  -1   8  124.59    9.60
  -2  -1   8  117.59    7.40
  -2  -1   8  114.19    8.60
   2  -1  -8  100.99    7.80
   2  -1  -8  106.19    7.70
   2   1  -8  108.89    7.20
   2   1  -8  111.59    7.10
  -2   1   8  112.29    7.90
   2   1  -8  102.59    7.40
   2   1  -8  105.09    7.30
  -2   1   8  106.99    7.00
  -2   1   8  120.29    7.60
  -2   1   8  109.79    8.40
   1  -1  -8   44.60    3.60
   1  -1  -8   52.29    3.60
  -1  -1   8   52.89    3.60
  -1  -1   8   53.29    4.50
   1  -1  -8   48.60    3.70
  -1  -1   8   55.49    3.70
  -1  -1   8   56.89    5.40
   1  -1  -8   54.19    3.90
  -1  -1   8   50.09    4.10
  -1   1   8   59.79    5.00
  -1   1   8   60.49    3.80
   1   1  -8   58.39    4.10
  -1   1   8   61.49    4.30
   1   1  -8   51.09    4.10
  -1   1   8   54.69    4.60
   1   1  -8   59.59    3.90
  -1   1   8   55.69    3.90
   1   1  -8   58.79    3.90
   1   1  -8   56.39    3.80
   0  -1  -8   28.80    2.40
   0  -1  -8   31.90    2.40
   0  -1   8   34.70    2.50
   0  -1  -8   31.40    2.60
   0  -1   8   32.20    4.00
   0  -1  -8   33.10    2.20
   0  -1  -8   30.20    2.50
   0   1  -8   34.90    2.30
   0   1   8   34.70    2.80
   0   1  -8   31.00    2.30
   0   1  -8   33.90    2.40
   0   1   8   31.10    3.30
   0   1  -8   33.10    2.60
   0   1   8   34.20    2.20
   0   1   8   32.80    2.30
   1  -1   8  112.39    7.30
  -1  -1  -8  101.89    7.30
  -1  -1  -8  116.59    7.50
  -1  -1  -8  111.99    7.00
  -1  -1  -8  108.59    7.20
  -1  -1  -8  107.09    7.20
   1  -1   8  100.29    8.80
   1   1   8  114.19    7.90
  -1   1  -8  110.29    7.40
  -1   1  -8  121.09    7.30
  -1   1  -8  105.89    7.30
  -1   1  -8  112.49    7.40
  -1   1  -8  108.49    7.50
  -2  -1  -8  256.87   16.30
  -2  -1  -8  265.87   16.30
  -2  -1  -8  243.28   16.10
   2  -1   8  262.77   16.40
  -2  -1  -8  258.47   16.60
  -2  -1  -8  225.58   16.40
   2   1   8  290.57   17.70
  -2   1  -8  258.07   17.90
  -2   1  -8  269.87   17.80
  -2   1  -8  269.37   17.70
  -2   1  -8  293.57   17.70
   3  -1   8   48.80    3.80
  -3  -1  -8   47.80    4.10
  -3  -1  -8   56.19    3.60
  -3  -1  -8   51.69    3.70
  -3  -1  -8   50.39    3.80
  -3  -1  -8   50.39    3.60
   3   1   8   51.89    4.00
  -3   1  -8   55.69    4.20
  -3   1  -8   59.09    3.90
   3   1   8   55.59    3.90
  -3   1  -8   58.39    4.10
  -3   1  -8   58.99    4.00
  -4  -1  -8 1004.30   67.99
  -4  -1  -8 1204.48   67.49
  -4  -1  -8 1058.39   67.69
  -4  -1  -8  990.40   67.49
  -4   1  -8 1293.47   80.49
   4   1   8 1255.47   80.19
  -4   1  -8 1250.07   80.69
  -4   1  -8 1184.08   80.59
  -4   1  -8 1362.76   80.49
   5  -1   8    0.10    0.50
  -5  -1  -8    0.40    0.60
  -5  -1  -8    0.50    0.50
   5  -1   8    1.90    0.60
  -5  -1  -8    0.10    0.40
   5   1   8    1.40    0.60
   5   1   8    3.10    0.80
   5   1   8    2.10    0.80
  -5   1  -8    1.50    0.60
   5   1   8    1.30    0.70
  -6  -1  -8   16.30    1.50
  -6  -1  -8   18.30    1.70
   6  -1   8   16.60    1.50
   6  -1   8   17.20    1.40
  -6  -1  -8   18.60    1.60
   6   1   8   15.80    1.50
   6   1   8   16.20    1.60
  -6   1  -8   17.50    1.40
  -6   1  -8   18.20    1.80
   6   1   8   14.60    1.50
   7  -1   8   32.00    2.20
  -7  -1  -8   25.30    2.30
  -7  -1  -8   33.40    3.00
   7   1   8   38.10    2.70
  -7   1  -8   35.80    2.70
   7   1   8   40.50    2.70
  -8  -2   8  123.29    8.00
  -8  -2   8  119.79    8.00
   8  -2  -8  132.49    9.50
  -8   2   8  130.79    9.00
   8   2  -8  141.59   10.20
   8   2  -8  139.29    8.90
  -7  -2   8  127.19    8.10
   7  -2  -8  127.19   10.00
  -7  -2   8  122.39    8.10
   7   2  -8  156.88   11.40
  -7   2   8  151.78   10.60
  -7   2   8  163.48   10.00
   7   2  -8  134.99    9.90
  -6  -2   8   22.90    1.70
   6  -2  -8   22.00    3.70
  -6  -2   8   22.50    2.60
  -6  -2   8   20.90    1.70
  -6   2   8   23.90    2.00
  -6   2   8   25.10    2.70
   6   2  -8   21.60    1.80
   6   2  -8   19.00    3.50
  -5  -2   8   42.50    3.00
  -5  -2   8   46.90    3.80
  -5  -2   8   43.40    3.00
   5  -2  -8   40.40    4.90
   5   2  -8   63.49    4.40
   5   2  -8   67.09    5.50
  -5   2   8   63.39    5.10
  -5   2   8   61.59    4.40
   4  -2  -8   11.40    4.50
  -4  -2   8    8.60    2.50
  -4  -2   8    9.80    1.10
  -4  -2   8    9.90    1.80
  -4  -2   8   10.00    1.90
   4   2  -8    9.00    1.10
   4   2  -8    8.20    1.30
  -4   2   8    9.70    0.90
  -4   2   8    9.20    2.20
  -4   2   8    8.00    2.00
  -4   2   8    7.60    1.20
  -4   2   8    7.10    1.60
  -4   2   8    7.20    1.40
  -3  -2   8   53.19    5.40
   3  -2  -8   53.19    4.10
  -3  -2   8   56.19    4.10
  -3  -2   8   51.49    4.60
   3   2  -8   61.29    4.10
   3   2  -8   57.39    4.10
  -3   2   8   58.09    4.20
  -3   2   8   52.79    5.30
  -3   2   8   52.69    4.70
  -3   2   8   50.39    4.00
  -3   2   8   66.39    4.60
  -3   2   8   65.89    4.00
   3   2  -8   63.89    4.40
  -2  -2   8  175.18   10.50
   2  -2  -8  149.29   10.80
   2  -2  -8  148.19   10.60
  -2  -2   8  171.88   12.10
  -2   2   8  187.18   12.60
   2   2  -8  207.68   12.70
   2   2  -8  192.48   12.90
  -2   2   8  193.58   13.40
  -2   2   8  218.08   13.20
   2   2  -8  188.58   13.00
  -2   2   8  189.48   14.00
   2   2  -8  199.38   12.80
  -2   2   8  198.98   12.60
   1  -2  -8   61.59    4.00
  -1  -2   8   45.40    5.70
  -1  -2   8   47.30    6.30
  -1  -2   8   56.69    4.90
   1  -2  -8   48.30    3.70
   1   2  -8   83.09    5.40
   1   2  -8   68.29    5.10
  -1   2   8   64.19    6.10
   1   2  -8   77.79    6.10
   1   2  -8   85.39    5.10
  -1   2   8   73.19    5.00
  -1   2   8   80.59    5.60
   1   2  -8   76.79    5.40
   1   2  -8   84.19    5.20
   0   2  -8  278.27   17.80
   0   2  -8  281.27   17.50
   0   2  -8  287.97   17.60
   0   2   8  256.07   18.10
   0   2  -8  266.67   18.60
   1  -2   8   16.70    1.90
   1  -2   8   26.50    3.90
  -1  -2  -8   22.40    2.00
   1   2   8   23.20    2.80
   1   2   8   30.80    2.00
   1   2   8   30.60    2.20
  -1   2  -8   29.60    2.40
  -1   2  -8   31.20    2.30
  -1   2  -8   29.90    3.30
  -2  -2  -8  292.27   18.80
  -2  -2  -8  237.98   18.50
  -2  -2  -8  308.67   18.60
  -2  -2  -8  304.27   18.30
  -2   2  -8  284.57   19.80
  -2   2  -8  316.97   19.90
  -2   2  -8  328.27   21.20
  -2   2  -8  317.47   20.00
   2   2   8  324.17   19.70
  -2   2  -8  281.17   19.60
  -2   2  -8  314.77   19.80
  -3  -2  -8  181.98   12.10
  -3  -2  -8  199.08   12.30
  -3  -2  -8  148.99   11.90
  -3  -2  -8  195.38   11.70
   3   2   8  222.98   15.50
  -3   2  -8  226.78   15.70
  -3   2  -8  263.27   15.40
  -3   2  -8  251.97   15.50
  -3   2  -8  232.68   17.00
  -3   2  -8  219.58   15.80
  -3   2  -8  266.07   15.60
  -4  -2  -8    4.10    0.90
  -4  -2  -8    3.80    1.10
   4  -2   8    3.90    0.70
   4  -2   8    5.70    0.70
   4  -2   8    4.80    1.10
  -4  -2  -8    3.60    0.70
   4   2   8    1.50    0.80
  -4   2  -8    1.30    0.50
   4   2   8    0.70    0.70
   4   2   8    1.30    0.70
   4   2   8    1.00    0.60
  -4   2  -8    0.90    0.50
   5  -2   8   12.50    1.10
  -5  -2  -8   10.00    1.20
   5  -2   8   11.80    1.20
  -5  -2  -8   13.40    1.50
  -5  -2  -8   12.80    2.40
   5   2   8   15.40    1.60
   5   2   8   14.10    1.60
   5   2   8   17.00    1.70
   5   2   8   16.90    1.50
  -5   2  -8   16.90    1.60
  -6  -2  -8  118.49    8.40
  -6  -2  -8  105.59    7.60
   6  -2   8  112.99    7.40
   6  -2   8  119.89    7.40
   6   2   8  152.58   10.30
   6   2   8  157.08   10.30
  -6   2  -8  152.08   10.50
   6   2   8  176.68   10.50
   6   2   8  158.08   10.30
  -7  -2  -8    3.80    1.00
  -7  -2  -8    3.40    0.80
   7  -2   8    4.40    0.50
   7   2   8    4.10    0.80
   7   2   8    5.30    0.70
  -8  -3   8   72.49    4.70
   8   3  -8  111.89    7.40
   8   3  -8  117.89    8.40
  -7  -3   8   35.30    2.60
   7  -3  -8   39.70    4.40
  -7   3   8   34.50    2.70
  -7   3   8   35.70    2.90
   7   3  -8   43.00    4.40
   7   3  -8   40.60    2.80
  -6  -3   8  101.69    6.50
  -6  -3   8   90.19    7.20
   6  -3  -8  106.49    8.50
   6   3  -8  106.79    9.50
   6   3  -8  144.59    8.30
  -6   3   8  126.39    8.30
  -6   3   8  121.99    8.90
  -6   3   8  129.19    8.40
  -5  -3   8  107.29    7.30
  -5  -3   8  101.69    7.90
  -5  -3   8  122.59    7.70
   5  -3  -8  116.89    9.40
   5   3  -8  131.99   10.50
  -5   3   8  138.49   10.00
  -5   3   8  133.49    9.30
  -5   3   8  139.99    9.20
   5   3  -8  160.08    9.30
  -4  -3   8   64.49    4.30
  -4  -3   8   59.79    4.90
   4  -3  -8   67.09    6.30
  -4   3   8   96.59    7.10
   4   3  -8  103.49    7.00
   4   3  -8  114.69    7.00
  -4   3   8  115.39    7.90
  -4   3   8   97.89    7.00
   3  -3  -8   25.70    2.30
  -3  -3   8   20.70    3.60
  -3  -3   8   21.20    4.10
  -3  -3   8   18.70    5.50
  -3   3   8   26.90    2.40
   3   3  -8   23.90    2.20
   3   3  -8   25.40    2.30
   3   3  -8   31.00    2.20
  -3   3   8   27.30    3.50
  -3   3   8   30.50    3.10
  -3   3   8   26.50    2.20
  -2  -3   8   86.59    8.90
  -2  -3   8   95.89    8.00
   2  -3  -8   94.59    6.50
  -2  -3   8   83.29   10.20
   2  -3  -8   92.39    6.30
   2   3  -8  124.19    9.50
  -2   3   8  127.89    8.80
  -2   3   8  132.19    8.50
  -2   3   8  140.99    9.30
   2   3  -8  124.39    8.40
   2   3  -8  130.99    8.30
   2   3  -8  118.39    8.60
  -2   3   8  117.29    9.60
  -2   3   8  122.39    8.20
   1  -3  -8  198.38   12.60
  -1  -3   8  172.18   16.10
  -1  -3   8  189.28   13.70
   1  -3  -8  201.58   12.40
  -1  -3   8  170.88   15.00
  -1   3   8  256.47   16.80
   1   3  -8  249.28   17.50
  -1   3   8  237.38   17.50
  -1   3   8  254.77   16.30
  -1   3   8  243.18   16.10
   1   3  -8  270.67   16.20
   1   3  -8  253.17   16.20
   1   3  -8  269.67   16.30
   1   3  -8  219.68   16.00
  -1   3   8  262.57   16.00
   0  -3   8   96.39    6.60
   0  -3  -8  102.69    6.70
   0  -3   8   86.99    9.00
   0   3   8  125.69    8.70
   0   3  -8  135.59    8.70
   0   3   8  133.29    8.60
   0   3  -8  132.09   10.20
   0   3   8  142.99    8.80
   0   3  -8  135.29    8.90
  -1  -3  -8  121.09    7.30
   1  -3   8   97.19    7.10
   1  -3   8  100.49    9.60
  -1  -3  -8   90.29    7.10
  -1   3  -8  119.69    9.30
   1   3   8  100.89    8.60
  -1   3  -8  128.19    7.70
  -1   3  -8  127.09    7.90
   1   3   8  120.69    7.70
   1   3   8  109.89    7.80
  -2  -3  -8  304.17   18.50
   2  -3   8  256.47   18.30
  -2   3  -8  369.06   23.50
   2   3   8  387.46   23.30
  -2   3  -8  349.27   23.40
  -2   3  -8  365.86   25.10
   2   3   8  356.16   23.30
  -2   3  -8  368.06   23.20
  -2   3  -8  360.76   23.50
  -3  -3  -8   17.60    2.00
   3  -3   8   22.60    2.10
   3  -3   8   20.30    1.60
   3  -3   8   20.10    2.10
  -3  -3  -8   19.50    2.00
   3   3   8   23.50    2.10
   3   3   8   22.60    1.80
  -3   3  -8   19.20    1.80
  -3   3  -8   17.40    1.60
   3   3   8   21.20    1.80
   3   3   8   20.20    2.10
  -3   3  -8   23.50    1.90
  -4  -3  -8   25.40    2.40
  -4  -3  -8   27.60    3.20
  -4  -3  -8   24.60    2.40
   4  -3   8   26.80    2.40
   4  -3   8   27.30    1.90
  -4   3  -8   49.50    3.40
   4   3   8   40.30    3.50
   4   3   8   42.80    3.30
   4   3   8   49.60    3.50
   4   3   8   44.50    3.30
  -4   3  -8   49.99    3.40
   5  -3   8   48.80    3.50
   5  -3   8   52.79    3.40
  -5  -3  -8   46.70    3.70
  -5  -3  -8   53.69    4.50
   5  -3   8   50.09    3.80
   5   3   8   63.99    4.60
  -5   3  -8   67.49    4.50
   5   3   8   65.19    4.40
   5   3   8   70.09    4.60
   5   3   8   57.69    4.40
  -6  -3  -8   76.79    5.70
   6  -3   8   77.29    4.90
  -6  -3  -8   69.89    5.10
   6   3   8   94.49    6.00
   6   3   8  104.09    6.10
   6   3   8   74.89    5.90
   6   3   8   84.89    5.80
  -7  -4   8   18.50    1.20
  -7  -4   8   15.60    1.60
   7   4  -8   23.40    1.90
   7   4  -8   29.30    3.20
  -6  -4   8  124.79    7.60
  -6  -4   8  110.19    8.00
  -6   4   8  178.88   11.90
   6   4  -8  187.68   11.90
  -5  -4   8   41.20    2.80
  -5  -4   8   39.00    3.40
  -5   4   8   56.59    4.20
   5   4  -8   61.69    4.10
   5   4  -8   54.59    5.30
  -5   4   8   62.29    4.90
  -4  -4   8   49.50    3.30
  -4  -4   8   48.30    4.00
  -4   4   8   72.09    5.50
   4   4  -8   78.69    5.10
  -4   4   8   84.59    6.40
  -3  -4   8   84.49    5.50
   3  -4  -8   90.59    5.50
  -3  -4   8   71.49    6.10
   3  -4  -8   90.89    5.90
  -3   4   8  162.18   10.80
   3   4  -8  176.68   10.40
   3   4  -8  141.69   10.80
  -3   4   8  172.08   11.70
  -2  -4   8  148.49   10.30
   2  -4  -8  173.68   10.80
   2  -4  -8  162.38   10.30
  -2   4   8  237.08   14.70
   2   4  -8  241.38   14.30
  -2   4   8  233.78   15.60
   2   4  -8  184.38   14.70
  -1  -4   8   47.10    3.20
   1  -4  -8   55.69    3.80
  -1  -4   8   40.30    3.70
   1  -4  -8   50.59    3.20
  -1  -4   8   44.70    3.80
   1   4  -8   68.09    3.90
  -1   4   8   56.49    4.40
   1   4  -8   55.09    4.00
  -1   4   8   52.39    4.30
  -1   4   8   63.29    4.40
   0  -4   8   33.90    2.20
   0  -4   8   25.70    2.80
   0  -4  -8   35.40    2.90
   0  -4   8   29.70    2.80
   0  -4   8   33.40    2.20
   0  -4  -8   30.00    2.20
   0   4  -8   45.20    3.00
   0   4   8   36.10    3.30
   0   4   8   43.90    3.50
   0   4  -8   44.20    2.90
   1  -4   8  167.38   10.60
   1  -4   8  177.18   11.10
  -1  -4  -8  159.58   10.60
   1  -4   8  156.28   11.10
   1  -4   8  183.68   10.60
  -1  -4  -8  147.19   10.80
  -1  -4  -8  155.78   11.10
   1   4   8  186.28   13.60
   1   4   8  212.18   13.80
  -1   4  -8  226.68   13.50
   1   4   8  209.88   13.60
  -2  -4  -8    0.50    0.40
   2  -4   8    0.60    0.70
   2  -4   8    0.50    0.70
   2  -4   8    0.30    0.50
  -2  -4  -8    0.70    0.70
   2  -4   8    0.20    0.50
  -2  -4  -8    0.60    0.70
   2   4   8    7.30    1.20
   2   4   8    9.00    1.30
  -2   4  -8    8.90    1.30
  -2   4  -8    8.40    1.10
  -2   4  -8    8.00    1.00
  -3  -4  -8  157.48   11.60
   3  -4   8  180.68   11.60
   3  -4   8  172.78   11.30
   3  -4   8  190.08   11.70
   3   4   8  219.28   13.60
   3   4   8  205.78   13.20
  -3   4  -8  182.48   13.30
  -3   4  -8  211.18   13.10
   4  -4   8   66.99    4.40
  -4  -4  -8   66.09    4.80
   4  -4   8   68.49    4.80
  -4   4  -8   94.19    6.50
   4   4   8  101.99    6.60
  -4   4  -8  103.49    6.40
  -4   4  -8   90.29    6.50
  -5  -4  -8   25.30    2.20
  -5  -4  -8   27.00    2.60
   5  -4   8   32.20    2.10
   5   4   8   50.79    3.40
   5   4   8   41.40    3.30
  -5  -5   8   22.10    2.20
  -5  -5   8   29.50    1.80
   5   5  -8   32.10    3.40
  -4  -5   8   74.59    5.70
  -4  -5   8   82.59    5.10
  -4   5   8  152.78    9.50
   4   5  -8  130.39    9.00
   3  -5  -8   24.90    2.20
   3  -5  -8   25.70    1.70
  -3  -5   8   23.10    2.40
  -3   5   8   33.20    3.00
  -3   5   8   35.80    3.00
   3   5  -8   38.20    2.50
  -3   5   8   33.00    3.70
   2  -5  -8  101.39    7.00
   2  -5  -8  100.99    6.50
  -2  -5   8   96.09    7.10
  -2  -5   8  105.19    7.20
  -2   5   8  162.78   11.60
  -2   5   8  163.98   12.40
   2   5  -8  191.88   11.20
  -2   5   8  176.38   11.60
   1  -5  -8    0.10    0.60
   1  -5  -8    1.00    0.40
  -1  -5   8    0.70    0.70
  -1  -5   8    1.30    0.90
  -1   5   8    3.60    1.00
   1   5  -8    4.90    0.70
  -1   5   8    4.60    1.20
  -1   5   8    5.30    1.30
   0  -5  -8   10.00    1.00
   0  -5   8   13.50    1.60
   0  -5  -8   11.30    1.60
   0  -5   8   12.60    1.10
   0  -5   8   10.90    1.60
   0   5   8   15.10    1.90
   0   5  -8   13.40    1.10
   0   5   8   10.40    1.50
   0   5  -8   12.80    1.30
   0   5  -8   14.00    1.40
   1  -5   8   22.00    1.90
  -1  -5  -8   13.60    1.90
   1  -5   8   15.30    1.50
  -1  -5  -8   20.70    1.80
  -1  -5  -8   15.80    1.40
   1  -5   8   22.30    2.00
   1   5   8   27.50    2.40
   1   5   8   23.50    2.30
  -1   5  -8   27.70    2.30
  -1   5  -8   25.40    2.20
  -1   5  -8   28.20    2.10
   2  -5   8  126.79    8.20
   2  -5   8  118.89    8.10
  -2  -5  -8  116.39    8.10
  -2   5  -8  124.49    9.20
  -2   5  -8  121.09    9.10
  -2   5  -8  152.38    9.00
   2   5   8  158.98    9.20
   3  -5   8   10.60    1.20
   3  -5   8   10.20    1.20
  -3  -5  -8   10.50    1.30
   3   5   8   18.20    1.70
   3   5   8   17.00    1.60
  -3   5  -8   17.80    1.40
   4  -5   8   27.20    2.20
  -4  -5  -8   30.40    2.20
   4   5   8   58.09    3.80
   4   5   8   48.80    3.80
  -3  -6   8   33.40    2.50
   3  -6  -8   30.70    2.10
   3   6  -8   38.20    2.50
   2  -6  -8    8.00    0.80
  -2  -6   8   11.50    1.20
   2   6  -8    7.90    0.70
   1  -6  -8   16.30    1.40
  -1  -6   8   23.10    1.90
   1   6  -8   31.00    2.10
   0  -6   8   78.49    5.20
   0  -6   8   72.19    5.20
   0   6  -8   94.99    6.10
   0   6   8   85.69    6.30
   0   6   8  102.59    7.40
   1  -6   8  134.09    8.60
   1  -6   8  131.29    8.70
  -1  -6  -8  128.39    8.50
   1   6   8  215.88   13.90
   2  -6   8   34.00    2.50
   2  -6   8   35.20    2.50
  -2  -6  -8   35.80    2.50
   2   6   8   56.09    3.80
   2   6   8   48.90    3.50
   8   0  -9  505.65   32.70
  -8   0   9  501.65   31.30
  -8   0   9  476.55   31.50
  -7   0   9   10.10    1.40
   7   0  -9   15.00    3.10
  -7   0   9   13.10    1.20
   6   0  -9    5.90    0.80
  -6   0   9    4.50    0.60
   6   0  -9    4.20    1.90
  -6   0   9    5.30    0.90
  -5   0   9    6.00    0.80
  -5   0   9    5.20    2.40
  -5   0   9    5.60    1.90
   5   0  -9    7.70    1.30
  -5   0   9    6.80    1.10
   4   0  -9    5.90    1.10
  -4   0   9    3.80    0.60
  -4   0   9    4.60    1.80
  -4   0   9    4.30    1.30
  -4   0   9    4.30    0.80
  -4   0   9    2.90    1.40
  -3   0   9  344.17   23.10
  -3   0   9  361.06   22.40
   3   0  -9  310.07   21.70
   3   0  -9  297.97   21.50
  -3   0   9  351.66   21.20
  -3   0   9  339.77   21.40
  -3   0   9  325.97   22.00
  -2   0   9  650.33   41.20
   2   0  -9  617.54   41.00
  -2   0   9  646.84   41.50
   2   0  -9  653.13   40.90
  -2   0   9  634.84   40.50
  -2   0   9  639.14   42.20
   2   0  -9  658.43   40.60
  -2   0   9  622.24   40.60
  -1   0   9  479.35   30.50
   1   0  -9  495.75   30.30
   1   0  -9  449.95   30.30
   1   0  -9  484.45   30.20
  -1   0   9  470.95   31.60
   1   0  -9  441.26   30.00
  -1   0   9  458.85   29.90
   1   0  -9  490.85   29.90
  -1   0   9  472.15   30.00
  -1   0   9  480.75   30.00
   0   0  -9  440.26   29.20
   0   0   9  422.86   30.30
   0   0  -9  474.45   29.10
   0   0  -9  438.26   28.90
   0   0   9  464.45   28.80
   0   0   9  461.15   28.90
   0   0  -9  444.56   29.00
   0   0  -9  480.25   28.80
   0   0   9  458.35   29.30
  -1   0  -9   70.29    4.80
  -1   0  -9   63.39    4.90
  -1   0  -9   69.29    4.70
   1   0   9   72.59    4.70
  -1   0  -9   70.79    5.00
  -1   0  -9   67.89    4.60
   2   0   9   85.49    6.10
   2   0   9   95.29    5.90
  -2   0  -9   89.99    6.00
  -2   0  -9   90.19    6.20
  -2   0  -9   92.19    6.40
  -2   0  -9   86.59    6.00
  -3   0  -9   18.80    2.00
  -3   0  -9   14.30    1.50
  -3   0  -9   14.40    1.70
  -3   0  -9   17.00    1.60
  -3   0  -9   19.50    1.60
   3   0   9   15.50    1.60
   3   0   9   20.50    1.60
  -3   0  -9   15.50    1.70
   4   0   9    1.60    0.60
   4   0   9    2.10    0.70
  -4   0  -9    1.60    0.50
   4   0   9    2.40    0.50
  -4   0  -9    2.60    0.60
   4   0   9    2.70    0.60
  -5   0  -9   77.49    5.60
  -5   0  -9   92.99    5.70
  -5   0  -9   85.89    6.00
   5   0   9   87.69    5.60
   5   0   9   80.99    5.60
   5   0   9   79.99    5.50
   6   0   9    2.30    0.60
   6   0   9    2.60    0.70
  -6   0  -9    1.30    0.50
   6   0   9    1.70    0.50
  -6   0  -9    1.50    1.00
  -6   0  -9    1.90    0.60
   7   0   9  279.87   18.40
  -7   0  -9  314.97   19.20
  -7   0  -9  262.17   18.50
   7   0   9  303.17   18.40
  -8  -1   9   26.80    2.10
   8  -1  -9   30.60    3.80
  -8  -1   9   33.00    2.10
  -8   1   9   35.30    2.60
  -8   1   9   30.40    2.20
   8   1  -9   31.60    3.90
  -7  -1   9   95.09    5.90
   7  -1  -9   87.69    7.50
  -7  -1   9   87.09    5.90
  -7   1   9  118.39    7.50
   7   1  -9  106.39    8.80
  -7   1   9  112.29    8.20
   7   1  -9  111.69    7.30
  -7   1   9  106.59    7.20
  -6  -1   9   81.29    5.10
  -6  -1   9   74.69    5.10
   6  -1  -9   76.59    6.90
  -6   1   9   83.69    6.20
   6   1  -9   74.99    5.30
  -6   1   9   83.59    5.50
   6   1  -9   76.09    6.90
  -6   1   9   75.39    5.20
   5  -1  -9  129.19    8.00
   5  -1  -9  104.19    9.20
  -5  -1   9  132.39    8.30
  -5  -1   9  103.49    7.70
   5  -1  -9  133.29    8.60
  -5  -1   9  120.29    7.80
  -5   1   9  129.79   13.20
  -5   1   9  166.18   10.50
   5   1  -9  127.49    9.60
  -5   1   9  169.28    9.70
   5   1  -9  141.69   10.90
  -4  -1   9  665.83   43.20
   4  -1  -9  678.23   41.90
  -4  -1   9  675.33   41.80
  -4  -1   9  636.94   44.00
  -4  -1   9  586.24   42.30
  -4  -1   9  677.83   41.50
  -4   1   9  780.12   45.00
  -4   1   9  651.73   43.90
   4   1  -9  676.73   43.60
  -4   1   9  627.74   43.90
  -4   1   9  723.73   43.20
  -4   1   9  655.83   43.30
  -4   1   9  661.83   44.30
  -4   1   9  688.63   45.00
   4   1  -9  661.23   43.30
   3  -1  -9   22.20    2.00
  -3  -1   9   24.50    3.70
  -3  -1   9   22.30    2.10
  -3  -1   9   23.40    1.70
   3  -1  -9   21.30    2.20
  -3  -1   9   17.30    2.40
  -3  -1   9   23.90    3.00
  -3   1   9   21.10    2.20
  -3   1   9   17.70    2.80
   3   1  -9   19.70    1.40
  -3   1   9   14.70    1.60
   3   1  -9   16.30    1.80
  -3   1   9   16.10    2.20
  -3   1   9   15.10    1.70
  -3   1   9   18.60    1.30
  -3   1   9   13.70    2.20
   3   1  -9   17.50    1.50
  -2  -1   9  307.77   21.40
   2  -1  -9  332.27   21.20
  -2  -1   9  354.66   20.80
  -2  -1   9  318.67   20.60
  -2  -1   9  346.17   23.10
   2  -1  -9  329.37   20.90
  -2  -1   9  322.17   21.90
   2  -1  -9  280.17   20.90
   2   1  -9  346.77   22.40
   2   1  -9  365.56   22.50
  -2   1   9  356.46   22.80
   2   1  -9  338.97   22.60
  -2   1   9  347.97   23.80
   2   1  -9  352.06   22.20
  -2   1   9  351.76   22.20
  -2   1   9  338.97   23.00
   1  -1  -9  262.37   18.70
   1  -1  -9  306.77   18.60
   1  -1  -9  292.97   18.80
  -1  -1   9  286.87   18.60
   1  -1  -9  287.87   19.00
  -1  -1   9  298.77   18.70
  -1  -1   9  300.87   20.80
  -1   1   9  307.87   20.10
  -1   1   9  333.67   20.60
   1   1  -9  310.37   20.40
  -1   1   9  290.77   21.40
  -1   1   9  316.27   20.00
   1   1  -9  329.57   20.10
   1   1  -9  315.47   20.10
   1   1  -9  323.77   20.20
   1   1  -9  314.87   20.40
   0  -1  -9    0.90    0.60
   0  -1  -9    0.90    0.50
   0  -1   9    1.10    0.70
   0  -1  -9    0.70    0.50
   0  -1  -9    0.50    0.50
   0  -1  -9    0.50    0.20
   0  -1   9    1.10    1.50
   0   1  -9    0.10    0.50
   0   1   9    0.80    0.70
   0   1  -9    0.70    0.30
   0   1   9    0.90    1.20
   0   1  -9    0.60    0.30
   0   1  -9    0.60    0.40
   0   1  -9    0.50    0.50
  -1  -1  -9   50.99    3.70
   1  -1   9   50.49    5.50
  -1  -1  -9   50.69    3.70
  -1  -1  -9   54.19    3.50
  -1  -1  -9   52.89    4.00
  -1  -1  -9   51.99    3.90
   1  -1   9   54.49    3.80
  -1   1  -9   64.39    4.50
  -1   1  -9   66.09    4.30
  -1   1  -9   61.49    4.40
   1   1   9   64.09    4.20
  -1   1  -9   62.79    4.40
  -2  -1  -9   17.70    1.50
  -2  -1  -9   16.20    2.00
  -2  -1  -9   18.40    2.00
  -2  -1  -9   16.70    1.60
  -2  -1  -9   17.80    1.70
   2  -1   9   17.90    1.70
  -2   1  -9   23.90    1.90
   2   1   9   24.60    1.80
  -2   1  -9   23.60    1.80
  -2   1  -9   20.40    2.00
   2   1   9   20.90    1.80
  -2   1  -9   22.50    1.90
  -3  -1  -9   82.69    5.50
  -3  -1  -9   81.49    5.70
   3  -1   9   80.49    5.80
  -3  -1  -9   81.39    6.00
  -3  -1  -9   85.79    5.70
  -3  -1  -9   77.19    5.90
  -3   1  -9  114.59    7.70
   3   1   9  116.49    7.50
  -3   1  -9  119.49    7.60
  -3   1  -9  120.59    7.70
  -3   1  -9  118.39    7.90
   3   1   9   99.39    7.60
  -4  -1  -9   24.70    2.00
  -4  -1  -9   21.70    1.70
   4  -1   9   22.30    1.70
   4  -1   9   20.10    2.10
   4  -1   9   19.80    1.70
  -4   1  -9   12.90    1.30
   4   1   9   13.30    1.40
  -4   1  -9   13.80    1.40
   4   1   9   13.70    1.30
   4   1   9   12.80    1.50
  -5  -1  -9   26.90    2.20
   5  -1   9   29.20    2.20
  -5  -1  -9   30.40    2.40
   5  -1   9   29.70    2.10
  -5   1  -9   33.00    2.80
   5   1   9   35.60    2.50
   5   1   9   37.40    2.60
   5   1   9   33.30    2.60
  -6  -1  -9   21.10    1.90
   6  -1   9   24.00    1.80
  -6  -1  -9   22.80    1.70
   6   1   9   22.70    1.80
   6   1   9   23.40    1.90
  -6   1  -9   22.90    1.80
  -6   1  -9   20.70    2.30
  -7  -1  -9   30.80    2.40
  -7  -1  -9   35.80    3.00
   7  -1   9   36.70    2.40
  -7   1  -9   33.90    2.60
   7   1   9   38.50    2.50
   8  -2  -9   89.59    6.80
  -8  -2   9   79.99    5.40
  -8  -2   9   80.29    5.40
   8   2  -9  125.79    9.30
  -7  -2   9   32.80    2.40
   7  -2  -9   33.40    4.00
  -7  -2   9   35.10    2.40
  -7   2   9   33.80    3.60
   7   2  -9   38.50    2.90
  -7   2   9   43.90    3.00
   7   2  -9   39.20    4.50
  -7   2   9   46.10    3.20
  -6  -2   9   32.50    2.30
  -6  -2   9   33.50    2.30
   6  -2  -9   30.30    4.10
  -6   2   9   34.90    2.60
   6   2  -9   32.30    4.20
  -6   2   9   31.10    3.30
   6   2  -9   27.70    2.40
  -5  -2   9   51.19    3.80
   5  -2  -9   41.50    4.80
  -5  -2   9   42.40    3.10
  -5  -2   9   42.20    3.10
  -5   2   9   54.79    4.80
  -5   2   9   56.49    4.00
   5   2  -9   53.59    3.90
   5   2  -9   49.90    5.30
  -5   2   9   60.09    4.00
  -4  -2   9   38.00    4.70
  -4  -2   9   41.30    3.40
   4   2  -9   35.40    2.70
  -4   2   9   36.20    2.90
  -4   2   9   33.60    3.50
  -4   2   9   39.50    4.10
  -4   2   9   36.10    4.30
   4   2  -9   36.50    3.10
  -4   2   9   33.80    2.70
  -4   2   9   31.50    3.60
  -3  -2   9   94.39    9.50
  -3  -2   9  117.99    7.10
  -3  -2   9  112.29    8.80
  -3  -2   9   91.99    7.80
   3  -2  -9   97.59    7.30
   3   2  -9  125.79    7.90
  -3   2   9  113.39    7.90
  -3   2   9  116.39    8.50
  -3   2   9  108.09    7.70
  -3   2   9   99.29    8.60
   3   2  -9  111.89    8.10
  -3   2   9  129.19    8.30
   3   2  -9  131.89    7.80
  -2  -2   9  149.69   12.80
  -2  -2   9  153.78    9.90
   2  -2  -9  156.48   10.50
  -2  -2   9  152.78   11.50
  -2   2   9  168.38   12.40
  -2   2   9  171.48   11.50
   2   2  -9  190.28   11.80
  -2   2   9  175.98   11.60
   2   2  -9  185.28   11.60
   2   2  -9  171.58   11.80
  -2   2   9  193.68   12.00
   2   2  -9  185.78   11.40
  -2   2   9  155.68   11.40
   1  -2  -9  243.78   15.30
   1  -2  -9  197.58   15.00
  -1  -2   9  250.57   17.90
   1   2  -9  287.97   17.40
   1   2  -9  280.87   17.70
   1   2  -9  279.57   17.50
  -1   2   9  261.17   17.30
   1   2  -9  274.57   17.70
  -1   2   9  245.98   17.40
  -1   2   9  289.67   18.00
  -1   2   9  245.78   17.30
   1   2  -9  282.07   17.40
   0  -2  -9   69.19    5.10
   0  -2   9   68.19    7.30
   0  -2  -9   78.89    5.30
   0  -2  -9   77.09    4.80
   0  -2   9   62.79    5.10
   0   2  -9   94.49    6.20
   0   2   9   86.19    6.10
   0   2  -9  102.29    6.20
   0   2   9   98.69    6.20
   0   2  -9   90.59    6.30
   0   2  -9   87.59    7.20
   0   2  -9   94.99    6.50
   0   2   9   96.09    6.90
   0   2   9   91.69    6.10
  -1  -2  -9  133.09    9.20
   1  -2   9  126.39   11.30
  -1  -2  -9  143.59    9.00
   1  -2   9  134.19    9.20
  -1  -2  -9  140.19    9.30
  -1   2  -9  184.88   11.70
  -1   2  -9  192.18   11.50
  -1   2  -9  169.18   11.70
   1   2   9  171.48   12.40
  -1   2  -9  196.88   11.70
   1   2   9  176.28   11.60
  -1   2  -9  178.08   11.90
   1   2   9  181.88   11.60
  -1   2  -9  164.48   12.70
  -2  -2  -9   46.50    3.80
  -2  -2  -9   46.40    3.20
   2  -2   9   44.60    3.70
  -2  -2  -9   50.29    3.70
  -2  -2  -9   45.70    3.60
  -2   2  -9   61.79    5.70
   2   2   9   64.39    4.40
  -2   2  -9   59.89    4.70
  -2   2  -9   58.79    4.50
  -2   2  -9   70.59    4.50
  -2   2  -9   70.99    4.50
  -3  -2  -9  158.58   11.50
   3  -2   9  171.38   11.40
  -3  -2  -9  185.28   11.80
  -3  -2  -9  184.08   11.90
   3  -2   9  182.48   11.80
  -3  -2  -9  179.68   11.80
   3  -2   9  180.88   11.40
  -3   2  -9  193.58   11.90
  -3   2  -9  193.28   11.90
   3   2   9  168.18   11.90
   3   2   9  176.78   11.70
   3   2   9  179.68   11.80
  -4  -2  -9   19.50    2.60
  -4  -2  -9   17.60    1.60
   4  -2   9   19.00    1.50
   4  -2   9   18.80    1.60
  -4  -2  -9   19.70    2.30
  -4  -2  -9   20.10    1.90
   4  -2   9   19.30    2.00
   4   2   9   25.20    2.10
  -4   2  -9   27.10    2.10
  -4   2  -9   29.00    2.20
   4   2   9   25.10    2.30
   4   2   9   27.40    2.30
   4   2   9   28.40    2.20
   5  -2   9  178.68   11.20
  -5  -2  -9  170.78   11.30
  -5  -2  -9  172.48   11.50
   5  -2   9  175.98   11.20
  -5  -2  -9  176.08   12.20
   5   2   9  216.58   14.10
   5   2   9  227.78   14.10
  -5   2  -9  211.88   14.20
   5   2   9  217.78   13.90
   5   2   9  211.68   14.00
  -6  -2  -9   58.69    4.70
  -6  -2  -9   54.19    4.10
   6  -2   9   58.49    3.90
   6  -2   9   61.89    3.90
   6   2   9   63.19    4.30
   6   2   9   65.09    4.30
  -6   2  -9   63.79    4.20
   6   2   9   65.09    4.20
   6   2   9   58.59    4.20
  -7  -3   9   40.60    2.90
   7  -3  -9   45.50    4.50
   7   3  -9   53.09    4.90
   7   3  -9   49.80    3.60
  -7   3   9   53.79    3.70
  -7   3   9   51.09    3.50
  -6  -3   9  117.79    7.90
   6  -3  -9  127.29    9.60
  -6  -3   9  118.49    7.90
  -6   3   9  165.58   11.30
   6   3  -9  163.58   10.60
  -6   3   9  156.48   10.70
   6   3  -9  160.08   11.80
  -6   3   9  163.98   10.50
  -5  -3   9   19.80    1.60
   5  -3  -9   20.20    3.30
  -5   3   9   30.20    2.50
   5   3  -9   20.50    3.50
  -5   3   9   27.00    2.20
  -5   3   9   29.60    3.10
   5   3  -9   27.20    2.20
  -4  -3   9   24.10    2.50
   4  -3  -9   26.90    3.70
  -4  -3   9   24.60    1.90
  -4   3   9   37.60    3.10
  -4   3   9   42.80    3.90
   4   3  -9   36.80    2.90
  -4   3   9   39.70    2.90
   3  -3  -9  127.89    9.80
  -3  -3   9  134.69    8.20
  -3  -3   9  116.99    8.80
   3   3  -9  183.48   12.80
  -3   3   9  206.88   13.20
  -3   3   9  219.08   14.00
  -3   3   9  194.18   12.90
   3   3  -9  200.98   13.10
  -2  -3   9  166.18   12.50
   2  -3  -9  185.48   11.20
   2  -3  -9  160.38   10.90
  -2  -3   9  140.79   14.70
   2   3  -9  215.98   13.70
  -2   3   9  188.18   13.30
  -2   3   9  222.48   14.50
  -2   3   9  207.58   13.70
  -2   3   9  202.88   13.40
   2   3  -9  215.68   13.40
   2   3  -9  210.88   13.80
   1  -3  -9   19.40    2.10
   1  -3  -9   26.30    2.30
  -1  -3   9   18.20    4.30
  -1  -3   9   22.10    5.00
  -1   3   9   39.80    2.80
   1   3  -9   39.20    3.00
  -1   3   9   35.30    2.60
  -1   3   9   37.10    3.00
   1   3  -9   40.20    2.80
   1   3  -9   39.30    4.00
   0  -3   9   37.30    5.40
   0  -3  -9   26.20    2.70
   0   3   9   79.49    4.80
   0   3   9   65.49    4.70
   0   3  -9   71.69    4.80
   0   3  -9   77.19    5.00
   0   3  -9   79.39    6.40
   0   3  -9   74.49    4.80
   0   3  -9   56.09    4.80
  -1  -3  -9   15.30    1.70
   1  -3   9    9.30    1.90
   1  -3   9   15.40    3.80
   1   3   9    9.10    0.90
  -1   3  -9    6.50    1.20
   1   3   9   12.10    1.30
   1   3   9   10.80    1.20
  -1   3  -9   12.20    2.40
  -1   3  -9    9.00    1.10
  -1   3  -9   11.50    1.30
   2  -3   9   48.70    3.10
  -2  -3  -9   45.70    3.50
   2  -3   9   48.50    3.60
  -2  -3  -9   36.00    3.60
   2   3   9   69.59    4.50
  -2   3  -9   66.99    4.60
   2   3   9   62.69    4.60
  -2   3  -9   69.29    4.70
   2   3   9   59.39    4.90
   2   3   9   70.69    4.60
  -2   3  -9   65.19    4.50
   2   3   9   68.99    4.80
  -3  -3  -9   95.39    6.40
   3  -3   9  105.39    6.80
  -3  -3  -9   82.39    6.30
  -3  -3  -9   96.39    6.60
   3  -3   9   97.29    6.70
   3  -3   9   93.39    6.30
   3  -3   9   96.69    6.20
   3   3   9  115.99    8.70
  -3   3  -9  138.29    8.60
   3   3   9  127.09    8.50
   3   3   9  126.79    8.40
  -3   3  -9  145.09    8.60
   3   3   9  121.69    8.60
   4  -3   9    9.10    1.10
   4  -3   9    8.40    1.40
  -4  -3  -9   10.50    1.40
   4  -3   9    9.80    0.90
   4   3   9   13.30    1.40
  -4   3  -9   14.20    1.40
   4   3   9   14.10    1.70
   4   3   9   12.80    1.40
   4   3   9   14.10    1.60
  -4   3  -9   13.10    1.40
   5  -3   9   54.89    3.50
  -5  -3  -9   49.70    4.30
  -5  -3  -9   50.99    3.80
   5  -3   9   53.89    3.50
   5   3   9   73.59    5.00
   5   3   9   66.69    4.80
   5   3   9   69.99    4.80
   5   3   9   78.39    5.00
  -6  -3  -9  149.69   10.10
  -6  -3  -9  147.39    9.60
   6   3   9  226.58   14.90
   6   3   9  240.78   14.90
   6   3   9  229.88   14.80
  -6  -4   9   74.99    4.30
  -6  -4   9   56.39    4.60
   6   4  -9   88.99    6.30
   6   4  -9   97.09    7.30
  -6   4   9   97.09    6.30
  -5  -4   9  127.99    9.50
  -5  -4   9  152.68    9.00
  -5   4   9  209.08   13.00
   5   4  -9  188.98   12.90
  -5   4   9  199.58   13.60
  -4  -4   9   30.00    3.00
  -4  -4   9   37.20    2.40
  -4   4   9   67.29    5.60
  -4   4   9   69.19    4.90
   3  -4  -9  126.89    7.60
  -3  -4   9   98.29    8.10
  -3  -4   9  126.39    7.60
   3   4  -9  224.88   14.60
  -3   4   9  228.28   15.50
   3   4  -9  208.38   14.20
  -3   4   9  233.58   14.70
  -2  -4   9   45.20    2.90
  -2  -4   9   37.60    3.50
   2  -4  -9   42.90    2.90
   2  -4  -9   45.60    3.50
  -2   4   9   75.99    5.00
  -2   4   9   72.99    5.10
   2   4  -9   67.39    4.60
   2   4  -9   66.49    5.10
   1  -4  -9   23.50    2.30
   1  -4  -9   23.50    1.80
  -1  -4   9   19.60    2.30
  -1  -4   9   26.70    1.80
  -1  -4   9   25.20    2.40
  -1   4   9   43.30    3.10
  -1   4   9   38.70    3.20
   1   4  -9   36.70    2.70
   0  -4   9   36.50    2.20
   0  -4   9   31.30    2.80
   0  -4   9   35.90    2.80
   0  -4  -9   22.10    2.70
   0  -4   9   25.40    2.30
   0   4   9   29.90    2.50
   0   4  -9   28.00    2.10
   0   4  -9   28.30    2.30
   0   4  -9   31.80    2.20
   1  -4   9  131.19    8.00
   1  -4   9  122.29    8.60
  -1  -4  -9  116.49    8.30
   1  -4   9  126.69    8.50
  -1   4  -9  146.19   10.00
   1   4   9  164.18   10.20
   2  -4   9  101.69    7.00
   2  -4   9  101.39    6.60
   2  -4   9  106.09    7.10
  -2  -4  -9   94.29    6.90
  -2   4  -9   97.79    6.50
   2   4   9  107.99    6.80
  -2   4  -9   92.69    6.70
   2   4   9  103.09    6.70
  -2   4  -9   92.59    6.60
  -3  -4  -9   34.60    2.80
   3  -4   9   36.40    2.80
   3  -4   9   34.00    2.80
   3  -4   9   35.30    2.40
   3   4   9   62.09    4.40
  -3   4  -9   62.89    4.30
  -3   4  -9   61.39    4.30
   3   4   9   53.39    4.50
  -3   4  -9   65.09    4.10
   4  -4   9   38.80    3.00
  -4  -4  -9   40.30    3.00
   4  -4   9   38.50    2.60
   4   4   9   50.19    3.90
   4   4   9   58.19    3.90
   5  -4   9   38.50    2.60
  -5  -4  -9   39.10    2.80
   5   4   9   55.39    4.00
   5   4   9   59.59    4.00
  -5  -5   9   24.90    2.20
  -5  -5   9   29.20    1.80
  -5   5   9   44.80    3.20
  -4  -5   9   61.79    4.80
  -4  -5   9   73.09    4.40
  -4   5   9  128.69    8.10
   4   5  -9  107.39    7.70
  -4   5   9  125.39    8.00
  -3  -5   9  109.39    6.30
   3  -5  -9   84.09    6.30
  -3  -5   9   99.89    6.90
  -3   5   9  136.99    9.20
   3   5  -9  122.79    8.80
  -3   5   9  155.88    9.30
  -2  -5   9   25.80    2.40
   2  -5  -9   26.70    1.90
   2  -5  -9   26.70    2.30
  -2   5   9   65.59    4.20
  -2   5   9   49.50    4.00
  -2   5   9   54.69    4.20
   2   5  -9   54.29    3.70
   1  -5  -9    5.90    1.10
  -1  -5   9    9.80    1.40
  -1  -5   9    6.80    0.90
   1  -5  -9    6.30    0.70
  -1  -5   9    7.50    1.30
   1   5  -9    9.40    1.00
  -1   5   9   14.50    1.60
  -1   5   9   14.10    1.70
   0  -5   9  119.39    8.50
   0  -5   9  129.59    8.40
   0   5  -9  166.58   10.80
   0   5   9  171.28   11.10
   0   5  -9  166.08   10.80
   0   5   9  169.68   11.10
   1  -5   9   36.40    2.70
   1  -5   9   33.20    2.80
  -1  -5  -9   33.70    2.60
   1   5   9   67.49    4.70
   1   5   9   66.79    4.70
  -1   5  -9   64.49    4.40
   2  -5   9   28.70    2.30
  -2  -5  -9   27.60    2.20
   2  -5   9   27.20    2.30
  -2   5  -9   36.40    2.50
   2   5   9   34.20    2.70
   2   5   9   36.60    2.80
   3  -5   9   40.00    3.00
  -3  -5  -9   43.10    3.00
   3  -5   9   41.20    3.00
   3   5   9   62.69    3.80
   3   5   9   45.90    3.70
  -2  -6   9   47.20    3.20
  -2  -6   9   42.10    3.20
   2  -6  -9   45.90    2.90
   2   6  -9   69.29    4.50
  -1  -6   9   82.39    5.40
  -1  -6   9   78.19    5.50
   1  -6  -9   81.09    5.20
  -1   6   9  131.59    8.20
  -1   6   9  120.69    8.00
   1   6  -9  123.79    7.90
  -1   6   9  118.59    9.20
   0  -6   9   64.59    4.20
   0  -6  -9   57.69    4.00
   0  -6   9   60.69    4.20
   0   6   9   84.29    5.50
   0   6  -9   71.59    5.30
   0   6   9   92.09    5.50
  -1  -6  -9   16.90    1.20
   1   6   9   23.30    1.80
   1   6   9   24.40    2.10
   8   0 -10   38.50    4.00
  -8   0  10   35.20    2.50
   7   0 -10   84.39    7.40
  -7   0  10   92.89    6.00
  -7   0  10   90.99    5.90
  -6   0  10   84.89    5.90
  -6   0  10   81.09    5.60
   6   0 -10   82.49    7.20
   6   0 -10   91.89    5.70
  -5   0  10    1.80    0.50
   5   0 -10    2.30    0.70
  -5   0  10    2.90    0.80
   5   0 -10    2.00    1.50
  -5   0  10    1.90    0.80
  -4   0  10   10.40    1.10
   4   0 -10   13.90    1.80
  -4   0  10   10.80    2.30
  -4   0  10    9.30    1.30
  -4   0  10   10.70    2.60
  -3   0  10   27.70    3.20
  -3   0  10   26.20    2.20
   3   0 -10   29.70    2.60
  -3   0  10   30.70    2.10
  -3   0  10   26.10    3.70
  -3   0  10   30.20    3.00
   3   0 -10   28.10    2.50
  -3   0  10   29.80    2.40
  -2   0  10  767.72   50.59
   2   0 -10  796.52   51.09
   2   0 -10  879.01   50.69
  -2   0  10  794.32   50.79
  -2   0  10  732.93   51.89
  -2   0  10  751.72   52.49
  -2   0  10  811.72   51.39
   2   0 -10  869.91   51.09
  -1   0  10 1220.08   77.29
  -1   0  10 1234.38   77.79
  -1   0  10 1266.37   77.29
   1   0 -10 1150.48   77.29
   1   0 -10 1076.59   77.09
   1   0 -10 1228.18   77.69
  -1   0  10 1178.18   78.99
   1   0 -10 1352.56   77.39
   1   0 -10 1291.27   77.49
   0   0 -10   14.60    1.60
   0   0 -10   14.10    1.30
   0   0  10   13.10    1.20
   0   0  10   14.30    1.30
   0   0 -10   14.20    1.10
   0   0 -10   13.00    1.50
   0   0 -10   12.80    1.40
   0   0  10   12.70    2.50
   1   0  10   41.10    2.90
  -1   0 -10   42.20    2.90
  -1   0 -10   41.20    3.30
  -1   0 -10   41.50    3.40
   1   0  10   41.00    3.10
  -1   0 -10   42.10    3.20
  -1   0 -10   42.80    3.00
   2   0  10   68.89    4.50
   2   0  10   62.19    4.70
  -2   0 -10   66.19    4.60
  -2   0 -10   67.29    5.00
  -2   0 -10   66.79    4.80
  -2   0 -10   68.29    4.60
  -3   0 -10   87.49    6.40
  -3   0 -10   94.29    6.20
  -3   0 -10   91.89    6.90
   3   0  10   94.49    6.30
  -3   0 -10   95.49    6.40
   3   0  10  102.19    6.30
  -3   0 -10   94.89    7.40
  -3   0 -10   92.59    6.10
   3   0  10  102.39    6.40
   4   0  10   15.50    1.50
  -4   0 -10   14.30    1.30
  -4   0 -10   15.60    1.40
   4   0  10   15.50    1.40
   4   0  10   17.60    1.50
   4   0  10   15.80    1.40
   5   0  10   82.49    5.50
  -5   0 -10   77.09    5.60
  -5   0 -10   83.99    5.70
   5   0  10   86.09    5.50
   5   0  10   90.89    5.60
   5   0  10   82.09    5.50
  -5   0 -10   83.79    5.50
   6   0  10   49.90    3.30
   6   0  10   48.40    3.30
  -6   0 -10   46.70    3.50
  -6   0 -10   48.20    3.40
  -6   0 -10   48.80    3.30
   6   0  10   51.29    3.40
  -8  -1  10   31.30    2.10
   8  -1 -10   28.30    3.50
   8   1 -10   39.70    4.10
  -7  -1  10   12.30    1.20
   7  -1 -10   11.70    2.80
  -7   1  10   14.10    1.70
  -7   1  10   13.30    1.30
   7   1 -10   14.60    3.10
   7   1 -10   15.30    1.30
  -7   1  10   14.20    1.50
   6  -1 -10   40.00    4.50
  -6  -1  10   43.40    2.90
  -6  -1  10   40.70    3.10
  -6   1  10   62.89    4.10
  -6   1  10   59.19    4.20
   6   1 -10   57.39    4.00
  -6   1  10   52.39    4.80
   6   1 -10   54.69    5.60
   5  -1 -10  247.18   19.20
  -5  -1  10  264.07   17.80
  -5  -1  10  306.67   18.30
   5  -1 -10  300.07   18.00
   5   1 -10  355.66   22.30
  -5   1  10  361.16   22.30
   5   1 -10  323.97   23.50
  -5   1  10  366.56   22.20
  -5   1  10  324.47   23.00
  -4  -1  10   80.99    5.60
   4  -1 -10   73.89    5.70
  -4  -1  10   76.49    7.60
  -4  -1  10   78.59    5.30
  -4  -1  10   81.29    7.00
   4   1 -10   74.79    5.70
  -4   1  10   69.19    5.40
  -4   1  10   81.89    6.50
  -4   1  10   79.59    7.10
  -4   1  10   76.49    5.30
  -4   1  10   83.49    5.10
  -3  -1  10   83.79    7.90
  -3  -1  10   85.19    5.80
  -3  -1  10   82.99    7.00
   3  -1 -10   79.59    5.90
   3  -1 -10   87.49    6.20
  -3  -1  10   80.09    6.50
  -3  -1  10   84.89    5.50
   3   1 -10   94.29    7.30
   3   1 -10  115.39    7.70
  -3   1  10  112.09    7.30
  -3   1  10  119.69    8.00
  -3   1  10  115.59    9.10
  -3   1  10  106.89    8.30
  -3   1  10  115.99    7.20
  -3   1  10  106.09    7.40
   3   1 -10  111.19    7.30
  -2  -1  10  163.08   11.10
   2  -1 -10  171.58   10.80
   2  -1 -10  144.99   10.70
  -2  -1  10  165.58   10.40
  -2  -1  10  166.38   12.70
   2  -1 -10  159.28   10.60
  -2  -1  10  139.19   11.40
  -2   1  10  187.18   12.30
   2   1 -10  189.48   12.50
  -2   1  10  180.38   14.10
   2   1 -10  201.08   12.90
   2   1 -10  209.38   12.60
  -2   1  10  197.78   12.50
  -2   1  10  200.28   13.00
  -2   1  10  177.58   12.40
   1  -1 -10   32.50    2.60
   1  -1 -10   35.40    2.90
  -1  -1  10   33.00    2.50
   1  -1 -10   35.00    2.60
   1  -1 -10   35.10    2.40
  -1  -1  10   32.00    4.30
  -1  -1  10   30.20    2.40
   1   1 -10   37.20    2.50
  -1   1  10   36.40    2.60
   1   1 -10   35.20    2.80
  -1   1  10   32.60    3.90
  -1   1  10   33.10    2.50
   1   1 -10   33.30    2.60
  -1   1  10   34.30    2.40
  -1   1  10   37.00    3.10
   1   1 -10   36.20    2.40
   1   1 -10   33.70    2.80
   0  -1 -10  233.58   14.00
   0  -1  10  208.58   16.00
   0  -1 -10  205.48   14.20
   0  -1  10  216.18   14.00
   0  -1 -10  213.28   13.90
   0  -1 -10  206.48   14.00
   0   1 -10  225.88   14.50
   0   1 -10  217.98   14.30
   0   1  10  195.98   15.60
   0   1  10  234.88   14.80
   0   1 -10  236.78   14.30
   0   1 -10  220.38   14.20
   0   1  10  235.18   14.20
   0   1 -10  221.88   14.50
   0   1  10  205.68   14.20
  -1  -1 -10  123.89    7.70
  -1  -1 -10  125.49    8.00
   1  -1  10  117.39    8.00
  -1  -1 -10  125.29    8.30
  -1  -1 -10  116.99    8.10
   1  -1  10  106.69    9.80
  -1  -1 -10  118.89    8.00
   1   1  10  116.49    8.00
  -1   1 -10  126.09    8.40
   1   1  10  127.19    8.10
   1   1  10  117.79    8.20
  -1   1 -10  119.59    8.10
  -1   1 -10  123.99    8.20
  -1   1 -10  139.19    8.20
   2  -1  10  188.58   13.00
  -2  -1 -10  195.28   13.00
  -2  -1 -10  208.38   12.80
  -2  -1 -10  205.98   13.20
  -2  -1 -10  191.68   13.40
  -2  -1 -10  199.28   13.10
  -2   1 -10  173.78   10.50
   2   1  10  164.48   10.40
  -2   1 -10  151.48   10.40
  -2   1 -10  162.38   10.70
  -2   1 -10  158.48   10.50
   2   1  10  146.49   10.50
  -2   1 -10  164.88   10.50
  -3  -1 -10  258.57   17.00
  -3  -1 -10  281.47   17.20
  -3  -1 -10  259.77   16.80
  -3  -1 -10  268.57   17.50
   3  -1  10  264.37   16.90
   3  -1  10  257.27   16.90
  -3  -1 -10  267.47   17.20
  -3   1 -10  263.97   16.60
  -3   1 -10  250.97   16.70
  -3   1 -10  242.18   16.40
   3   1  10  271.27   16.50
   3   1  10  258.97   16.40
   4  -1  10   10.50    1.20
  -4  -1 -10   11.30    1.30
   4  -1  10   11.50    1.10
  -4  -1 -10   11.30    1.10
  -4   1 -10    6.70    1.10
  -4   1 -10    6.20    0.90
   4   1  10    8.00    1.00
  -4   1 -10    7.40    0.70
   4   1  10    7.60    0.80
   4   1  10    7.60    1.20
  -5  -1 -10   74.69    4.90
   5  -1  10   76.09    4.90
  -5  -1 -10   71.49    5.10
   5  -1  10   70.99    4.80
   5   1  10   88.89    5.50
  -5   1 -10   78.29    5.80
  -5   1 -10   86.29    5.60
   5   1  10   81.49    5.50
   5   1  10   80.69    5.60
  -6  -1 -10   43.90    3.80
   6  -1  10   50.39    3.10
  -6  -1 -10   44.50    3.30
   6   1  10   63.29    3.80
   6   1  10   54.79    3.80
  -6   1 -10   55.79    3.90
  -6   1 -10   52.19    3.80
   8  -2 -10    6.50    1.50
  -8  -2  10    5.20    0.60
  -8  -2  10    6.00    0.60
   8   2 -10    9.10    2.30
   7  -2 -10   99.89    7.70
  -7  -2  10  100.29    6.20
  -7  -2  10   88.39    6.20
   7   2 -10  136.29    8.30
  -7   2  10  130.49    8.30
  -7   2  10  113.89    8.40
   7   2 -10  126.69    9.60
  -6  -2  10   52.99    3.70
  -6  -2  10   56.69    3.70
   6  -2 -10   53.49    5.30
   6   2 -10   63.09    4.30
  -6   2  10   63.09    4.30
   6   2 -10   67.39    5.90
  -6   2  10   55.69    5.10
  -6   2  10   55.69    4.40
  -5  -2  10    2.80    1.00
  -5  -2  10    3.50    0.60
   5  -2 -10    2.30    1.50
  -5  -2  10    3.00    0.60
   5   2 -10    2.40    0.70
  -5   2  10    3.40    1.50
  -5   2  10    3.40    0.90
  -5   2  10    2.20    0.90
  -4  -2  10    7.30    1.00
  -4  -2  10   11.00    1.60
   4  -2 -10    9.10    1.20
  -4  -2  10    9.00    1.00
   4  -2 -10    8.20    2.50
  -4   2  10   19.50    2.70
   4   2 -10   13.40    1.60
  -4   2  10   20.10    2.00
  -4   2  10   17.70    1.70
  -3  -2  10  201.38   15.20
   3  -2 -10  214.08   14.00
  -3  -2  10  203.18   16.50
  -3  -2  10  212.78   13.50
   3   2 -10  206.78   14.70
  -3   2  10  194.68   15.20
   3   2 -10  228.98   14.40
  -3   2  10  222.08   16.20
  -3   2  10  222.18   14.20
   3   2 -10  256.07   14.30
  -3   2  10  224.38   14.10
  -3   2  10  225.88   14.50
  -3   2  10  198.88   16.00
   2  -2 -10   15.90    1.90
  -2  -2  10   13.70    2.60
   2  -2 -10   14.50    1.60
  -2  -2  10   15.70    3.70
  -2   2  10   27.80    2.40
   2   2 -10   29.10    2.60
  -2   2  10   25.00    2.10
  -2   2  10   24.10    3.60
   2   2 -10   29.30    2.30
  -2   2  10   28.80    2.00
   2   2 -10   29.10    2.00
   2   2 -10   30.40    2.50
  -2   2  10   29.80    3.50
  -1  -2  10  652.23   44.80
   1  -2 -10  678.73   42.20
   1  -2 -10  638.74   41.90
   1   2 -10  791.62   46.90
  -1   2  10  621.74   48.40
  -1   2  10  754.02   46.80
  -1   2  10  782.12   47.60
   1   2 -10  734.63   47.10
  -1   2  10  782.92   46.90
  -1   2  10  701.63   46.90
   1   2 -10  739.53   47.20
   1   2 -10  763.32   46.90
   1   2 -10  731.13   47.30
   0  -2  10  198.98   15.90
   0  -2 -10  209.08   13.40
   0  -2 -10  203.38   13.60
   0  -2  10  196.78   13.30
   0   2  10  222.68   15.20
   0   2  10  245.78   15.20
   0   2 -10  223.98   15.20
   0   2 -10  267.17   15.30
   0   2 -10  226.38   15.50
   0   2  10  257.97   16.00
   0   2 -10  231.18   15.40
   0   2  10  225.28   15.10
   1  -2  10  297.67   23.50
  -1  -2 -10  342.17   21.20
  -1  -2 -10  338.77   21.00
  -1  -2 -10  324.57   21.40
   1  -2  10  328.77   21.20
  -1   2 -10  317.27   21.70
   1   2  10  344.87   21.40
  -1   2 -10  306.37   21.50
   1   2  10  361.56   21.40
  -1   2 -10  320.87   21.60
  -1   2 -10  360.26   21.60
  -2  -2 -10  416.06   26.90
  -2  -2 -10  426.76   27.20
   2  -2  10  407.66   26.80
   2  -2  10  404.96   26.80
  -2  -2 -10  428.36   27.10
   2  -2  10  429.56   27.20
  -2  -2 -10  412.46   26.70
   2  -2  10  467.55   27.30
  -2  -2 -10  401.86   27.00
   2   2  10  486.55   30.70
   2   2  10  478.55   30.70
   2   2  10  434.36   30.80
  -2   2 -10  549.25   30.90
  -2   2 -10  458.95   31.80
  -2   2 -10  505.55   30.90
  -2   2 -10  471.65   30.70
  -3  -2 -10   23.30    2.10
   3  -2  10   22.30    1.80
  -3  -2 -10   24.50    2.40
  -3  -2 -10   22.20    1.80
   3  -2  10   24.00    1.70
  -3  -2 -10   21.80    1.70
  -3  -2 -10   22.40    2.10
   3   2  10   28.30    2.50
   3   2  10   31.30    2.40
  -3   2 -10   32.90    2.40
  -3   2 -10   31.50    2.50
   3   2  10   31.00    2.30
   3   2  10   32.90    2.70
   4  -2  10   16.00    1.30
  -4  -2 -10   17.40    1.40
  -4  -2 -10   16.70    1.70
   4  -2  10   15.70    1.80
   4  -2  10   18.40    1.40
   4   2  10   16.00    1.40
   4   2  10   16.10    1.60
   4   2  10   14.90    1.50
  -4   2 -10   14.50    1.50
   4   2  10   15.40    1.70
  -4   2 -10   14.30    1.40
  -5  -2 -10   26.10    1.90
  -5  -2 -10   22.80    2.60
   5  -2  10   24.90    1.80
  -5  -2 -10   24.70    2.10
   5  -2  10   25.00    1.90
   5   2  10   28.20    2.20
  -5   2 -10   24.10    2.20
   5   2  10   27.40    2.00
   5   2  10   29.30    2.10
  -6  -2 -10   47.20    3.80
   6  -2  10   51.89    3.20
  -6  -2 -10   47.30    3.40
   6   2  10   63.59    4.40
   6   2  10   67.19    4.10
  -6   2 -10   56.79    4.10
  -7  -3  10   30.90    2.10
   7   3 -10   38.10    3.90
   7   3 -10   40.80    2.80
  -6  -3  10   11.60    1.10
   6  -3 -10   12.70    2.60
  -6  -3  10   11.60    1.00
   6   3 -10   20.00    3.10
  -6   3  10   19.70    1.60
   6   3 -10   16.80    1.60
  -6   3  10   17.20    1.90
  -5  -3  10   51.29    3.50
  -5  -3  10   53.69    3.50
   5  -3 -10   49.90    5.10
   5   3 -10   51.59    4.30
  -5   3  10   64.59    4.30
  -5   3  10   65.19    5.20
  -5   3  10   69.89    4.60
  -4  -3  10   74.19    4.70
   4  -3 -10   69.39    6.30
  -4  -3  10   71.69    4.80
  -4   3  10  113.79    7.30
   4   3 -10  105.09    6.90
  -4   3  10   98.49    7.00
  -4   3  10  106.49    8.00
  -3  -3  10  331.77   21.90
  -3  -3  10  331.47   21.90
   3  -3 -10  372.26   22.20
   3   3 -10  492.25   29.60
  -3   3  10  478.75   29.70
  -3   3  10  453.35   29.40
  -3   3  10  455.35   30.40
   3   3 -10  428.66   29.30
  -3   3  10  466.95   29.40
   2  -3 -10   87.79    6.30
  -2  -3  10   92.19    5.90
   2  -3 -10   82.89    5.80
   2  -3 -10  104.79    6.30
  -2  -3  10   88.09    5.90
  -2  -3  10   82.49    6.40
   2   3 -10  122.79    7.90
   2   3 -10  101.19    7.40
  -2   3  10  112.39    7.50
  -2   3  10  113.39    7.80
  -2   3  10  123.59    7.50
   1  -3 -10   90.69    6.20
  -1  -3  10   76.99    5.80
  -1  -3  10   83.39    6.20
   1  -3 -10   98.49    6.10
   1  -3 -10   82.79    5.60
  -1  -3  10   84.39    5.60
  -1   3  10  113.19    8.00
   1   3 -10  116.59    7.60
  -1   3  10  108.89    7.80
  -1   3  10  120.29    7.70
   1   3 -10  127.19    8.30
  -1   3  10  121.39    7.70
   0  -3  10  358.66   23.50
   0  -3 -10  388.56   24.10
   0  -3  10  348.27   23.50
   0  -3 -10  387.56   23.90
   0  -3 -10  370.96   23.50
   0  -3  10  366.96   24.00
   0   3 -10  563.84   33.20
   0   3  10  522.55   33.10
   0   3 -10  514.15   33.00
   0   3  10  523.25   33.00
   0   3  10  530.05   33.20
   0   3  10  527.65   33.30
   0   3  10  466.25   33.30
  -1  -3 -10   80.39    5.90
  -1  -3 -10   79.99    5.50
  -1  -3 -10   82.29    6.00
   1  -3  10   83.29    5.50
   1  -3  10   86.19    5.90
   1  -3  10   92.69    6.00
   1  -3  10   75.59    5.40
   1   3  10   99.49    6.70
  -1   3 -10  108.79    6.80
  -1   3 -10  103.59    6.90
   1   3  10   95.49    6.90
   1   3  10  101.19    6.70
   1   3  10  100.89    6.60
  -1   3 -10  104.39    6.60
   1   3  10   94.49    6.80
   2  -3  10   19.30    1.90
  -2  -3 -10   19.20    1.40
   2  -3  10   17.60    1.90
  -2  -3 -10   17.50    1.70
  -2  -3 -10   15.90    2.00
   2  -3  10   17.50    1.40
   2  -3  10   17.40    1.50
   2   3  10   25.30    2.10
   2   3  10   22.00    2.20
  -2   3 -10   30.70    2.20
  -2   3 -10   29.10    2.20
   2   3  10   25.50    2.40
   2   3  10   27.20    2.10
   2   3  10   28.80    2.60
   3  -3  10   44.40    3.00
  -3  -3 -10   43.00    3.30
  -3  -3 -10   44.40    3.10
   3  -3  10   43.30    3.40
   3  -3  10   43.50    3.00
   3   3  10   53.29    3.70
   3   3  10   55.19    4.10
  -3   3 -10   57.69    3.80
   3   3  10   53.39    3.80
  -3   3 -10   53.69    3.90
   3   3  10   52.59    3.90
   4  -3  10   70.09    4.70
  -4  -3 -10   74.79    5.10
   4  -3  10   69.19    5.10
   4  -3  10   75.59    4.80
   4   3  10  102.29    6.50
   4   3  10  100.69    6.80
   4   3  10   96.99    6.50
  -4   3 -10   93.09    6.70
   4   3  10  103.69    6.60
  -4   3 -10   98.69    6.60
  -5  -3 -10   88.59    6.20
   5  -3  10   96.59    6.00
   5  -3  10   93.49    6.00
   5   3  10  145.09    8.90
   5   3  10  138.29    8.90
   5   3  10  123.29    8.80
   5   3  10  136.89    8.70
  -6  -4  10    8.60    0.80
   6   4 -10   10.60    1.10
  -6   4  10   11.00    1.10
  -5  -4  10   87.59    5.00
  -5  -4  10   64.79    5.40
  -5   4  10  118.99    7.90
  -5   4  10  126.09    8.20
  -4  -4  10   56.09    3.50
  -4  -4  10   48.90    4.10
  -4   4  10   70.09    6.10
  -4   4  10   85.89    5.60
   4   4 -10   77.49    5.10
  -4   4  10   80.09    5.20
  -3  -4  10   64.89    5.20
  -3  -4  10   76.49    4.70
  -3   4  10  113.29    7.80
  -3   4  10  119.99    8.10
  -3   4  10  127.79    8.00
  -2  -4  10   10.20    1.70
   2  -4 -10    9.00    0.90
  -2  -4  10   10.10    1.00
   2  -4 -10    9.80    1.40
  -2   4  10   16.90    1.40
  -2   4  10   14.30    1.90
  -2   4  10   17.10    1.70
  -2   4  10   15.30    1.80
   2   4 -10   11.80    1.20
   1  -4 -10   28.40    2.30
   1  -4 -10   30.70    2.80
  -1  -4  10   35.30    2.30
  -1  -4  10   33.00    2.90
  -1   4  10   52.49    4.10
   1   4 -10   49.90    3.60
  -1   4  10   62.09    4.00
  -1   4  10   52.89    3.70
   0  -4  10  322.57   20.30
   0  -4 -10  296.17   20.80
   0  -4  10  331.27   20.70
   0  -4  10  341.77   20.80
   0  -4 -10  298.37   20.30
   0   4 -10  462.35   29.30
   0   4 -10  471.75   29.10
   0   4  10  456.35   29.10
   0   4  10  433.16   29.40
   0   4  10  472.45   29.40
   1  -4  10  150.78    9.60
   1  -4  10  167.18   10.10
  -1  -4 -10  138.59    9.60
  -1  -4 -10  132.19   10.10
   1  -4  10  153.88   10.00
   1   4  10  214.08   13.90
  -1   4 -10  209.38   14.10
  -1   4 -10  218.08   14.00
   1   4  10  213.68   14.10
  -1   4 -10  227.98   13.80
   1   4  10  218.58   14.20
   2  -4  10   41.20    2.60
  -2  -4 -10   33.60    3.10
   2  -4  10   35.40    3.00
  -2  -4 -10   38.70    2.60
   2  -4  10   40.70    3.00
  -2  -4 -10   38.00    2.90
  -2   4 -10   63.89    4.20
  -2   4 -10   60.89    4.30
   2   4  10   58.49    4.30
   2   4  10   63.29    4.40
   2   4  10   57.89    4.10
   3  -4  10   50.39    3.40
  -3  -4 -10   51.39    3.70
   3  -4  10   50.99    3.70
   3   4  10   73.39    5.30
   3   4  10   76.79    5.10
   3   4  10   73.29    4.90
  -4  -4 -10   13.10    1.30
   4  -4  10   11.80    1.00
   4  -4  10   12.60    1.30
   4   4  10   11.40    1.20
   4   4  10   13.10    1.30
   4   4  10   11.10    1.30
  -4  -5  10   88.79    6.30
  -4  -5  10   95.29    5.90
   4   5 -10  143.09    8.70
  -4   5  10  129.19    8.90
  -3  -5  10   66.79    4.80
   3  -5 -10   63.59    4.30
  -3  -5  10   68.69    4.30
   3   5 -10  105.89    6.60
  -3   5  10   98.29    6.90
  -2  -5  10   53.59    3.90
   2  -5 -10   49.50    3.40
  -2  -5  10   52.19    3.40
   2   5 -10   75.69    5.00
  -2   5  10   80.19    5.30
  -2   5  10   76.59    5.40
   1  -5 -10   27.80    2.10
  -1  -5  10   31.20    2.10
  -1  -5  10   29.70    2.50
  -1  -5  10   32.20    2.60
  -1   5  10   56.69    4.10
  -1   5  10   56.59    4.10
   1   5 -10   57.19    3.80
   0  -5  10   93.79    6.70
   0  -5  10  104.19    6.70
   0  -5  10  100.09    6.30
   0  -5 -10   93.39    6.30
   0   5  10  185.48   12.40
   0   5  10  193.18   12.40
   0   5 -10  190.98   12.10
   1  -5  10   28.20    2.30
   1  -5  10   34.70    2.60
   1  -5  10   35.00    2.60
  -1  -5 -10   32.90    2.30
   1   5  10   38.80    2.80
   1   5  10   36.50    2.90
   2  -5  10   48.10    3.30
   2  -5  10   45.50    3.20
  -2  -5 -10   44.20    3.10
  -2  -5 -10   42.20    3.00
   2   5  10   72.49    4.60
   2   5  10   62.19    4.50
   3  -5  10   28.70    2.20
  -3  -5 -10   29.10    2.10
   3   5  10   46.20    3.20
  -8   0  11   44.40    2.90
   8   0 -11   41.10    4.10
  -7   0  11   70.89    4.60
   7   0 -11   69.39    6.10
  -7   0  11   65.19    4.50
  -6   0  11   95.29    6.30
   6   0 -11  106.99    6.40
   6   0 -11   95.39    7.80
  -6   0  11   82.49    6.20
   5   0 -11    6.70    1.00
  -5   0  11    6.10    0.80
  -5   0  11    7.50    1.00
  -4   0  11  104.69    6.90
  -4   0  11   98.09    6.60
  -4   0  11   90.69    6.50
   4   0 -11  103.69    6.70
  -3   0  11   97.79    8.70
   3   0 -11  135.39    8.10
   3   0 -11  119.99    8.10
  -3   0  11  121.09    7.80
  -3   0  11  102.99    9.50
  -3   0  11  118.59    7.50
  -3   0  11  114.49    7.60
  -2   0  11  637.74   39.40
   2   0 -11  638.14   39.70
  -2   0  11  636.44   40.00
   2   0 -11  668.83   39.70
  -2   0  11  591.64   39.20
  -2   0  11  582.94   39.10
  -2   0  11  576.04   41.30
   1   0 -11  371.16   21.60
  -1   0  11  352.06   21.50
  -1   0  11  303.27   23.30
   1   0 -11  341.27   21.90
  -1   0  11  325.47   21.50
  -1   0  11  335.47   22.10
  -1   0  11  308.87   21.30
   1   0 -11  350.16   21.80
   1   0 -11  332.77   21.50
   0   0 -11    7.70    0.70
   0   0 -11    6.50    1.10
   0   0 -11    8.00    1.30
   0   0  11    7.20    1.20
   0   0 -11    5.50    1.10
   0   0 -11    5.70    0.90
   0   0  11    5.90    0.80
   0   0  11    5.60    2.10
  -1   0 -11   64.99    4.40
   1   0  11   58.59    4.30
  -1   0 -11   61.69    4.60
  -1   0 -11   59.69    4.70
  -1   0 -11   62.59    4.20
  -1   0 -11   61.79    4.50
   1   0  11   62.49    4.10
  -2   0 -11  104.79    7.70
  -2   0 -11  105.39    7.80
   2   0  11  106.49    7.20
  -2   0 -11  108.39    7.20
   2   0  11  112.39    7.20
  -2   0 -11  115.69    7.10
  -2   0 -11  116.29    7.40
  -3   0 -11   95.29    6.70
   3   0  11  105.99    6.60
  -3   0 -11   97.69    6.50
  -3   0 -11  100.39    6.40
   3   0  11   98.69    6.50
   4   0  11   97.59    6.40
   4   0  11   94.29    6.40
   4   0  11   95.89    6.50
   4   0  11  109.49    6.50
  -4   0 -11   94.99    6.50
   5   0  11   15.50    1.20
  -5   0 -11   14.10    1.40
   5   0  11   14.10    1.20
  -5   0 -11   12.80    1.20
   5   0  11   12.40    1.30
  -6   0 -11   32.40    2.20
  -6   0 -11   33.30    2.40
   6   0  11   32.40    2.30
   8  -1 -11    6.70    1.60
  -8  -1  11    6.60    0.70
   8   1 -11    4.70    1.50
  -7  -1  11   16.80    1.30
   7  -1 -11   15.70    3.00
  -7   1  11   14.70    1.70
   7   1 -11   18.50    1.40
   7   1 -11   17.20    3.10
  -7   1  11   18.80    1.60
   6  -1 -11  257.87   18.30
  -6  -1  11  269.17   16.80
  -6   1  11  303.67   18.90
  -6   1  11  255.57   19.00
   6   1 -11  290.27   20.20
   6   1 -11  330.57   19.00
  -5  -1  11  128.39    8.60
  -5  -1  11  139.19    9.10
   5  -1 -11  148.09    8.80
   5  -1 -11  116.79   10.00
  -5   1  11  150.88    9.60
   5   1 -11  156.58    9.70
  -5   1  11  132.79    9.70
  -4  -1  11   34.60    2.80
   4  -1 -11   33.30    2.50
  -4  -1  11   28.30    2.30
  -4   1  11   33.70    2.40
  -4   1  11   25.60    2.70
   4   1 -11   31.80    2.50
   3  -1 -11   38.50    3.10
   3  -1 -11   42.10    3.30
  -3  -1  11   34.40    4.70
  -3  -1  11   35.50    2.90
  -3  -1  11   31.50    3.90
  -3   1  11   44.30    3.30
  -3   1  11   45.40    3.00
  -3   1  11   41.50    4.90
  -3   1  11   39.10    4.10
   3   1 -11   43.40    3.60
  -3   1  11   47.10    3.20
  -2  -1  11   17.60    1.70
  -2  -1  11   18.60    3.50
   2  -1 -11   18.80    1.90
   2  -1 -11   23.70    2.20
  -2   1  11   16.40    1.50
  -2   1  11   15.90    1.60
  -2   1  11   14.30    3.00
  -2   1  11   18.00    1.30
   2   1 -11   15.80    1.60
   2   1 -11   15.80    1.80
   1  -1 -11   64.99    4.60
  -1  -1  11   60.39    6.60
   1  -1 -11   69.49    4.80
   1  -1 -11   68.59    5.00
   1   1 -11   77.99    5.20
  -1   1  11   77.09    5.70
  -1   1  11   64.69    6.70
   1   1 -11   80.09    5.40
   1   1 -11   80.09    5.50
   1   1 -11   80.69    5.00
  -1   1  11   73.69    5.00
  -1   1  11   72.39    5.10
  -1   1  11   80.39    5.20
   0  -1 -11   44.70    3.10
   0  -1 -11   38.70    3.10
   0  -1 -11   39.80    3.30
   0  -1  11   38.10    3.00
   0  -1 -11   38.90    3.10
   0  -1  11   37.10    4.90
   0   1 -11   46.00    3.50
   0   1  11   44.00    3.10
   0   1  11   39.30    4.70
   0   1  11   45.30    3.20
   0   1  11   45.40    3.20
   0   1 -11   48.10    3.10
   0   1 -11   43.00    3.50
   0   1  11   45.10    3.80
   0   1 -11   41.40    3.20
   0   1 -11   49.30    3.20
  -1  -1 -11   35.10    3.00
  -1  -1 -11   47.10    3.40
  -1  -1 -11   40.50    3.50
  -1  -1 -11   44.80    3.30
   1  -1  11   41.50    3.20
  -1  -1 -11   46.40    3.30
  -1   1 -11   51.79    3.40
   1   1  11   44.60    3.30
  -1   1 -11   51.39    3.80
  -1   1 -11   52.69    3.50
  -1   1 -11   48.80    3.50
   1   1  11   42.30    3.40
  -2  -1 -11  731.83   46.10
  -2  -1 -11  716.03   46.20
  -2  -1 -11  695.23   46.30
  -2  -1 -11  733.43   46.40
   2  -1  11  717.73   46.10
   2  -1  11  716.93   46.10
  -2  -1 -11  792.62   46.60
  -2   1 -11  921.21   55.29
   2   1  11  861.91   55.09
   2   1  11  856.71   55.19
  -2   1 -11  909.71   54.99
  -2   1 -11  810.22   55.09
  -3  -1 -11   63.39    4.30
   3  -1  11   63.39    4.30
   3  -1  11   64.29    4.20
  -3  -1 -11   63.59    4.80
  -3  -1 -11   65.29    4.50
  -3  -1 -11   62.59    4.20
  -3  -1 -11   61.99    4.50
  -3   1 -11   71.39    4.60
   3   1  11   67.59    4.60
   3   1  11   74.79    4.70
  -3   1 -11   71.69    4.90
  -3   1 -11   65.49    4.70
   4  -1  11  116.79    7.70
  -4  -1 -11  121.39    8.00
   4  -1  11  120.69    7.70
  -4  -1 -11  118.59    7.80
  -4   1 -11  110.19    8.60
  -4   1 -11  132.69    8.10
   4   1  11  134.59    8.50
  -4   1 -11  125.99    8.30
  -4   1 -11  116.39    8.40
   4   1  11  135.39    8.30
   4   1  11  136.39    8.20
  -5  -1 -11   73.19    5.10
   5  -1  11   72.59    4.80
  -5  -1 -11   73.99    5.60
   5  -1  11   75.19    4.90
  -5  -1 -11   73.79    4.90
   5   1  11   79.39    5.40
   5   1  11   85.59    5.40
   5   1  11   84.09    5.40
  -5   1 -11   79.89    5.40
   6  -1  11   56.79    3.70
  -6  -1 -11   56.99    4.30
  -6  -1 -11   54.49    3.80
  -6   1 -11   59.79    4.00
   6   1  11   57.69    3.90
  -7  -2  11   32.20    2.30
   7  -2 -11   32.90    3.70
  -7  -2  11   34.10    2.30
   7   2 -11   41.70    4.20
  -7   2  11   36.60    3.10
   7   2 -11   45.90    3.00
  -7   2  11   45.00    3.00
   6  -2 -11   25.40    3.40
  -6  -2  11   30.60    2.00
  -6  -2  11   26.50    2.00
  -6   2  11   25.40    2.40
  -6   2  11   28.00    2.10
   6   2 -11   22.60    3.70
  -6   2  11   22.10    3.00
   6   2 -11   29.10    2.10
  -5  -2  11   13.20    1.30
  -5  -2  11   16.50    1.30
   5  -2 -11   14.40    2.80
   5   2 -11   20.00    1.90
  -5   2  11   23.20    2.20
  -5   2  11   14.00    3.30
  -5   2  11   22.30    1.90
  -4  -2  11   42.80    3.00
   4  -2 -11   48.90    3.20
  -4  -2  11   44.30    3.30
  -4  -2  11   39.10    3.00
   4   2 -11   54.39    4.20
  -4   2  11   61.69    4.20
  -4   2  11   62.49    4.40
   3  -2 -11   44.20    3.00
  -3  -2  11   38.30    2.70
  -3  -2  11   35.60    2.70
  -3   2  11   56.49    4.20
   3   2 -11   48.70    4.10
   3   2 -11   62.79    4.00
  -3   2  11   57.39    4.00
   3   2 -11   61.19    3.80
   2  -2 -11  264.87   16.80
   2  -2 -11  277.37   16.70
  -2  -2  11  236.48   16.40
  -2  -2  11  249.08   16.30
   2   2 -11  251.27   17.50
  -2   2  11  259.17   17.10
   2   2 -11  272.37   17.00
   2   2 -11  282.77   17.30
  -2   2  11  263.77   17.00
   1  -2 -11   90.49    6.20
  -1  -2  11   78.99    5.80
   1  -2 -11   90.59    5.90
   1  -2 -11   84.59    5.90
  -1  -2  11   86.49    8.50
  -1  -2  11   73.79    5.50
  -1   2  11   81.69    5.50
   1   2 -11   79.09    5.90
   1   2 -11   81.39    5.70
   1   2 -11   88.99    5.50
  -1   2  11   83.19    5.80
   1   2 -11   84.59    5.50
  -1   2  11   73.29    7.30
   1   2 -11   85.39    5.90
  -1   2  11   81.69    5.40
   1   2 -11   88.69    5.60
   0  -2  11  268.57   22.60
   0  -2  11  257.27   19.10
   0  -2 -11  319.57   18.70
   0  -2  11  288.97   18.70
   0  -2 -11  301.67   19.00
   0  -2 -11  332.27   19.20
   0  -2  11  288.07   18.70
   0   2 -11  360.96   25.60
   0   2 -11  395.56   25.20
   0   2 -11  422.56   25.50
   0   2  11  410.66   25.30
   0   2  11  385.76   25.20
   0   2 -11  362.06   25.60
   0   2 -11  455.45   25.40
   0   2  11  381.56   25.30
  -1  -2 -11  141.49    9.40
   1  -2  11  137.89    9.30
  -1  -2 -11  130.29    9.60
   1  -2  11  158.08    9.90
  -1  -2 -11  147.89    9.30
  -1  -2 -11  159.18    9.80
   1  -2  11  132.89    9.30
  -1  -2 -11  154.48    9.50
  -1   2 -11  200.88   12.60
   1   2  11  190.48   12.70
   1   2  11  199.48   12.70
  -1   2 -11  229.08   12.90
   1   2  11  168.68   12.80
   1   2  11  198.68   12.70
   2  -2  11  117.09    7.80
  -2  -2 -11  119.59    7.90
   2  -2  11  119.59    7.80
   2  -2  11  123.89    8.20
  -2  -2 -11  130.59    8.10
  -2  -2 -11  118.89    8.20
  -2  -2 -11  111.29    8.00
  -2  -2 -11  122.69    7.80
   2   2  11  167.58   10.70
  -2   2 -11  159.38   10.60
  -2   2 -11  158.28   10.90
  -2   2 -11  177.68   10.80
   3  -2  11   24.80    2.30
  -3  -2 -11   25.60    2.10
  -3  -2 -11   21.80    2.20
  -3  -2 -11   25.30    1.80
  -3  -2 -11   23.30    1.90
   3  -2  11   24.80    1.80
   3  -2  11   26.60    1.90
  -3   2 -11   30.70    2.30
   3   2  11   32.90    2.40
   3   2  11   34.40    2.40
   3   2  11   33.70    2.70
  -3   2 -11   30.50    2.60
  -3   2 -11   33.40    2.50
   4  -2  11   30.20    2.10
   4  -2  11   29.30    2.00
   4  -2  11   26.20    2.40
  -4  -2 -11   30.90    2.20
  -4  -2 -11   29.20    2.40
   4   2  11   46.00    3.10
  -4   2 -11   40.70    3.20
   4   2  11   47.20    3.20
  -4   2 -11   38.70    3.30
  -4   2 -11   50.59    3.00
   4   2  11   47.60    3.40
  -5  -2 -11   20.00    1.40
   5  -2  11   19.40    1.40
   5  -2  11   17.50    1.40
  -5  -2 -11   16.80    2.00
  -5  -2 -11   18.00    1.60
  -5   2 -11   23.50    1.70
   5   2  11   24.10    1.70
   5   2  11   22.10    1.80
   5   2  11   22.10    1.80
  -7  -3  11   58.79    3.80
  -7   3  11   78.29    5.10
   7   3 -11   78.49    5.20
  -6  -3  11   12.60    1.00
  -6  -3  11   11.80    1.00
  -6   3  11   23.80    1.80
   6   3 -11   23.00    1.90
  -6   3  11   23.80    2.10
  -5  -3  11   38.20    2.60
  -5  -3  11   38.10    2.70
  -5   3  11   46.90    3.20
   5   3 -11   40.50    3.30
  -5   3  11   49.50    3.50
  -5   3  11   43.30    4.00
  -4  -3  11  214.68   13.50
  -4  -3  11  209.38   13.60
  -4   3  11  290.17   19.10
   4   3 -11  328.97   18.90
  -4   3  11  284.07   18.90
  -4   3  11  277.17   18.80
   3  -3 -11  136.99    8.50
  -3  -3  11  120.49    8.20
  -3  -3  11  124.29    8.20
   3   3 -11  170.38   10.10
  -3   3  11  148.59   10.50
  -3   3  11  151.18   10.20
  -3   3  11  160.08   10.30
   3   3 -11  158.08   10.30
  -2  -3  11    7.60    0.90
   2  -3 -11    9.80    1.30
  -2  -3  11    9.20    0.90
  -2  -3  11    7.10    1.80
   2  -3 -11   10.70    1.40
   2  -3 -11    9.40    0.90
  -2   3  11   13.90    1.50
  -2   3  11   17.10    1.50
   2   3 -11   17.20    1.80
   2   3 -11   15.90    1.30
   1  -3 -11  135.49    8.40
  -1  -3  11  126.29    8.40
  -1  -3  11  119.09    8.40
   1  -3 -11  139.09    8.90
   1  -3 -11  138.29    8.80
  -1  -3  11  125.09    8.90
  -1   3  11  143.89    9.30
   1   3 -11  140.79    9.60
  -1   3  11  129.39    9.50
   1   3 -11  147.09    9.10
  -1   3  11  150.68    9.20
  -1   3  11  138.69    9.20
   0  -3 -11  171.08   10.90
   0  -3  11  174.38   11.40
   0  -3 -11  179.28   11.30
   0  -3  11  156.68   10.90
   0  -3  11  161.58   10.90
   0  -3 -11  182.88   11.50
   0   3  11  194.18   12.30
   0   3  11  189.28   12.40
   0   3 -11  199.38   12.30
   0   3  11  181.98   12.40
   0   3 -11  207.38   12.40
   0   3  11  178.78   12.50
   0   3  11  189.98   12.50
   1  -3  11   58.29    4.30
  -1  -3 -11   56.69    4.20
   1  -3  11   59.49    4.30
   1  -3  11   51.99    3.80
  -1  -3 -11   57.89    4.40
  -1  -3 -11   57.49    3.80
   1   3  11   79.29    5.30
   1   3  11   74.69    5.50
   1   3  11   80.19    5.30
  -1   3 -11   85.69    5.40
   1   3  11   77.79    5.30
   1   3  11   72.89    5.40
  -1   3 -11   83.59    5.20
   2  -3  11   49.80    3.40
   2  -3  11   50.99    3.40
   2  -3  11   54.29    3.90
   2  -3  11   52.19    3.80
  -2  -3 -11   52.39    3.40
  -2  -3 -11   45.40    3.60
  -2  -3 -11   49.99    3.90
   2   3  11   64.59    4.40
   2   3  11   72.69    4.90
  -2   3 -11   62.79    4.60
  -2   3 -11   68.69    4.60
   2   3  11   63.49    4.60
  -2   3 -11   65.19    4.40
   2   3  11   66.99    4.50
   3  -3  11   65.29    4.80
  -3  -3 -11   68.09    4.80
   3  -3  11   69.19    4.50
  -3  -3 -11   64.89    4.50
   3  -3  11   70.89    4.50
  -3  -3 -11   71.59    4.60
   3   3  11   93.19    6.30
  -3   3 -11   97.39    6.30
  -3   3 -11   85.29    6.30
   3   3  11   94.39    6.40
   3   3  11   94.99    6.10
   3   3  11   94.89    6.20
   4  -3  11  178.78   12.30
  -4  -3 -11  188.58   12.30
   4  -3  11  190.08   12.00
   4  -3  11  197.08   12.00
  -4   3 -11  276.47   16.80
   4   3  11  261.17   17.00
   4   3  11  274.67   17.10
   4   3  11  252.17   16.90
   4   3  11  260.97   16.90
   5  -3  11   40.80    2.70
   5  -3  11   42.10    2.70
  -5  -3 -11   39.00    2.90
   5   3  11   56.79    3.80
   5   3  11   58.99    3.90
   5   3  11   56.59    3.90
  -5  -4  11   50.09    3.30
  -5   4  11   62.79    4.20
  -5   4  11   62.29    4.00
   5   4 -11   55.59    4.10
  -4  -4  11   87.39    6.50
  -4  -4  11  100.79    6.10
  -4   4  11  132.09    9.00
  -4   4  11  129.49    8.70
   4   4 -11  144.29    8.70
  -3  -4  11  173.68   10.80
  -3  -4  11  162.68   11.20
  -3   4  11  255.47   15.60
   3   4 -11  263.47   15.40
  -3   4  11  234.38   15.40
  -3   4  11  227.98   15.70
  -3   4  11  225.68   15.70
   2  -4 -11    3.00    0.80
  -2  -4  11    2.90    1.00
  -2  -4  11    2.50    0.50
   2  -4 -11    2.80    0.40
  -2   4  11    2.40    1.00
   2   4 -11    3.60    0.50
  -2   4  11    3.70    0.90
  -2   4  11    4.00    0.70
   1  -4 -11   75.79    5.00
  -1  -4  11   74.99    5.00
  -1  -4  11   78.29    5.50
   1  -4 -11   74.09    5.40
  -1   4  11   93.69    6.80
   1   4 -11  100.39    6.50
  -1   4  11   97.19    6.50
  -1   4  11  108.19    6.80
   0  -4 -11  263.97   18.10
   0  -4  11  289.87   18.10
   0  -4  11  269.47   17.60
   0  -4  11  287.47   18.20
   0  -4 -11  275.27   17.70
   0   4  11  396.66   25.30
   0   4  11  387.56   25.00
   0   4 -11  374.76   25.10
   0   4 -11  412.26   25.00
   0   4  11  400.26   25.30
   1  -4  11  143.79    9.20
  -1  -4 -11  137.59    9.60
   1  -4  11  153.18    9.60
   1  -4  11  137.59    9.50
  -1  -4 -11  140.99    9.20
   1   4  11  201.58   13.00
  -1   4 -11  190.98   12.90
   1   4  11  193.78   12.90
  -1   4 -11  208.58   12.70
   1   4  11  200.48   12.70
   2  -4  11   18.10    1.30
   2  -4  11   18.50    1.70
   2  -4  11   17.10    1.70
  -2  -4 -11   16.20    1.50
  -2  -4 -11   16.90    1.30
   2   4  11   30.10    2.40
   2   4  11   29.60    2.10
   2   4  11   26.40    2.20
  -3  -4 -11   82.49    5.70
   3  -4  11   85.99    5.80
   3  -4  11   86.29    5.50
   3   4  11  138.99    9.40
   3   4  11  154.28    9.30
   3   4  11  135.49    9.20
   4  -4  11    0.50    0.30
   4  -4  11    0.40    0.50
  -4  -4 -11    0.10    0.30
   4   4  11    0.00    0.40
   4   4  11    0.70    0.50
  -4   4 -11    0.80    0.20
   4   4  11    0.40    0.50
  -4  -5  11   76.89    4.90
  -4  -5  11   74.99    5.10
   4   5 -11  108.19    6.90
  -4   5  11  107.69    7.10
   3  -5 -11    5.50    0.60
  -3  -5  11    7.20    1.10
  -3  -5  11    7.20    0.60
  -3   5  11    8.10    1.00
  -3   5  11    8.20    1.30
   3   5 -11    8.50    0.80
  -2  -5  11    0.10    0.60
   2  -5 -11    0.80    0.30
  -2  -5  11    0.50    0.30
   2   5 -11    1.40    0.40
  -2   5  11    1.70    0.60
  -2   5  11    2.00    0.70
   1  -5 -11   35.40    2.30
  -1  -5  11   31.70    2.30
  -1  -5  11   36.30    2.70
   1   5 -11   56.49    3.60
  -1   5  11   53.59    3.80
  -1   5  11   52.59    3.90
   0  -5  11  100.79    6.70
   0  -5  11   93.19    6.70
   0  -5  11   99.39    6.40
   0  -5 -11  106.29    6.40
   0   5  11  160.78   10.00
   0   5 -11  149.19    9.80
   0   5  11  153.48   10.10
   1  -5  11   78.69    5.10
   1  -5  11   82.59    5.40
   1  -5  11   77.29    5.40
  -1  -5 -11   79.79    5.10
   1   5  11  115.69    7.80
   1   5  11  122.89    7.80
   2  -5  11   30.50    2.10
  -2  -5 -11   27.10    1.80
  -2  -5 -11   25.40    2.00
   2   5  11   45.50    3.40
   2   5  11   55.39    3.50
  -7   0  12    8.40    0.80
   7   0 -12    8.20    1.90
   6   0 -12    4.50    1.80
  -6   0  12    3.20    0.50
  -6   0  12    4.30    0.80
   6   0 -12    5.40    0.80
  -5   0  12    3.20    0.70
  -5   0  12    2.50    0.50
   5   0 -12    3.00    0.70
  -4   0  12   32.30    2.40
   4   0 -12   32.00    2.50
  -4   0  12   27.50    2.20
  -4   0  12   31.10    2.70
  -3   0  12  281.57   17.60
   3   0 -12  272.57   17.70
  -3   0  12  289.27   17.80
  -3   0  12  254.87   17.50
  -2   0  12  195.48   12.80
  -2   0  12  205.78   12.80
  -2   0  12  208.58   13.00
   2   0 -12  195.48   13.40
   2   0 -12  193.98   13.10
  -1   0  12   58.49    4.20
   1   0 -12   62.59    4.20
  -1   0  12   57.89    4.00
  -1   0  12   58.09    4.00
  -1   0  12   53.59    6.00
   1   0 -12   67.89    4.50
   1   0 -12   55.79    4.50
   0   0 -12   79.89    4.90
   0   0 -12   75.79    5.00
   0   0 -12   80.89    5.40
   0   0 -12   81.89    5.20
   0   0 -12   70.29    5.50
   0   0  12   75.49    5.00
   0   0 -12   76.99    5.70
   0   0  12   74.79    5.00
   0   0  12   72.09    5.30
   0   0  12   61.09    6.80
  -1   0 -12  186.38   11.50
   1   0  12  170.78   11.50
   1   0  12  177.08   11.50
  -1   0 -12  174.08   11.60
  -1   0 -12  182.38   12.00
  -1   0 -12  189.18   11.80
   2   0  12   37.20    2.60
  -2   0 -12   37.90    2.50
   2   0  12   34.30    2.60
  -2   0 -12   38.90    3.20
  -2   0 -12   35.00    2.60
  -2   0 -12   38.50    2.90
  -3   0 -12   13.60    1.50
   3   0  12   15.50    1.30
  -3   0 -12   14.10    1.10
   3   0  12   14.70    1.30
  -3   0 -12   14.90    1.30
  -4   0 -12    2.60    0.50
   4   0  12    2.40    0.60
  -4   0 -12    2.80    0.70
   4   0  12    2.10    0.50
   4   0  12    2.80    0.60
  -4   0 -12    1.40    0.30
  -5   0 -12  275.27   17.40
   5   0  12  261.67   17.40
   5   0  12  271.17   17.40
  -5   0 -12  287.67   17.60
   7  -1 -12   54.19    5.10
  -7  -1  12   61.69    3.80
  -7   1  12   63.39    4.10
   7   1 -12   57.79    5.30
   7   1 -12   63.19    4.10
   6  -1 -12  180.28   13.40
  -6  -1  12  198.28   12.10
   6   1 -12  240.78   15.00
  -6   1  12  224.98   14.90
  -5  -1  12  108.89    7.40
   5  -1 -12  120.39    7.60
  -5   1  12  131.59    8.70
   5   1 -12  133.49    8.80
  -4  -1  12  383.26   25.30
  -4  -1  12  398.46   25.60
   4  -1 -12  415.36   25.50
  -4   1  12  434.86   29.30
  -4   1  12  477.75   29.10
   4   1 -12  460.15   29.30
   3  -1 -12   43.70    3.20
  -3  -1  12   42.20    3.20
  -3  -1  12   43.10    3.00
  -3   1  12   62.49    4.10
  -3   1  12   55.99    4.00
  -3   1  12   59.89    4.30
   3   1 -12   58.39    4.20
  -2  -1  12   33.70    2.30
   2  -1 -12   30.60    2.50
   2   1 -12   42.70    2.90
  -2   1  12   44.00    3.20
   2   1 -12   35.10    3.20
  -2   1  12   44.00    3.00
  -2   1  12   41.30    3.00
   2   1 -12   47.90    3.10
   1  -1 -12   85.69    5.60
   1  -1 -12   75.49    5.50
   1  -1 -12   79.89    5.20
  -1  -1  12   79.19    5.30
  -1   1  12  100.09    6.60
   1   1 -12   97.59    6.60
   1   1 -12   98.79    6.80
  -1   1  12   98.39    6.50
  -1   1  12  100.49    6.50
   1   1 -12   98.29    6.40
   0  -1  12   21.40    1.70
   0  -1 -12   21.30    1.70
   0  -1 -12   21.20    2.00
   0  -1 -12   19.70    1.90
   0  -1 -12   24.80    1.60
   0  -1 -12   25.10    1.90
   0   1 -12   26.60    2.20
   0   1  12   26.90    2.00
   0   1 -12   27.60    2.40
   0   1  12   23.10    2.10
   0   1 -12   24.40    1.90
   0   1  12   26.60    1.90
   0   1 -12   28.90    1.80
  -1  -1 -12  190.38   12.70
   1  -1  12  180.98   12.60
  -1  -1 -12  208.08   13.00
  -1  -1 -12  196.08   12.60
  -1  -1 -12  220.88   13.00
   1  -1  12  188.88   12.60
   1   1  12  242.08   15.70
  -1   1 -12  237.88   15.70
  -1   1 -12  235.48   16.20
  -1   1 -12  260.37   16.00
   1   1  12  235.38   15.70
  -1   1 -12  266.77   15.60
  -2  -1 -12   70.69    4.90
  -2  -1 -12   66.39    4.50
   2  -1  12   64.89    4.40
  -2  -1 -12   65.09    4.70
   2  -1  12   67.89    4.40
  -2  -1 -12   64.39    4.30
  -2  -1 -12   65.69    4.60
  -2   1 -12   81.89    5.50
  -2   1 -12   83.49    5.20
  -2   1 -12   75.99    5.30
   2   1  12   74.69    5.20
   2   1  12   84.49    5.30
  -3  -1 -12   46.20    3.00
  -3  -1 -12   45.90    3.10
   3  -1  12   44.90    3.10
  -3  -1 -12   42.00    3.40
  -3  -1 -12   45.30    3.30
   3  -1  12   46.10    3.10
   3   1  12   52.09    3.50
  -3   1 -12   48.90    3.60
   3   1  12   49.40    3.40
  -3   1 -12   47.00    3.40
  -3   1 -12   52.79    3.30
   4  -1  12   50.29    3.50
  -4  -1 -12   52.29    3.70
  -4  -1 -12   55.09    3.60
   4  -1  12   53.09    3.50
  -4   1 -12   60.89    4.10
   4   1  12   60.99    4.30
  -4   1 -12   63.09    4.00
   4   1  12   64.29    4.10
  -4   1 -12   59.49    4.20
   4   1  12   63.59    4.20
   5  -1  12  134.39    9.00
  -5  -1 -12  145.79    9.20
  -5  -1 -12  152.08    9.10
  -5  -1 -12  126.09    9.80
   5  -1  12  148.09    9.10
   5   1  12  154.48   10.30
  -5   1 -12  173.28   10.50
   5   1  12  156.58   10.30
   7  -2 -12   47.20    4.30
  -7  -2  12   53.89    3.20
  -7  -2  12   46.80    3.20
   7   2 -12   65.39    4.40
   6  -2 -12   77.79    6.60
  -6  -2  12   79.09    5.40
  -6  -2  12   94.29    5.50
   6   2 -12  123.89    8.00
  -6   2  12  122.99    7.90
  -6   2  12  116.89    8.10
  -5  -2  12   69.79    4.80
  -5  -2  12   76.79    4.80
   5   2 -12   93.19    6.60
  -5   2  12   96.69    6.70
  -5   2  12  103.89    6.50
  -4  -2  12   45.30    3.30
   4  -2 -12   50.79    3.50
  -4  -2  12   48.80    3.30
   4   2 -12   56.79    4.40
  -4   2  12   65.69    4.30
  -4   2  12   65.59    4.30
  -3  -2  12   29.10    2.00
   3  -2 -12   29.50    2.30
  -3  -2  12   24.90    2.00
   3   2 -12   23.30    2.20
  -3   2  12   20.60    2.70
  -3   2  12   29.20    2.10
  -3   2  12   26.60    2.00
   3   2 -12   28.70    1.90
   2  -2 -12   32.30    2.40
   2  -2 -12   36.20    2.70
   2  -2 -12   36.00    2.80
  -2  -2  12   33.10    2.40
  -2  -2  12   32.30    2.40
  -2   2  12   67.59    4.50
   2   2 -12   63.19    4.60
  -2   2  12   62.79    4.40
   2   2 -12   70.09    4.30
  -2   2  12   61.99    4.60
  -1  -2  12   78.89    5.50
   1  -2 -12   87.99    5.90
  -1  -2  12   82.59    5.50
   1  -2 -12   84.29    5.80
   1  -2 -12   83.39    5.40
  -1   2  12  123.29    7.80
   1   2 -12  106.69    8.00
  -1   2  12  122.99    7.90
   1   2 -12  120.49    7.60
  -1   2  12  117.49    7.70
   0  -2 -12    7.30    1.20
   0  -2 -12    5.80    1.10
   0  -2  12    7.00    0.80
   0  -2  12    5.40    0.70
   0  -2 -12    5.10    0.60
   0   2  12    1.20    0.70
   0   2  12    0.80    0.60
   0   2 -12    1.20    0.40
   0   2 -12    1.40    0.70
   0   2  12    1.10    0.50
   0   2 -12    1.20    0.50
  -1  -2 -12    5.30    1.00
   1  -2  12    3.00    0.60
  -1  -2 -12    4.30    0.70
  -1  -2 -12    3.90    0.50
  -1  -2 -12    4.10    0.90
   1  -2  12    4.60    0.60
   1   2  12    0.30    0.50
  -1   2 -12    1.80    0.40
  -1   2 -12    1.10    0.60
   1   2  12    2.20    0.70
   2  -2  12    3.20    0.50
  -2  -2 -12    2.50    0.40
  -2  -2 -12    2.60    0.60
   2  -2  12    2.40    0.80
  -2  -2 -12    2.90    0.80
  -2  -2 -12    2.70    0.70
   2  -2  12    2.10    0.50
   2   2  12    3.10    0.70
  -2   2 -12    2.70    0.70
   2   2  12    3.40    0.60
  -2   2 -12    3.10    0.50
   3  -2  12   13.50    1.20
  -3  -2 -12   15.20    1.50
   3  -2  12   15.80    1.30
  -3  -2 -12   14.40    1.60
   3  -2  12   16.20    1.70
  -3  -2 -12   15.30    1.30
  -3  -2 -12   15.90    1.20
   3   2  12   21.10    1.60
  -3   2 -12   18.30    1.50
  -3   2 -12   18.20    1.70
  -3   2 -12   21.20    1.40
   3   2  12   19.50    1.90
   3   2  12   19.90    1.60
  -4  -2 -12   22.50    1.80
   4  -2  12   21.40    1.60
  -4  -2 -12   22.30    1.70
   4  -2  12   22.70    1.70
  -4   2 -12   27.80    1.90
   4   2  12   27.70    2.00
   4   2  12   29.00    2.20
   4   2  12   26.00    2.10
  -5  -2 -12   72.19    4.90
   5  -2  12   75.79    4.80
   5  -2  12   72.69    4.70
   5   2  12   95.09    5.90
   5   2  12   86.49    5.90
  -6  -3  12   33.90    2.30
  -6  -3  12   33.30    2.30
   6   3 -12   45.80    3.40
  -6   3  12   52.19    3.30
  -5  -3  12  125.39    7.90
  -5  -3  12  121.49    8.00
  -5   3  12  151.28    9.50
  -5   3  12  152.08    9.60
   5   3 -12  143.29    9.70
  -5   3  12  146.09    9.80
  -4  -3  12   42.50    2.90
  -4  -3  12   43.80    2.90
  -4   3  12   64.89    4.20
   4   3 -12   58.29    4.30
  -4   3  12   62.09    4.20
  -3  -3  12  132.39    8.60
  -3  -3  12  126.39    8.60
   3  -3 -12  141.59    8.80
  -3   3  12  177.58   11.80
  -3   3  12  179.48   11.80
   3   3 -12  192.98   11.70
   2  -3 -12   62.69    4.30
  -2  -3  12   63.49    4.40
   2  -3 -12   76.79    4.70
   2  -3 -12   62.69    4.70
  -2  -3  12   64.79    4.40
  -2   3  12   64.69    4.90
   2   3 -12   70.59    4.50
  -2   3  12   68.69    4.60
  -2   3  12   67.99    4.60
   1  -3 -12   88.99    5.80
   1  -3 -12   84.79    6.30
  -1  -3  12   83.19    5.80
  -1  -3  12   82.29    5.80
  -1  -3  12  104.59    6.90
   1  -3 -12   92.09    6.20
  -1   3  12  102.29    6.60
  -1   3  12   92.19    6.70
   1   3 -12   99.99    6.40
  -1   3  12   99.19    6.40
  -1   3  12   97.19    6.50
   0  -3 -12   27.70    2.30
   0  -3 -12   27.50    2.50
   0  -3  12   29.00    2.40
   0  -3  12   24.80    2.00
   0  -3 -12   28.10    1.90
   0  -3  12   25.00    1.90
   0   3  12   46.90    3.40
   0   3 -12   49.10    3.20
   0   3  12   49.90    3.30
   0   3  12   46.10    3.60
   0   3 -12   45.90    3.40
   0   3  12   48.50    3.50
   1  -3  12   74.19    4.90
  -1  -3 -12   67.29    4.80
  -1  -3 -12   67.19    5.00
  -1  -3 -12   66.99    4.50
   1  -3  12   64.79    4.50
   1  -3  12   68.69    4.50
   1   3  12   81.29    6.10
  -1   3 -12   94.89    5.90
   1   3  12   91.19    6.00
   1   3  12   95.29    6.00
   1   3  12   90.89    6.20
  -1   3 -12   90.49    6.10
  -2  -3 -12   55.59    4.20
   2  -3  12   58.29    3.80
   2  -3  12   57.09    3.80
   2  -3  12   59.29    4.10
  -2  -3 -12   52.29    3.90
  -2  -3 -12   57.39    3.70
  -2   3 -12   80.49    5.20
   2   3  12   79.69    5.30
   2   3  12   79.19    5.40
   2   3  12   79.29    5.30
   2   3  12   83.09    5.60
  -2   3 -12   76.99    5.40
  -3  -3 -12  160.28   10.60
  -3  -3 -12  162.78   10.90
   3  -3  12  172.88   10.70
   3  -3  12  168.38   10.70
   3  -3  12  170.78   11.00
   3   3  12  230.98   14.80
   3   3  12  230.08   14.50
   3   3  12  223.18   14.60
   3   3  12  227.98   14.60
   4  -3  12  118.79    7.40
  -4  -3 -12  110.89    7.50
   4  -3  12  115.29    7.40
   4   3  12  173.18   10.40
  -4   3 -12  162.28   10.40
   4   3  12  160.48   10.60
   4   3  12  158.38   10.50
  -5  -4  12   36.70    2.40
  -5   4  12   47.20    3.10
   5   4 -12   45.40    3.30
  -5   4  12   49.40    3.40
  -4  -4  12  115.89    7.40
   4   4 -12  153.08    9.20
  -4   4  12  138.69    9.30
  -4   4  12  146.89    9.50
  -4   4  12  139.49    9.30
  -3  -4  12   48.80    3.70
  -3  -4  12   52.99    3.40
   3   4 -12   83.19    5.00
  -3   4  12   75.99    5.10
  -3   4  12   77.29    5.30
  -3   4  12   66.79    5.00
   2  -4 -12   19.40    1.40
  -2  -4  12   20.10    1.50
  -2  -4  12   20.40    1.90
   2   4 -12   28.10    1.90
  -2   4  12   25.20    1.90
  -2   4  12   26.40    2.20
  -2   4  12   24.00    2.40
  -1  -4  12  177.08   11.40
   1  -4 -12  176.48   12.30
  -1  -4  12  186.18   11.80
   1  -4 -12  173.68   11.40
  -1   4  12  264.27   17.60
   1   4 -12  287.47   17.60
  -1   4  12  289.27   17.80
  -1   4  12  267.87   17.90
   0  -4 -12   28.30    2.00
   0  -4  12   27.20    2.00
   0  -4  12   29.80    2.40
   0   4 -12   39.40    2.60
   0   4  12   40.60    3.00
   0   4  12   39.10    2.90
   0   4  12   34.80    2.70
   1  -4  12   14.00    1.40
   1  -4  12   15.80    1.10
   1  -4  12   15.60    1.50
  -1  -4 -12   13.80    1.10
   1   4  12   18.00    1.60
   1   4  12   19.10    1.80
  -1   4 -12   17.70    1.30
   1   4  12   15.80    1.40
   2  -4  12   55.29    3.60
  -2  -4 -12   52.59    3.60
   2  -4  12   56.69    3.90
   2   4  12   74.59    5.30
   2   4  12   73.59    5.00
   2   4  12   80.89    5.20
  -3  -4 -12    1.20    0.40
   3  -4  12    1.40    0.30
   3  -4  12    1.40    0.60
   3   4  12    2.40    0.40
   3   4  12    3.40    0.70
   3   4  12    3.00    0.60
  -3   4 -12    2.80    0.30
  -2  -5  12  101.99    6.40
   2  -5 -12   90.39    6.10
  -2  -5  12   93.39    6.10
  -2   5  12  128.19    8.40
   2   5 -12  131.79    8.20
  -2   5  12  126.59    8.30
   1  -5 -12    4.50    0.50
  -1  -5  12    4.00    0.80
  -1  -5  12    3.60    0.50
   1   5 -12    2.90    0.40
  -1   5  12    4.10    0.70
  -1   5  12    3.20    0.70
   0  -5 -12   80.29    5.20
   0  -5  12   78.69    5.20
   0  -5  12   86.39    5.50
   0   5  12  124.89    7.70
   0   5 -12  111.69    7.50
   0   5  12  114.79    7.60
  -7   0  13   55.39    3.60
  -6   0  13   76.19    5.20
   6   0 -13   85.09    5.40
  -5   0  13    4.90    0.60
   5   0 -13    6.20    0.90
   4   0 -13   35.20    2.70
  -4   0  13   33.00    2.40
  -3   0  13  200.08   12.40
  -3   0  13  179.08   12.30
  -3   0  13  186.48   12.00
   3   0 -13  186.98   12.30
  -2   0  13   67.09    4.50
  -2   0  13   65.79    4.40
  -2   0  13   64.79    4.30
   2   0 -13   60.49    4.50
  -1   0  13  194.78   12.20
  -1   0  13  181.28   12.30
   1   0 -13  197.38   12.20
   1   0 -13  202.88   12.30
   1   0 -13  175.38   12.50
   1   0 -13  191.98   12.20
   1   0 -13  190.38   12.50
   0   0  13   18.80    1.60
   0   0  13   17.70    1.60
   0   0 -13   19.50    1.90
   0   0 -13   20.90    1.60
   0   0 -13   20.30    1.80
   0   0 -13   20.00    1.40
   1   0  13   86.59    5.90
  -1   0 -13   88.69    5.90
  -1   0 -13   88.89    6.30
  -1   0 -13   89.99    5.80
   1   0  13   86.99    5.90
  -1   0 -13   96.59    6.20
  -2   0 -13    3.50    0.60
   2   0  13    4.70    0.70
  -2   0 -13    3.90    0.80
  -2   0 -13    3.50    0.50
   2   0  13    4.20    0.60
  -3   0 -13    9.40    1.10
   3   0  13    8.90    1.00
   3   0  13    9.90    1.00
  -3   0 -13    9.50    1.00
  -3   0 -13    9.00    0.80
  -3   0 -13    9.90    1.20
  -4   0 -13   79.79    5.20
   4   0  13   75.49    5.00
  -4   0 -13   76.39    5.00
  -4   0 -13   74.39    4.90
   5   0  13  212.78   14.00
  -5   0 -13  224.58   14.10
  -5   0 -13  225.68   14.20
  -7  -1  13   47.30    2.90
   7  -1 -13   40.70    3.90
  -7   1  13   60.49    3.80
   7   1 -13   57.29    3.90
  -6  -1  13   64.29    4.20
  -6   1  13   73.99    4.90
  -6   1  13   69.69    4.80
   6   1 -13   76.89    5.00
   5  -1 -13   79.69    5.20
  -5  -1  13   74.69    5.10
  -5   1  13   77.09    5.30
   5   1 -13   80.89    5.40
  -5   1  13   79.09    5.20
  -4  -1  13  115.79    7.80
   4  -1 -13  123.89    8.00
   4   1 -13  146.19   10.00
  -4   1  13  159.58    9.90
  -4   1  13  149.49    9.80
   3  -1 -13   77.59    5.40
  -3  -1  13   79.99    5.20
  -3   1  13   79.69    5.70
  -3   1  13   78.69    5.40
   3   1 -13   79.79    5.60
  -3   1  13   87.39    5.50
  -2  -1  13   34.50    2.40
   2  -1 -13   30.90    2.60
  -2   1  13   31.00    2.30
   2   1 -13   25.50    2.40
  -2   1  13   28.90    2.40
  -2   1  13   30.50    2.20
   2   1 -13   29.40    2.10
   1  -1 -13   14.90    1.60
   1  -1 -13   15.50    1.20
   1  -1 -13   14.00    1.50
  -1  -1  13   14.90    1.30
   1   1 -13   16.90    1.70
  -1   1  13   17.90    1.50
  -1   1  13   18.40    1.70
   1   1 -13   16.60    1.60
  -1   1  13   17.80    1.60
   1   1 -13   16.80    1.40
   1   1 -13   17.20    1.30
   0  -1 -13   92.29    6.10
   0  -1 -13   94.39    6.20
   0  -1 -13   99.99    6.60
   0  -1  13   93.69    6.20
   0   1 -13  110.29    7.20
   0   1 -13  114.09    6.90
   0   1  13  107.59    7.00
   0   1 -13  100.49    7.30
   0   1  13  105.99    7.00
   0   1 -13  104.09    7.00
  -1  -1 -13   58.99    4.00
  -1  -1 -13   60.39    4.40
  -1  -1 -13   57.89    4.10
   1  -1  13   56.99    4.00
  -1  -1 -13   67.09    4.30
   1   1  13   74.79    4.90
  -1   1 -13   65.29    5.30
  -1   1 -13   78.19    4.80
  -1   1 -13   78.39    5.10
  -1   1 -13   71.49    4.90
   1   1  13   72.09    4.80
  -2  -1 -13    9.70    1.30
  -2  -1 -13    8.10    0.90
   2  -1  13    8.70    1.00
  -2  -1 -13    8.50    0.80
   2  -1  13    8.90    0.90
  -2   1 -13    4.80    0.70
  -2   1 -13    5.10    0.90
   2   1  13    4.90    0.80
   2   1  13    4.20    0.60
  -2   1 -13    4.40    0.50
  -3  -1 -13   50.49    3.30
   3  -1  13   49.80    3.30
  -3  -1 -13   50.79    3.50
  -3  -1 -13   48.40    3.20
  -3  -1 -13   41.80    3.50
   3  -1  13   50.49    3.30
   3   1  13   67.19    4.20
  -3   1 -13   66.79    4.20
  -3   1 -13   60.79    4.50
  -3   1 -13   61.89    4.30
   3   1  13   63.79    4.30
  -4  -1 -13  139.89    8.30
  -4  -1 -13  119.79    8.40
   4  -1  13  125.49    8.20
   4  -1  13  127.19    8.20
   4   1  13  153.08    9.70
  -4   1 -13  149.39    9.70
   4   1  13  151.98    9.80
  -4   1 -13  148.49    9.70
   4   1  13  156.78    9.80
  -5  -1 -13   23.60    1.90
   5  -1  13   25.40    1.70
  -5  -1 -13   26.70    1.80
  -5   1 -13   27.90    2.00
   5   1  13   24.60    1.80
  -6  -2  13   18.30    1.30
  -6  -2  13   15.20    1.20
  -6   2  13   22.20    1.80
   6   2 -13   23.70    1.90
  -6   2  13   26.00    1.80
  -5  -2  13   57.09    3.90
  -5  -2  13   63.09    4.00
   5   2 -13   59.99    4.40
  -5   2  13   66.39    4.30
  -5   2  13   64.79    4.30
   4  -2 -13   12.80    1.30
  -4  -2  13   12.70    1.20
  -4  -2  13   13.00    1.10
  -4   2  13   20.60    1.70
  -4   2  13   19.80    1.70
   4   2 -13   17.60    1.70
  -3  -2  13  319.17   20.80
   3  -2 -13  328.87   21.10
  -3  -2  13  335.57   20.90
   3   2 -13  354.66   25.70
  -3   2  13  425.96   25.60
  -3   2  13  406.46   25.50
   3   2 -13  418.56   25.50
  -2  -2  13  138.19    8.80
  -2  -2  13  139.89    8.80
   2  -2 -13  136.59    9.00
   2  -2 -13  128.19    8.70
  -2   2  13  180.98   11.60
   2   2 -13  179.58   11.40
  -2   2  13  174.98   11.50
   1  -2 -13  157.48   10.40
  -1  -2  13  170.28   10.50
   1  -2 -13  162.48   10.80
   1  -2 -13  158.68   10.70
  -1  -2  13  165.98   10.50
  -1   2  13  178.98   12.00
  -1   2  13  198.48   12.10
   1   2 -13  192.58   12.00
   1   2 -13  177.38   12.70
   0  -2 -13  197.98   13.00
   0  -2  13  195.28   12.70
   0  -2 -13  197.88   12.70
   0  -2  13  201.28   12.70
   0  -2 -13  199.48   13.10
   0   2  13  230.48   14.80
   0   2 -13  231.88   14.80
   0   2 -13  228.28   14.70
   0   2  13  209.38   14.90
   0   2  13  254.47   14.90
   0   2 -13  237.08   15.00
  -1  -2 -13   12.10    1.50
   1  -2  13   13.70    1.20
  -1  -2 -13   12.90    1.50
  -1  -2 -13   12.80    1.10
   1  -2  13   13.70    1.10
   1   2  13   14.50    1.30
   1   2  13   14.10    1.50
  -1   2 -13   16.30    1.10
  -1   2 -13   13.80    1.40
  -1   2 -13   14.80    1.20
   2  -2  13   38.10    2.60
  -2  -2 -13   35.50    2.90
  -2  -2 -13   34.70    2.50
  -2  -2 -13   38.80    2.60
   2  -2  13   37.90    2.50
   2   2  13   60.19    3.90
  -2   2 -13   55.69    3.80
   2   2  13   54.09    3.80
  -2   2 -13   55.69    4.00
  -2   2 -13   60.49    3.80
   3  -2  13    5.40    0.60
  -3  -2 -13    5.30    0.90
   3  -2  13    5.00    0.60
  -3  -2 -13    4.20    0.50
  -3  -2 -13    5.30    0.70
   3   2  13    5.60    0.70
  -3   2 -13    5.70    0.70
   3   2  13    6.20    0.80
  -3   2 -13    6.10    0.60
   3   2  13    6.50    1.00
   4  -2  13   18.10    1.40
  -4  -2 -13   18.90    1.60
   4  -2  13   20.20    1.40
  -4  -2 -13   20.70    1.40
   4   2  13   23.00    1.90
   4   2  13   26.50    1.80
   4   2  13   26.60    1.90
  -4   2 -13   25.60    1.70
  -5  -3  13  134.39    8.80
  -5  -3  13  140.59    8.80
  -5   3  13  181.98   11.40
  -5   3  13  183.18   11.50
   5   3 -13  170.88   11.60
  -4  -3  13   25.40    1.70
  -4  -3  13   22.30    1.70
  -4   3  13   33.40    2.30
  -4   3  13   35.50    2.30
   4   3 -13   28.20    2.40
  -3  -3  13   61.69    4.10
   3  -3 -13   63.69    4.30
  -3  -3  13   60.39    4.10
   3   3 -13   83.09    5.10
  -3   3  13   78.59    5.20
  -3   3  13   71.99    5.40
  -3   3  13   77.19    5.20
  -2  -3  13  208.88   13.00
   2  -3 -13  199.78   12.90
   2  -3 -13  217.18   13.20
   2  -3 -13  177.08   13.20
  -2  -3  13  211.98   13.00
  -2   3  13  294.27   18.20
  -2   3  13  274.57   18.30
  -2   3  13  284.07   18.00
   2   3 -13  293.07   18.00
  -2   3  13  270.17   18.10
   1  -3 -13   32.50    2.30
   1  -3 -13   36.60    2.70
  -1  -3  13   34.60    2.30
   1  -3 -13   28.80    2.70
  -1  -3  13   34.20    2.30
  -1   3  13   36.50    2.80
  -1   3  13   35.40    2.60
   1   3 -13   37.80    2.50
  -1   3  13   36.10    2.70
  -1   3  13   35.70    2.90
   0  -3  13   29.80    2.10
   0  -3  13   31.30    2.20
   0  -3 -13   28.00    2.50
   0  -3 -13   32.10    2.50
   0  -3 -13   32.00    2.10
   0   3  13   40.10    2.70
   0   3  13   36.90    2.90
   0   3  13   38.20    2.80
   0   3 -13   40.60    2.70
   0   3  13   38.20    3.00
   0   3 -13   39.90    2.60
   0   3 -13   35.20    2.80
  -1  -3 -13   38.50    3.30
   1  -3  13   45.60    3.00
   1  -3  13   42.70    3.00
   1  -3  13   46.90    3.30
  -1  -3 -13   43.60    2.90
   1   3  13   49.70    3.90
   1   3  13   57.99    4.00
   1   3  13   56.99    3.90
   1   3  13   58.69    4.10
  -1   3 -13   59.69    3.80
  -1   3 -13   54.89    4.00
   1   3  13   58.99    3.80
   2  -3  13  146.19    8.90
  -2  -3 -13  132.79    8.90
   2  -3  13  141.59    9.20
   2  -3  13  137.69    8.90
   2   3  13  180.08   11.80
   2   3  13  176.78   11.70
  -2   3 -13  173.88   11.60
   2   3  13  173.78   11.60
  -2   3 -13  198.58   11.50
   2   3  13  183.48   11.60
   3  -3  13  109.99    6.70
   3  -3  13  105.69    7.00
  -3  -3 -13  101.49    6.90
  -3  -3 -13   99.89    6.70
   3  -3  13  107.09    6.70
   3   3  13  154.28    9.80
   3   3  13  145.49    9.90
  -3   3 -13  158.68    9.70
  -4  -4  13   55.89    3.60
  -4   4  13   66.89    4.50
  -4   4  13   64.39    4.20
  -4   4  13   63.19    4.30
  -3  -4  13    0.40    0.30
  -3   4  13    0.90    0.40
   3   4 -13    1.30    0.30
  -3   4  13    1.10    0.60
  -3   4  13    0.80    0.70
  -2  -4  13   53.09    3.70
   2  -4 -13   48.00    3.40
  -2  -4  13   53.59    3.40
  -2   4  13  110.09    7.00
  -2   4  13  108.69    7.10
  -2   4  13   94.09    7.00
   2   4 -13  110.69    6.80
  -2   4  13  102.59    6.80
  -1  -4  13   56.69    3.90
  -1  -4  13   57.19    3.60
   1  -4 -13   49.30    3.60
  -1   4  13   78.29    5.40
  -1   4  13   76.19    5.60
  -1   4  13   89.89    5.60
   1   4 -13   87.59    5.40
  -1   4  13   79.09    5.50
   0  -4  13   17.20    1.30
   0  -4  13   17.40    1.60
   0  -4 -13   17.50    1.30
   0   4 -13   27.80    1.80
   0   4  13   27.10    2.00
   0   4  13   28.20    2.20
   0   4  13   25.90    2.10
   0   4 -13   26.90    1.90
   1  -4  13   59.49    4.10
  -1  -4 -13   62.99    3.90
   1  -4  13   56.69    3.90
   1   4  13   78.89    5.10
  -1   4 -13   72.79    4.90
  -1   4 -13   77.89    4.80
   1   4  13   76.79    4.90
   1   4  13   68.79    5.00
  -2  -4 -13   21.10    1.50
   2  -4  13   23.10    1.80
   2  -4  13   21.90    1.50
   2   4  13   29.50    2.10
   2   4  13   24.90    2.10
  -2   4 -13   28.90    1.80
   2   4  13   27.20    1.90
  -6   0  14   24.30    1.70
   6   0 -14   25.40    1.80
   5   0 -14   40.70    2.80
  -5   0  14   33.90    2.50
  -4   0  14  140.29    9.20
   4   0 -14  145.69    9.40
   3   0 -14   24.30    2.00
  -3   0  14   22.10    1.80
   2   0 -14   62.09    4.60
  -2   0  14   67.59    4.40
   1   0 -14   15.80    1.30
   1   0 -14   16.40    1.20
  -1   0  14   17.10    1.40
   1   0 -14   15.40    1.60
   1   0 -14   17.70    1.70
   0   0 -14  283.57   19.10
   0   0  14  299.77   18.80
   0   0 -14  306.77   18.80
   0   0 -14  293.07   18.90
  -1   0 -14    2.30    0.40
   1   0  14    2.40    0.50
  -1   0 -14    3.00    0.70
  -1   0 -14    2.30    0.50
  -2   0 -14   30.70    2.00
   2   0  14   30.70    2.20
  -2   0 -14   27.60    2.40
  -2   0 -14   30.10    2.20
   3   0  14   43.40    3.00
  -3   0 -14   45.30    3.00
  -3   0 -14   44.70    2.90
  -3   0 -14   43.70    3.10
   3   0  14   45.00    3.10
  -4   0 -14  131.59    7.90
   4   0  14  121.79    7.90
  -4   0 -14  124.89    8.00
  -4   0 -14  115.69    7.90
  -6  -1  14    2.80    0.40
   6   1 -14    1.00    0.50
  -6   1  14    1.60    0.40
   5  -1 -14   73.59    4.90
  -5  -1  14   74.09    4.80
  -5   1  14   85.29    5.60
  -5   1  14   81.29    5.60
   5   1 -14   89.89    5.80
  -4  -1  14   53.49    3.70
   4  -1 -14   55.69    3.80
  -4   1  14   55.49    3.80
  -4   1  14   56.09    3.70
   4   1 -14   53.89    3.90
   3  -1 -14   31.10    2.50
  -3  -1  14   33.10    2.30
   3   1 -14   33.90    2.70
  -3   1  14   36.00    2.60
  -3   1  14   36.40    2.50
   2  -1 -14   14.40    1.50
  -2  -1  14   13.50    1.30
  -2   1  14   23.30    1.70
   2   1 -14   20.20    2.00
   2   1 -14   21.80    1.70
  -2   1  14   23.30    1.80
   1  -1 -14    3.80    0.80
   1  -1 -14    3.00    0.40
  -1  -1  14    3.20    0.60
   1  -1 -14    3.10    0.80
   1   1 -14    7.50    0.80
  -1   1  14    8.70    0.90
   1   1 -14    8.20    0.90
  -1   1  14    8.80    1.10
   0  -1 -14  129.89    9.00
   0  -1  14  139.49    8.70
   0  -1 -14  137.39    9.00
   0  -1 -14  130.89    8.70
   0  -1 -14  136.79    8.60
   0   1  14  169.18   10.50
   0   1  14  163.48   10.40
   0   1 -14  162.98   10.40
   0   1 -14  160.68   10.40
   0   1 -14  154.78   10.70
  -1  -1 -14  133.19    8.80
  -1  -1 -14  132.59    9.10
  -1  -1 -14  139.89    8.80
   1  -1  14  140.69    8.80
   1   1  14  156.98   10.10
  -1   1 -14  158.18   10.10
   1   1  14  155.18   10.10
  -1   1 -14  165.68   10.00
  -1   1 -14  148.49   10.30
  -2  -1 -14  104.69    6.70
   2  -1  14  108.09    6.70
  -2  -1 -14   96.79    6.90
  -2  -1 -14  100.89    6.60
  -2   1 -14  118.49    7.50
   2   1  14  113.49    7.40
  -2   1 -14  103.79    7.70
   2   1  14  117.89    7.50
  -2   1 -14  121.69    7.40
  -3  -1 -14  120.79    7.40
  -3  -1 -14  106.29    7.30
  -3  -1 -14  111.99    7.50
   3  -1  14  114.99    7.30
  -3   1 -14  123.19    8.10
  -3   1 -14  119.99    7.90
   3   1  14  123.99    7.90
   3   1  14  134.19    8.10
   3   1  14  117.49    7.90
  -3   1 -14  121.59    8.00
  -4  -1 -14   64.09    4.00
  -4  -1 -14   57.49    4.10
   4  -1  14   59.49    3.90
  -4   1 -14   64.09    4.20
  -4   1 -14   67.89    4.40
   4   1  14   63.49    4.20
  -4   1 -14   62.39    4.20
   4   1  14   66.49    4.30
  -6  -2  14   61.99    4.00
  -6   2  14   70.99    4.60
   6   2 -14   69.59    4.70
  -5  -2  14   28.50    2.00
   5   2 -14   33.90    2.60
  -5   2  14   38.90    2.50
  -5   2  14   34.40    2.50
  -4  -2  14  114.79    7.90
  -4  -2  14  131.49    7.90
   4  -2 -14  123.39    8.00
   4   2 -14  118.99    8.50
  -4   2  14  133.29    8.40
  -4   2  14  134.59    8.30
  -3  -2  14   85.39    5.80
   3  -2 -14   88.99    6.00
  -3  -2  14   94.19    5.90
   3   2 -14   82.49    6.40
  -3   2  14  104.09    6.30
  -3   2  14  101.19    6.30
   2  -2 -14  174.98   11.70
  -2  -2  14  183.98   11.50
  -2  -2  14  179.78   11.50
  -2   2  14  250.37   15.30
  -2   2  14  229.28   15.20
   2   2 -14  234.78   15.20
   1  -2 -14   35.90    2.50
  -1  -2  14   39.70    2.60
   1  -2 -14   34.60    2.80
   1  -2 -14   32.70    2.80
  -1  -2  14   39.90    2.60
  -1   2  14   52.89    3.60
   1   2 -14   50.99    3.50
  -1   2  14   53.59    3.70
   0  -2 -14  122.69    7.90
   0  -2  14  128.39    8.00
   0  -2 -14  112.49    8.30
   0  -2 -14  117.89    8.20
   0  -2  14  136.09    8.00
   0   2 -14  148.49   10.60
   0   2 -14  173.48   10.40
   0   2 -14  164.28   10.30
   0   2  14  177.48   10.50
   0   2  14  139.29   10.50
   0   2  14  166.38   10.40
  -1  -2 -14   18.50    1.80
  -1  -2 -14   17.70    1.70
   1  -2  14   19.00    1.40
  -1  -2 -14   18.70    1.40
   1  -2  14   19.30    1.50
  -1   2 -14   29.90    1.90
  -1   2 -14   28.50    2.10
   1   2  14   30.40    2.10
  -1   2 -14   24.20    2.20
   1   2  14   29.40    2.10
  -2  -2 -14    9.10    0.80
   2  -2  14    8.90    0.80
  -2  -2 -14    7.90    0.80
   2  -2  14    8.70    0.90
   2   2  14   10.70    1.30
  -2   2 -14   12.10    0.90
  -2   2 -14   11.20    1.00
   2   2  14   10.80    1.10
   2   2  14   10.90    1.10
   3  -2  14    5.30    0.60
   3  -2  14    4.60    0.50
  -3  -2 -14    4.80    0.50
  -3  -2 -14    4.50    0.70
  -3  -2 -14    5.00    0.60
   3   2  14    6.40    0.80
  -3   2 -14    6.80    0.70
   3   2  14    6.90    0.90
   3   2  14    8.00    0.80
  -5  -3  14   10.00    0.80
  -5  -3  14    8.80    0.80
  -5   3  14   11.10    1.00
   5   3 -14   11.80    1.10
  -5   3  14   11.20    1.00
  -4  -3  14   45.50    3.10
  -4  -3  14   47.10    3.10
  -4   3  14   59.09    4.30
   4   3 -14   52.59    4.20
  -4   3  14   64.69    4.20
  -4   3  14   67.49    4.30
  -4   3  14   67.09    4.10
   3  -3 -14   28.70    2.20
  -3  -3  14   31.70    2.10
  -3  -3  14   30.10    2.10
  -3   3  14   41.70    3.30
  -3   3  14   45.60    3.20
   3   3 -14   44.90    3.00
  -3   3  14   45.80    3.10
  -3   3  14   51.89    3.10
  -2  -3  14   11.10    1.00
   2  -3 -14   10.70    0.90
  -2  -3  14   12.50    1.00
   2  -3 -14   12.20    1.20
  -2   3  14   16.80    1.70
   2   3 -14   17.40    1.30
  -2   3  14   16.20    1.50
  -2   3  14   17.80    1.40
  -2   3  14   16.30    1.40
  -1  -3  14   34.60    2.40
  -1  -3  14   35.90    2.40
   1  -3 -14   34.10    2.60
   1  -3 -14   33.40    2.30
   1   3 -14   55.59    3.50
  -1   3  14   52.29    3.60
  -1   3  14   54.59    3.60
  -1   3  14   50.99    3.80
  -1   3  14   52.29    3.70
   0  -3  14   23.80    1.70
   0  -3  14   23.40    1.70
   0  -3 -14   23.50    1.70
   0   3  14   34.20    2.60
   0   3 -14   37.90    2.50
   0   3 -14   36.00    2.40
   0   3  14   30.70    3.10
   0   3  14   39.60    2.50
   0   3  14   37.50    2.60
   1  -3  14  123.99    7.90
   1  -3  14  122.99    7.90
  -1  -3 -14  120.89    7.80
  -1   3 -14  160.18   10.20
  -1   3 -14  158.58   10.30
   1   3  14  158.48   10.30
   1   3  14  171.78   10.30
   1   3  14  151.58   10.40
   2  -3  14  117.79    8.00
  -2  -3 -14  117.29    7.80
   2  -3  14  124.39    7.90
   2  -3  14  132.19    7.90
   2   3  14  163.78   10.80
  -2   3 -14  174.78   10.60
  -2   3 -14  155.58   10.60
   2   3  14  173.08   10.60
   2  -4 -14  232.78   16.00
  -2  -4  14  274.27   16.10
  -2   4  14  385.56   23.40
   2   4 -14  363.36   23.30
  -2   4  14  357.36   23.20
  -2   4  14  362.96   23.30
   1  -4 -14    8.50    0.70
  -1  -4  14   10.10    0.80
   1   4 -14   15.10    1.10
  -1   4  14   13.50    1.30
  -1   4  14   13.40    1.20
  -1   4  14   16.20    1.40
   0  -4  14   25.40    1.90
   0  -4  14   25.50    1.70
   0  -4 -14   23.90    1.70
   0   4  14   42.10    2.80
   0   4  14   39.80    2.90
   0   4 -14   42.40    2.80
   0   4  14   42.70    2.90
   5   0 -15   51.99    3.40
  -5   0  15   47.40    3.30
  -4   0  15   87.99    6.00
   4   0 -15   97.49    6.20
   3   0 -15    0.30    0.60
  -3   0  15    0.30    0.40
   2   0 -15  122.09    8.50
  -2   0  15  135.09    8.30
  -1   0  15  330.17   19.30
   1   0 -15  284.67   19.30
   1   0 -15  291.17   19.50
   1   0 -15  303.97   19.20
   0   0 -15   23.10    1.80
   0   0  15   25.00    1.80
   0   0 -15   21.00    2.00
   0   0 -15   25.20    1.70
  -1   0 -15   11.80    1.10
   1   0  15   11.60    1.10
  -1   0 -15   13.50    1.00
  -2   0 -15    4.40    0.50
   2   0  15    4.40    0.60
  -2   0 -15    5.10    0.60
  -3   0 -15   74.69    4.70
   3   0  15   71.39    4.70
  -3   0 -15   71.79    4.60
   3   0  15   71.19    4.70
  -5  -1  15   96.09    5.80
   5  -1 -15   83.49    5.80
  -5   1  15  106.39    7.20
   5   1 -15  117.79    7.40
   4  -1 -15   36.70    2.70
  -4  -1  15   36.30    2.50
   4   1 -15   37.80    2.80
  -4   1  15   37.30    2.60
  -4   1  15   39.80    2.70
   3  -1 -15  130.29    8.60
  -3  -1  15  131.19    8.40
  -3   1  15  151.08    9.20
  -3   1  15  143.79    9.20
   3   1 -15  133.59    9.40
   2  -1 -15   20.60    1.80
  -2  -1  15   22.90    1.70
  -2   1  15   17.70    1.50
  -2   1  15   18.30    1.40
   2   1 -15   14.70    1.60
   1  -1 -15   45.30    3.30
   1  -1 -15   41.10    3.50
  -1  -1  15   48.70    3.10
   1  -1 -15   46.60    3.00
   1   1 -15   55.19    3.80
  -1   1  15   58.09    3.90
  -1   1  15   57.29    3.80
   0  -1 -15   68.49    5.00
   0  -1 -15   64.19    4.20
   0  -1  15   64.99    4.30
   0  -1 -15   61.19    4.50
   0   1 -15   74.29    4.90
   0   1  15   76.89    5.10
   0   1 -15   75.79    5.00
   0   1  15   78.89    5.00
  -1  -1 -15   77.69    5.00
   1  -1  15   78.49    5.00
  -1  -1 -15   74.19    5.00
  -1   1 -15   93.19    6.00
   1   1  15   93.79    6.10
   1   1  15   91.09    6.00
  -1   1 -15   94.19    6.10
  -2  -1 -15   39.20    2.70
   2  -1  15   39.70    2.70
  -2  -1 -15   38.90    2.60
   2   1  15   42.60    2.80
   2   1  15   40.80    2.80
  -2   1 -15   41.30    2.70
  -2   1 -15   41.10    2.80
  -3  -1 -15   77.29    5.30
  -3  -1 -15   85.69    5.40
   3  -1  15   85.99    5.40
  -3   1 -15   96.09    6.10
   3   1  15   91.29    6.00
  -3   1 -15   91.99    6.00
   3   1  15   96.99    6.10
  -5  -2  15   13.90    1.10
   5   2 -15   14.00    1.20
  -5   2  15   14.30    1.10
  -4  -2  15   13.40    1.10
   4  -2 -15   11.90    1.10
   4   2 -15   19.80    1.70
  -4   2  15   22.90    1.60
  -4   2  15   22.10    1.60
   3  -2 -15   69.39    5.00
  -3  -2  15   78.69    4.80
   3   2 -15   69.19    5.40
  -3   2  15   88.09    5.30
  -3   2  15   84.59    5.30
  -2  -2  15    1.70    0.40
   2  -2 -15    2.80    0.70
  -2  -2  15    1.10    0.40
  -2   2  15    2.30    0.60
   2   2 -15    1.90    0.40
  -2   2  15    1.80    0.50
  -1  -2  15   62.39    4.00
   1  -2 -15   58.49    4.00
  -1  -2  15   65.59    4.10
   1  -2 -15   58.49    4.20
  -1   2  15   74.69    5.00
  -1   2  15   71.09    5.00
   1   2 -15   75.19    4.90
  -1   2  15   78.69    4.90
   0  -2  15    9.60    0.90
   0  -2 -15   10.10    0.80
   0  -2  15   10.90    0.90
   0  -2 -15    8.90    1.10
   0   2 -15   11.70    0.90
   0   2  15   12.20    1.20
   0   2  15   12.70    1.10
   0   2 -15   11.70    1.00
   1  -2  15   16.70    1.30
  -1  -2 -15   17.30    1.50
  -1  -2 -15   18.20    1.30
   1  -2  15   18.50    1.40
  -1   2 -15   20.60    1.50
   1   2  15   24.40    1.60
  -1   2 -15   20.80    1.60
   1   2  15   21.00    1.60
  -2  -2 -15    0.60    0.20
   2  -2  15    0.60    0.30
   2  -2  15    1.00    0.30
  -2   2 -15    0.80    0.20
  -2   2 -15    0.70    0.30
   2   2  15    0.80    0.50
   2   2  15    0.70    0.40
  -3  -3  15   28.40    1.90
  -3  -3  15   28.10    1.90
  -3   3  15   28.30    2.10
   3   3 -15   26.30    1.90
  -3   3  15   29.50    2.00
  -2  -3  15    7.00    0.70
  -2  -3  15    7.80    0.70
   2  -3 -15    6.40    0.70
  -2   3  15   16.50    1.30
   2   3 -15   14.40    1.20
  -2   3  15   16.30    1.40
  -1  -3  15   21.00    1.50
   1  -3 -15   20.60    1.40
  -1  -3  15   20.70    1.50
  -1   3  15   39.00    2.40
  -1   3  15   33.90    2.50
   1   3 -15   34.00    2.40
   0  -3  15   94.69    5.90
   0  -3  15   89.69    5.90
   0  -3 -15   89.49    5.80
   0   3  15  136.59    7.90
   0   3 -15  114.19    7.80
   0   3 -15  128.49    7.90
   0   3  15  110.59    7.90
   1  -3  15   74.09    4.60
   1  -3  15   69.79    4.60
  -1  -3 -15   67.99    4.50
  -1   3 -15   98.39    6.10
   1   3  15   88.19    6.20
  -1   3 -15   89.69    6.00
   1   3  15  100.89    6.10
  -4   0  16    6.60    0.70
   4   0 -16    8.00    0.90
  -3   0  16   11.60    1.00
   3   0 -16   12.40    1.20
  -2   0  16   79.79    5.10
   2   0 -16   78.09    5.40
  -1   0  16  113.19    7.00
   1   0 -16  107.99    7.20
   1   0 -16  103.09    6.90
   0   0 -16   75.79    4.70
   0   0 -16   68.09    4.70
   0   0  16   73.19    4.70
  -1   0 -16   32.50    2.30
  -1   0 -16   34.20    2.20
   1   0  16   31.50    2.20
   2   0  16    0.90    0.40
  -2   0 -16    0.90    0.30
  -2   0 -16    1.30    0.30
   2   0  16    0.80    0.40
   4  -1 -16   70.79    4.70
  -4  -1  16   70.49    4.60
   4   1 -16   68.99    4.60
   3  -1 -16  128.09    8.40
  -3  -1  16  128.89    8.20
   3   1 -16  124.19    8.20
   2  -1 -16   44.90    3.30
  -2  -1  16   49.00    3.20
  -2   1  16   56.49    3.70
   2   1 -16   48.60    3.80
  -2   1  16   58.99    3.70
   1  -1 -16   20.70    1.80
  -1  -1  16   24.40    1.70
   1  -1 -16   22.70    1.60
   1   1 -16   25.90    1.80
  -1   1  16   25.00    1.80
  -1   1  16   25.50    1.90
   0  -1  16   13.60    1.10
   0  -1 -16   13.00    1.00
   0  -1 -16   12.40    1.30
   0   1  16   17.40    1.50
   0   1 -16   20.00    1.50
   0   1 -16   19.60    1.40
   0   1  16   20.30    1.50
  -1  -1 -16   13.70    1.10
  -1  -1 -16   14.80    1.10
   1  -1  16   15.20    1.20
  -1   1 -16   18.90    1.30
  -1   1 -16   19.20    1.40
  -2  -1 -16  124.19    8.20
  -2  -1 -16  126.79    8.20
   2  -1  16  133.99    8.20
  -2   1 -16  133.29    9.00
  -2   1 -16  146.89    9.00
   2   1  16  143.99    9.10
   3  -2 -16   11.10    1.00
  -3  -2  16   11.60    0.90
   3   2 -16    9.40    1.00
  -3   2  16   12.70    1.10
  -3   2  16   12.00    1.00
   2  -2 -16   46.70    3.30
  -2  -2  16   49.40    3.20
  -2   2  16   54.99    3.50
  -2   2  16   52.89    3.60
   2   2 -16   49.90    3.40
   1  -2 -16    4.60    0.50
  -1  -2  16    5.20    0.60
   1   2 -16    5.30    0.60
  -1   2  16    4.70    0.60
   0  -2  16   67.09    4.00
   0  -2 -16   55.59    4.10
   0  -2 -16   60.29    3.90
   0   2 -16   81.29    5.30
   0   2 -16   75.79    5.20
   0   2  16   87.89    5.30
  -1  -2 -16    9.30    0.80
   1  -2  16   10.70    0.80
   1   2  16   10.70    0.90
   1   2  16    9.60    1.00
  -1   2 -16    9.80    0.90
  -1   2 -16   10.10    0.80
   3   0 -17    1.80    0.50
   2   0 -17   93.89    6.20
   1   0 -17   30.90    2.30
   0   0 -17  116.19    7.70
   0   0 -17  125.09    7.70
  -2  -1  17   66.19    4.20
   2  -1 -17   63.69    4.30
   2   1 -17   59.69    4.10
  -1  -1  17   90.49    5.30
   1  -1 -17   76.19    5.20
   1  -1 -17   78.09    5.40
   1   1 -17   87.09    5.60

_computing_structure_solution     'SHELXT 2014/4 (Sheldrick, 2014)'
;
_shelx_hkl_checksum              22355
loop_
_space_group_symop_operation_xyz
'x, y, z'
'-x, y+1/2, -z'
loop_
_atom_site_label
_atom_site_type_symbol
_atom_site_fract_x
_atom_site_fract_y
_atom_site_fract_z
_atom_site_U_iso_or_equiv
_atom_site_adp_type
_atom_site_occupancy
_atom_site_site_symmetry_order
_atom_site_calc_flag
_atom_site_refinement_flags_posn
_atom_site_refinement_flags_adp
Cl1 Cl 0.69417(17) 0.2070(2) 0.17659(9) 0.0203(4) Uani 1 1 d . .
Cl2 Cl 0.82851(16) 0.6502(2) 0.18898(9) 0.0199(4) Uani 1 1 d . .
Cl3 Cl 0.55005(16) 0.5452(2) 0.05031(8) 0.0213(4) Uani 1 1 d . .
O1 O 0.1994(5) 0.7270(9) 0.1217(3) 0.0283(12) Uani 1 1 d . .
O2 O 0.4920(5) 0.7906(8) 0.2280(3) 0.0188(9) Uani 1 1 d D .
H2O H 0.400(6) 0.799(17) 0.192(5) 0.028 Uiso 1 1 d D U
C1 C 0.1185(8) 0.3642(14) 0.0704(5) 0.0273(15) Uani 1 1 d . .
H1A H 0.0245 0.4407 0.0333 0.041 Uiso 1 1 calc R U
H1B H 0.0752 0.2519 0.1095 0.041 Uiso 1 1 calc R U
H1C H 0.1879 0.2925 0.0289 0.041 Uiso 1 1 calc R U
C2 C 0.2218(7) 0.5272(12) 0.1306(4) 0.0221(14) Uani 1 1 d . .
C3 C 0.3471(7) 0.4318(11) 0.2089(4) 0.0183(12) Uani 1 1 d . .
H3A H 0.3748 0.2793 0.1912 0.022 Uiso 1 1 calc R U
H3B H 0.2910 0.4205 0.2649 0.022 Uiso 1 1 calc R U
C4 C 0.5147(7) 0.5597(12) 0.2360(4) 0.0166(12) Uani 1 1 d . .
C5 C 0.5929(6) 0.5078(11) 0.3363(4) 0.0154(12) Uani 1 1 d . .
C6 C 0.6907(6) 0.6664(10) 0.3860(4) 0.0152(12) Uani 1 1 d . .
H6 H 0.7088 0.8044 0.3578 0.018 Uiso 1 1 calc R U
C7 C 0.7649(7) 0.6256(12) 0.4792(4) 0.0155(12) Uani 1 1 d . .
C8 C 0.8717(7) 0.7852(11) 0.5301(4) 0.0169(12) Uani 1 1 d . .
H8 H 0.8941 0.9213 0.5014 0.020 Uiso 1 1 calc R U
C9 C 0.9427(7) 0.7439(11) 0.6204(4) 0.0198(13) Uani 1 1 d . .
H9 H 1.0155 0.8496 0.6537 0.024 Uiso 1 1 calc R U
C10 C 0.9064(7) 0.5422(12) 0.6637(4) 0.0199(13) Uani 1 1 d . .
H10 H 0.9532 0.5158 0.7265 0.024 Uiso 1 1 calc R U
C11 C 0.8059(7) 0.3858(12) 0.6165(4) 0.0196(13) Uani 1 1 d . .
H11 H 0.7843 0.2512 0.6464 0.024 Uiso 1 1 calc R U
C12 C 0.7327(7) 0.4238(11) 0.5222(4) 0.0165(13) Uani 1 1 d . .
C13 C 0.6304(7) 0.2639(10) 0.4705(4) 0.0166(12) Uani 1 1 d . .
H13 H 0.6073 0.1280 0.4990 0.020 Uiso 1 1 calc R U
C14 C 0.5641(7) 0.3031(11) 0.3795(4) 0.0172(12) Uani 1 1 d . .
H14 H 0.4984 0.1922 0.3451 0.021 Uiso 1 1 calc R U
C15 C 0.6418(7) 0.4923(11) 0.1670(4) 0.0171(12) Uani 1 1 d . .
loop_
_atom_site_aniso_label
_atom_site_aniso_U_11
_atom_site_aniso_U_22
_atom_site_aniso_U_33
_atom_site_aniso_U_23
_atom_site_aniso_U_13
_atom_site_aniso_U_12
Cl1 0.0243(8) 0.0135(8) 0.0233(7) 0.0003(5) 0.0045(5) 0.0020(5)
Cl2 0.0167(7) 0.0199(8) 0.0235(7) -0.0003(5) 0.0038(5) -0.0038(5)
Cl3 0.0233(7) 0.0243(9) 0.0158(7) 0.0026(5) 0.0008(5) -0.0011(6)
O1 0.022(2) 0.028(3) 0.033(3) 0.004(2) -0.0043(19) 0.003(2)
O2 0.019(2) 0.015(2) 0.021(2) 0.0006(16) -0.0017(16) -0.0001(18)
C1 0.019(3) 0.034(4) 0.028(3) -0.009(3) -0.001(2) 0.002(3)
C2 0.012(2) 0.029(4) 0.025(3) 0.000(3) 0.005(2) 0.001(3)
C3 0.016(3) 0.018(3) 0.022(3) -0.004(3) 0.003(2) -0.002(2)
C4 0.017(3) 0.013(3) 0.020(3) 0.002(2) 0.001(2) -0.001(2)
C5 0.012(2) 0.017(3) 0.018(3) -0.001(2) 0.002(2) 0.000(2)
C6 0.014(2) 0.013(3) 0.019(3) 0.001(2) 0.003(2) 0.001(2)
C7 0.013(2) 0.015(3) 0.018(3) -0.003(2) 0.005(2) 0.002(2)
C8 0.015(2) 0.017(3) 0.019(3) -0.002(2) 0.005(2) -0.001(2)
C9 0.017(3) 0.020(3) 0.021(3) -0.005(3) 0.000(2) 0.000(3)
C10 0.019(3) 0.023(3) 0.016(2) 0.000(2) -0.001(2) 0.003(3)
C11 0.020(3) 0.022(3) 0.018(3) 0.001(3) 0.005(2) 0.003(3)
C12 0.012(2) 0.019(3) 0.019(3) 0.000(2) 0.003(2) 0.004(2)
C13 0.016(2) 0.012(3) 0.023(3) 0.002(2) 0.006(2) 0.000(2)
C14 0.015(3) 0.015(3) 0.020(3) -0.003(2) 0.001(2) 0.000(2)
C15 0.018(2) 0.015(3) 0.018(2) 0.001(2) 0.000(2) -0.002(3)
loop_
_atom_type_symbol
_atom_type_description
_atom_type_scat_dispersion_real
_atom_type_scat_dispersion_imag
_atom_type_scat_source
C C 0.0181 0.0091 'International Tables Vol C Tables 4.2.6.8 and 6.1.1.4'
H H 0.0000 0.0000 'International Tables Vol C Tables 4.2.6.8 and 6.1.1.4'
O O 0.0492 0.0322 'International Tables Vol C Tables 4.2.6.8 and 6.1.1.4'
Cl Cl 0.3639 0.7018 'International Tables Vol C Tables 4.2.6.8 and 6.1.1.4'
loop_
_geom_angle_atom_site_label_1
_geom_angle_atom_site_label_2
_geom_angle_atom_site_label_3
_geom_angle
C4 O2 H2O 102(7)
C2 C1 H1A 109.5
C2 C1 H1B 109.5
H1A C1 H1B 109.5
C2 C1 H1C 109.5
H1A C1 H1C 109.5
H1B C1 H1C 109.5
O1 C2 C1 121.9(6)
O1 C2 C3 121.6(6)
C1 C2 C3 116.3(6)
C2 C3 C4 117.3(5)
C2 C3 H3A 108.0
C4 C3 H3A 108.0
C2 C3 H3B 108.0
C4 C3 H3B 108.0
H3A C3 H3B 107.2
O2 C4 C5 108.2(5)
O2 C4 C3 111.9(5)
C5 C4 C3 111.2(5)
O2 C4 C15 106.8(5)
C5 C4 C15 109.5(4)
C3 C4 C15 109.1(5)
C6 C5 C14 119.4(5)
C6 C5 C4 118.8(5)
C14 C5 C4 121.8(5)
C5 C6 C7 120.6(6)
C5 C6 H6 119.7
C7 C6 H6 119.7
C12 C7 C6 119.6(6)
C12 C7 C8 119.4(5)
C6 C7 C8 121.1(6)
C9 C8 C7 120.5(6)
C9 C8 H8 119.7
C7 C8 H8 119.7
C8 C9 C10 119.6(5)
C8 C9 H9 120.2
C10 C9 H9 120.2
C11 C10 C9 121.2(5)
C11 C10 H10 119.4
C9 C10 H10 119.4
C10 C11 C12 120.2(6)
C10 C11 H11 119.9
C12 C11 H11 119.9
C7 C12 C13 119.0(5)
C7 C12 C11 119.1(6)
C13 C12 C11 121.8(6)
C14 C13 C12 120.6(6)
C14 C13 H13 119.7
C12 C13 H13 119.7
C13 C14 C5 120.6(5)
C13 C14 H14 119.7
C5 C14 H14 119.7
C4 C15 Cl2 110.9(4)
C4 C15 Cl1 111.6(4)
Cl2 C15 Cl1 108.8(3)
C4 C15 Cl3 109.9(4)
Cl2 C15 Cl3 107.5(3)
Cl1 C15 Cl3 108.1(3)
loop_
_geom_bond_atom_site_label_1
_geom_bond_atom_site_label_2
_geom_bond_distance
Cl1 C15 1.775(6)
Cl2 C15 1.771(6)
Cl3 C15 1.777(6)
O1 C2 1.225(9)
O2 C4 1.409(9)
O2 H2O 0.84(3)
C1 C2 1.489(10)
C1 H1A 0.9800
C1 H1B 0.9800
C1 H1C 0.9800
C2 C3 1.521(9)
C3 C4 1.556(8)
C3 H3A 0.9900
C3 H3B 0.9900
C4 C5 1.533(7)
C4 C15 1.586(8)
C5 C6 1.377(8)
C5 C14 1.421(9)
C6 C7 1.419(7)
C6 H6 0.9500
C7 C12 1.411(9)
C7 C8 1.426(9)
C8 C9 1.377(8)
C8 H8 0.9500
C9 C10 1.420(10)
C9 H9 0.9500
C10 C11 1.363(10)
C10 H10 0.9500
C11 C12 1.430(8)
C11 H11 0.9500
C12 C13 1.413(9)
C13 C14 1.373(8)
C13 H13 0.9500
C14 H14 0.9500
loop_
_geom_hbond_atom_site_label_D
_geom_hbond_atom_site_label_H
_geom_hbond_atom_site_label_A
_geom_hbond_distance_DH
_geom_hbond_distance_HA
_geom_hbond_distance_DA
_geom_hbond_angle_DHA
O2 H2O O1 0.84(3) 1.84(4) 2.652(6) 163(10)
loop_
_geom_torsion_atom_site_label_1
_geom_torsion_atom_site_label_2
_geom_torsion_atom_site_label_3
_geom_torsion_atom_site_label_4
_geom_torsion
O1 C2 C3 C4 -38.2(9)
C1 C2 C3 C4 146.6(5)
C2 C3 C4 O2 35.3(7)
C2 C3 C4 C5 156.4(5)
C2 C3 C4 C15 -82.7(7)
O2 C4 C5 C6 -27.7(7)
C3 C4 C5 C6 -150.9(5)
C15 C4 C5 C6 88.4(6)
O2 C4 C5 C14 151.0(5)
C3 C4 C5 C14 27.7(8)
C15 C4 C5 C14 -92.9(6)
C14 C5 C6 C7 1.0(8)
C4 C5 C6 C7 179.7(5)
C5 C6 C7 C12 -2.4(8)
C5 C6 C7 C8 177.5(5)
C12 C7 C8 C9 -0.1(8)
C6 C7 C8 C9 179.9(5)
C7 C8 C9 C10 -1.2(8)
C8 C9 C10 C11 1.7(9)
C9 C10 C11 C12 -0.8(9)
C6 C7 C12 C13 1.7(8)
C8 C7 C12 C13 -178.3(6)
C6 C7 C12 C11 -179.0(5)
C8 C7 C12 C11 1.0(8)
C10 C11 C12 C7 -0.6(8)
C10 C11 C12 C13 178.8(5)
C7 C12 C13 C14 0.5(8)
C11 C12 C13 C14 -178.8(5)
C12 C13 C14 C5 -1.9(8)
C6 C5 C14 C13 1.1(8)
C4 C5 C14 C13 -177.5(5)
O2 C4 C15 Cl2 54.1(5)
C5 C4 C15 Cl2 -62.8(6)
C3 C4 C15 Cl2 175.2(4)
O2 C4 C15 Cl1 175.5(4)
C5 C4 C15 Cl1 58.6(6)
C3 C4 C15 Cl1 -63.3(5)
O2 C4 C15 Cl3 -64.6(5)
C5 C4 C15 Cl3 178.5(4)
C3 C4 C15 Cl3 56.6(6)
