#------------------------------------------------------------------------------
#$Date: 2019-11-03 17:18:05 +0200 (Sun, 03 Nov 2019) $
#$Revision: 221942 $
#$URL: file:///home/coder/svn-repositories/cod/cif/4/12/89/4128906.cif $
#------------------------------------------------------------------------------
#
# This file is available in the Crystallography Open Database (COD),
# http://www.crystallography.net/
#
# All data on this site have been placed in the public domain by the
# contributors.
#
data_4128906
loop_
_publ_author_name
'Zheng, Jian'
'Swords, Wesley B.'
'Jung, Hoimin'
'Skubi, Kazimer L.'
'Kidd, Jesse B.'
'Meyer, Gerald J.'
'Baik, Mu-Hyun'
'Yoon, Tehshik P.'
_publ_section_title
;
 Enantioselective Intermolecular Excited-State Photoreactions Using a
 Chiral Ir Triplet Sensitizer: Separating Association from Energy Transfer
 in Asymmetric Photocatalysis.
;
_journal_issue                   34
_journal_name_full               'Journal of the American Chemical Society'
_journal_page_first              13625
_journal_page_last               13634
_journal_paper_doi               10.1021/jacs.9b06244
_journal_volume                  141
_journal_year                    2019
_chemical_absolute_configuration ad
_chemical_formula_moiety         'C16 H15 I N2 O4'
_chemical_formula_sum            'C16 H15 I N2 O4'
_chemical_formula_weight         426.20
_space_group_crystal_system      monoclinic
_space_group_IT_number           4
_space_group_name_Hall           'P 2yb'
_space_group_name_H-M_alt        'P 1 21 1'
_atom_sites_solution_hydrogens   geom
_atom_sites_solution_primary     direct
_audit_creation_date             2017-07-17
_audit_creation_method
;
Olex2 1.2
(compiled 2017.03.28 svn.r3405 for OlexSys, GUI svn.r5337)
;
_cell_angle_alpha                90
_cell_angle_beta                 96.62(2)
_cell_angle_gamma                90
_cell_formula_units_Z            2
_cell_length_a                   9.094(3)
_cell_length_b                   7.248(2)
_cell_length_c                   11.749(3)
_cell_measurement_reflns_used    9245
_cell_measurement_temperature    100
_cell_measurement_theta_max      29.741
_cell_measurement_theta_min      3.006
_cell_volume                     769.3(4)
_computing_cell_refinement       'SAINT+ Ver. 2016.5-0 (Bruker-AXS, 2016)'
_computing_data_collection       'APEX3 Ver. 2016.5-0 (Bruker-AXS, 2016)'
_computing_data_reduction        'SAINT+ Ver. 2016.5-0 (Bruker-AXS, 2016)'
_computing_molecular_graphics    'Olex2 (Dolomanov et al., 2009)'
_computing_publication_material  'Olex2 (Dolomanov et al., 2009)'
_computing_structure_refinement  'ShelXL (Sheldrick, 2015)'
_computing_structure_solution    'ShelXS (Sheldrick, 2008)'
_diffrn_ambient_temperature      100.02
_diffrn_detector                 'charge-coupled device (CCD) area detector'
_diffrn_detector_area_resol_mean 7.9
_diffrn_detector_type            'Bruker APEX II'
_diffrn_measured_fraction_theta_full 1.000
_diffrn_measured_fraction_theta_max 1.000
_diffrn_measurement_device       'three-circle diffractometer'
_diffrn_measurement_device_type  'Bruker APEX II Quazar'
_diffrn_measurement_method       '0.5\% \w and 0.5\% \f scans'
_diffrn_radiation_collimation    'focusing mirrors'
_diffrn_radiation_detector       'Bruker APEX II'
_diffrn_radiation_monochromator  'mirror optics'
_diffrn_radiation_probe          x-ray
_diffrn_radiation_type           MoK\a
_diffrn_radiation_wavelength     0.71073
_diffrn_radiation_xray_symbol    K-L~3~
_diffrn_reflns_av_R_equivalents  0.0255
_diffrn_reflns_av_unetI/netI     0.0238
_diffrn_reflns_Laue_measured_fraction_full 1.000
_diffrn_reflns_Laue_measured_fraction_max 1.000
_diffrn_reflns_limit_h_max       12
_diffrn_reflns_limit_h_min       -12
_diffrn_reflns_limit_k_max       10
_diffrn_reflns_limit_k_min       -10
_diffrn_reflns_limit_l_max       16
_diffrn_reflns_limit_l_min       -16
_diffrn_reflns_number            18225
_diffrn_reflns_point_group_measured_fraction_full 1.000
_diffrn_reflns_point_group_measured_fraction_max 0.994
_diffrn_reflns_theta_full        25.000
_diffrn_reflns_theta_max         30.132
_diffrn_reflns_theta_min         1.745
_diffrn_source                   'microfocus sealed X-ray tube'
_diffrn_source_type              'Incoatec I\ms'
_exptl_absorpt_coefficient_mu    2.104
_exptl_absorpt_correction_T_max  0.9503
_exptl_absorpt_correction_T_min  0.7374
_exptl_absorpt_correction_type   numerical
_exptl_absorpt_process_details
'SADABS-2016/2 (Krause et al., 2015) was used for absorption correction.'
_exptl_crystal_colour            colourless
_exptl_crystal_colour_primary    colourless
_exptl_crystal_density_diffrn    1.840
_exptl_crystal_density_method    'not measured'
_exptl_crystal_description       plate
_exptl_crystal_F_000             420
_exptl_crystal_size_max          0.269
_exptl_crystal_size_mid          0.091
_exptl_crystal_size_min          0.035
_refine_diff_density_max         0.692
_refine_diff_density_min         -0.420
_refine_diff_density_rms         0.070
_refine_ls_abs_structure_details
;
 Flack x determined using 1940 quotients [(I+)-(I-)]/[(I+)+(I-)]
 (Parsons, Flack and Wagner, Acta Cryst. B69 (2013) 249-259).
;
_refine_ls_abs_structure_Flack   -0.045(7)
_refine_ls_extinction_method     none
_refine_ls_goodness_of_fit_ref   1.074
_refine_ls_hydrogen_treatment    constr
_refine_ls_matrix_type           full
_refine_ls_number_parameters     210
_refine_ls_number_reflns         4520
_refine_ls_number_restraints     1
_refine_ls_restrained_S_all      1.074
_refine_ls_R_factor_all          0.0207
_refine_ls_R_factor_gt           0.0196
_refine_ls_shift/su_max          0.001
_refine_ls_shift/su_mean         0.000
_refine_ls_structure_factor_coef Fsqd
_refine_ls_weighting_details
'w=1/[\s^2^(Fo^2^)+(0.0279P)^2^+0.0095P] where P=(Fo^2^+2Fc^2^)/3'
_refine_ls_weighting_scheme      calc
_refine_ls_wR_factor_gt          0.0472
_refine_ls_wR_factor_ref         0.0474
_reflns_Friedel_coverage         0.854
_reflns_Friedel_fraction_full    1.000
_reflns_Friedel_fraction_max     0.988
_reflns_number_gt                4335
_reflns_number_total             4520
_reflns_threshold_expression     'I > 2\s(I)'
_cod_data_source_file            ja9b06244_si_002.cif
_cod_data_source_block           yoon53
_cod_database_code               4128906
_shelx_shelxl_version_number     2017/1
_shelx_space_group_comment
;
The symmetry employed for this shelxl refinement is uniquely defined
by the following loop, which should always be used as a source of
symmetry information in preference to the above space-group names.
They are only intended as comments.
;
_shelx_estimated_absorpt_t_max   0.930
_shelx_estimated_absorpt_t_min   0.601
_olex2_refinement_description
;
1. Fixed Uiso
 At 1.2 times of:
  All C(H) groups, All N(H) groups
 At 1.5 times of:
  All C(H,H,H) groups
2.a Ternary CH refined with riding coordinates:
 C7(H7), C10(H10), C13(H13), C14(H14)
2.b Aromatic/amide H refined with riding coordinates:
 N1(H1), N2(H2), C2(H2A), C3(H3), C16(H16)
2.c Idealised Me refined as rotating group:
 C8(H8A,H8B,H8C), C9(H9A,H9B,H9C)
;
_shelx_res_file
;
TITL Yoon53 in P21 #4
    yoon53.res
    created by SHELXL-2017/1 at 11:54:20 on 17-Jul-2017
REM reset to P21 #4
CELL 0.71073 9.09383 7.2485 11.74885 90 96.6234 90
ZERR 2 0.00252 0.00242 0.00321 0 0.02 0
LATT -1
SYMM -X,0.5+Y,-Z
SFAC C H I N O
UNIT 32 30 2 4 8
EQIV $1 -X,-0.5+Y,-Z
EQIV $2 1-X,0.5+Y,1-Z

L.S. 20
PLAN  5
SIZE 0.035 0.091 0.269
TEMP -173.13
HTAB N1 O1_$1
HTAB N2 O4_$2
BOND $h
CONF
fmap 2 53
acta 50
REM <olex2.extras>
REM <HklSrc "%.\\Yoon53.hkl">
REM </olex2.extras>

WGHT    0.027900    0.009500
FVAR       0.18335
I1    3    0.787334    0.037550    0.190961    11.00000    0.01679    0.03107 =
         0.01846   -0.00919   -0.00507    0.01214
O1    5   -0.021201    0.593420    0.094579    11.00000    0.01384    0.02651 =
         0.01627    0.00039   -0.00254    0.00732
O2    5    0.096109    0.641083    0.324902    11.00000    0.01082    0.00971 =
         0.01259    0.00022    0.00326    0.00002
O3    5    0.149921    1.050070    0.278674    11.00000    0.01667    0.01403 =
         0.02723    0.00278    0.00427    0.00266
O4    5    0.549790    0.750158    0.464405    11.00000    0.01919    0.01608 =
         0.02076   -0.00163   -0.00626   -0.00101
N1    4    0.148135    0.369342    0.083772    11.00000    0.00888    0.01710 =
         0.01057   -0.00153   -0.00283   -0.00064
AFIX  43
H1    2    0.087880    0.313479    0.030684    11.00000   -1.20000
AFIX   0
N2    4    0.356092    0.933233    0.386567    11.00000    0.01670    0.01053 =
         0.01600   -0.00214    0.00206    0.00019
AFIX  43
H2    2    0.361988    1.016627    0.441339    11.00000   -1.20000
AFIX   0
C1    1    0.572352    0.142779    0.156073    11.00000    0.00937    0.01386 =
         0.01393   -0.00025   -0.00041    0.00157
C2    1    0.479611    0.084188    0.059531    11.00000    0.01399    0.01334 =
         0.01244   -0.00138    0.00068   -0.00044
AFIX  43
H2A   2    0.512725   -0.006037    0.009654    11.00000   -1.20000
AFIX   0
C3    1    0.338469    0.159291    0.037270    11.00000    0.01131    0.01388 =
         0.01089    0.00039   -0.00009   -0.00124
AFIX  43
H3    2    0.274540    0.119226   -0.027693    11.00000   -1.20000
AFIX   0
C4    1    0.290262    0.293205    0.109870    11.00000    0.00952    0.01205 =
         0.01124    0.00375    0.00051   -0.00080
C5    1    0.095880    0.520539    0.132918    11.00000    0.00985    0.01750 =
         0.01153    0.00322    0.00032   -0.00247
C6    1    0.187261    0.598699    0.239937    11.00000    0.00906    0.01231 =
         0.01157    0.00268    0.00108    0.00064
C7    1    0.027583    0.484038    0.375638    11.00000    0.01134    0.00991 =
         0.01684   -0.00005    0.00339   -0.00005
AFIX  13
H7    2    0.058188    0.366959    0.339986    11.00000   -1.20000
AFIX   0
C8    1   -0.139006    0.506009    0.353608    11.00000    0.01193    0.01970 =
         0.02368   -0.00045    0.00354   -0.00324
AFIX 137
H8A   2   -0.168949    0.617525    0.392095    11.00000   -1.50000
H8B   2   -0.187067    0.398193    0.383488    11.00000   -1.50000
H8C   2   -0.168723    0.516516    0.270995    11.00000   -1.50000
AFIX   0
C9    1    0.081622    0.484174    0.502778    11.00000    0.01789    0.01725 =
         0.01390    0.00252    0.00334   -0.00012
AFIX 137
H9A   2    0.188585    0.461693    0.513767    11.00000   -1.50000
H9B   2    0.030794    0.386803    0.540920    11.00000   -1.50000
H9C   2    0.060382    0.604114    0.535742    11.00000   -1.50000
AFIX   0
C10   1    0.275899    0.776208    0.216173    11.00000    0.01215    0.01105 =
         0.01368    0.00295    0.00058    0.00034
AFIX  13
H10   2    0.277134    0.807462    0.133387    11.00000   -1.20000
AFIX   0
C11   1    0.247196    0.937270    0.292691    11.00000    0.01499    0.01209 =
         0.01838    0.00431    0.00484   -0.00229
C12   1    0.453543    0.787982    0.386404    11.00000    0.01339    0.01085 =
         0.01658   -0.00093    0.00166   -0.00227
C13   1    0.418658    0.683922    0.274394    11.00000    0.00883    0.01306 =
         0.01667   -0.00157    0.00289    0.00073
AFIX  13
H13   2    0.501979    0.678474    0.225893    11.00000   -1.20000
AFIX   0
C14   1    0.334653    0.498423    0.283933    11.00000    0.01107    0.01170 =
         0.00920   -0.00086    0.00026   -0.00036
AFIX  13
H14   2    0.336788    0.455266    0.364949    11.00000   -1.20000
AFIX   0
C15   1    0.382318    0.350994    0.205856    11.00000    0.01109    0.00918 =
         0.00956    0.00016    0.00032    0.00176
C16   1    0.523598    0.273999    0.228450    11.00000    0.01190    0.01354 =
         0.01169   -0.00013   -0.00045   -0.00031
AFIX  43
H16   2    0.586802    0.312257    0.294257    11.00000   -1.20000
AFIX   0
HKLF 4




REM  Yoon53 in P21 #4
REM R1 =  0.0196 for    4335 Fo > 4sig(Fo)  and  0.0207 for all    4520 data
REM    210 parameters refined using      1 restraints

END

WGHT      0.0279      0.0095

REM Highest difference peak  0.692,  deepest hole -0.420,  1-sigma level  0.070
Q1    1   0.3708  0.5396  0.5749  11.00000  0.05    0.69
Q2    1   0.7177 -0.0141  0.2066  11.00000  0.05    0.53
Q3    1   0.8609  0.1406  0.1613  11.00000  0.05    0.48
Q4    1   0.2507  0.5425  0.2579  11.00000  0.05    0.38
Q5    1   0.1617  0.9646  0.3172  11.00000  0.05    0.37
;
_shelx_res_checksum              10818
_shelx_hkl_file
;
   1   0   0    4.46    0.14
   1   0   0    4.62    0.13
   1   0   0    4.57    0.18
  -1   0   0    4.78    0.17
  -1   0   0    4.70    0.16
   2   0   0   95.44    2.10
   2   0   0   94.03    2.19
  -2   0   0   92.66    2.14
  -2   0   0   95.32    2.16
  -2   0   0   93.36    2.21
   2   0   0   92.68    2.12
   3   0   0  162.95    3.78
  -3   0   0  165.69    3.74
   3   0   0  160.74    3.68
  -3   0   0  163.86    3.71
  -3   0   0  159.59    3.72
   3   0   0  168.06    3.65
  -4   0   0   26.86    0.84
  -4   0   0   26.83    0.79
   4   0   0   28.91    0.89
   4   0   0   27.20    0.71
  -4   0   0   28.73    0.83
   4   0   0   26.40    0.75
  -5   0   0   83.41    2.02
  -5   0   0   76.72    2.06
  -5   0   0   81.96    2.05
   5   0   0   82.08    1.90
   5   0   0   80.66    2.13
   5   0   0   80.64    1.96
   6   0   0    0.96    0.24
  -6   0   0    0.54    0.25
  -6   0   0    0.65    0.32
  -6   0   0    0.51    0.29
   6   0   0    0.74    0.18
   6   0   0    0.53    0.30
   7   0   0   55.98    1.47
  -7   0   0   61.26    1.71
  -7   0   0   56.43    1.63
   7   0   0   57.91    1.56
   7   0   0   58.18    1.82
  -8   0   0    5.62    0.62
  -8   0   0    5.47    0.53
   8   0   0    6.04    0.70
   8   0   0    5.65    0.41
   8   0   0    5.24    0.48
  -9   0   0   51.40    1.65
  -9   0   0   47.53    1.72
   9   0   0   50.43    1.85
 -10   0   0   10.54    0.97
  10   0   0    9.86    1.01
 -10   0   0    8.61    0.79
 -11   0   0    2.15    0.69
 -11   0   0    2.10    0.88
  11   0   0    2.54    0.90
 -12   0   0   13.69    1.17
 -12   0   0   12.27    1.33
  12   0   0   15.70    1.56
   0  -1   0    0.02    0.06
   0  -1   0    0.06    0.06
   0  -1   0    0.04    0.05
   0  -1   0    0.02    0.06
   0   1   0    0.07    0.06
   0   1   0    0.00    0.05
   0   1   0    0.07    0.04
   1  -1   0  338.84    7.21
  -1  -1   0  334.56    7.18
  -1  -1   0  317.49    7.21
   1  -1   0  330.95    7.23
  -1  -1   0  327.37    7.19
  -1  -1   0  313.21    7.21
  -1   1   0  330.18    7.25
   1   1   0  336.83    7.18
  -1   1   0  328.14    7.19
   1   1   0  317.30    7.18
   1   1   0  325.21    7.22
  -1   1   0  329.07    7.22
  -2  -1   0   96.46    2.25
  -2  -1   0   97.65    2.25
   2  -1   0  103.68    2.30
   2  -1   0   95.78    2.21
   2  -1   0   92.43    2.24
  -2   1   0   93.25    2.19
   2   1   0   91.80    2.11
   2   1   0   91.78    2.14
  -2   1   0   95.13    2.14
   2   1   0   90.22    2.09
  -2   1   0   95.07    2.13
   2   1   0   96.51    2.13
   3  -1   0   43.46    1.17
  -3  -1   0   41.54    1.08
  -3  -1   0   40.15    1.10
   3  -1   0   43.16    1.03
   3  -1   0   41.50    1.08
   3   1   0   52.32    1.20
   3   1   0   44.07    1.07
  -3   1   0   41.99    1.18
   3   1   0   42.02    1.15
  -3   1   0   45.25    1.12
  -3   1   0   43.64    1.12
   3   1   0   43.49    1.05
  -4  -1   0   84.25    2.07
   4  -1   0   82.75    1.97
   4  -1   0   80.66    2.02
  -4  -1   0   84.18    2.05
   4  -1   0   87.16    2.16
   4   1   0   86.70    2.01
   4   1   0   86.34    2.03
  -4   1   0   88.20    2.18
  -4   1   0   86.39    2.10
  -4   1   0   86.60    2.09
   4   1   0   88.38    2.16
  -5  -1   0   48.88    1.35
   5  -1   0   49.67    1.47
  -5  -1   0   47.26    1.37
   5  -1   0   49.52    1.24
   5  -1   0   48.69    1.32
   5   1   0   52.37    1.46
  -5   1   0   50.20    1.46
   5   1   0   49.39    1.28
  -5   1   0   50.91    1.38
  -5   1   0   52.29    1.36
   5   1   0   53.11    1.29
  -6  -1   0  124.75    3.14
  -6  -1   0  129.83    3.10
   6  -1   0  123.96    3.05
   6  -1   0  129.34    3.26
   6  -1   0  125.44    2.96
  -6   1   0  119.19    3.11
   6   1   0  123.78    2.88
   6   1   0  124.77    2.91
  -6   1   0  122.69    3.03
   6   1   0  128.43    3.15
  -6   1   0  126.09    3.01
   7  -1   0    1.52    0.34
   7  -1   0    1.96    0.49
  -7  -1   0    2.16    0.43
  -7  -1   0    1.71    0.37
   7  -1   0    2.20    0.28
  -7   1   0    2.38    0.41
   7   1   0    1.65    0.31
  -7   1   0    1.39    0.33
   7   1   0    2.21    0.27
   7   1   0    1.83    0.42
   8  -1   0   82.45    2.27
  -8  -1   0   85.98    2.34
   8  -1   0   84.93    2.57
   8  -1   0   84.89    2.16
  -8  -1   0   91.63    2.46
   8   1   0   81.73    2.09
   8   1   0   85.97    2.48
  -8   1   0   84.85    2.29
  -8   1   0   88.08    2.35
   9  -1   0   63.69    1.90
  -9  -1   0   66.36    1.98
  -9  -1   0   62.34    2.08
   9  -1   0   67.40    2.23
  -9   1   0   65.68    1.92
   9   1   0   60.76    2.09
  -9   1   0   62.47    1.97
  10  -1   0   17.86    1.36
 -10  -1   0   19.26    1.27
 -10  -1   0   18.34    1.17
 -10   1   0   17.20    1.14
 -10   1   0   18.07    1.08
  10   1   0   17.77    1.31
 -11  -1   0   24.74    1.59
 -11  -1   0   25.78    1.47
  11   1   0   22.95    1.64
 -11   1   0   21.03    1.47
 -11   1   0   22.87    1.29
 -12  -1   0    1.16    0.82
 -12  -1   0    1.17    1.04
 -12   1   0    0.56    0.78
 -12   1   0    0.89    1.01
  12   1   0    1.04    1.06
   0  -2   0  466.57   10.13
   0  -2   0  459.76   10.17
   0  -2   0  462.25   10.20
   0  -2   0  457.00   10.20
   0   2   0  478.99   10.35
   0   2   0  474.92   10.39
   0   2   0  457.97   10.34
   1  -2   0  264.48    5.90
   1  -2   0  267.61    5.92
  -1  -2   0  259.62    5.86
  -1  -2   0  262.82    5.88
  -1  -2   0  266.58    5.88
  -1  -2   0  262.00    5.86
  -1   2   0  266.99    5.63
  -1   2   0  251.92    5.72
   1   2   0  243.94    5.62
   1   2   0  255.89    5.62
  -1   2   0  261.80    5.71
  -2  -2   0  197.24    4.52
  -2  -2   0  196.82    4.48
  -2  -2   0  197.38    4.53
   2  -2   0  202.37    4.52
  -2  -2   0  206.34    4.45
   2  -2   0  198.87    4.55
  -2   2   0  192.67    4.29
   2   2   0  190.16    4.23
  -2   2   0  191.08    4.22
   2   2   0  191.82    4.22
  -2   2   0  192.35    4.35
   2   2   0  182.03    4.27
  -3  -2   0   86.47    2.07
  -3  -2   0   87.16    2.08
   3  -2   0   83.26    2.14
  -3  -2   0   84.40    1.94
   3  -2   0   85.92    2.09
   3  -2   0   84.64    2.04
  -3   2   0   90.42    2.10
  -3   2   0   89.45    2.19
   3   2   0   85.70    2.08
   3   2   0   84.44    2.06
   3   2   0   88.97    2.07
   3   2   0   88.39    2.02
  -3   2   0   91.83    2.06
   4  -2   0   16.65    0.63
   4  -2   0   15.72    0.55
  -4  -2   0   15.53    0.64
   4  -2   0   15.99    0.70
  -4   2   0   18.91    0.63
   4   2   0   17.36    0.52
   4   2   0   17.92    0.57
  -4   2   0   18.77    0.73
   4   2   0   19.30    0.64
   4   2   0   19.68    0.63
  -4   2   0   18.01    0.60
   5  -2   0  127.28    3.20
   5  -2   0  124.62    2.98
  -5  -2   0  129.30    3.08
   5  -2   0  124.73    3.06
  -5  -2   0  126.96    3.11
  -5   2   0  126.32    2.99
   5   2   0  124.24    2.91
  -5   2   0  127.55    2.98
  -5   2   0  127.19    3.13
   5   2   0  125.48    2.87
   5   2   0  120.77    3.00
   5   2   0  127.15    3.06
  -6  -2   0    0.82    0.33
   6  -2   0    0.83    0.30
   6  -2   0    0.94    0.23
   6  -2   0    0.90    0.41
  -6  -2   0    1.19    0.36
   6   2   0    0.91    0.23
  -6   2   0    0.37    0.27
  -6   2   0    0.74    0.28
  -6   2   0    0.65    0.36
   6   2   0    0.89    0.30
   6   2   0    0.79    0.23
   7  -2   0  115.11    3.26
  -7  -2   0  126.08    3.11
  -7  -2   0  124.00    3.15
   7  -2   0  120.48    3.06
   7  -2   0  122.47    2.96
   7   2   0  119.16    3.02
  -7   2   0  108.53    3.04
  -7   2   0  116.89    2.89
   7   2   0  117.07    2.76
  -7   2   0  115.02    2.89
   8  -2   0   10.66    0.63
   8  -2   0   10.72    0.77
  -8  -2   0    9.75    0.79
  -8  -2   0   10.07    0.74
   8  -2   0   12.92    1.04
   8   2   0   13.81    0.78
  -8   2   0   11.65    0.80
   8   2   0   11.70    0.86
  -8   2   0   12.27    0.76
  -9  -2   0   47.73    1.64
   9  -2   0   44.90    1.54
  -9  -2   0   44.45    1.70
  -9   2   0   47.99    1.65
   9   2   0   48.01    1.79
  -9   2   0   49.15    1.60
  10  -2   0   21.21    1.16
 -10  -2   0   23.49    1.26
 -10  -2   0   23.49    1.42
 -10   2   0   23.91    1.31
 -10   2   0   22.72    1.18
  10   2   0   25.66    1.44
 -11  -2   0   13.13    1.10
 -11  -2   0   14.10    1.28
 -11   2   0   13.72    1.01
  11   2   0   13.08    1.23
 -11   2   0   13.07    1.15
 -12  -2   0    5.25    1.19
 -12  -2   0    5.06    0.99
 -12   2   0    3.91    0.92
 -12   2   0    5.01    1.17
  12   2   0    3.90    1.12
   0  -3   0    0.19    0.15
   0  -3   0    0.08    0.12
   0  -3   0    0.10    0.14
   0  -3   0   -0.08    0.14
   0   3   0    0.04    0.11
   0   3   0    0.13    0.11
   0   3   0   -0.12    0.14
   0   3   0   -0.03    0.13
  -1  -3   0  124.08    2.89
  -1  -3   0  119.59    2.89
   1  -3   0  123.68    2.93
  -1  -3   0  121.95    2.83
   1  -3   0  126.88    2.92
  -1  -3   0  125.28    2.87
  -1   3   0  129.72    3.02
   1   3   0  125.40    2.90
  -1   3   0  131.18    3.01
  -1   3   0  127.86    3.00
  -1   3   0  131.94    2.89
   1   3   0  128.79    2.90
   1   3   0  129.54    3.02
  -2  -3   0    7.79    0.41
  -2  -3   0    7.41    0.39
  -2  -3   0    8.10    0.37
   2  -3   0    8.34    0.44
  -2  -3   0    7.91    0.33
   2  -3   0    7.12    0.39
   2   3   0    7.67    0.39
   2   3   0    8.63    0.28
   2   3   0    7.84    0.28
  -2   3   0    7.83    0.42
  -2   3   0    8.45    0.30
  -2   3   0    7.88    0.39
   3  -3   0  142.35    3.34
  -3  -3   0  139.72    3.21
   3  -3   0  147.54    3.40
  -3  -3   0  138.71    3.35
  -3  -3   0  141.18    3.34
  -3  -3   0  140.13    3.26
  -3   3   0  137.75    3.43
   3   3   0  144.54    3.28
  -3   3   0  145.64    3.25
   3   3   0  144.03    3.33
  -3   3   0  144.71    3.35
   3   3   0  144.48    3.27
   3   3   0  144.19    3.26
   4  -3   0   39.21    1.12
  -4  -3   0   37.98    1.17
   4  -3   0   40.21    1.19
   4  -3   0   38.48    1.25
   4   3   0   43.34    1.15
   4   3   0   41.85    1.15
   4   3   0   41.55    1.07
   4   3   0   42.04    1.12
  -4   3   0   43.46    1.30
  -4   3   0   42.80    1.12
  -4   3   0   44.58    1.19
  -5  -3   0   37.54    1.18
   5  -3   0   36.36    1.10
  -5  -3   0   36.83    1.20
   5  -3   0   38.36    1.19
   5  -3   0   36.53    1.31
  -5   3   0   36.40    1.22
   5   3   0   34.56    0.98
  -5   3   0   35.06    1.05
   5   3   0   33.54    1.02
   5   3   0   33.05    0.90
  -5   3   0   33.16    0.99
   5   3   0   33.69    1.04
  -6  -3   0  102.27    2.80
  -6  -3   0  110.30    2.80
   6  -3   0  112.04    3.13
   6  -3   0  112.51    2.82
   6  -3   0  106.82    2.70
  -6   3   0  106.47    2.64
   6   3   0  107.14    2.69
  -6   3   0  105.61    2.84
   6   3   0  110.70    2.51
  -6   3   0  103.27    2.59
   6   3   0  102.33    2.54
   7  -3   0    3.90    0.50
  -7  -3   0    3.33    0.55
   7  -3   0    4.16    0.44
  -7  -3   0    5.10    0.54
  -7   3   0    3.63    0.47
   7   3   0    3.90    0.39
   7   3   0    3.28    0.47
  -7   3   0    3.26    0.59
  -7   3   0    3.47    0.44
  -8  -3   0  103.54    2.87
   8  -3   0  108.24    2.88
  -8  -3   0  109.94    2.97
   8  -3   0  105.84    2.74
  -8   3   0  105.29    2.75
   8   3   0  104.18    2.89
  -8   3   0  107.53    2.76
  -9  -3   0   31.19    1.46
  -9  -3   0   31.72    1.39
   9  -3   0   28.59    1.16
   9  -3   0   28.27    1.28
  -9   3   0   29.49    1.22
  -9   3   0   29.74    1.28
   9   3   0   31.33    1.41
 -10  -3   0   17.39    1.22
 -10  -3   0   18.36    1.30
  10  -3   0   16.93    1.17
  10   3   0   15.18    1.18
 -10   3   0   16.83    1.09
 -11  -3   0   15.65    1.35
  11  -3   0   15.42    1.18
 -11  -3   0   14.41    1.21
 -11   3   0   12.28    1.00
  11   3   0   13.46    1.22
 -12  -3   0    2.33    1.15
 -12  -3   0    2.75    1.00
 -12   3   0    2.39    0.90
  12   3   0    2.65    1.06
   0  -4   0  197.97    4.65
   0  -4   0  200.78    4.65
   0  -4   0  202.22    4.49
   0   4   0  200.99    4.50
   0   4   0  198.56    4.64
   0   4   0  201.93    4.56
   0   4   0  199.85    4.55
   1  -4   0   10.46    0.54
  -1  -4   0   11.36    0.49
   1  -4   0    9.77    0.51
  -1  -4   0   10.11    0.48
  -1  -4   0   10.31    0.51
  -1  -4   0    9.62    0.43
  -1   4   0   11.65    0.39
  -1   4   0   12.19    0.51
   1   4   0   10.92    0.42
  -1   4   0   11.87    0.55
  -1   4   0   10.93    0.53
   1   4   0   11.07    0.54
   1   4   0   11.48    0.42
  -2  -4   0   75.33    1.86
  -2  -4   0   70.96    1.88
   2  -4   0   74.78    1.94
   2  -4   0   75.28    1.97
  -2  -4   0   77.49    1.92
  -2  -4   0   75.11    1.85
  -2   4   0   71.04    1.88
  -2   4   0   71.06    1.85
   2   4   0   75.56    1.71
   2   4   0   72.92    1.70
  -2   4   0   72.37    1.92
   2   4   0   73.61    1.87
   2   4   0   72.24    1.89
   3  -4   0   92.39    2.38
  -3  -4   0   92.52    2.33
  -3  -4   0   93.59    2.30
  -3  -4   0   88.47    2.25
  -3  -4   0   93.41    2.20
   3  -4   0   92.51    2.34
   3   4   0   94.67    2.17
  -3   4   0   92.09    2.41
  -3   4   0   97.04    2.33
   3   4   0   92.42    2.19
   3   4   0   92.39    2.32
  -3   4   0   93.27    2.15
   4  -4   0   69.70    1.92
  -4  -4   0   67.21    1.66
   4  -4   0   69.53    1.85
  -4  -4   0   68.62    1.87
  -4  -4   0   68.97    1.86
   4   4   0   67.68    1.67
  -4   4   0   65.63    1.75
   4   4   0   65.45    1.72
  -4   4   0   70.50    1.90
   4   4   0   66.12    1.64
   4   4   0   63.83    1.64
  -4   4   0   67.42    1.62
  -5  -4   0   36.36    1.21
   5  -4   0   32.58    1.12
   5  -4   0   33.97    1.21
  -5  -4   0   35.91    1.20
  -5   4   0   40.02    1.36
   5   4   0   40.34    1.14
  -5   4   0   37.59    1.07
   5   4   0   35.90    1.11
  -5   4   0   38.97    1.19
   5   4   0   37.19    1.09
   5   4   0   36.53    1.02
  -6  -4   0    7.73    0.67
   6  -4   0    7.12    0.62
   6  -4   0    7.81    0.56
  -6  -4   0    8.36    0.67
   6   4   0    7.07    0.57
  -6   4   0    7.03    0.69
   6   4   0    6.44    0.47
  -6   4   0    7.13    0.54
  -6   4   0    7.34    0.50
  -7  -4   0   34.59    1.36
  -7  -4   0   34.05    1.31
   7  -4   0   32.05    1.19
   7  -4   0   34.54    1.32
   7   4   0   32.95    1.06
  -7   4   0   32.27    1.16
  -7   4   0   30.73    1.42
   7   4   0   31.09    1.19
   8  -4   0    5.55    0.59
   8  -4   0    5.50    0.67
  -8  -4   0    5.48    0.75
  -8  -4   0    4.97    0.68
   8   4   0    5.38    0.65
  -8   4   0    5.21    0.59
   9  -4   0   19.28    1.18
  -9  -4   0   20.32    1.34
   9  -4   0   20.52    1.08
  -9  -4   0   20.68    1.24
  -9   4   0   17.55    1.07
   9   4   0   19.20    1.17
  10  -4   0   15.96    1.20
 -10  -4   0   13.39    1.12
 -10  -4   0   16.44    1.29
 -10   4   0   18.36    1.22
  10   4   0   19.19    1.35
  11  -4   0    5.00    0.92
 -11  -4   0    4.55    1.12
 -11  -4   0    3.54    0.94
  11   4   0    4.16    0.96
 -11   4   0    4.17    0.87
   0  -5   0    0.23    0.26
   0  -5   0    0.12    0.25
   0  -5   0    0.39    0.20
   0   5   0    0.46    0.28
   0   5   0    0.40    0.21
   0   5   0    0.51    0.22
   0   5   0    0.43    0.26
  -1  -5   0   98.59    2.40
  -1  -5   0  100.38    2.52
   1  -5   0  104.16    2.60
  -1  -5   0   98.60    2.54
  -1  -5   0  100.67    2.51
   1  -5   0  100.71    2.57
  -1   5   0   95.33    2.45
   1   5   0   98.77    2.52
  -1   5   0   97.45    2.28
   1   5   0  100.39    2.37
   1   5   0   99.08    2.35
  -1   5   0  101.86    2.49
   1   5   0   98.93    2.37
  -1   5   0   98.93    2.50
  -2  -5   0    2.68    0.35
  -2  -5   0    2.21    0.32
   2  -5   0    1.98    0.34
   2  -5   0    3.25    0.43
  -2  -5   0    2.31    0.34
  -2  -5   0    3.41    0.40
  -2   5   0    2.69    0.37
   2   5   0    3.03    0.27
  -2   5   0    2.95    0.38
   2   5   0    3.07    0.39
   2   5   0    3.61    0.43
   2   5   0    2.99    0.25
  -3  -5   0   77.01    1.91
  -3  -5   0   74.93    1.98
   3  -5   0   78.02    2.08
   3  -5   0   73.76    2.11
  -3  -5   0   76.31    2.00
  -3  -5   0   75.75    2.06
  -3   5   0   76.34    2.12
   3   5   0   80.08    1.85
   3   5   0   76.64    2.05
   3   5   0   78.76    1.87
  -3   5   0   77.06    2.05
   3   5   0   77.59    2.12
  -4  -5   0   23.86    0.86
  -4  -5   0   22.42    0.98
  -4  -5   0   23.87    0.77
  -4  -5   0   23.14    0.95
   4  -5   0   24.65    0.95
   4  -5   0   22.33    0.98
   4   5   0   28.06    0.84
   4   5   0   28.20    0.83
   4   5   0   28.29    0.91
   4   5   0   27.00    0.98
  -4   5   0   29.11    1.00
  -4   5   0   26.99    1.11
   5  -5   0   14.23    0.78
  -5  -5   0   13.06    0.86
  -5  -5   0   13.99    0.84
   5  -5   0   14.09    0.84
   5   5   0   12.11    0.60
  -5   5   0   12.19    0.85
   5   5   0   11.71    0.67
  -5   5   0   12.03    0.69
  -6  -5   0   74.86    2.20
   6  -5   0   73.44    2.13
  -6  -5   0   79.66    2.23
   6  -5   0   73.55    2.22
   6   5   0   73.62    2.01
  -6   5   0   76.24    2.09
   6   5   0   74.66    2.02
  -6   5   0   77.09    2.35
  -7  -5   0    1.71    0.63
   7  -5   0    1.34    0.51
   7  -5   0    1.53    0.47
  -7  -5   0    1.27    0.57
  -7   5   0    1.62    0.48
   7   5   0    2.35    0.48
   7   5   0    1.61    0.43
  -7   5   0    1.63    0.65
   8  -5   0   40.25    1.58
  -8  -5   0   37.53    1.66
   8  -5   0   37.13    1.45
  -8  -5   0   37.17    1.61
  -8   5   0   39.99    1.85
  -8   5   0   38.02    1.43
   8   5   0   39.99    1.48
  -9  -5   0    1.57    0.82
  -9  -5   0    1.89    0.76
   9  -5   0    1.96    0.64
   9  -5   0    2.06    0.68
   9   5   0    1.92    0.64
  -9   5   0    1.58    0.64
  10  -5   0   12.44    1.12
 -10  -5   0   13.41    1.28
 -10  -5   0   13.56    1.21
  10   5   0   10.93    1.06
  11  -5   0   13.04    1.27
 -11  -5   0   14.28    1.33
 -11  -5   0   15.58    1.49
  11   5   0   11.78    1.21
   0  -6   0   24.82    0.98
   0  -6   0   21.28    0.94
   0   6   0   22.43    0.95
   0   6   0   22.35    0.81
  -1  -6   0    9.94    0.67
  -1  -6   0   11.68    0.68
   1  -6   0   12.34    0.75
   1  -6   0   11.13    0.74
  -1  -6   0   11.52    0.71
  -1  -6   0   10.43    0.58
   1   6   0    9.84    0.72
   1   6   0    9.86    0.58
  -1   6   0    9.82    0.60
  -1   6   0    9.52    0.67
   1   6   0   10.35    0.58
   1   6   0    9.15    0.66
   1   6   0    9.04    0.50
  -2  -6   0   48.02    1.38
   2  -6   0   44.98    1.54
  -2  -6   0   48.67    1.48
  -2  -6   0   47.68    1.48
  -2  -6   0   48.25    1.42
   2  -6   0   47.06    1.52
   2   6   0   44.56    1.24
  -2   6   0   48.11    1.46
   2   6   0   46.94    1.52
   2   6   0   46.42    1.49
   2   6   0   48.17    1.26
  -2   6   0   45.13    1.44
   3  -6   0   40.81    1.42
  -3  -6   0   41.71    1.41
   3  -6   0   43.50    1.48
  -3  -6   0   40.04    1.25
  -3  -6   0   40.75    1.32
  -3  -6   0   43.09    1.34
  -3   6   0   38.03    1.34
   3   6   0   44.12    1.41
  -3   6   0   42.68    1.43
   3   6   0   44.14    1.14
   3   6   0   43.21    1.48
   3   6   0   41.74    1.14
  -4  -6   0    3.59    0.45
  -4  -6   0    4.14    0.47
  -4  -6   0    3.90    0.54
  -4  -6   0    3.48    0.55
   4  -6   0    3.76    0.52
   4  -6   0    3.01    0.53
   4   6   0    6.86    0.59
   4   6   0    6.37    0.45
  -4   6   0    6.58    0.66
  -4   6   0    4.57    0.52
   4   6   0    6.00    0.64
   4   6   0    6.73    0.45
   4   6   0    5.43    0.79
   5  -6   0   47.80    1.63
  -5  -6   0   48.43    1.63
   5  -6   0   48.87    1.70
  -5  -6   0   50.16    1.70
   5   6   0   49.34    1.52
   5   6   0   48.78    1.35
  -5   6   0   45.89    1.71
  -5   6   0   46.16    1.51
   5   6   0   47.94    1.69
   6  -6   0    7.94    0.78
   6  -6   0    9.80    0.78
  -6  -6   0    8.46    0.83
  -6  -6   0   10.16    0.84
  -6   6   0    8.09    0.87
  -6   6   0    9.56    0.71
   6   6   0    9.33    0.67
   6   6   0    7.22    0.56
   7  -6   0   25.09    1.32
  -7  -6   0   24.15    1.32
  -7  -6   0   24.45    1.36
   7  -6   0   22.31    1.22
  -7   6   0   23.20    1.47
   7   6   0   24.18    1.08
   7   6   0   23.87    1.05
  -7   6   0   22.69    1.09
   8  -6   0    1.76    0.65
  -8  -6   0    0.94    0.75
   8  -6   0    1.41    0.67
  -8  -6   0    1.74    0.82
  -8   6   0    2.25    0.89
   8   6   0    2.18    0.57
  -9  -6   0   11.56    1.16
   9  -6   0   14.41    1.20
  -9  -6   0   13.87    1.26
   9  -6   0   14.55    1.12
   9   6   0   11.31    0.95
 -10  -6   0    6.75    1.15
 -10  -6   0    5.47    1.20
  10  -6   0    6.02    1.04
  10   6   0    5.28    0.91
   0  -7   0    1.58    0.46
   0  -7   0    0.29    0.41
   0   7   0    1.44    0.48
   0   7   0    1.82    0.38
  -1  -7   0   31.51    1.23
   1  -7   0   33.10    1.31
  -1  -7   0   35.11    1.31
   1  -7   0   32.26    1.31
  -1   7   0   26.27    1.16
   1   7   0   27.37    1.19
   1   7   0   26.80    1.20
   1   7   0   27.16    0.94
  -1   7   0   27.17    1.07
  -2  -7   0    2.10    0.52
  -2  -7   0    2.38    0.50
  -2  -7   0    2.90    0.50
   2  -7   0    3.41    0.55
   2  -7   0    2.30    0.54
   2   7   0    3.03    0.57
   2   7   0    2.77    0.60
  -2   7   0    2.90    0.50
   2   7   0    3.03    0.37
  -2   7   0    1.90    0.49
   3  -7   0   14.52    0.98
  -3  -7   0   15.29    0.91
  -3  -7   0   15.06    0.94
   3  -7   0   16.57    1.02
  -3  -7   0   15.81    0.85
   3   7   0   19.26    1.13
   3   7   0   16.95    0.68
   3   7   0   16.06    0.98
  -3   7   0   16.69    0.95
  -3   7   0   17.69    0.99
   4  -7   0   27.62    1.31
  -4  -7   0   27.16    1.14
   4  -7   0   29.88    1.32
  -4  -7   0   25.80    1.27
  -4  -7   0   27.18    1.22
  -4   7   0   26.50    1.13
   4   7   0   27.45    1.16
  -4   7   0   28.90    1.33
   4   7   0   23.63    0.85
   4   7   0   25.21    1.30
  -5  -7   0   17.32    1.15
   5  -7   0   18.11    1.10
   5  -7   0   17.94    1.16
  -5  -7   0   16.12    1.17
  -5   7   0   16.62    1.23
  -5   7   0   15.92    1.00
   5   7   0   17.18    0.98
   5   7   0   17.50    1.26
   5   7   0   16.59    0.73
   6  -7   0   16.69    1.16
  -6  -7   0   14.49    1.12
  -6  -7   0   18.43    1.15
   6  -7   0   17.49    1.22
   6   7   0   17.81    0.85
   6   7   0   17.16    1.23
  -6   7   0   18.01    1.38
   6   7   0   17.98    1.08
  -7  -7   0    2.80    0.85
  -7  -7   0    1.71    0.80
   7  -7   0    3.22    0.73
   7  -7   0    2.59    0.76
   7   7   0    3.00    0.57
  -7   7   0    3.22    0.91
   7   7   0    1.93    0.85
  -8  -7   0   19.66    1.39
  -8  -7   0   17.11    1.34
   8  -7   0   19.44    1.36
   8  -7   0   17.87    1.34
  -8   7   0   16.19    1.46
   8   7   0   17.31    1.38
   8   7   0   18.01    1.14
  -9  -7   0   12.81    1.36
  -9  -7   0    9.69    1.24
   9  -7   0   12.62    1.19
   9  -7   0   11.44    1.23
   0  -8   0   35.34    1.43
   0  -8   0   29.11    1.35
   0   8   0   32.54    1.21
   0   8   0   29.95    1.39
   0   8   0   31.28    1.44
  -1  -8   0    0.64    0.55
   1  -8   0    0.41    0.54
  -1  -8   0    0.14    0.53
   1  -8   0    0.69    0.55
  -1   8   0    0.50    0.47
   1   8   0    0.13    0.56
   1   8   0    0.13    0.39
  -1   8   0    0.48    0.55
   1   8   0    0.49    0.60
  -2  -8   0   26.81    1.21
  -2  -8   0   26.42    1.29
   2  -8   0   25.69    1.32
   2  -8   0   26.87    1.35
   2   8   0   23.35    1.34
  -2   8   0   24.50    1.22
   2   8   0   22.74    0.92
  -2   8   0   24.54    1.19
   2   8   0   25.79    1.27
   3  -8   0    7.08    0.84
  -3  -8   0    9.18    0.82
   3  -8   0    8.72    0.86
  -3  -8   0    8.33    0.86
  -3   8   0    8.47    0.85
   3   8   0    8.95    0.85
   3   8   0    7.89    0.59
   3   8   0    7.70    0.91
  -3   8   0    8.42    0.80
  -4  -8   0    4.91    0.81
  -4  -8   0    4.40    0.68
   4  -8   0    5.68    0.81
   4  -8   0    3.38    0.74
   4   8   0    5.46    0.89
   4   8   0    5.51    0.74
  -4   8   0    6.19    0.85
   4   8   0    4.90    0.45
  -5  -8   0    6.93    0.94
   5  -8   0    6.24    0.87
   5  -8   0    4.19    0.80
  -5   8   0    8.58    1.02
   5   8   0    6.31    0.52
   5   8   0    6.85    0.80
   5   8   0    9.11    1.09
  -6  -8   0    4.40    0.96
   6  -8   0    3.95    0.85
   6  -8   0    3.95    0.86
   6   8   0    4.26    0.51
   6   8   0    3.19    0.75
   6   8   0    3.95    1.00
  -6   8   0    4.24    0.97
  -7  -8   0    5.12    1.05
   7  -8   0    7.75    1.03
   7  -8   0    5.46    0.98
  -7   8   0    6.63    1.13
   7   8   0    6.31    1.19
   7   8   0    7.25    0.67
   0  -9   0    0.17    0.65
   0  -9   0    0.29    0.68
   0   9   0    0.04    0.53
   0   9   0    0.14    0.72
   0   9   0    0.12    0.70
   1  -9   0    3.41    0.76
  -1  -9   0    3.98    0.80
   1  -9   0    4.95    0.84
  -1  -9   0    4.38    0.78
  -1   9   0    3.60    0.71
   1   9   0    3.67    0.58
  -1   9   0    2.80    0.80
   1   9   0    3.55    0.82
   1   9   0    2.52    0.82
  -2  -9   0    3.14    0.77
   2  -9   0    4.11    0.83
   2  -9   0    3.31    0.79
   2   9   0    2.51    0.49
   2   9   0    4.11    0.84
  -2   9   0    2.95    0.74
   2   9   0    3.48    0.88
   3  -9   0    9.06    1.02
   3  -9   0    6.41    0.94
  -3  -9   0    9.35    0.95
   3   9   0    7.64    0.94
   3   9   0    6.96    0.56
   3   9   0    8.13    1.08
  -3   9   0    7.43    0.94
   4  -9   0    6.79    0.99
  -4  -9   0    8.28    0.91
   4  -9   0    8.34    1.03
  -4  -9   0    9.52    1.10
  -4   9   0   11.62    1.16
   4   9   0    9.52    1.21
   4   9   0    9.52    0.65
   4   9   0    9.60    1.02
   5  -9   0    4.84    0.94
  -5  -9   0    6.99    1.09
   5  -9   0    5.25    1.00
   5   9   0    5.49    0.91
   5   9   0    5.81    0.47
  -5   9   0    7.06    1.12
   5   9   0    6.53    1.17
   6  -9   0    2.89    0.98
  -6  -9   0    3.19    1.10
   6  -9   0    2.50    0.98
  -6   9   0    2.10    1.04
   6   9   0    3.10    1.18
   6   9   0    2.24    0.43
   0 -10   0    2.71    0.93
   0 -10   0    2.44    0.90
   0  10   0    3.82    0.74
   0  10   0    3.84    1.01
   1 -10   0    1.05    0.84
   1 -10   0    1.40    0.90
  -1 -10   0    1.51    0.88
  -1  10   0    1.42    0.76
   1  10   0    0.73    0.89
   1  10   0    0.72    0.59
  -1  10   0    0.90    0.91
  -2 -10   0    9.25    1.10
   2 -10   0    7.20    1.05
   2 -10   0    9.88    1.18
   2  10   0    8.90    0.72
  -2  10   0    8.33    1.15
   2  10   0    9.52    1.18
  -2  10   0    9.61    1.07
  12   0  -1    0.46    1.82
 -12   0   1    0.79    1.02
 -12   0   1    1.08    0.82
 -11   0   1   41.25    1.71
  11   0  -1   40.69    2.05
 -11   0   1   45.39    1.91
 -10   0   1    3.82    0.78
  10   0  -1    4.18    0.82
 -10   0   1    3.64    0.63
  -9   0   1   18.56    0.98
   9   0  -1   17.06    1.17
   9   0  -1   17.26    0.77
  -9   0   1   18.38    1.09
  -8   0   1   58.39    1.66
   8   0  -1   55.09    1.86
   8   0  -1   54.14    1.54
  -8   0   1   56.01    1.74
   8   0  -1   54.09    1.49
  -7   0   1   18.90    0.78
   7   0  -1   17.36    0.66
   7   0  -1   18.16    0.92
   7   0  -1   18.80    0.72
  -7   0   1   18.79    0.87
  -6   0   1   73.24    1.86
   6   0  -1   69.93    1.78
  -6   0   1   71.69    1.94
   6   0  -1   69.78    1.76
   6   0  -1   71.09    2.01
  -6   0   1   74.89    1.93
  -5   0   1   11.28    0.48
  -5   0   1   11.33    0.55
   5   0  -1   11.27    0.45
   5   0  -1   10.49    0.42
  -5   0   1   10.89    0.58
   5   0  -1   11.69    0.61
   4   0  -1  329.26    7.60
   4   0  -1  346.61    7.60
  -4   0   1  345.62    7.65
  -4   0   1  336.27    7.70
  -4   0   1  349.22    7.70
   4   0  -1  347.94    7.76
   3   0  -1  102.80    2.44
   3   0  -1  108.44    2.55
  -3   0   1  105.77    2.50
  -3   0   1  109.99    2.52
  -3   0   1  107.94    2.46
   3   0  -1  106.91    2.43
  -2   0   1  239.71    5.18
  -2   0   1  233.78    5.23
  -2   0   1  236.94    5.21
   2   0  -1  221.28    5.18
   2   0  -1  232.07    5.16
   2   0  -1  238.94    5.26
   1   0  -1    0.41    0.05
   1   0  -1    0.39    0.07
  -1   0   1    0.28    0.08
  -1   0   1    0.49    0.09
   1   0  -1    0.33    0.08
  -1   0   1    0.64    0.06
   0   0  -1   33.24    0.75
   0   0   1   33.75    0.76
   0   0   1   32.31    0.76
   0   0   1   34.83    0.78
   0   0  -1   31.42    0.75
   1   0   1    3.00    0.14
  -1   0  -1    2.82    0.15
  -1   0  -1    2.83    0.14
   1   0   1    3.03    0.17
   2   0   1    0.58    0.11
   2   0   1    0.33    0.13
  -2   0  -1    0.45    0.12
  -2   0  -1    0.58    0.11
   2   0   1    0.66    0.06
   3   0   1  214.39    4.81
  -3   0  -1  214.36    4.94
   3   0   1  215.11    4.91
  -3   0  -1  209.54    4.85
   3   0   1  219.18    4.74
  -3   0  -1  214.95    4.84
   4   0   1   64.44    1.50
   4   0   1   65.16    1.59
  -4   0  -1   65.75    1.65
  -4   0  -1   65.12    1.63
   4   0   1   65.53    1.72
  -4   0  -1   64.05    1.65
   5   0   1  104.16    2.45
   5   0   1  103.36    2.35
  -5   0  -1   99.94    2.52
   5   0   1  103.12    2.62
  -5   0  -1  101.06    2.49
   6   0   1  135.26    3.21
   6   0   1  134.63    3.10
   6   0   1  131.94    3.41
  -6   0  -1  136.29    3.27
  -6   0  -1  138.25    3.31
  -7   0  -1    0.20    0.30
   7   0   1    0.49    0.20
   7   0   1    0.41    0.37
  -7   0  -1    0.30    0.34
   7   0   1    0.17    0.29
  -8   0  -1   53.32    1.65
   8   0   1   53.42    1.84
  -8   0  -1   55.55    1.71
   8   0   1   54.58    1.57
   9   0   1    3.71    0.72
   9   0   1    3.61    0.52
  -9   0  -1    4.99    0.71
  -9   0  -1    3.00    0.54
 -10   0  -1   69.44    2.16
 -10   0  -1   71.84    2.28
  10   0   1   66.18    2.42
 -11   0  -1    8.05    0.89
 -11   0  -1    9.53    1.07
  11   0   1    7.51    1.08
  12   0   1   13.75    1.49
 -12   0  -1   12.64    1.32
 -12   0  -1   12.21    1.11
 -12  -1   1   24.80    1.68
 -12  -1   1   21.82    1.56
  12   1  -1   23.58    1.93
 -12   1   1   24.12    1.61
 -12   1   1   25.07    1.51
 -11  -1   1    4.89    0.99
 -11  -1   1    5.28    0.81
 -11   1   1    6.22    0.82
 -11   1   1    6.02    0.99
  11   1  -1    8.20    1.13
 -10  -1   1   15.36    1.10
 -10  -1   1   14.46    1.12
  10  -1  -1   15.39    1.27
 -10   1   1   15.13    1.03
 -10   1   1   16.09    1.11
  10   1  -1   16.08    1.32
  -9  -1   1   18.15    1.02
   9  -1  -1   17.47    0.89
  -9  -1   1   16.10    1.09
   9  -1  -1   16.83    1.19
   9  -1  -1   17.81    0.81
   9   1  -1   16.40    1.13
  -9   1   1   17.43    1.04
  -9   1   1   15.27    0.90
   9   1  -1   18.91    0.94
  -8  -1   1   15.89    0.95
   8  -1  -1   14.94    0.69
   8  -1  -1   15.27    1.02
  -8  -1   1   16.79    0.86
   8  -1  -1   15.99    0.79
   8   1  -1   16.60    0.97
  -8   1   1   16.21    0.81
  -8   1   1   16.48    0.91
   8   1  -1   14.67    0.66
  -7  -1   1   94.62    2.45
   7  -1  -1   96.13    2.32
  -7  -1   1   95.90    2.50
   7  -1  -1   93.08    2.62
   7  -1  -1   90.14    2.37
  -7   1   1   96.42    2.50
   7   1  -1   92.36    2.29
   7   1  -1   97.50    2.61
  -7   1   1   96.78    2.42
   7   1  -1   95.12    2.32
  -6  -1   1    8.65    0.60
   6  -1  -1    8.70    0.65
   6  -1  -1    7.88    0.49
  -6  -1   1    9.11    0.56
   6  -1  -1    8.06    0.43
  -6   1   1    9.69    0.58
   6   1  -1    9.70    0.45
   6   1  -1    9.22    0.61
  -6   1   1    9.85    0.65
  -6   1   1    9.66    0.52
   6   1  -1    8.50    0.42
   5  -1  -1   87.35    2.08
  -5  -1   1   88.20    2.21
   5  -1  -1   83.70    2.29
  -5  -1   1   87.64    2.17
   5  -1  -1   87.15    2.13
   5   1  -1   92.77    2.36
  -5   1   1   94.83    2.29
  -5   1   1   92.26    2.23
   5   1  -1   92.19    2.20
   5   1  -1   90.49    2.14
  -5   1   1   90.76    2.34
   4  -1  -1   18.68    0.56
  -4  -1   1   18.57    0.63
   4  -1  -1   18.69    0.61
  -4  -1   1   18.30    0.66
   4  -1  -1   17.93    0.71
   4   1  -1   15.99    0.61
   4   1  -1   15.01    0.44
  -4   1   1   15.10    0.56
   4   1  -1   16.34    0.51
  -4   1   1   15.48    0.52
  -4   1   1   16.07    0.63
  -3  -1   1  259.46    5.72
  -3  -1   1  251.79    5.73
   3  -1  -1  262.46    5.79
   3  -1  -1  247.84    5.70
   3  -1  -1  249.45    5.67
  -3   1   1  248.41    5.64
   3   1  -1  244.68    5.48
  -3   1   1  252.03    5.56
   3   1  -1  246.42    5.55
  -3   1   1  253.71    5.59
   3   1  -1  250.29    5.64
   2  -1  -1  204.47    4.54
   2  -1  -1  204.33    4.47
  -2  -1   1  196.02    4.49
   2  -1  -1  199.79    4.49
  -2  -1   1  195.38    4.49
  -2   1   1  195.34    4.41
   2   1  -1  208.26    4.48
  -2   1   1  192.45    4.48
   2   1  -1  198.39    4.43
  -2   1   1  199.61    4.45
  -1  -1   1   64.92    1.48
   1  -1  -1   65.38    1.49
  -1  -1   1   61.29    1.42
   1  -1  -1   62.15    1.47
  -1  -1   1   64.21    1.46
  -1   1   1   55.28    1.25
   1   1  -1   55.04    1.26
   1   1  -1   55.90    1.27
  -1   1   1   52.90    1.27
  -1   1   1   50.59    1.21
   0  -1   1   93.64    2.12
   0  -1  -1   92.45    2.11
   0  -1  -1   91.93    2.12
   0  -1   1   92.84    2.11
   0  -1  -1   96.14    2.08
   0  -1   1   93.65    2.07
   0  -1  -1   95.29    2.11
   0   1   1   94.25    2.07
   0   1  -1   94.64    2.13
   0   1  -1   98.26    2.13
   0   1   1   91.42    2.07
   0   1  -1   90.99    2.11
   0   1   1   89.92    2.10
  -1  -1  -1  104.85    2.37
   1  -1   1  104.21    2.40
  -1  -1  -1  103.85    2.35
   1  -1   1  107.00    2.37
  -1  -1  -1  104.58    2.37
  -1  -1  -1  103.06    2.39
   1  -1   1  109.32    2.43
  -1   1  -1  105.14    2.31
   1   1   1  107.44    2.36
  -1   1  -1  107.94    2.39
  -1   1  -1  106.00    2.41
   1   1   1  100.53    2.31
   1   1   1  100.35    2.31
  -2  -1  -1  356.88    7.86
   2  -1   1  352.43    7.83
   2  -1   1  348.39    7.87
   2  -1   1  367.78    7.94
  -2  -1  -1  348.63    7.88
   2   1   1  331.36    7.63
   2   1   1  340.68    7.65
  -2   1  -1  347.05    7.68
  -2   1  -1  361.40    7.73
   2   1   1  335.01    7.60
   2   1   1  349.81    7.64
  -2   1  -1  356.79    7.63
   3  -1   1   31.19    0.79
   3  -1   1   31.43    0.86
   3  -1   1   31.42    0.94
  -3  -1  -1   31.25    0.89
  -3   1  -1   32.54    0.84
  -3   1  -1   31.51    0.93
  -3   1  -1   33.53    0.88
   3   1   1   32.13    0.81
   3   1   1   31.56    0.77
   3   1   1   31.80    0.88
   3   1   1   30.35    0.85
  -4  -1  -1  292.12    6.55
   4  -1   1  283.56    6.46
  -4  -1  -1  293.14    6.59
   4  -1   1  285.85    6.67
   4  -1   1  297.19    6.55
  -4   1  -1  291.12    6.60
   4   1   1  285.48    6.66
  -4   1  -1  285.89    6.69
   4   1   1  295.26    6.55
  -4   1  -1  295.69    6.62
   4   1   1  308.30    6.51
   5  -1   1  148.90    3.57
  -5  -1  -1  144.70    3.41
  -5  -1  -1  140.86    3.44
   5  -1   1  137.55    3.28
   5  -1   1  146.16    3.40
   5   1   1  138.81    3.15
  -5   1  -1  132.85    3.22
   5   1   1  131.83    3.08
  -5   1  -1  136.38    3.33
   5   1   1  138.03    3.32
  -5   1  -1  138.44    3.23
   6  -1   1   25.70    0.76
   6  -1   1   25.63    1.04
  -6  -1  -1   25.08    0.89
   6  -1   1   24.64    0.87
  -6  -1  -1   25.79    0.95
  -6   1  -1   24.00    0.82
  -6   1  -1   20.93    0.81
   6   1   1   20.99    0.64
   6   1   1   21.21    0.73
  -6   1  -1   21.88    0.91
   6   1   1   22.36    0.91
  -7  -1  -1   53.04    1.56
  -7  -1  -1   52.92    1.61
   7  -1   1   52.33    1.38
   7  -1   1   50.95    1.74
   7  -1   1   53.37    1.52
  -7   1  -1   54.40    1.51
   7   1   1   50.40    1.41
   7   1   1   51.49    1.64
  -7   1  -1   51.53    1.53
   7   1   1   48.46    1.29
   8  -1   1    0.87    0.51
  -8  -1  -1    0.63    0.40
  -8  -1  -1    0.73    0.48
   8  -1   1    0.58    0.37
   8   1   1    0.42    0.34
  -8   1  -1    0.74    0.37
   8   1   1    0.55    0.45
  -8   1  -1    0.18    0.41
   9  -1   1   44.21    1.50
  -9  -1  -1   45.80    1.57
  -9  -1  -1   47.02    1.69
   9  -1   1   44.19    1.83
  -9   1  -1   43.32    1.51
   9   1   1   45.85    1.74
  -9   1  -1   42.16    1.56
  10  -1   1    1.84    0.79
 -10  -1  -1    1.05    0.58
 -10  -1  -1    1.68    0.73
  10  -1   1    1.71    0.58
  10   1   1    1.09    0.68
 -10   1  -1    1.06    0.68
 -10   1  -1    1.61    0.58
 -11  -1  -1   15.75    1.14
 -11  -1  -1   14.09    1.23
  11   1   1   15.48    1.30
 -11   1  -1   16.98    1.24
 -11   1  -1   14.25    1.05
 -12  -1  -1   11.03    1.17
 -12  -1  -1   12.56    1.37
 -12   1  -1   13.47    1.31
  12   1   1   11.19    1.37
 -12   1  -1   10.53    1.09
 -12  -2   1    0.00    0.83
 -12  -2   1    0.10    1.03
  12   2  -1   -0.03    0.96
 -12   2   1   -0.03    0.80
 -12   2   1    0.49    1.03
 -11  -2   1   22.16    1.41
 -11  -2   1   21.20    1.45
 -11   2   1   23.02    1.52
  11   2  -1   21.72    1.63
 -11   2   1   23.21    1.31
 -10  -2   1    5.39    0.77
 -10  -2   1    5.46    0.89
  10  -2  -1    6.53    0.91
  10   2  -1    7.08    0.94
 -10   2   1    6.32    0.70
 -10   2   1    6.49    0.84
  -9  -2   1   57.85    1.95
   9  -2  -1   53.24    1.73
  -9  -2   1   54.10    1.80
   9  -2  -1   55.00    1.64
  -9   2   1   52.08    1.63
   9   2  -1   50.37    1.87
  -9   2   1   51.71    1.72
  -8  -2   1   11.46    0.83
   8  -2  -1   10.77    0.94
   8  -2  -1   11.00    0.65
  -8  -2   1   11.27    0.79
   8  -2  -1   11.26    0.76
   8   2  -1   10.95    0.61
   8   2  -1    9.49    0.77
  -8   2   1   10.23    0.69
  -8   2   1   10.45    0.74
  -7  -2   1   12.72    0.74
  -7  -2   1   10.06    0.72
   7  -2  -1   12.44    0.60
   7  -2  -1   11.32    0.67
   7  -2  -1   11.66    0.91
   7   2  -1   13.45    0.80
  -7   2   1   12.88    0.73
  -7   2   1   12.65    0.87
   7   2  -1   13.23    0.63
  -7   2   1   13.97    0.68
  -6  -2   1   90.45    2.45
   6  -2  -1   98.92    2.41
   6  -2  -1   93.44    2.57
  -6  -2   1   96.46    2.44
   6  -2  -1   91.00    2.32
  -6   2   1   92.12    2.29
   6   2  -1   90.32    2.25
  -6   2   1   94.24    2.35
   6   2  -1   89.52    2.15
  -6   2   1   92.71    2.48
   6   2  -1   96.51    2.44
  -5  -2   1    2.20    0.34
   5  -2  -1    2.11    0.37
  -5  -2   1    2.52    0.33
   5  -2  -1    2.40    0.31
   5  -2  -1    2.79    0.28
   5   2  -1    3.45    0.36
   5   2  -1    3.24    0.35
  -5   2   1    2.73    0.31
   5   2  -1    2.69    0.20
  -5   2   1    3.51    0.40
   5   2  -1    2.94    0.27
  -5   2   1    3.17    0.30
   4  -2  -1  207.67    4.94
  -4  -2   1  215.15    4.86
   4  -2  -1  211.15    4.80
   4  -2  -1  208.74    4.85
  -4  -2   1  210.57    4.86
   4   2  -1  208.03    4.78
  -4   2   1  206.69    4.76
  -4   2   1  215.69    4.88
   4   2  -1  205.89    4.82
  -4   2   1  207.63    4.74
   4   2  -1  211.94    4.74
   3  -2  -1   56.22    1.42
  -3  -2   1   56.19    1.45
  -3  -2   1   57.31    1.45
   3  -2  -1   57.92    1.47
   3  -2  -1   55.32    1.51
   3   2  -1   61.56    1.43
  -3   2   1   61.81    1.62
  -3   2   1   63.66    1.52
   3   2  -1   64.67    1.54
  -3   2   1   62.22    1.53
   3   2  -1   65.83    1.55
   3   2  -1   61.44    1.56
  -2  -2   1   30.10    0.78
   2  -2  -1   29.37    0.84
  -2  -2   1   29.56    0.71
  -2  -2   1   29.17    0.81
   2  -2  -1   29.58    0.81
  -2  -2   1   29.08    0.82
  -2   2   1   20.49    0.57
   2   2  -1   21.47    0.58
   2   2  -1   19.56    0.60
  -2   2   1   19.84    0.64
  -2   2   1   21.77    0.59
   2   2  -1   21.32    0.59
  -1  -2   1  291.60    6.71
  -1  -2   1  306.25    6.68
   1  -2  -1  299.36    6.75
  -1  -2   1  300.18    6.68
   1  -2  -1  304.43    6.73
  -1  -2   1  308.02    6.73
  -1   2   1  309.90    6.74
   1   2  -1  286.37    6.74
  -1   2   1  304.95    6.70
  -1   2   1  295.54    6.72
   1   2  -1  305.35    6.70
   1   2  -1  308.86    6.76
  -1   2   1  304.20    6.69
   1   2  -1  305.55    6.70
   0  -2  -1   49.33    1.22
   0  -2  -1   51.36    1.18
   0  -2   1   50.32    1.13
   0  -2  -1   50.20    1.18
   0  -2  -1   49.64    1.23
   0  -2   1   47.93    1.21
   0  -2   1   49.73    1.23
   0   2   1   54.79    1.30
   0   2   1   52.22    1.29
   0   2   1   50.86    1.25
   0   2  -1   56.66    1.33
   0   2  -1   57.31    1.34
   0   2  -1   55.41    1.36
   0   2   1   57.16    1.27
   1  -2   1   97.52    2.24
  -1  -2  -1   95.23    2.22
  -1  -2  -1   95.40    2.21
  -1  -2  -1   94.29    2.22
  -1  -2  -1   96.00    2.21
   1  -2   1   97.25    2.26
  -1   2  -1  100.16    2.36
  -1   2  -1  100.18    2.34
  -2  -2  -1   29.88    0.83
  -2  -2  -1   29.33    0.77
  -2  -2  -1   29.68    0.81
   2  -2   1   29.68    0.89
  -2  -2  -1   30.23    0.76
   2  -2   1   29.17    0.80
   2  -2   1   29.74    0.85
  -2   2  -1   29.19    0.69
   2   2   1   28.12    0.75
   2   2   1   26.80    0.69
  -2   2  -1   27.43    0.84
   2   2   1   29.93    0.68
   2   2   1   28.32    0.75
  -2   2  -1   27.80    0.80
  -3  -2  -1  305.80    6.96
   3  -2   1  311.57    6.91
   3  -2   1  307.01    6.96
   3  -2   1  313.58    7.04
  -3  -2  -1  305.34    6.94
   3   2   1  287.99    6.47
   3   2   1  299.45    6.48
  -3   2  -1  298.10    6.56
  -3   2  -1  295.68    6.64
  -3   2  -1  284.23    6.46
   3   2   1  287.69    6.50
   3   2   1  285.50    6.48
   4  -2   1   13.47    0.56
  -4  -2  -1   12.31    0.57
   4  -2   1   12.88    0.66
   4  -2   1   12.51    0.48
  -4  -2  -1   12.93    0.55
   4   2   1    9.58    0.37
  -4   2  -1   10.53    0.48
   4   2   1    9.19    0.38
   4   2   1   10.73    0.47
  -4   2  -1    9.59    0.41
  -4   2  -1   10.53    0.56
   4   2   1    9.54    0.43
  -5  -2  -1  107.44    2.59
   5  -2   1  102.74    2.58
  -5  -2  -1  100.28    2.60
   5  -2   1  105.46    2.72
   5  -2   1  102.68    2.48
  -5   2  -1  101.85    2.65
   5   2   1  101.52    2.55
   5   2   1  101.84    2.39
   5   2   1   99.87    2.41
  -5   2  -1  102.68    2.48
   5   2   1  106.52    2.53
  -5   2  -1  106.18    2.53
   6  -2   1   70.32    2.10
   6  -2   1   68.24    1.79
   6  -2   1   72.32    1.93
  -6  -2  -1   73.03    1.93
  -6  -2  -1   71.70    1.98
  -6   2  -1   73.75    1.93
  -6   2  -1   77.28    2.14
   6   2   1   74.07    1.85
  -6   2  -1   74.71    1.98
   6   2   1   73.68    2.03
   6   2   1   77.29    1.84
   7  -2   1   16.05    0.66
   7  -2   1   14.93    0.97
  -7  -2  -1   16.42    0.88
   7  -2   1   14.71    0.79
  -7  -2  -1   15.32    0.82
   7   2   1   17.21    0.62
  -7   2  -1   14.61    0.76
   7   2   1   15.69    0.67
   7   2   1   16.56    0.86
  -7   2  -1   15.88    0.77
  -8  -2  -1   37.33    1.39
   8  -2   1   37.95    1.19
   8  -2   1   39.37    1.62
   8  -2   1   38.94    1.34
  -8  -2  -1   37.94    1.44
  -8   2  -1   36.46    1.30
   8   2   1   37.07    1.44
  -8   2  -1   38.96    1.32
   9  -2   1    3.59    0.58
  -9  -2  -1    3.61    0.70
  -9  -2  -1    3.80    0.65
  -9   2  -1    2.53    0.52
   9   2   1    2.49    0.61
  -9   2  -1    3.26    0.62
 -10  -2  -1   31.01    1.46
 -10  -2  -1   32.17    1.58
  10  -2   1   30.81    1.38
 -10   2  -1   32.39    1.46
  10   2   1   30.01    1.55
 -10   2  -1   30.02    1.36
 -11  -2  -1   18.48    1.38
 -11  -2  -1   16.95    1.20
  11   2   1   17.78    1.37
 -11   2  -1   17.34    1.26
 -11   2  -1   18.24    1.27
 -12  -2  -1    9.30    1.33
 -12  -2  -1    7.40    1.09
 -12   2  -1    7.35    1.00
  12   2   1    9.90    1.32
 -12  -3   1   15.42    1.52
 -12  -3   1   15.54    1.33
 -12   3   1   17.50    1.28
  12   3  -1   17.03    1.52
 -11  -3   1    1.62    0.81
 -11  -3   1    1.70    0.97
 -11   3   1    1.98    0.75
  11   3  -1    1.70    0.85
  10  -3  -1   31.74    1.41
 -10  -3   1   31.60    1.54
 -10  -3   1   33.75    1.66
 -10   3   1   31.48    1.37
 -10   3   1   30.69    1.46
  10   3  -1   28.73    1.55
   9  -3  -1    7.19    0.66
  -9  -3   1    5.62    0.70
   9  -3  -1    6.47    0.71
  -9  -3   1    6.94    0.83
  -9   3   1    5.41    0.62
   9   3  -1    5.38    0.73
  -9   3   1    5.62    0.71
   8  -3  -1   22.90    1.05
   8  -3  -1   21.33    0.95
  -8  -3   1   23.51    1.19
  -8  -3   1   23.63    1.12
  -8   3   1   21.95    0.97
   8   3  -1   22.99    0.94
  -8   3   1   22.14    1.01
   8   3  -1   20.35    1.09
  -7  -3   1   60.82    1.89
   7  -3  -1   62.64    1.75
   7  -3  -1   64.69    1.86
  -7  -3   1   61.41    1.85
  -7   3   1   58.83    1.62
  -7   3   1   55.19    1.86
   7   3  -1   55.54    1.55
   7   3  -1   57.36    1.75
  -7   3   1   57.05    1.64
  -6  -3   1    3.22    0.43
   6  -3  -1    5.15    0.44
   6  -3  -1    4.61    0.48
  -6  -3   1    3.89    0.50
   6   3  -1    4.17    0.45
  -6   3   1    2.75    0.46
  -6   3   1    4.80    0.42
   6   3  -1    4.21    0.37
  -6   3   1    4.95    0.45
  -5  -3   1   87.06    2.26
  -5  -3   1   87.72    2.26
   5  -3  -1   81.16    2.25
   5  -3  -1   86.98    2.19
   5  -3  -1   89.94    2.38
  -5   3   1   79.52    2.24
   5   3  -1   84.66    2.08
   5   3  -1   84.09    2.11
   5   3  -1   83.34    2.16
   5   3  -1   82.02    1.93
  -5   3   1   88.30    2.09
  -5   3   1   86.70    2.09
   4  -3  -1    6.76    0.49
  -4  -3   1    7.17    0.48
   4  -3  -1    7.15    0.44
  -4  -3   1    7.38    0.49
   4  -3  -1    7.54    0.59
   4   3  -1    6.22    0.40
   4   3  -1    6.21    0.40
   4   3  -1    5.73    0.38
  -4   3   1    6.89    0.39
   4   3  -1    6.44    0.28
  -4   3   1    7.04    0.40
  -4   3   1    7.16    0.52
   3  -3  -1  209.26    4.83
  -3  -3   1  208.68    4.63
  -3  -3   1  212.78    4.81
   3  -3  -1  203.95    4.78
  -3  -3   1  203.69    4.77
  -3   3   1  204.77    4.70
   3   3  -1  209.57    4.71
  -3   3   1  212.35    4.82
   3   3  -1  204.94    4.72
  -3   3   1  204.02    4.66
   3   3  -1  206.27    4.67
   2  -3  -1   60.25    1.57
  -2  -3   1   61.51    1.47
  -2  -3   1   60.66    1.57
  -2  -3   1   61.18    1.53
   2  -3  -1   61.85    1.61
  -2  -3   1   61.84    1.53
  -2   3   1   57.06    1.45
   2   3  -1   60.54    1.44
  -2   3   1   57.43    1.51
   2   3  -1   58.99    1.42
   2   3  -1   57.47    1.50
   2   3  -1   60.79    1.54
  -2   3   1   60.71    1.42
   1  -3  -1   32.80    0.96
  -1  -3   1   34.25    0.93
  -1  -3   1   32.69    0.93
  -1  -3   1   34.26    0.90
  -1  -3   1   31.60    0.85
   1  -3  -1   32.00    0.93
   1   3  -1   29.41    0.79
  -1   3   1   28.02    0.81
   1   3  -1   28.67    0.87
  -1   3   1   28.80    0.76
   1   3  -1   31.02    0.79
  -1   3   1   29.49    0.82
   1   3  -1   29.70    0.86
  -1   3   1   29.31    0.83
   0  -3  -1  198.05    4.43
   0  -3  -1  193.65    4.52
   0  -3  -1  192.29    4.51
   0  -3   1  194.01    4.51
   0  -3   1  201.51    4.51
   0  -3  -1  198.28    4.46
   0  -3   1  204.24    4.38
   0   3   1  192.29    4.38
   0   3  -1  199.37    4.39
   0   3   1  194.72    4.32
   0   3   1  192.27    4.34
   0   3   1  181.03    4.30
   0   3  -1  198.67    4.39
   0   3  -1  193.39    4.43
   1  -3   1    4.06    0.31
  -1  -3  -1    5.13    0.30
  -1  -3  -1    4.61    0.29
   1  -3   1    4.94    0.34
  -1  -3  -1    4.76    0.30
  -1  -3  -1    3.93    0.29
  -1   3  -1    4.59    0.33
  -1   3  -1    5.39    0.42
  -1   3  -1    4.91    0.34
   2  -3   1  169.18    3.97
   2  -3   1  170.91    3.94
  -2  -3  -1  172.30    3.92
  -2  -3  -1  172.00    3.87
  -2  -3  -1  167.43    3.89
  -2  -3  -1  167.44    3.91
   2   3   1  163.47    3.93
  -2   3  -1  178.79    3.98
  -2   3  -1  172.91    4.02
  -3  -3  -1   24.07    0.81
  -3  -3  -1   23.95    0.72
   3  -3   1   24.28    0.78
   3  -3   1   24.99    0.84
  -3  -3  -1   25.65    0.80
  -3  -3  -1   25.59    0.70
   3  -3   1   22.56    0.87
   3   3   1   21.97    0.62
  -3   3  -1   23.25    0.82
  -3   3  -1   24.02    0.75
   3   3   1   22.75    0.70
  -3   3  -1   22.57    0.60
   3   3   1   22.53    0.68
   3   3   1   22.16    0.60
  -4  -3  -1   41.86    1.21
   4  -3   1   38.90    1.21
  -4  -3  -1   40.24    1.22
   4  -3   1   40.20    1.15
   4  -3   1   42.69    1.32
  -4   3  -1   38.00    1.14
  -4   3  -1   39.65    1.25
   4   3   1   39.00    1.04
  -4   3  -1   38.73    1.01
   4   3   1   40.14    1.07
   4   3   1   39.37    1.06
   4   3   1   40.24    1.04
  -5  -3  -1   89.53    2.31
   5  -3   1   86.53    2.41
   5  -3   1   86.15    2.19
  -5  -3  -1   87.73    2.28
   5  -3   1   87.62    2.30
  -5   3  -1   86.34    2.15
   5   3   1   81.79    2.01
  -5   3  -1   82.88    2.28
   5   3   1   84.53    2.11
  -5   3  -1   83.77    2.03
   5   3   1   82.25    2.08
   5   3   1   83.98    2.02
   6  -3   1   29.14    0.98
  -6  -3  -1   31.53    1.15
   6  -3   1   29.81    1.09
   6  -3   1   31.90    1.30
  -6  -3  -1   31.25    1.13
   6   3   1   30.06    0.88
  -6   3  -1   29.50    0.94
  -6   3  -1   28.79    1.20
   6   3   1   28.77    1.02
   6   3   1   28.87    0.88
  -6   3  -1   30.98    1.03
   7  -3   1   36.06    1.26
   7  -3   1   33.81    1.11
  -7  -3  -1   31.55    1.25
  -7  -3  -1   32.80    1.28
  -7   3  -1   31.30    1.35
  -7   3  -1   31.65    1.13
   7   3   1   31.05    1.02
   7   3   1   31.58    1.17
  -7   3  -1   29.72    1.06
  -8  -3  -1   13.03    0.93
   8  -3   1   12.86    0.91
   8  -3   1   14.76    0.76
  -8  -3  -1   12.86    0.90
  -8   3  -1   12.71    0.83
   8   3   1   12.21    0.87
  -8   3  -1   11.88    0.80
  -9  -3  -1   35.94    1.60
   9  -3   1   37.57    1.48
  -9  -3  -1   39.97    1.54
  -9   3  -1   41.94    1.52
   9   3   1   41.01    1.63
  10  -3   1    5.09    0.76
 -10  -3  -1    4.43    0.80
 -10  -3  -1    3.08    0.88
 -10   3  -1    3.01    0.68
  10   3   1    4.03    0.81
 -11  -3  -1   13.46    1.32
  11  -3   1   13.15    1.09
 -11  -3  -1   12.28    1.12
  11   3   1   17.88    1.36
 -11   3  -1   14.13    1.09
 -12  -3  -1   14.25    1.47
 -12  -3  -1   13.74    1.31
  12   3   1   12.30    1.35
 -12   3  -1   14.57    1.23
 -11  -4   1   14.15    1.36
 -11  -4   1   12.70    1.19
  11  -4  -1   15.39    1.21
  11   4  -1   12.76    1.23
  10  -4  -1    1.79    0.69
 -10  -4   1    2.05    0.89
 -10  -4   1    1.80    0.76
  10   4  -1    2.97    0.79
 -10   4   1    2.50    0.68
   9  -4  -1    8.76    0.77
   9  -4  -1    8.99    0.85
  -9  -4   1   10.03    1.00
  -9  -4   1    8.28    0.85
  -9   4   1   10.17    0.78
   9   4  -1    9.86    0.90
   8  -4  -1   51.39    1.73
   8  -4  -1   49.78    1.64
  -8  -4   1   51.97    1.79
  -8  -4   1   51.04    1.83
   8   4  -1   53.65    1.77
   8   4  -1   52.40    1.57
  -8   4   1   52.14    2.11
  -8   4   1   51.72    1.63
   7  -4  -1   10.91    0.74
  -7  -4   1   10.79    0.78
  -7  -4   1   12.61    0.86
   7  -4  -1   10.88    0.79
   7   4  -1   10.52    0.76
  -7   4   1   11.34    0.74
  -7   4   1   11.31    0.73
   7   4  -1   10.58    0.66
  -7   4   1   10.80    0.86
   6  -4  -1   96.70    2.68
   6  -4  -1  101.85    2.63
  -6  -4   1  106.40    2.71
  -6  -4   1   99.71    2.70
  -6   4   1   97.42    2.52
   6   4  -1   97.71    2.51
   6   4  -1  103.02    2.61
  -6   4   1  101.73    2.78
  -6   4   1  102.92    2.51
   5  -4  -1    2.36    0.37
   5  -4  -1    1.54    0.37
  -5  -4   1    1.72    0.40
  -5  -4   1    2.23    0.41
   5   4  -1    2.50    0.34
  -5   4   1    2.54    0.33
  -5   4   1    2.15    0.44
   5   4  -1    2.32    0.33
  -5   4   1    2.08    0.33
  -4  -4   1  105.97    2.63
  -4  -4   1  102.32    2.67
   4  -4  -1  104.57    2.64
  -4  -4   1  103.49    2.42
   4  -4  -1  108.21    2.71
   4   4  -1   97.50    2.38
  -4   4   1   99.03    2.58
   4   4  -1   98.44    2.32
   4   4  -1  101.11    2.42
  -4   4   1  100.02    2.43
  -4   4   1   98.57    2.36
   4   4  -1   98.92    2.45
   3  -4  -1   22.32    0.87
  -3  -4   1   23.08    0.81
  -3  -4   1   23.98    0.70
  -3  -4   1   23.14    0.86
  -3  -4   1   23.99    0.78
   3  -4  -1   24.25    0.85
   3   4  -1   26.36    0.74
   3   4  -1   25.04    0.89
  -3   4   1   24.47    0.73
  -3   4   1   23.70    0.88
   3   4  -1   24.11    0.83
  -3   4   1   23.15    0.79
   3   4  -1   25.16    0.76
   2  -4  -1  108.09    2.66
   2  -4  -1  109.97    2.71
  -2  -4   1  106.76    2.61
  -2  -4   1  110.57    2.66
  -2  -4   1  103.39    2.56
  -2  -4   1  108.39    2.56
   2   4  -1   98.34    2.31
   2   4  -1   99.44    2.31
  -2   4   1   99.07    2.28
  -2   4   1   98.20    2.37
   2   4  -1   96.69    2.42
  -2   4   1   95.22    2.44
   2   4  -1   96.84    2.46
  -2   4   1   99.14    2.41
  -1  -4   1   51.61    1.37
   1  -4  -1   47.99    1.38
  -1  -4   1   49.97    1.34
  -1  -4   1   49.40    1.36
  -1  -4   1   49.01    1.25
   1  -4  -1   52.37    1.42
   1   4  -1   47.59    1.24
  -1   4   1   47.46    1.26
  -1   4   1   48.33    1.29
  -1   4   1   47.28    1.28
  -1   4   1   47.15    1.19
   1   4  -1   48.37    1.35
   1   4  -1   47.91    1.25
   1   4  -1   49.03    1.34
   0  -4   1   61.05    1.39
   0  -4   1   56.43    1.56
   0  -4  -1   59.11    1.50
   0  -4   1   59.41    1.57
   0  -4  -1   60.15    1.45
   0  -4  -1   58.75    1.57
   0  -4  -1   56.69    1.57
   0   4  -1   63.23    1.49
   0   4   1   62.57    1.56
   0   4   1   63.87    1.64
   0   4   1   64.33    1.56
   0   4  -1   65.00    1.62
   0   4  -1   61.70    1.68
   0   4   1   62.54    1.54
   0   4  -1   66.48    1.64
   1  -4   1  150.71    3.54
  -1  -4  -1  146.00    3.48
   1  -4   1  146.56    3.52
  -1  -4  -1  150.35    3.47
  -1  -4  -1  147.09    3.50
  -1  -4  -1  147.64    3.43
  -1   4  -1  144.83    3.39
  -1   4  -1  141.83    3.37
  -1   4  -1  148.02    3.40
   1   4   1  143.64    3.36
   1   4   1  137.05    3.18
   1   4   1  137.67    3.18
  -2  -4  -1    0.20    0.18
   2  -4   1   -0.05    0.23
   2  -4   1    0.36    0.21
  -2  -4  -1    0.09    0.22
  -2  -4  -1    0.10    0.21
  -2  -4  -1    0.22    0.21
   2   4   1    0.25    0.22
  -2   4  -1    0.27    0.23
   2   4   1    0.18    0.09
  -2   4  -1    0.23    0.22
   3  -4   1   50.04    1.46
  -3  -4  -1   49.17    1.40
  -3  -4  -1   48.68    1.33
  -3  -4  -1   51.47    1.42
   3  -4   1   49.37    1.40
  -3  -4  -1   50.36    1.30
   3   4   1   51.05    1.37
   3   4   1   50.36    1.19
   3   4   1   50.36    1.20
   3   4   1   48.70    1.33
  -3   4  -1   50.28    1.41
  -3   4  -1   51.90    1.50
  -4  -4  -1   27.96    0.81
  -4  -4  -1   26.76    0.98
   4  -4   1   27.01    0.93
  -4  -4  -1   26.94    0.98
   4  -4   1   26.92    0.99
  -4  -4  -1   27.03    0.85
   4   4   1   22.97    0.75
  -4   4  -1   23.24    0.97
  -4   4  -1   23.34    0.86
   4   4   1   24.18    0.80
  -4   4  -1   21.52    0.64
   4   4   1   23.49    0.68
   4   4   1   23.47    0.70
   5  -4   1   27.06    0.96
  -5  -4  -1   28.39    1.05
  -5  -4  -1   25.82    1.05
   5  -4   1   26.75    1.04
   5   4   1   29.19    0.89
   5   4   1   28.25    0.87
  -5   4  -1   28.19    1.16
  -5   4  -1   29.46    1.01
   5   4   1   28.97    0.92
   5   4   1   28.97    0.90
   6  -4   1   58.84    1.68
  -6  -4  -1   60.29    1.79
   6  -4   1   58.58    1.79
  -6  -4  -1   58.16    1.81
   6   4   1   62.12    1.64
  -6   4  -1   61.82    1.78
   6   4   1   62.88    1.72
  -6   4  -1   63.11    1.98
   7  -4   1   20.13    1.02
  -7  -4  -1   19.77    1.02
   7  -4   1   20.73    0.90
  -7  -4  -1   20.52    1.10
   7   4   1   20.04    0.92
  -7   4  -1   20.45    1.20
  -7   4  -1   19.78    0.93
  -8  -4  -1   49.42    1.79
   8  -4   1   46.65    1.70
  -8  -4  -1   49.67    1.72
   8  -4   1   47.75    1.55
  -8   4  -1   48.84    1.59
   8   4   1   46.29    1.61
   9  -4   1    2.14    0.61
  -9  -4  -1    2.06    0.70
  -9  -4  -1    2.39    0.76
  -9   4  -1    2.11    0.59
   9   4   1    3.00    0.66
  10  -4   1   40.94    1.76
 -10  -4  -1   42.56    1.80
 -10  -4  -1   41.86    1.92
 -10   4  -1   44.96    1.78
  10   4   1   46.69    1.91
 -11  -4  -1   11.43    1.19
 -11  -4  -1   11.57    1.30
  11  -4   1   11.42    1.14
  11   4   1    9.74    1.14
 -11   4  -1   11.70    1.08
 -11  -5   1    1.21    1.14
  11  -5  -1    0.27    0.87
 -11  -5   1    0.74    0.97
  11   5  -1    1.03    0.89
  10  -5  -1   25.65    1.51
  10  -5  -1   24.85    1.52
 -10  -5   1   27.41    1.79
 -10  -5   1   25.70    1.57
  10   5  -1   25.73    1.49
   9  -5  -1    8.79    0.92
  -9  -5   1   10.56    1.09
   9  -5  -1    9.37    0.88
  -9  -5   1    6.94    0.92
   9   5  -1    8.96    0.86
   8  -5  -1   19.24    1.12
  -8  -5   1   20.41    1.31
   8  -5  -1   23.48    1.25
  -8  -5   1   22.84    1.26
   8   5  -1   19.78    1.02
  -8   5   1   20.67    1.05
   8   5  -1   18.69    1.06
  -8   5   1   19.15    1.42
  -7  -5   1   30.26    1.36
   7  -5  -1   28.76    1.28
   7  -5  -1   30.44    1.24
  -7  -5   1   28.69    1.32
  -7   5   1   30.11    1.14
   7   5  -1   29.94    1.12
   7   5  -1   30.07    1.19
  -7   5   1   30.44    1.45
  -6  -5   1    8.79    0.74
   6  -5  -1    9.91    0.79
   6  -5  -1    9.30    0.69
  -6  -5   1    9.10    0.76
  -6   5   1   10.42    0.85
  -6   5   1    9.13    0.68
   6   5  -1    8.83    0.61
   6   5  -1    9.06    0.66
   5  -5  -1   55.69    1.67
   5  -5  -1   54.04    1.71
  -5  -5   1   54.02    1.66
  -5  -5   1   52.53    1.69
  -5   5   1   50.27    1.44
  -5   5   1   48.16    1.64
   5   5  -1   47.87    1.45
   5   5  -1   48.73    1.40
   4  -5  -1    6.19    0.57
  -4  -5   1    8.37    0.54
  -4  -5   1    7.37    0.60
   4  -5  -1    7.68    0.58
  -4  -5   1    7.50    0.44
  -4  -5   1    8.04    0.58
  -4   5   1    7.69    0.56
  -4   5   1    8.99    0.68
   4   5  -1    7.49    0.61
   4   5  -1    7.35    0.53
   4   5  -1    6.78    0.47
   4   5  -1    7.93    0.47
   4   5  -1    7.72    0.47
  -3  -5   1   60.19    1.66
   3  -5  -1   62.59    1.76
   3  -5  -1   61.92    1.80
  -3  -5   1   61.54    1.59
  -3  -5   1   59.93    1.67
  -3  -5   1   62.95    1.77
   3   5  -1   61.28    1.77
   3   5  -1   60.69    1.53
   3   5  -1   59.18    1.68
   3   5  -1   60.45    1.55
  -3   5   1   60.33    1.72
  -3   5   1   59.50    1.63
  -2  -5   1   20.32    0.74
   2  -5  -1   19.40    0.84
  -2  -5   1   20.43    0.84
   2  -5  -1   20.43    0.87
  -2  -5   1   18.84    0.77
  -2  -5   1   20.92    0.74
   2   5  -1   17.17    0.64
  -2   5   1   18.11    0.73
  -2   5   1   17.33    0.59
   2   5  -1   17.84    0.77
   2   5  -1   17.43    0.63
   2   5  -1   17.62    0.81
  -2   5   1   16.10    0.71
  -1  -5   1   83.67    2.15
  -1  -5   1   79.08    2.13
  -1  -5   1   83.83    2.12
   1  -5  -1   81.83    2.20
  -1  -5   1   83.17    1.98
   1  -5  -1   82.53    2.17
   1   5  -1   81.41    1.99
  -1   5   1   75.29    1.99
  -1   5   1   77.83    2.04
   1   5  -1   81.64    2.00
  -1   5   1   80.43    1.91
   1   5  -1   81.44    2.11
   1   5  -1   76.77    2.11
  -1   5   1   80.90    2.04
   0  -5  -1   48.63    1.45
   0  -5   1   49.26    1.44
   0  -5  -1   50.05    1.45
   0  -5  -1   49.06    1.28
   0  -5   1   50.83    1.21
   0  -5   1   48.72    1.44
   0   5   1   50.18    1.34
   0   5  -1   50.16    1.24
   0   5  -1   51.47    1.41
   0   5  -1   51.69    1.43
   0   5   1   50.92    1.44
   0   5  -1   52.65    1.50
   0   5   1   50.49    1.33
   0   5   1   49.46    1.32
  -1  -5  -1    1.76    0.30
  -1  -5  -1    2.17    0.34
  -1  -5  -1    1.74    0.33
  -1  -5  -1    1.68    0.31
   1  -5   1    1.66    0.33
   1  -5   1    1.32    0.31
   1   5   1    1.53    0.23
  -1   5  -1    2.45    0.38
   1   5   1    1.77    0.20
  -1   5  -1    1.64    0.30
   1   5   1    1.61    0.33
   1   5   1    1.99    0.30
  -2  -5  -1   88.90    2.26
  -2  -5  -1   94.02    2.31
  -2  -5  -1   87.65    2.29
   2  -5   1   90.94    2.38
   2  -5   1   89.10    2.35
  -2  -5  -1   88.80    2.25
  -2   5  -1   82.35    2.15
   2   5   1   84.61    2.14
   2   5   1   75.83    1.87
   2   5   1   77.94    1.87
  -2   5  -1   86.70    2.18
   2   5   1   82.65    2.15
  -3  -5  -1   39.73    1.16
   3  -5   1   40.64    1.29
  -3  -5  -1   40.87    1.22
  -3  -5  -1   40.95    1.28
  -3  -5  -1   40.30    1.26
   3  -5   1   41.04    1.34
   3   5   1   39.28    0.96
  -3   5  -1   40.75    1.33
   3   5   1   39.69    1.22
  -3   5  -1   37.53    1.24
   4  -5   1   49.94    1.60
  -4  -5  -1   47.58    1.53
  -4  -5  -1   52.19    1.43
  -4  -5  -1   48.75    1.34
  -4  -5  -1   49.84    1.52
   4  -5   1   50.51    1.51
   4   5   1   46.78    1.19
  -4   5  -1   47.04    1.56
   4   5   1   48.28    1.33
   4   5   1   46.40    1.38
  -4   5  -1   46.06    1.42
   4   5   1   48.49    1.22
  -5  -5  -1   21.73    1.02
  -5  -5  -1   23.50    1.02
   5  -5   1   22.51    0.96
   5  -5   1   22.76    1.03
  -5  -5  -1   21.94    0.78
   5   5   1   21.95    0.75
  -5   5  -1   22.00    1.09
   5   5   1   22.68    0.78
  -5   5  -1   21.41    0.93
   5   5   1   21.58    0.81
   5   5   1   22.71    0.86
  -6  -5  -1    2.41    0.57
   6  -5   1    2.88    0.54
  -6  -5  -1    2.97    0.56
   6  -5   1    2.86    0.47
  -6   5  -1    2.47    0.61
  -6   5  -1    2.28    0.44
   6   5   1    2.07    0.40
   6   5   1    2.46    0.39
   7  -5   1   38.62    1.38
  -7  -5  -1   39.51    1.54
   7  -5   1   36.53    1.50
  -7  -5  -1   38.07    1.54
   7   5   1   37.41    1.30
  -7   5  -1   38.85    1.40
  -7   5  -1   39.30    1.72
   8  -5   1    1.66    0.51
  -8  -5  -1    1.61    0.70
   8  -5   1    1.26    0.60
  -8  -5  -1    1.47    0.68
  -8   5  -1    1.58    0.55
   8   5   1    1.37    0.52
  -9  -5  -1   24.22    1.53
  -9  -5  -1   22.48    1.45
   9  -5   1   22.83    1.37
  -9   5  -1   24.78    1.26
   9   5   1   23.53    1.29
 -10  -5  -1    9.71    1.20
 -10  -5  -1    8.73    1.08
  10  -5   1    9.36    1.03
  10   5   1    9.55    1.00
 -10   5  -1    7.35    0.89
 -11  -5  -1   11.82    1.39
 -11  -5  -1    9.02    1.21
  11  -5   1   11.79    1.22
  11   5   1   10.45    1.17
 -11   5  -1   11.72    1.14
 -10  -6   1    6.15    1.12
  10  -6  -1    4.55    0.99
  10  -6  -1    6.68    1.04
 -10  -6   1    6.92    1.23
  10   6  -1    5.75    0.91
  -9  -6   1   17.46    1.34
   9  -6  -1   15.79    1.23
   9  -6  -1   17.94    1.21
  -9  -6   1   17.75    1.32
   9   6  -1   17.00    1.22
  -8  -6   1   18.42    1.31
  -8  -6   1   18.70    1.26
   8  -6  -1   19.42    1.30
   8  -6  -1   18.54    1.24
   8   6  -1   21.56    1.16
  -8   6   1   21.25    1.54
  -7  -6   1   12.68    1.00
   7  -6  -1   13.43    1.02
   7  -6  -1   12.11    0.96
  -7  -6   1   12.38    1.00
  -7   6   1   13.03    1.11
   7   6  -1   12.69    0.90
   6  -6  -1   35.31    1.44
  -6  -6   1   38.04    1.47
  -6  -6   1   35.00    1.48
   6  -6  -1   36.39    1.47
  -6   6   1   33.77    1.53
  -6   6   1   36.69    1.29
   6   6  -1   34.09    1.22
   6   6  -1   35.09    1.49
   6   6  -1   35.59    1.29
  -5  -6   1    1.67    0.54
   5  -6  -1    2.06    0.52
   5  -6  -1    1.45    0.47
  -5  -6   1    2.08    0.54
  -5   6   1    1.71    0.45
   5   6  -1    1.44    0.56
  -5   6   1    2.32    0.59
   5   6  -1    2.56    0.47
   5   6  -1    1.83    0.38
   4  -6  -1   11.46    0.79
  -4  -6   1   13.42    0.89
  -4  -6   1   12.97    0.74
  -4  -6   1   12.99    0.82
   4  -6  -1   11.48    0.85
   4   6  -1   13.14    0.91
   4   6  -1   12.03    0.61
  -4   6   1   12.65    0.86
  -4   6   1   11.79    0.72
   4   6  -1   11.41    0.76
   3  -6  -1   31.19    1.19
  -3  -6   1   30.61    1.19
  -3  -6   1   30.37    1.02
  -3  -6   1   29.33    1.07
  -3  -6   1   30.66    1.10
   3  -6  -1   30.30    1.21
   3   6  -1   28.95    0.93
  -3   6   1   29.66    1.12
   3   6  -1   30.33    1.23
  -3   6   1   27.38    1.05
   3   6  -1   29.60    1.12
  -2  -6   1   25.48    0.91
  -2  -6   1   28.28    1.05
  -2  -6   1   26.20    0.96
   2  -6  -1   27.47    1.07
  -2  -6   1   26.39    1.01
   2  -6  -1   25.29    1.10
   2   6  -1   23.32    0.98
  -2   6   1   20.91    0.90
   2   6  -1   24.53    1.04
   2   6  -1   24.37    0.82
  -2   6   1   20.63    0.91
  -1  -6   1   50.02    1.54
   1  -6  -1   50.28    1.59
  -1  -6   1   50.38    1.51
   1  -6  -1   51.15    1.58
   1   6  -1   47.35    1.51
   1   6  -1   45.32    1.31
  -1   6   1   42.02    1.39
   1   6  -1   45.83    1.46
  -1   6   1   46.60    1.34
   0  -6   1   13.93    0.76
   0  -6  -1   14.69    0.79
   0  -6   1   13.89    0.77
   0  -6  -1   15.22    0.78
   0   6   1   14.19    0.61
   0   6  -1   13.68    0.67
   0   6  -1   13.13    0.79
   0   6   1   13.03    0.75
   0   6   1   14.44    0.65
   0   6   1   14.17    0.74
  -1  -6  -1   77.72    1.94
  -1  -6  -1   74.51    2.02
  -1  -6  -1   74.14    2.09
   1  -6   1   76.81    2.14
  -1  -6  -1   74.54    2.06
   1  -6   1   75.55    2.11
   1   6   1   74.14    1.89
   1   6   1   80.02    1.99
  -1   6  -1   81.73    2.11
   1   6   1   75.03    2.11
  -1   6  -1   77.04    2.14
   1   6   1   76.13    1.92
  -2  -6  -1    1.98    0.41
   2  -6   1    2.74    0.47
  -2  -6  -1    2.03    0.40
  -2  -6  -1    2.07    0.39
  -2  -6  -1    2.44    0.42
   2  -6   1    1.84    0.41
  -2   6  -1    2.40    0.46
   2   6   1    1.93    0.23
  -2   6  -1    2.29    0.42
   2   6   1    2.07    0.40
   2   6   1    1.93    0.43
   2   6   1    1.67    0.26
   2   6   1    1.70    0.43
  -3  -6  -1   94.99    2.50
  -3  -6  -1   95.64    2.43
   3  -6   1   92.88    2.63
   3  -6   1   93.68    2.58
  -3  -6  -1   96.71    2.49
  -3  -6  -1   98.72    2.56
   3   6   1   82.14    2.07
   3   6   1   89.89    2.46
   3   6   1   90.37    2.06
   3   6   1   92.43    2.41
  -3   6  -1   93.39    2.48
  -3   6  -1   89.52    2.40
  -4  -6  -1   14.02    0.70
  -4  -6  -1   14.14    0.77
   4  -6   1   14.44    0.89
  -4  -6  -1   14.26    0.90
   4  -6   1   13.31    0.85
  -4  -6  -1   15.79    0.88
   4   6   1   12.74    0.87
   4   6   1   11.38    0.46
   4   6   1   10.96    0.71
  -4   6  -1   11.07    0.74
  -4   6  -1   11.79    0.89
   4   6   1   11.38    0.77
   4   6   1   11.12    0.46
  -5  -6  -1   23.09    1.14
   5  -6   1   21.78    1.13
  -5  -6  -1   23.77    1.15
   5  -6   1   23.64    1.08
   5   6   1   23.38    1.00
  -5   6  -1   24.65    1.26
  -5   6  -1   23.39    1.06
  -6  -6  -1   22.99    1.23
  -6  -6  -1   23.82    1.25
   6  -6   1   22.98    1.21
   6  -6   1   22.21    1.10
  -6   6  -1   22.67    1.07
   6   6   1   23.69    1.03
  -6   6  -1   22.90    1.35
   6   6   1   23.48    0.91
   7  -6   1    6.55    0.81
  -7  -6  -1    6.95    0.84
   7  -6   1    7.29    0.73
  -7  -6  -1    6.37    0.84
  -7   6  -1    7.82    0.98
   7   6   1    7.94    0.63
  -7   6  -1    8.02    0.75
   8  -6   1   25.74    1.44
  -8  -6  -1   24.96    1.51
  -8  -6  -1   26.56    1.56
   8  -6   1   25.26    1.31
   8   6   1   26.27    1.19
  -8   6  -1   26.10    2.03
  -8   6  -1   26.56    1.28
  -9  -6  -1    6.07    0.99
   9  -6   1    5.53    0.92
  -9  -6  -1    6.17    1.06
  -9   6  -1    6.27    0.86
   9   6   1    6.48    0.82
 -10  -6  -1    4.38    1.08
 -10  -6  -1    7.12    1.25
  10  -6   1    4.86    1.01
  10   6   1    6.49    0.92
   9  -7  -1    5.24    1.00
  -9  -7   1    6.18    1.14
   9  -7  -1    6.61    1.06
  -9  -7   1    6.36    1.19
   9   7  -1    5.78    0.91
   9   7  -1    7.41    1.23
  -8  -7   1    5.48    1.04
  -8  -7   1    4.34    0.98
   8  -7  -1    5.18    0.93
   8  -7  -1    4.65    0.90
   8   7  -1    4.87    0.75
   8   7  -1    5.05    1.05
  -8   7   1    4.90    1.09
   7  -7  -1   14.62    1.16
  -7  -7   1   16.60    1.19
  -7  -7   1   14.89    1.20
   7  -7  -1   14.83    1.14
   7   7  -1   15.28    1.27
   7   7  -1   14.23    0.96
  -7   7   1   15.16    1.29
   7   7  -1   13.19    0.97
   6  -7  -1    8.78    0.91
   6  -7  -1    8.93    0.92
  -6  -7   1   10.31    0.93
  -6  -7   1   10.23    0.98
   6   7  -1    9.39    0.76
   6   7  -1    9.24    0.80
  -6   7   1    9.10    0.99
   6   7  -1    8.98    0.99
   5  -7  -1   30.81    1.45
  -5  -7   1   32.90    1.39
  -5  -7   1   31.03    1.47
   5  -7  -1   33.99    1.44
   5   7  -1   30.04    1.25
   5   7  -1   28.60    1.47
  -5   7   1   30.61    1.45
   5   7  -1   28.87    1.05
  -4  -7   1    6.34    0.74
   4  -7  -1    6.61    0.74
  -4  -7   1    5.62    0.62
   4  -7  -1    4.56    0.67
   4   7  -1    5.27    0.63
   4   7  -1    5.23    0.48
   4   7  -1    6.20    0.79
  -4   7   1    6.17    0.72
  -3  -7   1   15.58    0.92
   3  -7  -1   15.73    1.01
  -3  -7   1   16.19    1.00
   3  -7  -1   14.39    1.00
   3   7  -1   15.58    0.74
   3   7  -1   15.39    1.11
   3   7  -1   17.82    1.00
  -3   7   1   17.13    0.93
  -3   7   1   17.15    0.97
   2  -7  -1    8.56    0.74
  -2  -7   1    9.26    0.67
  -2  -7   1    8.12    0.72
   2  -7  -1    6.84    0.70
  -2  -7   1    7.61    0.66
   2   7  -1    8.84    0.75
   2   7  -1    9.79    0.81
   2   7  -1    9.72    0.62
  -2   7   1    9.87    0.73
  -2   7   1    9.49    0.75
  -1  -7   1   23.90    1.06
   1  -7  -1   24.34    1.12
   1  -7  -1   25.26    1.14
  -1  -7   1   23.67    1.08
   1   7  -1   24.61    0.95
   1   7  -1   24.56    1.16
  -1   7   1   25.39    1.09
  -1   7   1   25.74    0.99
   1   7  -1   27.24    1.20
   0  -7  -1   46.90    1.62
   0  -7  -1   49.16    1.60
   0  -7   1   46.36    1.59
   0  -7   1   48.18    1.60
   0   7  -1   52.55    1.72
   0   7  -1   50.64    1.69
   0   7  -1   52.12    1.56
   0   7   1   49.73    1.63
   0   7   1   49.62    1.46
  -1  -7  -1    0.04    0.42
  -1  -7  -1    0.52    0.44
   1  -7   1    0.41    0.43
   1  -7   1    0.19    0.44
  -1   7  -1    0.43    0.40
   1   7   1    0.05    0.27
   1   7   1    0.23    0.46
  -1   7  -1    0.60    0.45
  -2  -7  -1   66.79    2.00
  -2  -7  -1   68.00    1.96
   2  -7   1   68.51    2.06
   2  -7   1   68.20    2.10
  -2  -7  -1   67.66    1.99
   2   7   1   63.85    2.00
   2   7   1   62.03    1.62
  -2   7  -1   66.29    1.97
  -2   7  -1   62.44    1.94
   2   7   1   66.34    2.00
   2   7   1   66.30    1.71
  -3  -7  -1    3.74    0.56
  -3  -7  -1    3.31    0.57
  -3  -7  -1    3.56    0.60
   3  -7   1    3.13    0.56
  -3  -7  -1    3.56    0.51
   3  -7   1    3.87    0.62
   3   7   1    2.33    0.55
   3   7   1    2.59    0.28
   3   7   1    2.98    0.29
  -3   7  -1    3.26    0.55
   3   7   1    2.96    0.56
  -3   7  -1    3.00    0.58
   3   7   1    3.48    0.63
  -4  -7  -1   25.50    1.25
   4  -7   1   24.94    1.27
  -4  -7  -1   26.72    1.14
   4  -7   1   26.04    1.24
  -4  -7  -1   27.39    1.24
   4   7   1   22.68    1.28
  -4   7  -1   21.77    1.21
   4   7   1   22.48    0.67
  -4   7  -1   21.71    1.08
   4   7   1   19.39    0.66
   4   7   1   19.62    1.07
  -5  -7  -1   16.47    1.14
   5  -7   1   18.21    1.12
   5  -7   1   17.53    1.15
  -5  -7  -1   17.77    0.96
  -5  -7  -1   17.31    1.15
   5   7   1   15.10    0.62
  -5   7  -1   15.35    1.21
   5   7   1   14.46    0.97
   5   7   1   18.04    1.24
  -5   7  -1   15.85    0.98
   6  -7   1    2.90    0.67
   6  -7   1    3.02    0.70
  -6  -7  -1    3.28    0.77
  -6  -7  -1    2.65    0.77
  -6   7  -1    3.31    0.64
   6   7   1    3.10    0.44
   6   7   1    2.85    0.61
   6   7   1    2.00    0.75
  -6   7  -1    2.87    0.83
  -7  -7  -1   12.72    1.14
   7  -7   1   13.21    1.13
  -7  -7  -1   16.46    1.25
   7  -7   1   13.33    1.05
  -7   7  -1   14.55    1.00
  -7   7  -1   16.77    1.37
   7   7   1   13.07    0.87
   8  -7   1    0.94    0.79
   8  -7   1    0.63    0.72
  -8  -7  -1    1.68    0.97
  -8  -7  -1    0.35    0.88
  -8   7  -1    0.11    0.98
  -9  -7  -1    9.88    1.31
   9  -7   1   10.86    1.21
  -9  -7  -1    6.87    1.19
   9   7   1   10.51    0.92
  -8  -8   1    3.90    1.14
   8  -8  -1    4.27    1.01
   8   8  -1    4.48    1.24
  -7  -8   1    4.91    1.05
   7  -8  -1    7.34    1.01
   7  -8  -1    5.94    1.02
   7   8  -1    6.59    0.72
   7   8  -1    7.48    1.23
  -7   8   1    7.35    1.16
   7   8  -1    5.65    1.21
   6  -8  -1   28.79    1.65
   6  -8  -1   32.26    1.66
  -6  -8   1   30.59    1.71
   6   8  -1   32.03    1.87
  -6   8   1   32.81    1.80
   6   8  -1   30.60    1.48
   6   8  -1   29.18    1.18
   5  -8  -1    1.09    0.70
   5  -8  -1    1.57    0.72
  -5  -8   1    0.97    0.78
   5   8  -1    1.37    0.47
   5   8  -1    1.24    0.65
   5   8  -1    1.71    0.87
  -5   8   1    1.61    0.75
   4  -8  -1   25.03    1.41
   4  -8  -1   24.48    1.42
  -4  -8   1   25.25    1.40
  -4  -8   1   23.50    1.23
   4   8  -1   24.18    1.46
   4   8  -1   21.15    0.93
  -4   8   1   22.30    1.34
   4   8  -1   24.13    1.25
   3  -8  -1    9.82    0.94
  -3  -8   1    8.97    0.81
   3  -8  -1    8.29    0.89
  -3  -8   1    8.66    0.87
  -3   8   1   10.58    0.89
   3   8  -1    7.38    0.92
   3   8  -1    8.62    0.84
   3   8  -1    8.59    0.63
  -2  -8   1   12.77    0.91
   2  -8  -1   12.24    0.97
   2  -8  -1    8.97    0.87
  -2  -8   1   13.34    0.94
  -2   8   1   12.39    0.93
   2   8  -1   13.16    0.98
   2   8  -1   11.41    0.78
   2   8  -1   13.42    1.04
  -1  -8   1    8.95    0.81
  -1  -8   1    7.69    0.76
   1  -8  -1    7.41    0.78
   1  -8  -1    8.72    0.83
  -1   8   1    8.00    0.77
   1   8  -1    7.27    0.83
   1   8  -1    9.59    0.86
  -1   8   1    8.13    0.69
   1   8  -1    7.34    0.65
   0  -8   1    4.14    0.66
   0  -8   1    3.37    0.63
   0  -8  -1    3.70    0.66
   0  -8  -1    2.99    0.63
   0   8  -1    3.06    0.66
   0   8   1    3.64    0.50
   0   8   1    3.22    0.67
   0   8  -1    3.37    0.56
   0   8  -1    3.45    0.68
  -1  -8  -1   17.02    1.11
   1  -8   1   19.83    1.14
   1  -8   1   17.85    1.12
  -1  -8  -1   17.33    1.07
   1   8   1   19.49    1.20
  -1   8  -1   16.31    1.02
  -1   8  -1   15.86    1.10
   1   8   1   18.33    1.15
  -1   8  -1   19.87    1.20
   1   8   1   17.83    0.81
  -2  -8  -1    5.43    0.72
  -2  -8  -1    4.37    0.65
   2  -8   1    3.29    0.68
   2  -8   1    4.39    0.70
   2   8   1    4.59    0.42
  -2   8  -1    5.21    0.72
  -2   8  -1    4.36    0.69
   2   8   1    6.11    0.81
   2   8   1    4.49    0.72
  -3  -8  -1    7.21    0.77
   3  -8   1    7.66    0.84
  -3  -8  -1    7.59    0.81
   3  -8   1    6.95    0.84
   3   8   1    9.05    0.94
  -3   8  -1    7.94    0.86
   3   8   1    8.22    0.84
   3   8   1    6.77    0.47
  -3   8  -1    7.38    0.80
  -4  -8  -1   17.04    1.22
   4  -8   1   16.58    1.12
   4  -8   1   15.46    1.16
  -4  -8  -1   13.61    0.94
   4   8   1   11.67    0.49
   4   8   1   15.31    1.16
   4   8   1   13.13    1.00
  -4   8  -1   13.89    0.98
  -4   8  -1   14.91    1.13
  -5  -8  -1    5.81    0.90
  -5  -8  -1    5.71    0.73
   5  -8   1    4.76    0.79
   5  -8   1    7.01    0.94
  -5   8  -1    4.23    0.79
   5   8   1    3.99    0.33
   5   8   1    3.28    0.89
  -5   8  -1    4.73    0.93
   5   8   1    4.33    0.73
   6  -8   1   15.88    1.29
   6  -8   1   19.29    1.28
  -6  -8  -1   18.59    1.32
   6   8   1   15.07    0.67
   6   8   1   17.33    1.39
  -6   8  -1   20.45    1.49
   7  -8   1    1.55    0.81
  -7  -8  -1    1.95    1.09
  -7  -8  -1    1.71    0.97
   7  -8   1    0.33    0.82
  -7   8  -1    0.76    1.00
   7   8   1    1.24    0.47
   7   8   1    0.83    0.97
   6  -9  -1   14.45    1.32
   6  -9  -1   10.92    1.25
  -6  -9   1   11.58    1.31
   6   9  -1   13.05    1.16
   6   9  -1   11.21    0.88
  -6   9   1   15.13    1.43
   6   9  -1   11.87    1.46
   5  -9  -1   43.21    2.03
   5  -9  -1   42.12    2.02
  -5  -9   1   38.94    2.00
   5   9  -1   38.86    1.75
   5   9  -1   36.24    1.28
   5   9  -1   37.51    2.12
  -5   9   1   38.26    1.92
   4  -9  -1    0.81    0.83
  -4  -9   1    1.08    0.88
  -4  -9   1    1.22    0.71
   4  -9  -1    1.36    0.80
  -4   9   1    0.68    0.78
   4   9  -1    1.04    0.49
   4   9  -1    1.32    0.94
   4   9  -1    1.10    0.74
   3  -9  -1    4.48    0.85
   3  -9  -1    5.03    0.92
  -3  -9   1    5.70    0.85
   3   9  -1    6.16    0.89
   3   9  -1    6.32    1.02
   3   9  -1    5.14    0.60
  -3   9   1    6.73    0.91
   2  -9  -1    5.50    0.85
  -2  -9   1    7.08    0.88
   2  -9  -1    8.55    0.99
   2   9  -1    7.66    1.03
   2   9  -1    7.67    0.70
   2   9  -1    9.26    1.00
  -2   9   1    8.11    0.87
   1  -9  -1    3.85    0.78
  -1  -9   1    3.55    0.76
  -1  -9   1    3.75    0.77
   1  -9  -1    4.09    0.83
   1   9  -1    4.43    0.92
   1   9  -1    5.54    0.88
  -1   9   1    5.33    0.72
   1   9  -1    4.89    0.67
   0  -9  -1   29.12    1.57
   0  -9  -1   29.54    1.51
   0  -9   1   30.38    1.48
   0  -9   1   30.18    1.55
   0   9  -1   27.69    1.55
   0   9   1   27.69    1.18
   0   9   1   30.21    1.60
   0   9  -1   30.42    1.57
   0   9  -1   30.12    1.34
   1  -9   1    3.64    0.79
  -1  -9  -1    3.54    0.78
  -1  -9  -1    3.10    0.74
   1  -9   1    3.27    0.77
   1   9   1    3.53    0.83
  -1   9  -1    3.56    0.83
  -1   9  -1    2.82    0.79
   1   9   1    3.08    0.51
  -1   9  -1    3.43    0.72
   1   9   1    3.71    1.20
  -2  -9  -1    9.67    1.46
   2  -9   1    9.54    1.01
   2  -9   1    7.76    0.95
  -2  -9  -1   10.29    0.98
  -2   9  -1   10.04    1.03
   2   9   1   10.60    1.09
   2   9   1    7.70    0.64
  -2   9  -1   11.02    0.99
   2   9   1    9.41    0.99
  -2   9  -1    8.52    0.93
   3  -9   1    3.50    0.82
   3  -9   1    3.84    0.84
  -3  -9  -1    3.83    0.80
   3   9   1    3.81    0.37
   3   9   1    3.95    0.96
  -3   9  -1    3.59    0.85
   3   9   1    3.22    0.84
  -4  -9  -1    6.43    1.02
  -4  -9  -1    5.53    0.85
   4  -9   1    4.37    0.89
   4  -9   1    6.26    0.98
   4   9   1    5.35    0.90
   4   9   1    4.85    1.07
  -4   9  -1    6.00    1.01
  -5  -9  -1    5.29    1.06
   5  -9   1    4.27    0.98
   5  -9   1    5.09    0.95
   5   9   1    2.78    0.84
  -5   9  -1    4.90    1.08
   5   9   1    4.51    1.12
  -2 -10   1    0.49    0.84
   2 -10  -1   -0.03    0.83
   2 -10  -1    0.47    0.92
   2  10  -1    0.35    1.02
   2  10  -1    0.60    0.89
   2  10  -1    0.64    0.60
  -2  10   1    0.89    0.77
   1 -10  -1    3.57    0.94
   1 -10  -1    3.10    0.96
  -1 -10   1    2.75    0.90
  -1  10   1    3.59    1.01
   1  10  -1    2.30    0.93
  -1  10   1    3.21    0.77
   1  10  -1    2.54    1.02
   1  10  -1    2.64    0.71
   0 -10   1    0.20    0.84
   0 -10  -1    0.01    0.88
   0 -10  -1   -0.03    0.80
   0 -10   1    0.21    0.84
   0  10   1    0.40    0.91
   0  10  -1    0.64    0.86
   0  10   1    0.50    0.61
   0  10  -1    0.17    0.71
  -1 -10  -1    8.66    1.12
   1 -10   1   10.59    1.16
   1 -10   1    7.99    1.06
   1  10   1    9.97    0.76
  -1  10  -1    8.39    1.16
   1  10   1    8.92    1.16
  -1  10  -1   10.63    1.06
  -2 -10  -1    0.12    0.84
   2 -10   1    0.82    0.86
   2 -10   1    0.45    0.88
   2  10   1    0.45    0.45
   2  10   1    0.77    0.92
  -2  10  -1    0.50    0.85
  -2  10  -1    0.44    0.89
 -12   0   2    3.53    1.10
 -12   0   2    1.94    0.85
 -11   0   2    0.14    0.64
 -11   0   2   -0.21    0.81
  11   0  -2    0.02    0.83
  10   0  -2   79.98    2.66
 -10   0   2   74.49    2.30
 -10   0   2   77.58    2.45
  -9   0   2    2.28    0.51
  -9   0   2    2.65    0.63
   9   0  -2    2.66    0.41
   9   0  -2    2.37    0.69
  -8   0   2   48.91    1.60
  -8   0   2   48.35    1.46
   8   0  -2   46.09    1.35
   8   0  -2   47.25    1.73
   7   0  -2   18.66    0.95
  -7   0   2   18.38    0.88
  -7   0   2   18.04    0.77
   7   0  -2   18.10    0.69
   7   0  -2   17.15    0.67
   6   0  -2   62.39    1.56
   6   0  -2   65.72    1.85
  -6   0   2   64.22    1.65
   6   0  -2   59.36    1.57
  -6   0   2   62.19    1.73
  -6   0   2   58.42    1.74
  -5   0   2  249.86    5.69
   5   0  -2  250.94    5.62
   5   0  -2  246.01    5.65
   5   0  -2  249.92    5.86
  -5   0   2  255.30    5.79
  -5   0   2  250.78    5.76
   4   0  -2    5.83    0.28
   4   0  -2    5.90    0.43
   4   0  -2    5.56    0.31
  -4   0   2    5.67    0.43
  -4   0   2    5.39    0.38
  -4   0   2    6.07    0.32
  -3   0   2  187.11    4.12
   3   0  -2  183.76    4.24
   3   0  -2  184.22    4.08
  -3   0   2  177.00    4.17
  -3   0   2  178.17    4.19
   3   0  -2  185.43    4.13
  -2   0   2  240.19    5.19
   2   0  -2  238.66    5.17
   2   0  -2  231.39    5.22
  -2   0   2  224.76    5.24
   2   0  -2  234.37    5.29
  -2   0   2  235.63    5.27
   1   0  -2  142.35    3.15
  -1   0   2  138.82    3.13
  -1   0   2  134.80    3.11
   1   0  -2  138.57    3.07
   1   0  -2  133.66    3.10
  -1   0   2  136.16    3.07
   1   0  -2  141.82    3.07
  -1   0   2  138.67    3.07
   0   0  -2  396.69    8.96
   0   0  -2  416.58    8.98
   0   0  -2  409.39    9.02
   0   0   2  401.43    9.04
   0   0   2  409.25    8.98
   0   0   2  415.81    9.07
   1   0   2   71.74    1.62
  -1   0  -2   65.85    1.57
   1   0   2   66.43    1.58
  -1   0  -2   68.61    1.57
   1   0   2   67.69    1.57
  -1   0  -2   67.07    1.50
   2   0   2  328.48    7.26
  -2   0  -2  320.87    7.26
   2   0   2  330.06    7.32
  -2   0  -2  329.14    7.27
  -3   0  -2   27.85    0.79
  -3   0  -2   27.24    0.78
   3   0   2   26.81    0.64
   3   0   2   27.76    0.77
   3   0   2   28.28    0.85
  -4   0  -2   99.65    2.39
   4   0   2   98.44    2.22
  -4   0  -2   92.96    2.50
   4   0   2  103.00    2.47
   4   0   2   98.63    2.35
  -4   0  -2   98.07    2.37
   5   0   2   11.29    0.62
  -5   0  -2   11.45    0.53
   5   0   2   11.99    0.37
   5   0   2   12.07    0.52
  -5   0  -2   11.17    0.56
  -5   0  -2   10.96    0.61
   6   0   2  157.18    3.70
   6   0   2  159.59    3.54
   6   0   2  154.49    3.89
  -6   0  -2  159.14    3.78
  -6   0  -2  151.35    3.74
   7   0   2   59.73    1.64
  -7   0  -2   59.50    1.70
  -7   0  -2   59.01    1.73
   7   0   2   56.67    1.84
   8   0   2   24.89    0.99
   8   0   2   24.44    1.22
  -8   0  -2   24.17    1.09
  -8   0  -2   25.28    1.04
  -9   0  -2   27.84    1.28
  -9   0  -2   30.04    1.22
   9   0   2   28.40    1.44
   9   0   2   26.78    1.12
  10   0   2    0.85    0.74
 -10   0  -2    1.09    0.70
 -10   0  -2    0.57    0.54
  11   0   2   26.92    1.77
 -11   0  -2   26.24    1.57
 -11   0  -2   23.28    1.44
 -12   0  -2   11.99    1.15
 -12   0  -2   12.15    1.32
  12   0   2   14.12    1.51
 -12  -1   2    8.86    1.04
 -12  -1   2   10.81    1.31
 -12   1   2    9.32    1.26
  12   1  -2   10.25    1.33
 -12   1   2   10.45    1.09
 -11  -1   2   48.15    1.89
 -11  -1   2   51.96    2.11
 -11   1   2   49.53    1.98
  11   1  -2   47.49    2.16
 -11   1   2   46.94    1.78
 -10  -1   2    0.76    0.70
  10  -1  -2    0.32    0.43
 -10  -1   2    0.56    0.58
 -10   1   2    0.55    0.54
  10   1  -2    0.24    0.67
 -10   1   2    0.70    0.68
  -9  -1   2   68.43    2.12
   9  -1  -2   62.82    1.83
   9  -1  -2   66.34    2.29
  -9  -1   2   67.50    2.01
   9   1  -2   67.11    1.79
  -9   1   2   63.39    2.04
   9   1  -2   65.80    2.22
  -9   1   2   65.99    1.93
   8  -1  -2   19.62    0.80
   8  -1  -2   20.62    1.14
  -8  -1   2   19.87    0.94
   8  -1  -2   18.58    0.84
  -8  -1   2   20.50    1.04
  -8   1   2   19.01    0.87
   8   1  -2   19.09    1.10
  -8   1   2   21.70    1.01
   8   1  -2   19.72    0.77
   7  -1  -2   60.21    1.91
  -7  -1   2   62.24    1.71
  -7  -1   2   60.61    1.78
   7  -1  -2   56.97    1.58
   7  -1  -2   58.94    1.63
  -7   1   2   61.30    1.67
   7   1  -2   61.61    1.60
  -7   1   2   63.70    1.78
   7   1  -2   58.58    1.87
  -6  -1   2  114.83    2.77
   6  -1  -2  106.87    2.93
  -6  -1   2  114.70    2.84
   6  -1  -2  111.42    2.71
   6  -1  -2  111.58    2.68
   6   1  -2  104.85    2.43
   6   1  -2  105.06    2.75
  -6   1   2  104.30    2.55
  -6   1   2  105.35    2.72
   6   1  -2  103.45    2.52
  -6   1   2  107.50    2.65
  -5  -1   2   23.93    0.81
   5  -1  -2   24.10    0.76
   5  -1  -2   24.33    0.93
   5  -1  -2   23.62    0.73
  -5  -1   2   23.53    0.85
  -5   1   2   19.64    0.74
   5   1  -2   20.51    0.56
   5   1  -2   20.77    0.68
  -5   1   2   20.06    0.66
  -5   1   2   19.54    0.78
   5   1  -2   20.52    0.81
   4  -1  -2  165.85    3.77
  -4  -1   2  164.98    3.84
   4  -1  -2  162.04    3.92
   4  -1  -2  165.53    3.76
  -4  -1   2  163.42    3.80
   4   1  -2  160.61    3.82
  -4   1   2  164.54    3.75
   4   1  -2  162.30    3.57
   4   1  -2  162.50    3.69
  -4   1   2  162.29    3.66
  -4   1   2  153.58    3.78
   3  -1  -2   26.00    0.70
  -3  -1   2   24.75    0.73
  -3  -1   2   24.31    0.75
   3  -1  -2   25.44    0.82
   3  -1  -2   26.51    0.73
   3   1  -2   24.68    0.76
  -3   1   2   24.30    0.75
  -3   1   2   23.61    0.71
   3   1  -2   23.02    0.67
  -3   1   2   23.88    0.63
  -2  -1   2   33.48    0.87
   2  -1  -2   32.60    0.85
  -2  -1   2   32.92    0.85
   2  -1  -2   32.70    0.83
   2  -1  -2   32.51    0.92
  -2   1   2   28.74    0.81
   2   1  -2   31.12    0.83
  -2   1   2   29.94    0.71
  -2   1   2   30.10    0.80
   2   1  -2   29.52    0.77
  -1  -1   2  359.74    7.67
  -1  -1   2  346.25    7.65
   1  -1  -2  342.19    7.66
  -1  -1   2  339.87    7.60
   1  -1  -2  343.91    7.64
  -1   1   2  358.63    8.24
  -1   1   2  375.38    8.24
   1   1  -2  385.01    8.27
   1   1  -2  376.92    8.25
   1   1  -2  368.05    8.23
   0  -1  -2  251.56    5.58
   0  -1   2  258.04    5.60
   0  -1  -2  250.32    5.64
   0  -1  -2  255.08    5.64
   0  -1  -2  251.79    5.61
   0  -1   2  253.48    5.68
   0  -1   2  256.65    5.62
   0  -1   2  256.18    5.62
   0   1   2  273.02    6.10
   0   1   2  273.20    6.13
   0   1  -2  273.48    6.11
   0   1   2  269.45    6.11
   0   1  -2  281.56    6.14
   0   1  -2  285.45    6.17
   1  -1   2  185.75    4.11
  -1  -1  -2  187.54    4.13
   1  -1   2  184.56    4.13
   1  -1   2  189.85    4.22
  -1  -1  -2  187.84    4.11
  -1  -1  -2  180.16    4.17
   1  -1   2  184.62    4.16
  -1  -1  -2  183.81    4.14
   1   1   2  188.78    4.19
  -1   1  -2  195.86    4.25
   1   1   2  183.55    4.20
   1   1   2  184.06    4.21
  -1   1  -2  185.49    4.19
  -1   1  -2  189.85    4.28
  -1   1  -2  190.73    4.17
   2  -1   2   91.40    2.13
   2  -1   2   90.84    2.07
  -2  -1  -2   89.02    2.02
  -2  -1  -2   90.01    2.11
   2  -1   2   92.45    2.21
  -2  -1  -2   90.20    2.14
   2   1   2   89.51    2.08
  -2   1  -2   90.29    2.11
  -2   1  -2   91.42    2.17
   2   1   2   89.02    2.09
   2   1   2   89.43    2.00
  -2   1  -2   88.88    2.05
   2   1   2   88.09    2.08
  -3  -1  -2  224.59    5.04
   3  -1   2  219.93    4.96
   3  -1   2  226.89    5.06
  -3  -1  -2  219.52    5.07
   3  -1   2  222.31    5.15
   3   1   2  220.35    5.05
  -3   1  -2  223.43    5.00
   3   1   2  222.62    4.89
  -3   1  -2  226.06    5.05
  -3   1  -2  227.13    5.11
   3   1   2  220.02    4.99
   3   1   2  215.74    5.03
   4  -1   2   21.96    0.60
  -4  -1  -2   22.52    0.76
   4  -1   2   19.56    0.79
  -4  -1  -2   21.26    0.70
   4  -1   2   21.73    0.72
  -4   1  -2   24.31    0.74
   4   1   2   23.69    0.80
   4   1   2   23.40    0.60
  -4   1  -2   24.55    0.77
   4   1   2   23.51    0.72
  -4   1  -2   25.75    0.86
   5  -1   2   98.50    2.40
  -5  -1  -2   99.57    2.45
   5  -1   2   95.98    2.26
  -5  -1  -2   94.77    2.39
   5  -1   2   95.29    2.54
  -5   1  -2   99.99    2.49
   5   1   2   99.97    2.58
   5   1   2  102.82    2.45
  -5   1  -2  101.86    2.52
  -5   1  -2  105.87    2.62
   6  -1   2   64.67    1.88
  -6  -1  -2   61.05    1.69
  -6  -1  -2   59.05    1.72
   6  -1   2   59.47    1.51
   6  -1   2   61.64    1.68
  -6   1  -2   55.47    1.55
  -6   1  -2   56.01    1.55
  -6   1  -2   52.69    1.65
   6   1   2   54.57    1.47
   6   1   2   57.45    1.67
   7  -1   2   19.89    0.86
  -7  -1  -2   21.05    0.88
   7  -1   2   20.84    1.07
   7  -1   2   22.03    0.70
  -7  -1  -2   21.02    0.96
   7   1   2   17.75    0.75
  -7   1  -2   17.83    0.83
  -7   1  -2   19.19    0.82
   7   1   2   19.30    0.93
  -8  -1  -2  105.38    2.80
   8  -1   2   98.92    2.93
   8  -1   2  102.91    2.68
  -8  -1  -2  101.64    2.72
   8   1   2  104.41    2.91
  -8   1  -2  106.31    2.75
   8   1   2  100.62    2.62
  -8   1  -2  104.37    2.76
   9  -1   2    0.72    0.44
   9  -1   2    1.20    0.65
  -9  -1  -2    1.12    0.61
  -9  -1  -2    1.24    0.50
  -9   1  -2    1.56    0.57
   9   1   2    1.97    0.62
  -9   1  -2    1.17    0.48
  10  -1   2   46.46    2.03
  10  -1   2   42.86    1.61
 -10  -1  -2   46.15    1.74
 -10  -1  -2   48.65    1.85
 -10   1  -2   46.17    1.66
  10   1   2   41.68    1.86
 -10   1  -2   41.40    1.68
 -11  -1  -2    1.19    0.91
 -11  -1  -2    2.11    0.76
 -11   1  -2    2.01    0.87
  11   1   2    2.08    0.88
 -11   1  -2    1.79    0.71
 -12  -1  -2    7.08    1.08
 -12  -1  -2    6.53    1.22
 -12   1  -2    7.19    1.02
  12   1   2    8.25    1.27
 -12   1  -2    8.43    1.22
 -12  -2   2    7.20    1.23
 -12  -2   2    7.76    1.06
  12   2  -2    8.58    1.27
 -12   2   2    7.33    0.98
 -12   2   2    7.96    1.21
 -11  -2   2    1.81    0.77
 -11  -2   2    2.90    0.95
  11   2  -2    2.88    0.93
 -11   2   2    2.63    0.91
 -11   2   2    2.01    0.70
 -10  -2   2   27.06    1.51
  10  -2  -2   27.24    1.18
 -10  -2   2   26.74    1.37
 -10   2   2   29.68    1.44
  10   2  -2   29.88    1.58
 -10   2   2   28.27    1.27
  -9  -2   2   19.51    1.11
  -9  -2   2   19.55    1.18
   9  -2  -2   20.53    0.93
   9  -2  -2   20.98    1.00
  -9   2   2   20.10    1.12
   9   2  -2   20.29    1.24
  -9   2   2   20.59    0.99
   9   2  -2   20.55    0.85
   8  -2  -2   30.24    1.12
  -8  -2   2   29.64    1.17
  -8  -2   2   29.02    1.25
   8  -2  -2   29.34    1.05
  -8   2   2   29.60    1.06
   8   2  -2   27.49    0.98
   8   2  -2   27.85    1.26
  -8   2   2   29.44    1.18
   7  -2  -2   13.54    0.95
  -7  -2   2   14.18    0.83
  -7  -2   2   13.47    0.75
   7  -2  -2   13.73    0.72
   7  -2  -2   13.94    0.66
   7   2  -2   12.78    0.65
  -7   2   2   13.94    0.76
  -7   2   2   13.57    0.67
  -7   2   2   13.71    0.88
   7   2  -2   13.01    0.82
   6  -2  -2   69.79    2.13
  -6  -2   2   71.96    2.00
   6  -2  -2   72.19    1.93
  -6  -2   2   77.21    1.99
   6  -2  -2   74.22    1.89
  -6   2   2   66.75    1.81
   6   2  -2   68.05    1.74
  -6   2   2   67.99    1.73
   6   2  -2   67.00    1.91
  -6   2   2   66.84    1.93
   5  -2  -2  127.55    3.04
   5  -2  -2  122.31    3.19
   5  -2  -2  123.07    2.99
  -5  -2   2  125.57    3.08
  -5  -2   2  130.83    3.07
  -5   2   2  120.14    3.03
   5   2  -2  134.89    3.14
  -5   2   2  124.17    2.96
   5   2  -2  125.30    2.98
  -5   2   2  128.22    3.15
   4  -2  -2   24.98    0.77
   4  -2  -2   24.56    0.91
   4  -2  -2   25.04    0.81
  -4  -2   2   24.78    0.82
  -4  -2   2   25.10    0.83
  -4   2   2   24.80    0.78
  -4   2   2   25.72    0.72
   4   2  -2   24.70    0.76
  -4   2   2   25.06    0.86
   4   2  -2   25.35    0.84
   4   2  -2   25.29    0.84
   3  -2  -2  320.58    6.99
   3  -2  -2  307.39    6.95
   3  -2  -2  308.05    7.05
  -3  -2   2  306.97    6.97
  -3  -2   2  305.85    6.97
   3   2  -2  327.05    7.10
   3   2  -2  316.02    7.05
  -3   2   2  315.29    7.11
   3   2  -2  312.68    7.03
  -3   2   2  303.43    6.96
  -3   2   2  312.07    7.04
  -2  -2   2  156.73    3.61
   2  -2  -2  154.59    3.59
  -2  -2   2  160.59    3.49
   2  -2  -2  158.64    3.63
  -2  -2   2  153.12    3.57
  -2   2   2  147.70    3.51
  -2   2   2  151.08    3.47
  -2   2   2  150.76    3.40
   2   2  -2  158.80    3.49
   2   2  -2  150.07    3.49
   2   2  -2  156.07    3.52
   2   2  -2  152.96    3.52
  -1  -2   2  368.07    8.01
  -1  -2   2  364.93    8.01
  -1  -2   2  366.04    8.08
   1  -2  -2  356.09    8.08
   1  -2  -2  357.51    8.06
  -1  -2   2  362.60    8.05
  -1   2   2  370.70    8.21
   1   2  -2  378.89    8.25
  -1   2   2  368.27    8.21
  -1   2   2  368.62    8.15
  -1   2   2  371.51    8.24
   1   2  -2  360.57    8.23
   1   2  -2  375.14    8.25
   0  -2  -2  148.74    3.45
   0  -2   2  154.01    3.35
   0  -2   2  147.98    3.43
   0  -2   2  151.74    3.43
   0  -2  -2  150.93    3.42
   0  -2  -2  150.96    3.43
   0  -2  -2  152.81    3.37
   0   2  -2  159.25    3.61
   0   2   2  159.75    3.50
   0   2   2  162.02    3.52
   0   2   2  153.60    3.57
   0   2  -2  157.84    3.62
   0   2  -2  150.53    3.58
   1  -2   2   83.69    1.95
   1  -2   2   84.24    2.08
  -1  -2  -2   82.63    1.94
   1  -2   2   83.66    1.97
  -1  -2  -2   81.27    1.96
  -1  -2  -2   80.73    1.92
  -1  -2  -2   81.20    1.92
  -1   2  -2   78.98    1.91
  -1   2  -2   78.50    1.94
   1   2   2   76.01    1.77
   1   2   2   81.60    1.76
   2  -2   2  234.72    5.20
   2  -2   2  231.32    5.15
  -2  -2  -2  232.50    5.13
  -2  -2  -2  231.99    5.16
   2  -2   2  231.91    5.27
  -2  -2  -2  222.63    5.10
  -2  -2  -2  216.16    5.18
   2   2   2  233.28    5.26
   2   2   2  225.49    5.19
  -2   2  -2  243.58    5.38
  -2   2  -2  235.76    5.17
  -2   2  -2  241.65    5.32
   2   2   2  226.32    5.20
   3  -2   2   51.71    1.30
  -3  -2  -2   51.77    1.22
  -3  -2  -2   52.53    1.34
   3  -2   2   50.27    1.44
  -3  -2  -2   50.29    1.37
   3  -2   2   52.02    1.38
   3   2   2   50.88    1.29
   3   2   2   51.46    1.23
  -3   2  -2   49.77    1.42
  -3   2  -2   52.54    1.25
  -3   2  -2   51.00    1.35
   3   2   2   50.42    1.27
   3   2   2   52.52    1.29
  -4  -2  -2   45.03    1.29
   4  -2   2   44.88    1.38
   4  -2   2   44.67    1.27
  -4  -2  -2   45.88    1.26
   4  -2   2   45.22    1.17
   4   2   2   43.10    1.06
  -4   2  -2   44.52    1.32
   4   2   2   43.48    1.17
   4   2   2   42.81    1.13
  -4   2  -2   43.03    1.13
   4   2   2   43.35    1.19
  -4   2  -2   43.98    1.22
   5  -2   2   28.62    0.95
   5  -2   2   27.85    0.82
  -5  -2  -2   27.15    0.97
   5  -2   2   28.27    1.07
  -5  -2  -2   25.77    0.91
  -5   2  -2   27.99    0.91
  -5   2  -2   27.60    0.85
   5   2   2   27.76    0.93
   5   2   2   25.28    0.90
   5   2   2   28.32    0.74
   5   2   2   27.02    0.82
  -5   2  -2   26.67    1.02
  -6  -2  -2   60.81    1.77
   6  -2   2   62.49    1.92
   6  -2   2   60.84    1.72
   6  -2   2   61.25    1.57
  -6  -2  -2   59.83    1.72
   6   2   2   58.70    1.56
   6   2   2   62.10    1.47
   6   2   2   59.67    1.72
  -6   2  -2   60.19    1.81
  -6   2  -2   60.06    1.66
  -6   2  -2   56.45    1.60
   7  -2   2   42.99    1.38
   7  -2   2   41.67    1.20
  -7  -2  -2   39.14    1.43
   7  -2   2   42.93    1.59
  -7  -2  -2   44.29    1.39
  -7   2  -2   38.69    1.25
  -7   2  -2   39.57    1.30
   7   2   2   38.52    1.17
   7   2   2   41.27    1.39
   8  -2   2   12.20    0.98
  -8  -2  -2   11.71    0.87
   8  -2   2   10.88    0.78
  -8  -2  -2   10.69    0.80
  -8   2  -2    8.27    0.64
   8   2   2    9.12    0.69
   8   2   2    9.85    0.80
  -8   2  -2    8.69    0.68
  -9  -2  -2   58.61    1.90
  -9  -2  -2   56.57    1.99
   9  -2   2   59.18    1.88
  -9   2  -2   61.61    1.90
  -9   2  -2   59.12    1.88
   9   2   2   58.16    2.05
 -10  -2  -2    3.89    0.75
  10  -2   2    4.18    0.71
 -10  -2  -2    4.51    0.88
 -10   2  -2    5.60    0.81
  10   2   2    4.68    0.86
 -10   2  -2    4.73    0.70
  11  -2   2   30.60    1.49
 -11  -2  -2   32.38    1.79
 -11  -2  -2   31.48    1.68
  11   2   2   26.84    1.70
 -11   2  -2   30.00    1.49
 -12  -2  -2    5.09    1.04
 -12  -2  -2    7.73    1.27
 -12   2  -2    6.40    1.02
  12   2   2    7.02    1.23
 -12  -3   2    5.50    1.26
 -12  -3   2    5.43    1.05
  12   3  -2    4.39    1.12
 -11  -3   2   36.82    1.93
 -11  -3   2   35.91    1.75
  11   3  -2   32.59    1.85
  10  -3  -2    2.60    0.61
 -10  -3   2    2.41    0.82
 -10  -3   2    2.95    0.75
  10  -3  -2    1.70    0.64
  10   3  -2    3.94    0.83
 -10   3   2    3.09    0.79
 -10   3   2    2.87    0.64
   9  -3  -2   21.33    1.05
  -9  -3   2   22.33    1.18
  -9  -3   2   22.78    1.33
   9  -3  -2   21.56    1.10
   9   3  -2   23.78    1.03
   9   3  -2   24.47    1.32
  -9   3   2   22.82    1.19
  -9   3   2   23.77    1.07
  -8  -3   2   27.32    1.26
   8  -3  -2   25.56    1.06
  -8  -3   2   26.41    1.16
   8  -3  -2   25.44    1.12
   8   3  -2   25.65    1.04
  -8   3   2   27.96    1.06
   8   3  -2   27.49    1.25
  -8   3   2   27.33    1.15
  -7  -3   2   43.56    1.44
  -7  -3   2   42.56    1.48
   7  -3  -2   42.68    1.41
   7  -3  -2   43.63    1.36
   7   3  -2   43.23    1.48
  -7   3   2   41.65    1.37
   7   3  -2   43.56    1.30
  -7   3   2   43.97    1.59
  -7   3   2   42.96    1.30
   6  -3  -2   49.49    1.42
  -6  -3   2   50.01    1.51
  -6  -3   2   48.23    1.52
   6  -3  -2   46.10    1.46
  -6   3   2   52.92    1.67
   6   3  -2   53.23    1.45
  -6   3   2   50.44    1.49
   6   3  -2   53.39    1.59
  -6   3   2   52.95    1.43
   5  -3  -2   14.10    0.63
  -5  -3   2   13.21    0.70
   5  -3  -2   12.68    0.81
  -5  -3   2   15.05    0.70
   5  -3  -2   12.68    0.66
  -5   3   2   12.29    0.70
  -5   3   2   12.38    0.53
   5   3  -2   12.80    0.57
  -5   3   2   12.31    0.59
   5   3  -2   12.85    0.63
   4  -3  -2   97.55    2.39
  -4  -3   2   92.00    2.42
  -4  -3   2   96.15    2.41
   4  -3  -2  100.25    2.45
   4  -3  -2   96.65    2.51
   4   3  -2   88.36    2.22
   4   3  -2   86.79    1.98
   4   3  -2   89.17    2.17
   4   3  -2   89.64    2.18
  -4   3   2   89.86    2.28
  -4   3   2   87.74    2.11
  -4   3   2   86.14    2.15
  -3  -3   2   30.79    0.95
   3  -3  -2   33.45    1.01
  -3  -3   2   30.86    0.98
  -3  -3   2   32.13    0.79
   3  -3  -2   33.66    0.97
  -3   3   2   32.40    0.88
   3   3  -2   32.61    0.95
  -3   3   2   32.08    0.92
   3   3  -2   33.39    0.93
  -3   3   2   32.56    1.00
  -2  -3   2  227.53    5.02
  -2  -3   2  224.68    5.13
  -2  -3   2  225.54    5.06
   2  -3  -2  226.75    5.17
   2  -3  -2  221.12    5.12
  -2  -3   2  217.60    5.08
  -2   3   2  225.91    5.35
  -2   3   2  232.33    5.31
   2   3  -2  228.73    5.28
   2   3  -2  232.30    5.36
   2   3  -2  243.84    5.28
   2   3  -2  227.48    5.30
  -2   3   2  235.90    5.22
  -2   3   2  237.77    5.25
  -1  -3   2   41.37    1.08
  -1  -3   2   40.68    1.10
  -1  -3   2   39.09    0.99
   1  -3  -2   39.10    1.11
   1  -3  -2   39.09    1.09
  -1  -3   2   38.40    1.03
   1   3  -2   45.18    1.17
   1   3  -2   44.42    1.23
  -1   3   2   43.53    1.12
  -1   3   2   45.00    1.11
  -1   3   2   44.16    1.13
   1   3  -2   41.93    1.18
   1   3  -2   44.31    1.17
  -1   3   2   43.18    1.15
   0  -3   2   81.79    1.96
   0  -3   2   80.39    1.96
   0  -3  -2   79.76    1.96
   0  -3   2   80.04    1.81
   0  -3  -2   78.84    1.91
   0  -3  -2   80.55    1.88
   0  -3  -2   79.99    1.97
   0   3   2   76.62    1.84
   0   3   2   80.13    1.86
   0   3  -2   78.09    1.96
   0   3   2   79.20    1.89
   0   3  -2   81.39    1.97
   0   3   2   79.72    1.92
   0   3  -2   79.91    1.99
   0   3  -2   83.65    1.98
   1  -3   2   70.01    1.75
   1  -3   2   70.32    1.73
  -1  -3  -2   70.79    1.71
  -1  -3  -2   67.49    1.70
  -1  -3  -2   68.54    1.68
  -1  -3  -2   67.74    1.70
  -1   3  -2   68.78    1.75
  -1   3  -2   66.93    1.73
   1   3   2   67.57    1.68
  -2  -3  -2   17.99    0.59
   2  -3   2   20.02    0.69
  -2  -3  -2   18.38    0.65
  -2  -3  -2   17.89    0.60
  -2  -3  -2   18.07    0.61
   2  -3   2   18.40    0.63
   2   3   2   17.76    0.43
  -2   3  -2   18.01    0.65
   2   3   2   18.71    0.62
   2   3   2   16.48    0.43
  -2   3  -2   19.25    0.70
  -3  -3  -2  229.74    5.32
  -3  -3  -2  225.21    5.28
  -3  -3  -2  236.34    5.22
   3  -3   2  232.64    5.28
   3  -3   2  229.43    5.41
  -3  -3  -2  228.34    5.20
   3  -3   2  233.95    5.35
   3   3   2  224.22    5.11
   3   3   2  219.95    5.03
   3   3   2  220.94    5.09
  -3   3  -2  225.91    5.28
   3   3   2  228.51    5.02
  -3   3  -2  236.91    5.20
  -3   3  -2  220.10    4.99
   4  -3   2   11.99    0.60
  -4  -3  -2   11.79    0.63
   4  -3   2   11.98    0.69
   4  -3   2   11.25    0.51
  -4  -3  -2   10.71    0.58
  -4   3  -2   13.42    0.62
   4   3   2   12.32    0.48
  -4   3  -2   14.11    0.70
  -4   3  -2   12.63    0.46
   4   3   2   12.54    0.52
   4   3   2   13.09    0.49
   4   3   2   12.88    0.51
  -5  -3  -2   89.34    2.38
   5  -3   2   93.81    2.54
   5  -3   2   94.83    2.39
   5  -3   2   88.60    2.26
  -5  -3  -2   87.92    2.35
  -5   3  -2   87.01    2.12
   5   3   2   91.04    2.10
  -5   3  -2   87.23    2.26
   5   3   2   84.19    2.13
  -5   3  -2   87.82    2.39
   5   3   2   89.00    2.22
   5   3   2   88.15    2.18
   6  -3   2   62.43    1.70
  -6  -3  -2   67.33    1.90
   6  -3   2   63.55    1.85
   6  -3   2   62.99    2.01
  -6  -3  -2   64.93    1.84
  -6   3  -2   63.46    1.76
  -6   3  -2   61.72    1.64
   6   3   2   61.61    1.55
  -6   3  -2   62.46    1.94
   6   3   2   62.31    1.73
   6   3   2   61.57    1.62
  -7  -3  -2   20.42    0.98
   7  -3   2   18.65    0.94
   7  -3   2   20.11    0.80
  -7  -3  -2   19.78    1.02
   7   3   2   23.25    1.00
   7   3   2   23.26    0.86
  -7   3  -2   24.11    0.99
  -7   3  -2   23.21    0.91
  -8  -3  -2   33.94    1.40
   8  -3   2   32.02    1.30
  -8  -3  -2   31.01    1.32
   8   3   2   35.88    1.37
  -8   3  -2   35.05    1.29
  -8   3  -2   31.52    1.26
   9  -3   2    3.05    0.61
  -9  -3  -2    3.83    0.67
  -9  -3  -2    2.74    0.72
  -9   3  -2    2.80    0.57
   9   3   2    3.01    0.65
  10  -3   2   20.59    1.28
 -10  -3  -2   23.71    1.42
 -10  -3  -2   23.76    1.51
  10   3   2   22.67    1.40
 -10   3  -2   20.03    1.22
  11  -3   2    1.45    0.76
 -11  -3  -2    1.33    0.84
 -11  -3  -2    1.53    0.98
 -11   3  -2    2.31    0.77
  11   3   2    1.90    0.86
 -11  -4   2    9.88    1.27
 -11  -4   2    8.14    1.09
  11   4  -2    6.94    1.05
 -10  -4   2   21.63    1.44
 -10  -4   2   20.86    1.43
  10  -4  -2   22.62    1.28
  10  -4  -2   20.36    1.29
  10   4  -2   21.68    1.43
   9  -4  -2   13.32    0.91
   9  -4  -2   11.23    0.93
  -9  -4   2   13.35    1.11
  -9  -4   2   11.30    0.95
   9   4  -2   12.46    0.99
   8  -4  -2   23.95    1.13
  -8  -4   2   28.31    1.26
  -8  -4   2   24.47    1.31
   8  -4  -2   24.86    1.20
  -8   4   2   27.93    1.10
   8   4  -2   25.12    1.20
  -8   4   2   27.39    1.47
   8   4  -2   27.09    1.08
  -8   4   2   27.22    1.18
  -7  -4   2    7.20    0.70
   7  -4  -2    8.23    0.66
  -7  -4   2    7.26    0.72
   7  -4  -2    7.20    0.68
  -7   4   2    7.22    0.55
  -7   4   2    8.55    0.85
  -7   4   2    8.97    0.67
   7   4  -2    7.37    0.55
   7   4  -2    7.70    0.65
   6  -4  -2   75.82    2.14
  -6  -4   2   76.17    2.14
  -6  -4   2   73.88    2.12
   6  -4  -2   73.67    2.07
  -6   4   2   68.16    1.84
  -6   4   2   68.82    1.80
   6   4  -2   70.90    1.85
  -6   4   2   66.36    2.06
   6   4  -2   67.18    1.93
  -5  -4   2   46.25    1.45
  -5  -4   2   44.77    1.41
   5  -4  -2   44.96    1.39
   5  -4  -2   44.99    1.44
   5   4  -2   48.93    1.43
  -5   4   2   49.90    1.55
   5   4  -2   46.89    1.37
  -5   4   2   48.37    1.33
  -5   4   2   46.74    1.34
  -4  -4   2   21.01    0.83
   4  -4  -2   21.35    0.83
   4  -4  -2   20.35    0.87
  -4  -4   2   20.47    0.59
  -4  -4   2   20.64    0.87
   4   4  -2   19.48    0.60
   4   4  -2   20.82    0.77
  -4   4   2   21.02    0.70
  -4   4   2   20.03    0.84
   4   4  -2   20.75    0.73
  -4   4   2   19.13    0.71
  -3  -4   2  113.89    2.81
  -3  -4   2  115.54    2.81
  -3  -4   2  114.70    2.90
   3  -4  -2  120.09    2.89
  -3  -4   2  116.48    2.70
   3  -4  -2  120.37    2.94
  -3   4   2  118.35    2.75
   3   4  -2  118.75    2.84
   3   4  -2  121.23    2.81
   3   4  -2  113.23    2.91
   3   4  -2  117.91    2.77
  -3   4   2  111.48    2.73
  -3   4   2  114.13    2.87
  -2  -4   2   44.11    1.28
  -2  -4   2   44.69    1.17
   2  -4  -2   44.00    1.28
  -2  -4   2   43.41    1.18
   2  -4  -2   42.65    1.31
  -2  -4   2   44.08    1.23
   2   4  -2   43.69    1.29
   2   4  -2   42.55    1.17
   2   4  -2   42.26    1.18
   2   4  -2   41.82    1.23
  -2   4   2   41.57    1.24
  -2   4   2   42.94    1.21
  -2   4   2   43.55    1.13
  -2   4   2   43.52    1.14
   1  -4  -2   48.59    1.38
  -1  -4   2   47.71    1.34
  -1  -4   2   47.56    1.30
   1  -4  -2   47.34    1.35
  -1  -4   2   47.40    1.20
  -1  -4   2   50.24    1.33
   1   4  -2   46.84    1.36
  -1   4   2   47.66    1.23
  -1   4   2   43.96    1.24
   1   4  -2   45.91    1.31
  -1   4   2   48.32    1.22
   1   4  -2   45.35    1.27
  -1   4   2   47.08    1.23
   1   4  -2   47.76    1.27
   0  -4  -2   81.17    2.06
   0  -4  -2   79.95    2.06
   0  -4   2   84.50    2.06
   0  -4   2   78.85    2.05
   0  -4  -2   80.53    1.96
   0  -4  -2   82.33    1.97
   0   4   2   81.65    1.92
   0   4   2   80.55    2.00
   0   4  -2   82.45    2.06
   0   4  -2   82.60    2.11
   0   4  -2   81.59    2.08
   0   4  -2   84.95    2.08
   0   4   2   81.43    1.99
   0   4   2   78.36    1.93
  -1  -4  -2    6.32    0.42
  -1  -4  -2    6.29    0.38
   1  -4   2    6.04    0.43
   1  -4   2    6.07    0.44
  -1  -4  -2    6.21    0.41
  -1  -4  -2    5.06    0.36
  -1   4  -2    5.13    0.53
   1   4   2    3.76    0.19
  -1   4  -2    5.05    0.41
   1   4   2    4.53    0.21
  -1   4  -2    4.80    0.42
   1   4   2    4.23    0.35
   1   4   2    4.93    0.35
  -2  -4  -2  164.12    3.86
   2  -4   2  168.79    3.92
  -2  -4  -2  163.56    3.87
  -2  -4  -2  163.14    3.85
  -2  -4  -2  163.51    3.88
   2  -4   2  169.71    3.96
  -2   4  -2  168.99    3.91
  -2   4  -2  159.54    3.94
   3  -4   2    9.21    0.52
  -3  -4  -2    8.85    0.48
   3  -4   2    9.58    0.58
  -3  -4  -2    8.83    0.57
  -3  -4  -2    8.33    0.52
  -3  -4  -2    8.54    0.45
   3   4   2    8.84    0.29
  -3   4  -2    8.68    0.59
   3   4   2    7.66    0.30
  -3   4  -2    8.92    0.56
   3   4   2    8.55    0.48
   3   4   2    8.45    0.49
  -4  -4  -2   98.37    2.40
  -4  -4  -2   99.99    2.40
   4  -4   2   99.86    2.51
  -4  -4  -2  102.10    2.57
   4  -4   2  100.37    2.61
  -4  -4  -2   99.39    2.55
   4   4   2   97.28    2.31
   4   4   2   91.30    2.20
  -4   4  -2   96.38    2.42
   4   4   2   93.67    2.31
   4   4   2   93.16    2.22
  -4   4  -2   92.71    2.52
   5  -4   2   12.27    0.63
   5  -4   2   13.34    0.76
  -5  -4  -2   11.47    0.70
  -5  -4  -2   12.61    0.78
  -5   4  -2   11.37    0.66
  -5   4  -2   11.51    0.83
   5   4   2   11.46    0.57
   5   4   2   11.08    0.54
   5   4   2   11.53    0.55
   5   4   2   11.01    0.56
  -6  -4  -2   18.14    0.98
  -6  -4  -2   17.78    0.92
   6  -4   2   18.69    0.92
   6  -4   2   19.85    0.82
  -6   4  -2   17.97    0.87
  -6   4  -2   19.82    1.10
   6   4   2   18.03    0.71
   6   4   2   18.15    0.74
   6   4   2   19.11    0.79
  -7  -4  -2   58.56    1.90
  -7  -4  -2   59.09    1.86
   7  -4   2   57.16    1.87
   7  -4   2   58.22    1.70
   7   4   2   61.44    1.78
  -7   4  -2   58.98    2.07
  -7   4  -2   57.46    1.77
   8  -4   2   14.07    0.98
  -8  -4  -2   15.41    1.07
  -8  -4  -2   14.64    1.02
   8   4   2   13.61    0.92
  -8   4  -2   15.02    0.94
   9  -4   2   15.63    1.12
  -9  -4  -2   14.07    1.04
  -9  -4  -2   14.88    1.16
  -9   4  -2   14.74    1.06
   9   4   2   16.77    1.11
  10  -4   2    1.92    0.73
 -10  -4  -2    3.02    0.94
 -10  -4  -2    1.77    0.79
 -10   4  -2    3.37    0.74
  10   4   2    3.38    0.79
 -11  -4  -2   22.67    1.65
 -11  -4  -2   24.23    1.71
  11  -4   2   24.07    1.57
  11   4   2   23.02    1.64
 -11   4  -2   18.58    1.28
 -11  -5   2   20.54    1.62
 -11  -5   2   21.48    1.52
  11  -5  -2   16.72    1.35
  11   5  -2   20.50    1.63
 -10  -5   2   21.33    1.50
 -10  -5   2   22.82    1.53
  10  -5  -2   22.12    1.45
  10  -5  -2   21.29    1.47
  10   5  -2   22.84    1.49
  -9  -5   2   18.06    1.29
   9  -5  -2   14.87    1.05
   9  -5  -2   17.35    1.22
  -9  -5   2   19.44    1.32
   9   5  -2   18.94    1.25
  -8  -5   2   18.46    1.20
   8  -5  -2   17.77    1.11
   8  -5  -2   16.19    1.11
  -8  -5   2   18.23    1.18
   8   5  -2   18.20    0.97
  -8   5   2   18.69    1.41
   8   5  -2   18.75    1.10
  -7  -5   2   27.66    1.29
   7  -5  -2   28.78    1.23
   7  -5  -2   27.54    1.27
  -7  -5   2   28.45    1.32
   7   5  -2   30.83    1.23
  -7   5   2   31.44    1.50
   7   5  -2   29.87    1.14
   6  -5  -2   21.42    1.02
  -6  -5   2   19.41    1.05
   6  -5  -2   20.15    1.03
  -6  -5   2   20.04    1.05
  -6   5   2   21.27    1.16
   6   5  -2   21.59    0.95
   6   5  -2   21.86    0.92
  -6   5   2   21.97    0.88
   5  -5  -2    7.13    0.61
  -5  -5   2    7.33    0.63
   5  -5  -2    8.46    0.67
  -5  -5   2    5.80    0.60
   5   5  -2    5.32    0.50
  -5   5   2    5.13    0.58
   5   5  -2    4.40    0.54
  -5   5   2    5.16    0.45
   5   5  -2    5.42    0.50
  -4  -5   2   97.88    2.64
   4  -5  -2  102.77    2.68
   4  -5  -2   98.75    2.63
  -4  -5   2   99.17    2.55
   4   5  -2   98.36    2.63
   4   5  -2   94.80    2.50
  -4   5   2   98.84    2.38
   4   5  -2   97.33    2.45
  -4   5   2  102.72    2.61
  -4   5   2   93.54    2.40
  -3  -5   2   14.67    0.69
  -3  -5   2   14.83    0.68
   3  -5  -2   15.59    0.79
  -3  -5   2   14.30    0.59
  -3  -5   2   13.29    0.74
   3  -5  -2   15.10    0.76
   3   5  -2   15.16    0.80
  -3   5   2   14.41    0.62
  -3   5   2   15.10    0.65
   3   5  -2   15.25    0.65
   3   5  -2   13.87    0.69
   3   5  -2   14.71    0.64
  -3   5   2   14.25    0.73
  -2  -5   2   39.84    1.24
  -2  -5   2   40.70    1.29
  -2  -5   2   41.67    1.19
   2  -5  -2   45.39    1.36
   2  -5  -2   39.65    1.29
  -2  -5   2   40.08    1.16
   2   5  -2   44.47    1.26
   2   5  -2   45.86    1.42
  -2   5   2   42.72    1.18
   2   5  -2   43.44    1.33
  -2   5   2   43.90    1.29
   2   5  -2   44.63    1.25
  -2   5   2   42.19    1.24
   1  -5  -2   40.48    1.28
  -1  -5   2   40.55    1.08
  -1  -5   2   40.78    1.24
  -1  -5   2   42.56    1.27
   1  -5  -2   41.92    1.30
  -1  -5   2   40.01    1.23
   1   5  -2   46.87    1.32
  -1   5   2   44.70    1.29
   1   5  -2   45.82    1.37
   1   5  -2   46.61    1.43
  -1   5   2   45.58    1.23
   1   5  -2   45.49    1.31
  -1   5   2   46.06    1.26
  -1   5   2   43.66    1.28
   0  -5  -2   25.78    0.93
   0  -5   2   26.49    0.93
   0  -5  -2   24.97    0.80
   0  -5   2   25.19    0.91
   0  -5  -2   24.45    0.92
   0  -5  -2   24.17    0.82
   0   5   2   20.85    0.79
   0   5  -2   22.38    0.88
   0   5   2   21.63    0.76
   0   5  -2   23.04    0.82
   0   5   2   21.57    0.68
   0   5  -2   21.17    0.86
   0   5   2   21.02    0.70
  -1  -5  -2   41.38    1.23
  -1  -5  -2   40.79    1.21
   1  -5   2   45.65    1.35
  -1  -5  -2   43.70    1.31
   1  -5   2   46.73    1.34
  -1  -5  -2   42.18    1.28
   1   5   2   37.99    1.12
  -1   5  -2   37.44    1.22
   1   5   2   36.87    0.96
   1   5   2   37.20    1.16
  -1   5  -2   38.44    1.20
   1   5   2   37.53    0.94
   2  -5   2   28.03    1.01
  -2  -5  -2   28.57    0.97
  -2  -5  -2   27.33    0.97
  -2  -5  -2   29.24    0.95
  -2  -5  -2   28.40    0.97
   2  -5   2   29.87    1.07
   2   5   2   27.33    0.96
  -2   5  -2   27.54    1.00
   2   5   2   25.70    0.93
  -2   5  -2   27.61    1.03
  -3  -5  -2   68.50    1.87
  -3  -5  -2   70.17    1.92
  -3  -5  -2   72.82    1.94
   3  -5   2   70.27    1.95
  -3  -5  -2   70.81    1.84
   3  -5   2   72.47    2.02
   3   5   2   71.00    1.89
  -3   5  -2   73.46    1.99
   3   5   2   71.29    1.92
  -3   5  -2   71.61    2.05
  -4  -5  -2    0.09    0.29
   4  -5   2    0.23    0.32
   4  -5   2    0.03    0.28
  -4  -5  -2    0.14    0.35
  -4  -5  -2    0.27    0.39
  -4  -5  -2    0.10    0.26
   4   5   2   -0.01    0.29
  -4   5  -2    0.17    0.33
   4   5   2   -0.05    0.30
  -4   5  -2    0.03    0.37
   4   5   2    0.04    0.17
   4   5   2    0.01    0.17
  -5  -5  -2   94.99    2.54
  -5  -5  -2   93.31    2.30
   5  -5   2   97.48    2.60
   5  -5   2   89.05    2.45
  -5  -5  -2   88.60    2.50
   5   5   2   89.87    2.19
   5   5   2   88.56    2.17
  -5   5  -2   93.50    2.43
   5   5   2   87.31    2.28
  -5   5  -2   91.05    2.59
   5   5   2   88.16    2.27
  -6  -5  -2   31.34    1.31
   6  -5   2   31.71    1.29
  -6  -5  -2   33.79    1.34
   6  -5   2   29.66    1.15
   6   5   2   30.49    1.01
  -6   5  -2   28.74    1.16
  -6   5  -2   29.01    1.39
   7  -5   2   18.88    1.11
  -7  -5  -2   20.74    1.17
  -7  -5  -2   20.05    1.21
   7  -5   2   20.57    0.98
  -7   5  -2   22.55    1.41
   7   5   2   22.37    0.96
  -7   5  -2   19.72    1.04
   8  -5   2   27.62    1.38
   8  -5   2   25.40    1.17
  -8  -5  -2   28.38    1.39
  -8  -5  -2   27.72    1.48
  -8   5  -2   31.93    1.35
   8   5   2   28.52    1.24
  -9  -5  -2    3.03    0.89
   9  -5   2    3.63    0.75
  -9  -5  -2    3.32    0.84
  -9   5  -2    2.55    0.69
   9   5   2    3.61    0.70
 -10  -5  -2   10.47    1.24
  10  -5   2   12.11    1.16
 -10  -5  -2   10.77    1.17
  10   5   2    9.26    0.99
 -10   5  -2    8.52    0.95
  10  -6  -2   12.27    1.22
 -10  -6   2   12.04    1.40
 -10  -6   2   10.93    1.24
  10  -6  -2   11.62    1.18
  10   6  -2    9.67    1.05
  -9  -6   2    2.94    0.93
  -9  -6   2    3.29    1.01
   9  -6  -2    2.18    0.80
   9  -6  -2    2.90    0.80
  -8  -6   2   10.66    1.04
  -8  -6   2   10.60    1.07
   8  -6  -2   11.47    1.04
   8  -6  -2   12.47    1.03
   8   6  -2   10.83    0.85
  -8   6   2   11.45    1.19
  -7  -6   2    9.87    0.95
  -7  -6   2    9.54    0.92
   7  -6  -2    9.41    0.87
   7  -6  -2    8.20    0.85
   7   6  -2   10.84    0.78
   7   6  -2   10.15    0.95
   7   6  -2    9.18    0.77
  -7   6   2   10.83    1.06
   6  -6  -2   15.00    1.03
   6  -6  -2   15.63    1.03
  -6  -6   2   15.39    0.99
  -6  -6   2   13.29    0.98
   6   6  -2   13.86    1.02
   6   6  -2   14.56    0.86
   6   6  -2   16.03    0.89
  -6   6   2   15.30    1.14
  -5  -6   2   47.08    1.67
   5  -6  -2   45.45    1.67
  -5  -6   2   47.98    1.60
   5  -6  -2   50.15    1.66
   5   6  -2   46.99    1.46
  -5   6   2   47.64    1.68
   5   6  -2   45.02    1.50
   5   6  -2   47.56    1.70
   4  -6  -2    2.15    0.49
  -4  -6   2    3.85    0.53
   4  -6  -2    2.28    0.50
  -4  -6   2    2.61    0.53
   4   6  -2    2.92    0.40
  -4   6   2    2.83    0.49
   4   6  -2    1.81    0.53
  -4   6   2    3.16    0.52
   4   6  -2    2.30    0.45
  -3  -6   2   79.04    2.19
   3  -6  -2   75.18    2.18
  -3  -6   2   76.22    2.08
   3  -6  -2   78.55    2.24
  -3  -6   2   77.19    2.03
  -3  -6   2   73.81    1.97
   3   6  -2   77.26    2.15
  -3   6   2   76.28    2.04
  -3   6   2   76.22    2.15
   3   6  -2   78.21    2.27
   3   6  -2   78.34    2.04
  -2  -6   2    4.29    0.47
  -2  -6   2    5.11    0.48
   2  -6  -2    4.10    0.52
   2  -6  -2    5.14    0.58
  -2  -6   2    6.20    0.59
   2   6  -2    6.89    0.64
  -2   6   2    5.09    0.49
  -2   6   2    5.94    0.51
   2   6  -2    5.64    0.47
   2   6  -2    6.21    0.57
   1  -6  -2   26.47    1.07
  -1  -6   2   27.34    1.05
   1  -6  -2   27.77    1.08
  -1  -6   2   29.16    1.05
   1   6  -2   29.65    1.14
  -1   6   2   30.49    0.98
  -1   6   2   30.53    1.09
   1   6  -2   32.37    1.20
  -1   6   2   31.18    1.01
   1   6  -2   32.40    1.07
   0  -6  -2   32.36    1.16
   0  -6   2   30.65    1.14
   0  -6  -2   31.27    1.16
   0  -6   2   32.84    1.17
   0   6   2   30.21    0.97
   0   6  -2   31.94    1.15
   0   6  -2   30.55    1.07
   0   6   2   28.16    1.06
   0   6   2   30.62    1.00
   0   6  -2   28.74    1.15
   0   6   2   29.83    0.91
   1  -6   2    5.87    0.56
  -1  -6  -2    6.47    0.56
  -1  -6  -2    7.33    0.51
   1  -6   2    7.10    0.59
  -1  -6  -2    7.18    0.53
  -1  -6  -2    6.18    0.53
   1   6   2    6.58    0.52
   1   6   2    5.82    0.43
   1   6   2    6.19    0.37
  -1   6  -2    6.41    0.57
   1   6   2    5.62    0.54
  -1   6  -2    7.99    0.66
   2  -6   2   32.25    1.19
  -2  -6  -2   32.13    1.17
  -2  -6  -2   32.27    1.12
  -2  -6  -2   31.57    1.14
  -2  -6  -2   33.38    1.13
   2  -6   2   34.34    1.25
  -2   6  -2   36.19    1.25
  -2   6  -2   34.14    1.25
   2   6   2   31.72    0.85
   2   6   2   33.50    1.21
   2   6   2   35.06    1.15
   2   6   2   31.43    0.83
  -3  -6  -2   10.05    0.64
   3  -6   2   10.76    0.73
  -3  -6  -2   10.23    0.73
  -3  -6  -2   11.22    0.76
  -3  -6  -2   11.00    0.76
   3  -6   2   10.87    0.77
   3   6   2    9.61    0.68
  -3   6  -2    9.50    0.80
   3   6   2   10.92    0.75
  -3   6  -2   10.86    0.77
   3   6   2   11.16    0.80
   4  -6   2   21.60    0.98
  -4  -6  -2   21.57    0.86
  -4  -6  -2   22.49    1.04
  -4  -6  -2   20.55    1.04
   4  -6   2   17.85    1.03
  -4  -6  -2   20.13    0.91
   4   6   2   19.35    0.55
  -4   6  -2   20.44    1.09
   4   6   2   19.99    0.93
   4   6   2   18.26    0.86
  -4   6  -2   19.82    0.95
  -5  -6  -2   15.45    0.99
   5  -6   2   15.50    1.01
   5  -6   2   14.47    0.88
  -5  -6  -2   14.96    0.81
  -5  -6  -2   13.98    0.94
  -5   6  -2   15.80    1.06
   5   6   2   15.16    0.60
   5   6   2   13.99    0.82
  -5   6  -2   15.26    0.90
   5   6   2   15.65    0.60
  -6  -6  -2   16.80    1.16
  -6  -6  -2   17.52    1.14
   6  -6   2   16.01    1.09
   6  -6   2   17.19    0.97
  -6   6  -2   18.27    1.00
   6   6   2   18.44    0.79
  -6   6  -2   18.01    1.29
  -7  -6  -2   17.64    1.18
  -7  -6  -2   16.67    1.18
   7  -6   2   15.50    1.02
   7  -6   2   15.99    1.14
  -7   6  -2   16.67    1.05
   7   6   2   17.07    0.88
  -7   6  -2   17.76    1.45
   8  -6   2    2.16    0.63
   8  -6   2    3.00    0.76
  -8  -6  -2    3.71    0.90
  -8  -6  -2    1.87    0.81
   8   6   2    2.79    0.59
  -8   6  -2    2.13    0.65
  -9  -6  -2   31.36    1.83
   9  -6   2   30.55    1.68
  -9  -6  -2   29.29    1.74
   9   6   2   29.54    1.42
  -9   6  -2   30.60    1.52
  10  -6   2    2.63    0.94
 -10  -6  -2    1.42    1.13
 -10  -6  -2    2.37    1.04
 -10   6  -2    2.33    0.89
  10   6   2    2.03    0.79
  -9  -7   2   20.68    1.53
   9  -7  -2   18.10    1.38
   9  -7  -2   16.88    1.39
  -9  -7   2   16.29    1.42
   9   7  -2   17.78    1.54
   9   7  -2   18.10    1.43
  -8  -7   2    5.98    1.05
   8  -7  -2    5.69    0.94
   8  -7  -2    6.62    0.96
  -8  -7   2    5.14    1.03
   8   7  -2    5.48    0.80
   8   7  -2    6.35    1.10
  -8   7   2    7.69    1.19
   8   7  -2    6.56    0.96
  -7  -7   2    7.00    0.96
  -7  -7   2    6.82    0.97
   7  -7  -2    7.92    0.93
   7  -7  -2    6.19    0.89
   7   7  -2   11.61    1.18
  -7   7   2    9.62    1.12
   7   7  -2   10.23    0.86
   7   7  -2    8.89    0.84
  -6  -7   2   18.43    1.26
   6  -7  -2   19.38    1.24
  -6  -7   2   18.53    1.28
   6  -7  -2   19.74    1.28
   6   7  -2   21.93    1.05
  -6   7   2   22.09    1.41
   6   7  -2   21.67    1.18
   6   7  -2   21.76    1.46
  -5  -7   2    5.98    0.81
   5  -7  -2    5.70    0.75
   5  -7  -2    5.91    0.78
   5   7  -2    6.04    0.85
  -5   7   2    6.50    0.81
   5   7  -2    6.07    0.59
   5   7  -2    6.51    0.71
  -4  -7   2   17.99    1.14
   4  -7  -2   17.19    1.10
   4  -7  -2   17.99    1.12
  -4  -7   2   19.10    0.99
   4   7  -2   18.93    1.01
   4   7  -2   16.80    1.16
   4   7  -2   17.57    0.86
  -4   7   2   18.64    1.09
  -3  -7   2    8.67    0.78
   3  -7  -2    9.38    0.82
  -3  -7   2    9.82    0.73
   3  -7  -2    8.65    0.77
   3   7  -2    9.51    0.77
   3   7  -2    8.61    0.84
  -3   7   2    9.43    0.74
   3   7  -2    9.00    0.68
  -2  -7   2   34.25    1.29
  -2  -7   2   32.77    1.21
   2  -7  -2   32.28    1.34
   2  -7  -2   34.31    1.35
   2   7  -2   34.83    1.48
   2   7  -2   36.74    1.39
  -2   7   2   35.97    1.27
   2   7  -2   37.00    1.23
   1  -7  -2   15.56    0.96
  -1  -7   2   11.98    0.84
  -1  -7   2   12.51    0.83
   1  -7  -2   11.79    0.87
  -1   7   2   11.08    0.69
   1   7  -2   11.58    0.75
  -1   7   2   11.17    0.76
   1   7  -2   12.86    0.90
   1   7  -2   11.56    0.81
   0  -7  -2   21.41    1.07
   0  -7   2   20.74    1.04
   0  -7  -2   21.84    1.06
   0  -7   2   22.32    1.04
   0   7  -2   16.43    0.97
   0   7   2   17.20    0.73
   0   7  -2   18.37    0.90
   0   7  -2   16.38    0.98
   0   7   2   17.23    0.96
  -1  -7  -2   18.69    0.96
  -1  -7  -2   18.96    0.92
   1  -7   2   18.86    1.02
   1  -7   2   19.55    1.02
  -1  -7  -2   18.19    1.01
  -1   7  -2   16.82    0.98
   1   7   2   15.95    0.63
  -1   7  -2   16.62    0.97
   1   7   2   15.17    0.96
  -1   7  -2   17.11    0.94
   2  -7   2    7.59    0.73
  -2  -7  -2    8.95    0.69
  -2  -7  -2    8.38    0.69
  -2  -7  -2    9.62    0.74
   2  -7   2   10.54    0.80
  -2  -7  -2    9.06    0.66
   2   7   2    9.45    0.71
   2   7   2    8.70    0.76
  -2   7  -2    9.79    0.78
   2   7   2    7.51    0.39
  -2   7  -2    9.83    0.77
   2   7   2    8.11    0.73
   2   7   2    6.85    0.46
  -3  -7  -2   19.92    0.93
  -3  -7  -2   18.67    1.03
  -3  -7  -2   19.91    1.02
   3  -7   2   18.99    1.05
  -3  -7  -2   19.41    1.04
   3  -7   2   19.11    1.10
   3   7   2   20.50    1.06
   3   7   2   21.27    1.06
  -3   7  -2   18.99    1.12
  -3   7  -2   20.14    1.06
   3   7   2   19.94    1.15
   4  -7   2    2.13    0.54
  -4  -7  -2    2.06    0.53
  -4  -7  -2    1.72    0.59
   4  -7   2    2.06    0.58
  -4  -7  -2    2.10    0.59
  -4  -7  -2    2.38    0.49
  -4   7  -2    3.49    0.69
  -4   7  -2    2.80    0.59
   4   7   2    3.28    0.57
   4   7   2    2.41    0.61
   4   7   2    3.07    0.67
   4   7   2    2.93    0.59
   5  -7   2   26.89    1.37
   5  -7   2   25.61    1.28
  -5  -7  -2   27.03    1.17
  -5  -7  -2   29.52    1.41
  -5  -7  -2   29.47    1.39
   5   7   2   30.59    1.46
   5   7   2   28.25    1.21
  -5   7  -2   27.69    1.26
   5   7   2   25.03    0.74
  -5   7  -2   27.00    1.47
   5   7   2   25.30    0.73
  -6  -7  -2   15.70    1.14
  -6  -7  -2   14.55    1.10
   6  -7   2   14.21    1.12
   6  -7   2   15.56    1.04
   6   7   2   12.47    0.64
  -6   7  -2   12.42    0.92
  -6   7  -2   14.57    1.22
  -7  -7  -2   12.41    1.13
  -7  -7  -2   14.24    1.20
   7  -7   2   15.36    1.20
   7  -7   2   13.07    1.04
  -7   7  -2   14.34    1.02
   7   7   2   12.89    0.79
  -7   7  -2   14.47    1.32
  -8  -7  -2   16.73    1.40
   8  -7   2   13.60    1.10
  -8  -7  -2   13.28    1.24
   8  -7   2   13.67    1.21
   8   7   2   12.78    0.93
  -8   7  -2   12.24    1.03
   9   7   2    6.48    0.80
   7  -8  -2    6.03    1.02
   7  -8  -2    5.14    0.99
  -7  -8   2    6.15    1.10
   7   8  -2    4.97    1.14
   7   8  -2    5.46    0.86
   7   8  -2    5.20    0.75
  -7   8   2    5.61    1.15
   6  -8  -2    1.07    0.78
   6  -8  -2    0.77    0.76
  -6  -8   2    0.80    0.85
  -6   8   2    1.35    0.84
   6   8  -2    0.64    0.66
   6   8  -2    0.79    0.56
   6   8  -2    0.78    0.91
   5  -8  -2    5.08    0.86
   5  -8  -2    3.89    0.81
  -5  -8   2    4.69    0.89
   5   8  -2    4.93    0.97
   5   8  -2    5.73    0.80
  -5   8   2    6.23    0.92
   5   8  -2    4.70    0.62
   4  -8  -2    5.82    0.85
  -4  -8   2    4.32    0.68
   4  -8  -2    6.37    0.86
  -4  -8   2    6.04    0.88
   4   8  -2    4.17    0.58
   4   8  -2    4.12    0.69
   4   8  -2    4.36    0.90
  -4   8   2    4.35    0.77
   3  -8  -2   17.52    1.19
  -3  -8   2   18.72    1.12
   3  -8  -2   18.55    1.23
   3   8  -2   18.70    0.96
   3   8  -2   21.80    1.21
   3   8  -2   20.01    1.40
  -3   8   2   20.57    1.16
   2  -8  -2    1.39    0.59
   2  -8  -2    1.63    0.64
  -2  -8   2    1.60    0.58
  -2   8   2    2.01    0.55
   2   8  -2    2.32    0.64
   2   8  -2    1.46    0.68
   2   8  -2    1.79    0.51
  -1  -8   2   20.51    1.13
   1  -8  -2   18.75    1.15
   1  -8  -2   21.03    1.23
  -1  -8   2   19.75    1.12
   1   8  -2   18.19    1.26
   1   8  -2   21.03    1.04
   1   8  -2   20.73    1.22
  -1   8   2   20.14    0.98
   0  -8   2   19.30    1.13
   0  -8  -2   18.37    1.15
   0  -8   2   18.30    1.13
   0  -8  -2   18.62    1.13
   0   8  -2   17.46    1.18
   0   8  -2   17.69    1.15
   0   8  -2   19.87    1.07
   0   8   2   18.00    0.85
   1  -8   2    4.43    0.69
  -1  -8  -2    4.01    0.69
   1  -8   2    2.49    0.64
  -1  -8  -2    2.96    0.63
  -1   8  -2    4.19    0.70
  -1   8  -2    4.93    0.70
   1   8   2    3.98    0.42
  -1   8  -2    3.20    0.67
   1   8   2    3.92    0.70
  -2  -8  -2    7.57    0.80
   2  -8   2    7.74    0.81
   2  -8   2    7.36    0.82
  -2  -8  -2    7.20    0.76
  -2  -8  -2    6.74    0.72
  -2   8  -2    8.80    0.86
   2   8   2    7.73    0.83
   2   8   2    7.48    0.46
   2   8   2    7.28    0.83
  -2   8  -2    7.35    0.78
  -2   8  -2    7.70    0.83
   3  -8   2    6.91    0.81
   3  -8   2    6.16    0.82
  -3  -8  -2    4.86    0.64
  -3  -8  -2    6.39    0.78
  -3  -8  -2    5.62    0.75
  -3   8  -2    4.72    0.74
   3   8   2    5.09    0.75
   3   8   2    4.65    0.82
  -3   8  -2    6.38    0.86
  -4  -8  -2   46.38    1.78
  -4  -8  -2   48.81    1.72
   4  -8   2   45.81    1.87
   4  -8   2   46.26    1.80
  -4   8  -2   44.06    1.87
  -4   8  -2   46.00    1.74
   4   8   2   44.92    1.73
   4   8   2   47.21    1.94
   5  -8   2    6.90    0.92
  -5  -8  -2    5.68    0.92
   5  -8   2    6.49    0.86
  -5  -8  -2    6.00    0.75
  -5   8  -2   11.73    1.16
  -5   8  -2    9.00    0.90
   5   8   2    8.54    0.90
   5   8   2    8.27    1.08
  -6  -8  -2    8.81    1.09
  -6  -8  -2    9.96    1.12
   6  -8   2    9.76    0.97
   6  -8   2    9.07    1.08
   6   8   2   10.09    1.17
   6   8   2    9.20    1.20
  -6   8  -2    8.73    0.92
  -6   8  -2   10.73    1.24
   7  -8   2    2.07    0.91
  -7  -8  -2    2.92    1.02
   7  -8   2    3.18    0.85
  -7  -8  -2    2.43    1.04
   7   8   2    1.65    0.39
  -7   8  -2    2.45    1.13
   7   8   2    1.84    1.04
  -6  -9   2    3.82    1.12
   6  -9  -2    3.18    1.01
   6  -9  -2    3.37    1.06
  -6   9   2    4.68    1.15
   6   9  -2    4.15    0.71
   6   9  -2    2.97    1.20
   6   9  -2    3.45    0.90
   5  -9  -2    1.12    0.92
  -5  -9   2    1.03    0.96
   5  -9  -2    0.79    0.85
   5   9  -2    0.81    1.02
   5   9  -2    0.68    0.58
  -5   9   2    0.56    0.86
   5   9  -2    1.08    0.78
   4  -9  -2    3.14    0.87
   4  -9  -2    4.68    0.98
   4   9  -2    3.32    0.82
   4   9  -2    3.53    0.64
  -4   9   2    5.48    0.92
   4   9  -2    4.42    1.07
   3  -9  -2    3.68    0.88
   3  -9  -2    2.19    0.78
  -3  -9   2    2.72    0.73
  -3   9   2    2.66    0.77
   3   9  -2    3.09    0.97
   3   9  -2    2.28    0.59
   3   9  -2    3.23    0.80
  -2  -9   2    9.50    0.95
   2  -9  -2    7.72    0.93
   2  -9  -2    9.52    1.03
   2   9  -2    9.21    1.08
   2   9  -2    8.71    0.80
   2   9  -2    7.84    0.96
  -2   9   2    8.32    0.85
   1  -9  -2    2.52    0.76
  -1  -9   2    2.96    0.74
   1  -9  -2    2.09    0.79
   1   9  -2    2.87    0.79
   1   9  -2    2.86    0.85
  -1   9   2    2.64    0.59
   1   9  -2    2.05    0.65
   0  -9   2    3.76    0.78
   0  -9  -2    3.94    0.84
   0  -9   2    5.51    0.85
   0  -9  -2    4.99    0.81
   0   9  -2    4.93    0.77
   0   9  -2    4.31    0.87
   0   9  -2    5.27    0.88
   0   9   2    3.99    0.56
  -1  -9  -2    8.23    0.90
   1  -9   2    8.52    0.96
  -1  -9  -2    9.60    0.99
   1  -9   2   11.13    1.03
  -1   9  -2    8.56    0.98
  -1   9  -2    8.45    1.00
  -1   9  -2    9.38    0.94
   1   9   2    8.22    0.99
   1   9   2    7.45    0.57
  -2  -9  -2    0.38    0.65
   2  -9   2    0.15    0.69
  -2  -9  -2    0.16    0.71
   2  -9   2    0.05    0.69
  -2   9  -2    0.78    0.73
   2   9   2    0.22    0.32
   2   9   2    0.46    0.75
  -2   9  -2    0.53    0.70
  -2   9  -2    0.12    0.70
  -3  -9  -2    9.33    0.98
   3  -9   2   10.07    1.04
   3  -9   2    8.77    1.03
  -3   9  -2    8.50    0.98
  -3   9  -2   10.97    1.10
  -3   9  -2    9.55    1.03
   3   9   2    8.32    1.00
   4  -9   2    0.04    0.76
  -4  -9  -2    0.39    0.76
   4  -9   2    0.39    0.75
  -4  -9  -2    0.44    0.84
  -4   9  -2    0.18    0.85
  -4   9  -2    0.35    0.74
   4   9   2   -0.01    0.93
   4   9   2    0.29    0.77
  -5  -9  -2   10.53    1.21
   5  -9   2   11.41    1.13
   5  -9   2   10.48    1.18
   5   9   2   10.66    1.31
  -5   9  -2   12.47    1.31
   2 -10  -2    2.18    0.98
   2 -10  -2    2.76    0.94
  -2 -10   2    1.64    0.87
   2  10  -2    2.77    0.96
   2  10  -2    2.20    0.73
   2  10  -2    1.12    1.09
  -2  10   2    3.20    0.81
  -1 -10   2   16.92    1.30
   1 -10  -2   15.36    1.33
   1  10  -2   14.46    1.36
  -1  10   2   15.31    1.15
   1  10  -2   15.40    1.11
   1  10  -2   16.61    1.37
   0 -10  -2    4.71    0.95
   0 -10  -2    5.39    1.02
   0 -10   2    6.00    1.02
   0  10   2    4.15    1.05
   0  10  -2    4.17    0.97
   0  10  -2    4.38    0.86
   0  10   2    4.46    0.68
   0  10  -2    4.12    1.05
  -1 -10  -2    0.77    0.82
   1 -10   2    1.27    0.87
   1 -10   2    1.13    0.88
  -1 -10  -2    0.73    0.90
  -1  10  -2    0.55    0.94
  -1  10  -2    1.00    0.89
   1  10   2    1.10    0.96
  -1  10  -2    0.57    0.83
   1  10   2    1.20    0.51
   2 -10   2    4.90    1.01
   2 -10   2    5.16    1.02
  -2 -10  -2    5.01    1.00
  -2  10  -2    4.13    0.98
  -2  10  -2    7.23    1.11
   2  10   2    5.64    1.09
   2  10   2    5.42    0.44
 -12   0   3    9.51    1.27
 -12   0   3   10.49    1.07
  11   0  -3   12.43    1.28
 -11   0   3   17.05    1.22
 -11   0   3   15.41    1.26
 -10   0   3   20.23    1.30
  10   0  -3   19.19    0.94
  10   0  -3   17.44    1.42
 -10   0   3   18.52    1.12
  -9   0   3   19.39    1.14
   9   0  -3   19.32    0.87
   9   0  -3   22.37    1.33
  -9   0   3   18.94    0.99
   8   0  -3    5.30    0.46
   8   0  -3    4.87    0.69
  -8   0   3    4.51    0.62
  -8   0   3    4.43    0.50
   7   0  -3   78.73    2.32
   7   0  -3   80.07    2.02
  -7   0   3   76.85    2.18
  -7   0   3   79.79    2.08
   7   0  -3   78.30    1.95
   6   0  -3   47.18    1.25
   6   0  -3   43.63    1.17
  -6   0   3   44.56    1.37
  -6   0   3   46.31    1.29
   6   0  -3   45.31    1.48
  -6   0   3   43.09    1.42
   5   0  -3   83.60    2.24
  -5   0   3   79.48    2.14
   5   0  -3   84.24    1.98
   5   0  -3   84.29    2.05
  -5   0   3   84.32    2.06
  -5   0   3   85.88    2.19
   4   0  -3  143.67    3.44
  -4   0   3  135.96    3.38
  -4   0   3  140.34    3.35
   4   0  -3  141.42    3.21
   4   0  -3  144.24    3.28
  -4   0   3  143.47    3.27
  -3   0   3   17.93    0.53
  -3   0   3   17.94    0.65
   3   0  -3   19.03    0.50
  -3   0   3   17.12    0.61
   3   0  -3   16.92    0.66
   2   0  -3  131.46    2.99
  -2   0   3  126.40    2.86
   2   0  -3  127.51    2.85
  -2   0   3  126.85    2.94
  -2   0   3  121.98    2.96
  -1   0   3   10.65    0.41
   1   0  -3   11.19    0.42
  -1   0   3   11.18    0.34
  -1   0   3   10.76    0.38
   1   0  -3   10.56    0.33
   1   0  -3   10.71    0.33
   0   0  -3  151.69    3.48
   0   0   3  152.41    3.52
   0   0  -3  157.04    3.56
   0   0   3  153.74    3.50
   0   0   3  161.28    3.55
   0   0  -3  157.72    3.48
  -1   0  -3   24.36    0.72
   1   0   3   25.52    0.68
   1   0   3   26.17    0.73
   1   0   3   24.76    0.67
  -1   0  -3   24.24    0.66
  -1   0  -3   24.12    0.67
  -1   0  -3   24.98    0.60
   2   0   3   80.79    1.97
  -2   0  -3   77.67    1.90
  -2   0  -3   79.88    1.90
   2   0   3   81.35    1.90
  -3   0  -3  154.67    3.58
   3   0   3  154.76    3.57
   3   0   3  156.50    3.67
  -3   0  -3  154.22    3.58
  -4   0  -3   44.40    1.23
  -4   0  -3   44.79    1.22
   4   0   3   44.22    1.32
   4   0   3   45.51    1.21
   5   0   3  134.24    3.14
   5   0   3  129.85    2.93
  -5   0  -3  132.23    3.17
   5   0   3  128.04    3.28
  -5   0  -3  133.16    3.18
   6   0   3    1.38    0.32
  -6   0  -3    1.25    0.34
   6   0   3    1.07    0.36
  -6   0  -3    1.47    0.32
   7   0   3   43.06    1.33
  -7   0  -3   43.22    1.38
   7   0   3   44.04    1.55
  -7   0  -3   42.12    1.40
   8   0   3   84.47    2.30
  -8   0  -3   85.42    2.40
   8   0   3   85.83    2.57
  -8   0  -3   86.30    2.37
  -9   0  -3   16.46    1.07
   9   0   3   14.65    0.91
  -9   0  -3   16.69    0.97
   9   0   3   16.97    1.18
  10   0   3   39.00    1.86
 -10   0  -3   40.08    1.68
 -10   0  -3   40.64    1.62
  10   0   3   41.32    1.55
 -11   0  -3    2.25    0.87
  11   0   3    3.25    1.01
 -11   0  -3    1.90    0.76
  12   0   3   39.54    2.38
 -12   0  -3   41.89    1.97
 -12   0  -3   42.60    2.12
 -12  -1   3   15.77    1.44
 -12  -1   3   12.60    1.16
 -12   1   3   17.79    1.23
  12   1  -3   14.60    1.50
 -12   1   3   17.17    1.45
 -11  -1   3    1.39    0.89
 -11  -1   3    0.96    0.70
 -11   1   3    1.83    0.71
 -11   1   3    2.23    0.89
  11   1  -3    1.71    0.91
 -10  -1   3   16.11    1.08
 -10  -1   3   15.07    1.13
  10  -1  -3   14.58    0.90
 -10   1   3   16.14    1.12
  10   1  -3   14.23    1.16
  10   1  -3   16.27    0.87
 -10   1   3   15.32    1.05
  -9  -1   3    0.97    0.59
  -9  -1   3    0.69    0.48
   9  -1  -3    1.00    0.40
   9  -1  -3    1.01    0.67
   9   1  -3    0.68    0.37
  -9   1   3    0.27    0.57
   9   1  -3    1.03    0.60
  -9   1   3    0.54    0.44
   8  -1  -3   39.95    1.62
   8  -1  -3   41.24    1.26
   8  -1  -3   38.23    1.24
  -8  -1   3   40.24    1.34
  -8  -1   3   39.75    1.47
   8   1  -3   39.47    1.51
  -8   1   3   39.31    1.26
  -8   1   3   36.76    1.39
   8   1  -3   38.04    1.19
  -7  -1   3    0.57    0.41
   7  -1  -3    0.71    0.27
   7  -1  -3    0.88    0.44
   7  -1  -3    0.76    0.30
  -7  -1   3    0.94    0.34
  -7   1   3    0.69    0.52
  -7   1   3    1.00    0.32
   7   1  -3    1.10    0.29
  -7   1   3    1.04    0.41
   7   1  -3    0.86    0.40
   6  -1  -3   51.15    1.66
  -6  -1   3   53.64    1.47
   6  -1  -3   51.10    1.40
   6  -1  -3   53.15    1.41
  -6  -1   3   50.07    1.53
   6   1  -3   54.05    1.66
  -6   1   3   53.46    1.44
   6   1  -3   55.64    1.46
  -6   1   3   53.27    1.57
   6   1  -3   54.65    1.31
  -6   1   3   55.28    1.64
   5  -1  -3   56.18    1.46
  -5  -1   3   56.49    1.57
  -5  -1   3   56.83    1.51
  -5  -1   3   56.80    1.58
   5  -1  -3   56.02    1.67
   5  -1  -3   57.98    1.48
  -5   1   3   55.40    1.42
   5   1  -3   56.59    1.28
   5   1  -3   56.73    1.48
  -5   1   3   55.03    1.53
  -5   1   3   55.50    1.59
   5   1  -3   55.28    1.62
   4  -1  -3   38.62    1.02
   4  -1  -3   38.40    1.02
   4  -1  -3   35.76    1.17
  -4  -1   3   38.33    1.05
  -4  -1   3   36.35    1.11
  -4  -1   3   36.56    1.09
  -4   1   3   35.03    1.02
  -4   1   3   34.75    0.91
  -4   1   3   34.62    1.07
   4   1  -3   34.80    0.97
   4   1  -3   34.72    1.08
  -3  -1   3  196.79    4.52
   3  -1  -3  196.11    4.59
  -3  -1   3  194.48    4.48
   3  -1  -3  198.94    4.47
   3  -1  -3  201.85    4.47
  -3  -1   3  195.36    4.53
  -3   1   3  209.69    4.56
  -3   1   3  205.35    4.68
   3   1  -3  204.35    4.64
   3   1  -3  199.00    4.73
  -3   1   3  205.31    4.72
  -2  -1   3   52.32    1.30
  -2  -1   3   55.67    1.36
  -2  -1   3   49.82    1.20
   2  -1  -3   52.60    1.30
  -2  -1   3   53.38    1.33
   2  -1  -3   53.13    1.38
   2  -1  -3   53.72    1.29
  -2   1   3   54.32    1.20
   2   1  -3   51.29    1.31
   2   1  -3   52.21    1.38
   2   1  -3   52.85    1.29
  -2   1   3   51.54    1.35
  -2   1   3   53.62    1.32
  -1  -1   3  997.13   21.32
   1  -1  -3  971.30   21.60
   1  -1  -3  949.41   21.39
  -1  -1   3  978.36   21.37
  -1  -1   3  932.42   21.25
  -1  -1   3 1000.00   21.38
   1   1  -3  955.40   20.72
  -1   1   3  916.25   20.53
   1   1  -3  916.10   20.49
  -1   1   3  936.90   20.52
   1   1  -3  946.97   20.57
   0  -1  -3   63.03    1.42
   0  -1   3   61.36    1.47
   0  -1   3   64.14    1.47
   0  -1  -3   62.41    1.45
   0  -1   3   61.88    1.56
   0   1   3   61.64    1.48
   0   1  -3   58.86    1.48
   0   1   3   62.32    1.46
   0   1  -3   60.12    1.43
   0   1  -3   61.23    1.53
  -1  -1  -3   64.68    1.52
  -1  -1  -3   67.25    1.62
   1  -1   3   69.30    1.55
  -1  -1  -3   67.19    1.56
   1  -1   3   67.33    1.57
   1  -1   3   64.91    1.60
  -1  -1  -3   67.98    1.59
   1  -1   3   67.05    1.68
  -1   1  -3   73.13    1.77
   1   1   3   68.31    1.69
  -1   1  -3   70.33    1.71
  -1   1  -3   69.64    1.64
   1   1   3   69.45    1.69
  -1   1  -3   72.51    1.64
   1   1   3   68.42    1.70
   1   1   3   73.71    1.69
  -2  -1  -3  181.83    4.07
   2  -1   3  181.82    4.20
   2  -1   3  193.40    4.31
  -2  -1  -3  183.81    4.22
   2  -1   3  182.85    4.11
  -2  -1  -3  184.42    4.18
   2   1   3  173.13    3.96
  -2   1  -3  171.28    3.98
  -2   1  -3  168.15    4.04
   2   1   3  178.79    3.98
  -2   1  -3  173.03    3.89
   2   1   3  175.72    3.98
  -2   1  -3  177.84    3.92
  -3  -1  -3   17.44    0.64
   3  -1   3   19.12    0.72
   3  -1   3   18.74    0.51
   3  -1   3   18.46    0.62
  -3  -1  -3   18.27    0.60
   3   1   3   21.72    0.67
  -3   1  -3   23.16    0.79
  -3   1  -3   22.40    0.66
  -3   1  -3   20.26    0.69
   3   1   3   22.25    0.72
   3   1   3   21.38    0.71
   4  -1   3  247.05    5.65
  -4  -1  -3  241.16    5.63
  -4  -1  -3  246.55    5.67
   4  -1   3  253.31    5.79
   4  -1   3  246.83    5.49
  -4   1  -3  238.78    5.49
   4   1   3  237.75    5.48
  -4   1  -3  232.22    5.61
   4   1   3  254.28    5.60
  -4   1  -3  245.93    5.54
   5  -1   3    9.19    0.36
  -5  -1  -3    8.81    0.52
   5  -1   3    9.13    0.52
  -5  -1  -3    9.64    0.57
   5  -1   3    8.95    0.62
  -5   1  -3    9.25    0.64
  -5   1  -3    9.35    0.50
   5   1   3    9.19    0.50
  -5   1  -3    8.57    0.50
   5   1   3    9.36    0.58
  -6  -1  -3   84.34    2.26
  -6  -1  -3   84.47    2.30
   6  -1   3   87.35    2.06
   6  -1   3   84.54    2.26
   6  -1   3   95.06    2.48
  -6   1  -3   84.46    2.24
   6   1   3   90.03    2.38
  -6   1  -3   87.16    2.26
   6   1   3   86.19    2.20
  -7  -1  -3    6.80    0.55
   7  -1   3    7.68    0.60
  -7  -1  -3    6.47    0.61
   7  -1   3    7.97    0.77
  -7   1  -3   10.57    0.67
  -7   1  -3    9.56    0.68
   7   1   3   10.35    0.63
   7   1   3    9.65    0.77
  -8  -1  -3   54.08    1.70
   8  -1   3   54.36    1.92
   8  -1   3   51.94    1.66
  -8  -1  -3   54.18    1.76
   8   1   3   50.90    1.58
   8   1   3   54.05    1.83
  -8   1  -3   53.46    1.69
  -8   1  -3   54.88    1.67
  -9  -1  -3   31.04    1.39
   9  -1   3   31.49    1.25
  -9  -1  -3   29.31    1.30
   9  -1   3   28.87    1.55
   9   1   3   33.32    1.53
  -9   1  -3   32.01    1.30
  -9   1  -3   33.38    1.36
   9   1   3   31.45    1.22
  10  -1   3    4.83    0.69
 -10  -1  -3    3.41    0.70
  10  -1   3    4.50    0.94
 -10  -1  -3    4.58    0.83
 -10   1  -3    4.54    0.71
  10   1   3    4.96    0.88
 -10   1  -3    5.00    0.81
 -11  -1  -3   26.45    1.64
 -11  -1  -3   27.66    1.49
  11   1   3   27.16    1.77
 -11   1  -3   23.71    1.41
 -11   1  -3   26.73    1.55
 -12  -1  -3    1.46    0.90
 -12  -1  -3    1.04    1.07
  12   1   3    1.75    1.09
 -12   1  -3    1.39    1.04
 -12   1  -3    1.90    0.86
 -12  -2   3    7.43    1.06
 -12  -2   3    6.19    1.22
 -12   2   3    6.26    1.21
  12   2  -3    6.64    1.20
 -11  -2   3   14.12    1.27
 -11  -2   3   12.44    1.07
  11   2  -3   17.20    1.43
 -11   2   3   13.96    1.03
 -11   2   3   18.23    1.30
 -10  -2   3   11.09    0.93
  10  -2  -3   10.90    0.82
 -10  -2   3   10.71    1.05
  10   2  -3    8.82    1.02
 -10   2   3   10.41    0.80
  10   2  -3    8.43    0.66
 -10   2   3    8.84    0.93
  -9  -2   3   64.60    2.10
   9  -2  -3   61.40    1.86
   9  -2  -3   64.05    1.89
  -9  -2   3   64.34    1.99
  -9   2   3   60.65    2.02
   9   2  -3   66.55    2.20
   9   2  -3   62.36    1.77
  -9   2   3   64.39    1.86
  -8  -2   3   -0.11    0.48
   8  -2  -3    0.66    0.35
  -8  -2   3    0.78    0.43
   8  -2  -3    0.31    0.39
   8   2  -3    1.10    0.36
   8   2  -3    0.66    0.47
  -8   2   3    1.28    0.39
  -8   2   3    0.69    0.50
  -7  -2   3   53.61    1.69
   7  -2  -3   55.29    1.56
   7  -2  -3   54.68    1.58
  -7  -2   3   55.24    1.65
   7  -2  -3   52.97    1.84
   7   2  -3   48.64    1.64
   7   2  -3   51.31    1.45
  -7   2   3   50.13    1.53
  -7   2   3   49.27    1.40
  -7   2   3   48.03    1.66
   6  -2  -3   80.21    2.33
   6  -2  -3   83.58    2.13
  -6  -2   3   81.52    2.16
   6  -2  -3   82.37    2.10
  -6  -2   3   79.84    2.21
  -6   2   3   77.77    1.96
   6   2  -3   76.50    2.19
  -6   2   3   79.92    2.21
   6   2  -3   82.15    2.03
  -6   2   3   80.18    2.10
   5  -2  -3   38.69    1.35
   5  -2  -3   40.64    1.20
   5  -2  -3   42.02    1.18
  -5  -2   3   41.21    1.26
  -5  -2   3   42.43    1.24
  -5   2   3   42.08    1.12
  -5   2   3   41.14    1.23
  -5   2   3   42.64    1.33
   5   2  -3   44.50    1.33
   5   2  -3   42.03    1.19
   4  -2  -3   81.00    1.97
  -4  -2   3   79.42    2.01
   4  -2  -3   79.92    2.11
  -4  -2   3   76.23    1.99
   4  -2  -3   78.07    1.99
   4   2  -3   77.52    2.05
  -4   2   3   80.62    1.86
  -4   2   3   77.80    2.05
   4   2  -3   79.89    1.96
  -4   2   3   80.54    2.00
   3  -2  -3   14.76    0.55
   3  -2  -3   15.78    0.58
  -3  -2   3   15.47    0.58
   3  -2  -3   14.63    0.65
  -3  -2   3   16.11    0.59
  -3   2   3   14.29    0.58
  -3   2   3   14.14    0.55
  -3   2   3   14.22    0.41
   3   2  -3   13.95    0.52
   2  -2  -3   80.55    1.96
   2  -2  -3   80.76    1.92
  -2  -2   3   80.03    1.92
  -2  -2   3   80.63    1.95
  -2  -2   3   77.71    1.82
   2   2  -3   78.93    1.92
  -2   2   3   77.95    1.90
   2   2  -3   75.46    1.86
  -2   2   3   77.12    1.73
  -2   2   3   74.18    1.86
   2   2  -3   79.73    1.93
  -1  -2   3    9.63    0.42
   1  -2  -3    9.47    0.38
  -1  -2   3    9.20    0.35
  -1  -2   3    9.16    0.34
   1  -2  -3    9.55    0.40
  -1   2   3    7.53    0.24
  -1   2   3    8.00    0.35
  -1   2   3    8.82    0.38
  -1   2   3    8.36    0.39
   1   2  -3    8.56    0.41
   1   2  -3    8.47    0.40
   1   2  -3    7.59    0.35
   0  -2  -3   51.63    1.36
   0  -2  -3   55.27    1.27
   0  -2  -3   54.38    1.36
   0  -2  -3   52.82    1.33
   0  -2   3   56.33    1.29
   0  -2   3   56.02    1.35
   0  -2   3   55.86    1.34
   0   2   3   55.50    1.34
   0   2  -3   53.66    1.42
   0   2   3   55.48    1.35
   0   2   3   56.10    1.40
   0   2  -3   59.29    1.47
   0   2  -3   54.44    1.38
   1  -2   3   97.77    2.28
   1  -2   3  100.78    2.39
   1  -2   3  100.07    2.20
  -1  -2  -3   98.40    2.30
  -1  -2  -3   96.58    2.25
  -1  -2  -3   92.62    2.31
  -1  -2  -3   96.03    2.26
   1  -2   3   97.60    2.31
   1   2   3   90.19    2.06
   1   2   3   93.13    2.15
   1   2   3   87.61    2.15
  -1   2  -3   88.76    2.12
   1   2   3   90.13    2.08
  -1   2  -3   88.73    2.17
  -1   2  -3   88.75    2.22
   2  -2   3  101.53    2.27
  -2  -2  -3   99.50    2.29
  -2  -2  -3   97.57    2.34
   2  -2   3  101.72    2.33
   2  -2   3  102.70    2.40
   2  -2   3   96.71    2.47
  -2  -2  -3   96.72    2.40
  -2  -2  -3   99.43    2.34
   2   2   3  104.33    2.38
  -2   2  -3  104.72    2.55
  -2   2  -3  102.08    2.33
  -2   2  -3  103.12    2.48
   2   2   3  104.82    2.44
   2   2   3   98.62    2.38
  -3  -2  -3  122.93    2.79
  -3  -2  -3  123.81    2.97
   3  -2   3  120.77    2.86
   3  -2   3  123.22    3.07
  -3  -2  -3  124.94    2.92
   3  -2   3  126.58    2.97
  -3   2  -3  127.16    3.11
  -3   2  -3  129.61    3.02
   3   2   3  123.59    2.95
   3   2   3  130.54    2.96
  -3   2  -3  124.07    2.89
   3   2   3  126.08    2.85
   3   2   3  123.56    2.94
   4  -2   3   15.50    0.52
   4  -2   3   14.41    0.64
  -4  -2  -3   14.47    0.66
   4  -2   3   15.62    0.75
  -4  -2  -3   15.80    0.62
   4   2   3   16.75    0.47
  -4   2  -3   16.50    0.76
   4   2   3   16.95    0.65
   4   2   3   16.72    0.61
  -4   2  -3   17.19    0.57
   4   2   3   16.24    0.63
  -4   2  -3   16.76    0.66
   5  -2   3  170.92    3.92
  -5  -2  -3  168.55    4.10
  -5  -2  -3  167.95    4.05
   5  -2   3  171.42    4.24
   5  -2   3  173.34    4.09
   5   2   3  179.31    4.16
  -5   2  -3  174.00    4.15
  -5   2  -3  175.70    4.28
   5   2   3  173.11    4.05
  -5   2  -3  170.47    4.04
  -6  -2  -3    4.79    0.47
   6  -2   3    5.08    0.36
   6  -2   3    5.05    0.59
   6  -2   3    4.33    0.48
  -6  -2  -3    4.10    0.50
   6   2   3    5.50    0.44
  -6   2  -3    5.01    0.47
  -6   2  -3    5.14    0.61
  -6   2  -3    4.74    0.42
   6   2   3    4.35    0.48
  -7  -2  -3  119.86    3.10
  -7  -2  -3  121.72    3.16
   7  -2   3  119.23    3.10
   7  -2   3  122.28    3.35
  -7   2  -3  116.75    2.94
  -7   2  -3  117.52    3.02
   7   2   3  118.86    3.10
   7   2   3  115.95    2.89
   8  -2   3   55.37    2.02
  -8  -2  -3   57.08    1.86
   8  -2   3   55.48    1.76
  -8  -2  -3   54.59    1.76
  -8   2  -3   55.35    1.71
  -8   2  -3   58.87    1.80
   8   2   3   56.11    1.65
   8   2   3   58.57    1.88
  -9  -2  -3   11.61    0.87
  -9  -2  -3   14.17    1.03
   9  -2   3   13.10    0.94
   9   2   3   15.41    1.13
  -9   2  -3   14.76    0.94
  -9   2  -3   14.59    1.00
 -10  -2  -3   38.13    1.69
  10  -2   3   41.79    1.66
 -10  -2  -3   46.10    1.86
  10   2   3   36.80    1.76
 -10   2  -3   37.90    1.57
 -10   2  -3   37.29    1.58
 -11  -2  -3   -0.25    0.91
 -11  -2  -3    0.37    0.80
  11  -2   3    0.11    0.69
 -11   2  -3   -0.01    0.70
  11   2   3   -0.11    0.85
 -12  -2  -3   11.39    1.41
 -12  -2  -3   10.75    1.25
 -12   2  -3   12.35    1.19
  12   2   3   13.41    1.43
 -12  -3   3    8.71    1.31
 -12  -3   3    8.71    1.17
  12   3  -3    7.37    1.21
 -11  -3   3    5.89    0.94
  11  -3  -3    4.82    0.83
 -11  -3   3    4.99    1.07
  11   3  -3    5.94    1.01
 -11   3   3    5.02    1.01
 -10  -3   3   28.58    1.57
 -10  -3   3   25.51    1.37
  10  -3  -3   23.18    1.26
 -10   3   3   26.24    1.43
  10   3  -3   27.54    1.54
   9  -3  -3    4.87    0.64
  -9  -3   3    6.39    0.84
   9  -3  -3    6.43    0.68
  -9  -3   3    5.51    0.72
   9   3  -3    4.99    0.75
  -9   3   3    5.50    0.75
   9   3  -3    5.09    0.58
  -9   3   3    5.34    0.60
  -8  -3   3   46.29    1.69
   8  -3  -3   48.36    1.57
   8  -3  -3   46.90    1.54
  -8  -3   3   48.66    1.66
  -8   3   3   42.93    1.34
   8   3  -3   45.02    1.62
   8   3  -3   41.88    1.40
  -8   3   3   41.28    1.49
  -7  -3   3   39.07    1.35
  -7  -3   3   35.49    1.36
   7  -3  -3   35.61    1.28
   7  -3  -3   37.77    1.25
  -7   3   3   32.52    1.35
  -7   3   3   32.84    1.06
  -7   3   3   31.82    1.17
   7   3  -3   33.22    1.27
   7   3  -3   32.36    1.10
  -6  -3   3   19.90    0.89
  -6  -3   3   18.24    0.90
   6  -3  -3   18.62    0.80
   6  -3  -3   18.43    0.84
  -6   3   3   18.82    0.82
  -6   3   3   19.22    0.96
   6   3  -3   20.11    0.78
  -6   3   3   20.59    0.71
   6   3  -3   18.42    0.89
   5  -3  -3   86.40    2.12
  -5  -3   3   81.74    2.15
   5  -3  -3   75.24    2.12
  -5  -3   3   80.47    2.15
  -5   3   3   78.56    2.15
  -5   3   3   77.03    1.90
   5   3  -3   78.15    2.01
  -5   3   3   79.18    2.03
   5   3  -3   79.88    2.11
  -4  -3   3   73.88    1.94
   4  -3  -3   73.97    2.05
  -4  -3   3   74.00    1.96
   4  -3  -3   74.62    1.97
   4  -3  -3   76.11    1.94
   4   3  -3   76.56    2.00
  -4   3   3   74.65    2.03
  -4   3   3   76.39    1.94
   4   3  -3   75.81    1.96
   4   3  -3   78.13    1.95
  -4   3   3   77.72    1.82
   3  -3  -3   76.24    1.93
  -3  -3   3   78.12    1.97
   3  -3  -3   78.34    1.98
  -3  -3   3   73.19    1.74
  -3  -3   3   74.96    1.91
   3   3  -3   63.18    1.63
   3   3  -3   62.23    1.63
  -3   3   3   61.38    1.60
  -3   3   3   62.41    1.49
   3   3  -3   64.21    1.70
   3   3  -3   62.34    1.67
  -3   3   3   66.04    1.69
  -2  -3   3   89.30    2.11
  -2  -3   3   89.23    2.19
   2  -3  -3   86.10    2.16
  -2  -3   3   85.70    2.05
   2  -3  -3   89.95    2.21
   2   3  -3   85.62    2.11
   2   3  -3   89.61    2.13
  -2   3   3   82.69    1.97
  -2   3   3   83.51    2.15
   2   3  -3   86.19    2.18
  -2   3   3   85.70    2.11
   2   3  -3   89.57    2.15
  -2   3   3   84.66    2.07
   1  -3  -3  205.84    4.83
  -1  -3   3  207.57    4.76
   1  -3  -3  203.48    4.80
  -1  -3   3  212.02    4.83
  -1  -3   3  213.53    4.80
  -1  -3   3  217.48    4.71
  -1   3   3  213.88    4.89
  -1   3   3  203.09    4.80
   1   3  -3  238.36    5.04
  -1   3   3  210.41    4.87
   1   3  -3  215.05    4.98
  -1   3   3  207.69    4.90
   1   3  -3  210.76    4.93
   1   3  -3  224.51    4.97
   0  -3   3   68.94    1.70
   0  -3  -3   66.15    1.60
   0  -3  -3   67.26    1.68
   0  -3  -3   67.12    1.72
   0  -3   3   69.40    1.70
   0  -3  -3   68.42    1.70
   0  -3   3   68.80    1.56
   0   3  -3   66.81    1.73
   0   3   3   64.87    1.66
   0   3  -3   66.59    1.67
   0   3   3   67.91    1.58
   0   3   3   66.31    1.57
   0   3  -3   65.25    1.72
   0   3   3   63.45    1.56
  -1  -3  -3   95.86    2.32
   1  -3   3   99.91    2.36
  -1  -3  -3   97.92    2.31
   1  -3   3   95.35    2.32
  -1  -3  -3   97.35    2.26
  -1  -3  -3   91.74    2.32
   1   3   3   85.32    2.14
  -1   3  -3   85.47    2.14
   1   3   3   87.81    2.00
   1   3   3   87.86    2.01
  -1   3  -3   86.12    2.18
  -1   3  -3   92.22    2.23
  -2  -3  -3  170.24    3.91
   2  -3   3  171.47    3.96
  -2  -3  -3  167.60    3.93
   2  -3   3  172.00    4.01
  -2  -3  -3  171.97    3.99
  -2  -3  -3  172.38    3.94
   2   3   3  170.18    3.78
   2   3   3  170.71    3.93
   2   3   3  163.29    3.79
  -2   3  -3  171.14    4.05
  -2   3  -3  170.56    3.98
   3  -3   3   41.99    1.15
   3  -3   3   42.87    1.24
   3  -3   3   41.58    1.01
  -3  -3  -3   42.45    1.09
  -3  -3  -3   40.14    1.23
  -3  -3  -3   41.96    1.19
  -3  -3  -3   40.91    1.12
   3  -3   3   41.92    1.32
  -3   3  -3   44.83    1.39
   3   3   3   47.51    1.18
   3   3   3   45.42    1.19
   3   3   3   45.28    1.16
   3   3   3   45.67    1.25
  -3   3  -3   46.70    1.32
  -3   3  -3   46.21    1.10
  -4  -3  -3   98.34    2.31
   4  -3   3  104.71    2.68
   4  -3   3   98.24    2.43
  -4  -3  -3  101.74    2.51
   4  -3   3   95.55    2.53
  -4  -3  -3   99.57    2.54
   4   3   3  102.33    2.46
   4   3   3  101.20    2.44
  -4   3  -3  100.72    2.37
   4   3   3   98.87    2.38
  -4   3  -3  104.95    2.58
   4   3   3  101.62    2.47
  -4   3  -3  104.49    2.69
   5  -3   3    1.37    0.42
  -5  -3  -3    2.01    0.37
   5  -3   3    1.70    0.36
   5  -3   3    2.07    0.29
  -5  -3  -3    1.92    0.40
   5   3   3    1.75    0.31
  -5   3  -3    1.88    0.35
   5   3   3    2.10    0.31
  -5   3  -3    1.61    0.27
   5   3   3    1.13    0.33
   5   3   3    1.50    0.23
  -5   3  -3    1.83    0.47
  -6  -3  -3   58.94    1.79
   6  -3   3   60.74    2.18
  -6  -3  -3   57.65    1.73
   6  -3   3   59.37    1.75
   6  -3   3   57.17    1.57
  -6   3  -3   55.70    1.64
   6   3   3   54.80    1.52
  -6   3  -3   54.50    1.49
   6   3   3   57.48    1.63
  -6   3  -3   55.49    1.83
  -7  -3  -3   15.39    0.91
  -7  -3  -3   14.77    0.96
   7  -3   3   14.48    0.80
   7  -3   3   13.37    0.85
   7   3   3   15.31    0.87
  -7   3  -3   16.81    0.84
   7   3   3   15.57    0.76
  -7   3  -3   15.90    0.79
  -8  -3  -3   35.99    1.51
  -8  -3  -3   36.53    1.43
   8  -3   3   36.14    1.41
  -8   3  -3   36.42    1.38
   8   3   3   36.81    1.43
   9  -3   3   34.95    1.48
  -9  -3  -3   35.64    1.62
  -9  -3  -3   34.56    1.50
  -9   3  -3   35.28    1.44
   9   3   3   34.09    1.51
 -10  -3  -3    0.47    0.82
  10  -3   3    1.36    0.66
 -10  -3  -3    0.98    0.72
 -10   3  -3    0.54    0.63
  10   3   3    0.87    0.71
 -11  -3  -3   25.98    1.66
 -11  -3  -3   21.73    1.55
  11  -3   3   22.45    1.52
  11   3   3   24.19    1.68
 -11   3  -3   23.97    1.49
 -11  -4   3   12.70    1.34
 -11  -4   3   11.57    1.16
  11  -4  -3   11.71    1.10
  11   4  -3   12.10    1.22
 -10  -4   3    7.90    1.07
  10  -4  -3    8.11    0.90
  10  -4  -3    9.17    0.91
 -10  -4   3    9.03    1.00
  10   4  -3    6.54    0.93
   9  -4  -3   46.99    1.71
  -9  -4   3   46.55    1.91
   9  -4  -3   46.45    1.71
  -9  -4   3   48.26    1.82
   9   4  -3   47.97    1.65
   9   4  -3   49.32    1.87
  -9   4   3   45.25    2.25
   8  -4  -3    3.11    0.56
  -8  -4   3    2.65    0.67
  -8  -4   3    3.19    0.63
   8  -4  -3    1.81    0.53
  -8   4   3    3.44    0.64
   8   4  -3    3.91    0.64
   8   4  -3    2.95    0.52
  -8   4   3    3.89    0.82
   7  -4  -3   57.11    1.76
   7  -4  -3   57.47    1.79
  -7  -4   3   52.43    1.80
  -7  -4   3   58.36    1.84
  -7   4   3   49.75    1.59
   7   4  -3   54.79    1.72
  -7   4   3   51.59    1.84
   7   4  -3   51.13    1.54
  -6  -4   3   57.12    1.77
   6  -4  -3   55.47    1.74
  -6  -4   3   58.04    1.76
   6  -4  -3   56.92    1.70
  -6   4   3   51.97    1.55
   6   4  -3   55.99    1.56
  -6   4   3   50.88    1.74
  -6   4   3   52.99    1.45
   6   4  -3   55.47    1.66
   5  -4  -3    9.65    0.64
   5  -4  -3   10.27    0.67
  -5  -4   3   10.52    0.72
  -5  -4   3   10.06    0.70
  -5   4   3   14.42    0.60
  -5   4   3   14.82    0.83
   5   4  -3   14.23    0.68
  -5   4   3   13.35    0.68
  -4  -4   3   83.22    2.21
   4  -4  -3   81.16    2.17
   4  -4  -3   84.19    2.23
  -4  -4   3   80.78    2.13
   4   4  -3   83.26    2.13
   4   4  -3   84.20    2.24
  -4   4   3   82.62    1.99
   4   4  -3   82.46    2.16
  -4   4   3   80.54    2.21
  -4   4   3   82.76    2.09
   3  -4  -3    2.67    0.38
  -3  -4   3    3.93    0.43
   3  -4  -3    3.07    0.36
  -3  -4   3    3.35    0.35
  -3  -4   3    3.63    0.27
   3   4  -3    2.48    0.34
   3   4  -3    1.80    0.30
   3   4  -3    2.34    0.32
   3   4  -3    2.94    0.41
  -3   4   3    2.13    0.32
  -3   4   3    2.72    0.32
  -3   4   3    1.71    0.24
  -2  -4   3  107.37    2.66
  -2  -4   3  110.12    2.73
   2  -4  -3  112.58    2.76
   2  -4  -3  106.26    2.71
  -2  -4   3  110.93    2.60
  -2  -4   3  111.09    2.61
  -2   4   3  102.43    2.66
  -2   4   3  105.47    2.50
   2   4  -3  108.98    2.73
  -2   4   3  108.23    2.61
   2   4  -3  107.67    2.62
   2   4  -3  109.85    2.66
  -2   4   3  108.54    2.57
   2   4  -3  108.88    2.65
  -1  -4   3    0.92    0.23
   1  -4  -3    1.02    0.27
  -1  -4   3    0.81    0.23
   1  -4  -3    0.63    0.24
  -1  -4   3    0.98    0.20
   1   4  -3    1.29    0.32
   1   4  -3    0.86    0.25
  -1   4   3    1.21    0.26
  -1   4   3    1.05    0.24
   1   4  -3    1.49    0.32
  -1   4   3    1.10    0.20
  -1   4   3    1.12    0.22
   1   4  -3    1.14    0.26
   0  -4   3  156.06    3.72
   0  -4  -3  153.89    3.73
   0  -4  -3  159.63    3.61
   0  -4   3  155.86    3.72
   0  -4  -3  162.16    3.67
   0  -4  -3  157.65    3.73
   0   4  -3  161.28    3.78
   0   4   3  155.83    3.61
   0   4  -3  163.97    3.81
   0   4  -3  160.37    3.82
   0   4  -3  160.49    3.80
   0   4   3  154.17    3.64
   0   4   3  161.18    3.72
   0   4   3  155.53    3.66
  -1  -4  -3   34.74    0.99
   1  -4   3   35.90    1.10
  -1  -4  -3   35.49    1.06
   1  -4   3   34.69    1.07
  -1  -4  -3   36.42    1.07
  -1  -4  -3   36.15    1.05
   1   4   3   32.99    0.83
  -1   4  -3   34.51    1.11
   1   4   3   34.00    1.03
  -1   4  -3   35.05    1.09
  -1   4  -3   33.85    1.05
   2  -4   3   63.96    1.66
  -2  -4  -3   62.46    1.66
   2  -4   3   59.77    1.70
  -2  -4  -3   62.33    1.62
  -2  -4  -3   62.23    1.61
  -2  -4  -3   60.24    1.61
  -2   4  -3   66.98    1.83
  -2   4  -3   65.93    1.77
   2   4   3   63.47    1.50
   2   4   3   62.88    1.48
   2   4   3   67.12    1.72
   2   4   3   65.35    1.74
  -3  -4  -3   51.90    1.50
  -3  -4  -3   50.87    1.45
  -3  -4  -3   51.77    1.39
   3  -4   3   51.71    1.53
  -3  -4  -3   51.88    1.39
   3  -4   3   53.62    1.46
   3   4   3   46.62    1.29
   3   4   3   45.72    1.14
   3   4   3   49.60    1.33
  -3   4  -3   47.46    1.40
   3   4   3   44.50    1.14
  -3   4  -3   47.85    1.48
  -4  -4  -3    3.68    0.35
  -4  -4  -3    2.95    0.39
  -4  -4  -3    2.86    0.44
  -4  -4  -3    3.23    0.32
   4  -4   3    3.72    0.45
   4  -4   3    4.13    0.40
  -4   4  -3    2.88    0.40
   4   4   3    2.57    0.33
   4   4   3    2.06    0.31
  -4   4  -3    3.63    0.52
   4   4   3    2.56    0.27
   4   4   3    2.31    0.27
  -5  -4  -3   99.79    2.64
   5  -4   3  101.41    2.57
  -5  -4  -3  104.43    2.71
   5  -4   3  101.22    2.71
  -5   4  -3  104.91    2.89
   5   4   3  107.30    2.58
   5   4   3   99.38    2.59
   5   4   3  108.14    2.60
  -5   4  -3  107.12    2.73
   5   4   3  104.78    2.53
   6  -4   3    0.44    0.29
   6  -4   3    0.43    0.38
  -6  -4  -3    0.38    0.41
  -6  -4  -3    0.03    0.44
  -6   4  -3    0.07    0.35
   6   4   3    0.08    0.33
  -6   4  -3    0.04    0.51
   6   4   3    0.16    0.32
   7  -4   3   64.24    1.80
   7  -4   3   64.42    2.00
  -7  -4  -3   64.88    2.05
  -7  -4  -3   60.80    1.97
  -7   4  -3   63.96    1.94
   7   4   3   64.68    1.89
  -8  -4  -3   23.10    1.25
  -8  -4  -3   23.68    1.33
   8  -4   3   23.93    1.22
  -8   4  -3   23.56    1.11
   8   4   3   22.83    1.13
   9  -4   3    6.57    0.82
  -9  -4  -3    5.07    0.80
  -9  -4  -3    7.68    0.97
   9   4   3    6.18    0.79
  -9   4  -3    5.33    0.73
 -10  -4  -3   24.63    1.67
 -10  -4  -3   23.67    1.49
  10  -4   3   27.51    1.51
  10   4   3   23.49    1.45
 -10   4  -3   25.74    1.41
  11  -4   3    7.14    1.04
 -11  -4  -3    4.62    1.17
 -11  -4  -3    5.14    1.06
  11   4   3    5.02    1.02
 -11   4  -3    5.04    0.93
  11  -5  -3   12.66    1.24
 -11  -5   3   12.61    1.46
  11  -5  -3   12.00    1.22
 -11  -5   3   12.95    1.32
  11   5  -3   12.11    1.24
  10  -5  -3   11.31    1.08
 -10  -5   3    9.78    1.11
  10  -5  -3   11.58    1.09
 -10  -5   3   11.79    1.27
  10   5  -3    8.76    1.01
   9  -5  -3    0.26    0.63
  -9  -5   3    0.42    0.81
  -9  -5   3    0.44    0.72
   9  -5  -3    0.47    0.63
   9   5  -3   -0.09    0.59
   9   5  -3    0.24    0.63
  -8  -5   3   32.49    1.52
   8  -5  -3   33.90    1.45
   8  -5  -3   33.62    1.45
  -8  -5   3   31.40    1.56
  -8   5   3   31.86    1.69
   8   5  -3   29.85    1.25
   8   5  -3   32.25    1.41
   7  -5  -3   15.90    1.03
  -7  -5   3   16.43    1.12
   7  -5  -3   17.88    1.05
  -7  -5   3   16.21    1.06
   7   5  -3   16.99    0.93
  -7   5   3   18.65    1.24
  -6  -5   3   44.41    1.55
  -6  -5   3   44.09    1.52
   6  -5  -3   40.93    1.49
   6  -5  -3   41.45    1.53
   6   5  -3   44.45    1.48
  -6   5   3   43.90    1.65
   6   5  -3   43.42    1.58
   6   5  -3   43.65    1.41
   5  -5  -3   12.50    0.82
  -5  -5   3   12.39    0.84
  -5  -5   3   13.63    0.84
   5  -5  -3   12.61    0.83
   5   5  -3   14.34    0.75
  -5   5   3   11.85    0.71
   5   5  -3   12.72    0.75
  -5   5   3   13.29    0.89
   5   5  -3   13.38    0.87
   4  -5  -3   24.99    1.04
   4  -5  -3   23.95    1.05
  -4  -5   3   25.44    1.04
  -4  -5   3   24.97    0.98
  -4   5   3   28.14    1.08
  -4   5   3   25.26    1.03
   4   5  -3   24.54    0.96
  -4   5   3   25.03    0.91
   4   5  -3   25.43    0.96
   4   5  -3   25.16    1.08
   3  -5  -3   79.11    2.15
   3  -5  -3   76.68    2.09
  -3  -5   3   74.11    2.09
  -3  -5   3   74.14    1.88
  -3  -5   3   75.62    2.00
  -3  -5   3   76.01    1.97
  -3   5   3   75.35    1.90
   3   5  -3   75.04    2.01
   3   5  -3   77.54    2.05
  -3   5   3   74.34    1.93
   3   5  -3   77.33    2.16
  -3   5   3   77.90    2.06
   2  -5  -3   17.29    0.81
  -2  -5   3   18.50    0.71
   2  -5  -3   18.81    0.84
  -2  -5   3   18.49    0.69
  -2  -5   3   17.27    0.74
  -2  -5   3   18.52    0.83
  -2   5   3   17.37    0.67
   2   5  -3   17.15    0.78
  -2   5   3   16.00    0.67
  -2   5   3   17.85    0.72
   2   5  -3   17.54    0.85
   2   5  -3   17.64    0.75
   1  -5  -3   76.43    2.09
   1  -5  -3   76.29    2.07
  -1  -5   3   76.90    1.85
  -1  -5   3   77.66    2.04
  -1  -5   3   79.37    2.03
   1   5  -3   71.70    1.98
  -1   5   3   73.07    1.89
   1   5  -3   73.77    1.97
  -1   5   3   70.90    1.85
  -1   5   3   74.36    1.88
  -1   5   3   73.86    1.86
   1   5  -3   76.19    2.06
   0  -5   3   42.75    1.28
   0  -5  -3   41.50    1.29
   0  -5   3   42.01    1.28
   0  -5  -3   39.75    1.15
   0  -5  -3   41.94    1.30
   0   5   3   42.86    1.16
   0   5   3   41.45    1.11
   0   5   3   42.51    1.24
   0   5   3   42.28    1.22
   0   5  -3   44.55    1.38
   0   5  -3   42.74    1.32
   0   5  -3   41.20    1.31
  -1  -5  -3   45.21    1.38
   1  -5   3   47.23    1.39
  -1  -5  -3   45.20    1.32
  -1  -5  -3   45.57    1.29
  -1  -5  -3   47.07    1.38
   1  -5   3   47.44    1.42
  -1   5  -3   45.64    1.42
   1   5   3   44.40    1.31
   1   5   3   45.00    1.32
   1   5   3   44.93    1.13
  -1   5  -3   46.05    1.42
   1   5   3   44.71    1.10
  -1   5  -3   45.60    1.38
  -2  -5  -3   97.55    2.46
   2  -5   3   96.50    2.54
   2  -5   3   94.89    2.49
  -2  -5  -3   99.32    2.46
  -2  -5  -3   97.28    2.43
  -2  -5  -3   93.48    2.43
  -2   5  -3   89.80    2.44
   2   5   3   88.47    2.33
  -2   5  -3   93.61    2.41
   3  -5   3    0.87    0.35
  -3  -5  -3    0.64    0.33
   3  -5   3    0.39    0.29
  -3  -5  -3    0.55    0.36
  -3  -5  -3    0.56    0.31
  -3  -5  -3    0.35    0.28
   3   5   3    0.27    0.35
   3   5   3    0.33    0.32
   3   5   3    0.32    0.13
   3   5   3    0.48    0.33
  -3   5  -3    0.32    0.36
   3   5   3    0.36    0.13
  -3   5  -3    0.29    0.33
  -4  -5  -3   22.96    0.86
  -4  -5  -3   23.91    1.04
   4  -5   3   22.52    0.92
   4  -5   3   25.20    1.06
  -4  -5  -3   24.46    0.99
  -4  -5  -3   22.92    0.86
  -4   5  -3   22.92    0.96
   4   5   3   20.50    0.65
   4   5   3   21.90    0.66
   4   5   3   22.14    0.85
  -4   5  -3   22.30    1.08
   4   5   3   22.29    0.86
  -5  -5  -3    3.17    0.57
  -5  -5  -3    3.93    0.43
   5  -5   3    4.44    0.58
   5  -5   3    3.84    0.47
  -5  -5  -3    2.98    0.52
  -5  -5  -3    3.02    0.39
   5   5   3    3.11    0.41
  -5   5  -3    3.37    0.50
   5   5   3    3.18    0.34
  -5   5  -3    4.35    0.65
   5   5   3    3.16    0.40
   5   5   3    3.85    0.45
   6  -5   3   27.23    1.21
  -6  -5  -3   25.43    1.23
   6  -5   3   24.73    1.02
  -6  -5  -3   22.58    1.16
  -6   5  -3   26.22    1.13
  -6   5  -3   23.92    1.30
   6   5   3   26.10    1.03
   6   5   3   24.86    0.93
  -7  -5  -3    3.19    0.66
   7  -5   3    3.17    0.51
  -7  -5  -3    3.53    0.72
   7  -5   3    2.62    0.59
  -7   5  -3    2.76    0.57
  -7   5  -3    4.51    0.89
   7   5   3    3.40    0.51
  -8  -5  -3   14.26    1.06
  -8  -5  -3   15.38    1.16
   8  -5   3   12.11    1.00
  -8   5  -3   13.60    0.94
   8   5   3   11.00    0.90
  -9  -5  -3   28.36    1.66
  -9  -5  -3   25.24    1.54
   9  -5   3   24.77    1.46
   9   5   3   27.12    1.36
  -9   5  -3   27.77    1.42
 -10  -5  -3    1.57    0.93
 -10  -5  -3    1.05    1.00
  10  -5   3    0.83    0.78
 -10   5  -3    2.45    0.81
  10   5   3    1.92    0.80
 -10  -6   3    4.02    1.07
  10  -6  -3    3.78    0.97
 -10  -6   3    4.52    1.19
  10  -6  -3    3.42    0.98
  10   6  -3    4.17    0.99
   9  -6  -3   28.07    1.61
  -9  -6   3   30.59    1.83
  -9  -6   3   28.83    1.71
   9  -6  -3   25.94    1.55
   9   6  -3   31.66    1.84
   9   6  -3   30.50    1.65
  -8  -6   3    1.29    0.78
   8  -6  -3    2.62    0.74
   8  -6  -3    2.32    0.73
  -8  -6   3    2.63    0.87
   8   6  -3    2.77    0.84
   8   6  -3    3.24    0.72
   8   6  -3    2.75    0.64
  -8   6   3    2.31    0.92
   7  -6  -3   35.24    1.54
  -7  -6   3   31.61    1.53
   7  -6  -3   34.82    1.52
  -7  -6   3   31.32    1.53
   7   6  -3   28.56    1.32
  -7   6   3   30.97    1.63
   7   6  -3   30.22    1.24
   7   6  -3   28.83    1.54
  -6  -6   3   28.00    1.30
   6  -6  -3   27.60    1.28
  -6  -6   3   26.18    1.31
   6  -6  -3   25.92    1.30
   6   6  -3   23.97    1.32
   6   6  -3   26.18    1.14
   6   6  -3   25.47    1.12
  -6   6   3   26.06    1.37
   5  -6  -3   17.14    1.03
   5  -6  -3   15.83    1.03
  -5  -6   3   16.57    1.06
  -5  -6   3   16.49    0.98
   5   6  -3   15.92    1.13
   5   6  -3   15.94    0.91
   5   6  -3   18.35    0.91
  -5   6   3   18.49    1.09
   4  -6  -3   21.80    1.09
   4  -6  -3   21.48    1.06
  -4  -6   3   21.35    0.99
  -4  -6   3   23.01    1.09
  -4   6   3   23.36    1.07
   4   6  -3   22.11    1.01
   4   6  -3   23.87    0.96
   4   6  -3   23.01    1.16
  -3  -6   3    4.13    0.46
  -3  -6   3    4.24    0.53
   3  -6  -3    2.63    0.49
  -3  -6   3    3.81    0.55
   3  -6  -3    3.89    0.53
   3   6  -3    4.57    0.52
   3   6  -3    3.87    0.60
  -3   6   3    4.61    0.51
   3   6  -3    5.10    0.49
  -2  -6   3   83.75    2.17
  -2  -6   3   82.10    2.30
  -2  -6   3   78.94    2.21
   2  -6  -3   82.71    2.33
   2  -6  -3   84.69    2.31
   2   6  -3   77.97    2.26
  -2   6   3   75.61    1.99
  -2   6   3   76.89    2.06
   2   6  -3   78.38    2.11
   2   6  -3   77.83    2.17
   1  -6  -3    4.26    0.52
  -1  -6   3    5.10    0.51
  -1  -6   3    4.37    0.48
   1  -6  -3    4.02    0.51
   1   6  -3    4.19    0.48
   1   6  -3    4.11    0.50
  -1   6   3    3.93    0.39
  -1   6   3    3.36    0.45
   1   6  -3    2.97    0.51
  -1   6   3    4.15    0.44
   0  -6  -3   44.63    1.44
   0  -6   3   44.64    1.43
   0  -6  -3   45.75    1.46
   0  -6   3   43.19    1.43
   0   6   3   47.12    1.25
   0   6  -3   47.92    1.51
   0   6  -3   47.79    1.48
   0   6   3   46.89    1.39
   0   6   3   43.13    1.38
   0   6  -3   44.31    1.52
   0   6   3   46.42    1.31
  -1  -6  -3   22.90    0.96
   1  -6   3   23.83    1.01
  -1  -6  -3   22.80    0.89
   1  -6   3   24.09    0.99
  -1  -6  -3   23.36    1.00
  -1  -6  -3   23.38    0.90
   1   6   3   20.44    0.92
  -1   6  -3   23.03    1.00
   1   6   3   22.34    0.66
  -1   6  -3   22.19    0.99
   1   6   3   22.17    0.71
  -1   6  -3   23.63    1.02
   1   6   3   21.56    0.91
  -2  -6  -3    3.56    0.48
   2  -6   3    3.79    0.53
  -2  -6  -3    3.79    0.47
  -2  -6  -3    4.03    0.49
  -2  -6  -3    4.18    0.47
   2  -6   3    4.76    0.52
   2   6   3    4.56    0.54
  -2   6  -3    5.36    0.59
   2   6   3    4.64    0.28
   2   6   3    5.49    0.55
   2   6   3    4.97    0.24
  -2   6  -3    5.27    0.57
  -3  -6  -3   49.11    1.53
   3  -6   3   49.44    1.56
  -3  -6  -3   46.92    1.54
  -3  -6  -3   48.34    1.45
  -3  -6  -3   48.35    1.49
   3  -6   3   48.20    1.64
   3   6   3   46.88    1.47
   3   6   3   46.79    1.48
  -3   6  -3   46.67    1.55
   3   6   3   46.98    1.50
  -3   6  -3   44.02    1.60
   3   6   3   46.26    1.51
  -4  -6  -3    1.30    0.50
  -4  -6  -3    1.10    0.47
  -4  -6  -3    1.18    0.42
   4  -6   3    1.29    0.47
  -4  -6  -3    1.37    0.40
   4  -6   3    1.03    0.39
  -4   6  -3    1.32    0.54
   4   6   3    0.83    0.49
   4   6   3    1.12    0.42
  -4   6  -3    1.12    0.43
   4   6   3    1.08    0.43
  -5  -6  -3   38.75    1.28
  -5  -6  -3   35.22    1.20
  -5  -6  -3   36.38    1.44
  -5  -6  -3   37.13    1.48
   5  -6   3   35.68    1.46
   5  -6   3   35.64    1.32
   5   6   3   31.63    0.95
  -5   6  -3   33.17    1.31
  -5   6  -3   33.52    1.50
   5   6   3   32.27    1.28
   5   6   3   35.80    1.23
   5   6   3   34.42    0.96
  -6  -6  -3    4.38    0.71
  -6  -6  -3    5.29    0.78
   6  -6   3    6.59    0.77
   6  -6   3    5.24    0.62
  -6   6  -3    6.31    0.69
   6   6   3    5.25    0.47
  -6   6  -3    5.84    0.90
  -7  -6  -3   45.42    1.84
  -7  -6  -3   40.75    1.70
   7  -6   3   42.57    1.54
   7  -6   3   41.15    1.74
   7   6   3   42.05    1.37
  -7   6  -3   40.26    1.58
  -7   6  -3   42.22    1.97
  -8  -6  -3    9.44    1.03
   8  -6   3    9.27    1.01
  -8  -6  -3    9.38    1.11
  -8   6  -3   10.39    0.93
   8   6   3   11.02    0.81
  -9  -6  -3    6.71    1.13
   9  -6   3    7.03    1.03
  -9  -6  -3    6.05    1.05
  -9   6  -3    6.50    0.89
   9   6   3    7.43    0.83
  -9  -7   3    2.26    1.07
   9  -7  -3    2.78    0.99
   9  -7  -3    2.47    0.94
  -9  -7   3    2.96    1.15
   9   7  -3    2.81    0.92
   9   7  -3    3.57    1.15
  -9   7   3    2.10    1.35
  -8  -7   3   16.45    1.35
   8  -7  -3   12.73    1.17
   8  -7  -3   17.70    1.32
  -8  -7   3   15.43    1.30
   8   7  -3   14.30    1.05
  -8   7   3   18.02    1.47
   8   7  -3   14.56    1.35
   8   7  -3   17.03    1.32
   7  -7  -3    7.57    0.95
  -7  -7   3    7.00    0.99
  -7  -7   3    7.28    1.00
   7  -7  -3   10.17    1.03
  -7   7   3    8.18    1.09
   7   7  -3    7.17    0.81
   7   7  -3    8.52    0.86
   7   7  -3    8.04    1.11
   6  -7  -3   15.84    1.17
  -6  -7   3   14.54    1.12
   6  -7  -3   17.89    1.20
  -6   7   3   13.56    1.11
   6   7  -3   15.55    1.02
   6   7  -3   14.11    0.96
   6   7  -3   13.95    1.18
   5  -7  -3   10.60    0.93
  -5  -7   3    8.41    0.89
   5  -7  -3    8.43    0.88
   5   7  -3    7.07    0.90
  -5   7   3    8.14    0.86
   5   7  -3    9.89    0.81
   5   7  -3    8.94    0.71
   4  -7  -3   13.78    1.01
  -4  -7   3   13.43    0.97
   4  -7  -3   13.25    0.98
  -4   7   3   12.10    0.97
   4   7  -3   11.14    0.98
   4   7  -3   11.25    0.81
   4   7  -3   12.71    0.89
  -3  -7   3   40.11    1.53
   3  -7  -3   40.47    1.55
   3  -7  -3   40.21    1.56
  -3  -7   3   41.56    1.44
   3   7  -3   39.64    1.58
   3   7  -3   37.04    1.33
  -3   7   3   37.57    1.37
   3   7  -3   36.27    1.40
  -2  -7   3    1.08    0.47
   2  -7  -3    0.83    0.48
   2  -7  -3    1.53    0.53
  -2  -7   3    0.91    0.44
   2   7  -3    1.31    0.58
   2   7  -3    1.02    0.43
  -2   7   3    1.02    0.40
   2   7  -3    1.45    0.50
   1  -7  -3   40.99    1.53
   1  -7  -3   40.81    1.52
  -1  -7   3   45.93    1.48
  -1  -7   3   39.97    1.44
   1   7  -3   40.33    1.41
   1   7  -3   40.12    1.56
   1   7  -3   42.67    1.51
  -1   7   3   40.55    1.28
   0  -7   3    5.18    0.61
   0  -7  -3    5.52    0.63
   0  -7  -3    5.50    0.64
   0  -7   3    5.70    0.62
   0   7  -3    6.21    0.66
   0   7   3    5.99    0.75
   0   7  -3    5.84    0.68
   0   7   3    5.85    0.45
   0   7  -3    6.39    0.64
  -1  -7  -3   11.48    0.78
   1  -7   3   12.68    0.89
  -1  -7  -3   11.39    0.84
   1  -7   3   12.77    0.88
  -1  -7  -3   12.73    0.84
  -1   7  -3   12.96    0.89
   1   7   3   13.27    0.90
  -1   7  -3   11.41    0.87
   1   7   3   11.33    0.53
  -1   7  -3   13.17    0.90
   1   7   3   13.11    0.85
  -2  -7  -3   45.12    1.55
  -2  -7  -3   44.16    1.46
  -2  -7  -3   41.84    1.46
   2  -7   3   45.92    1.56
  -2  -7  -3   44.58    1.49
   2  -7   3   43.36    1.61
  -2   7  -3   46.74    1.59
   2   7   3   46.92    1.59
  -2   7  -3   44.21    1.62
   2   7   3   42.41    1.12
  -2   7  -3   45.45    1.61
   2   7   3   49.57    1.54
   2   7   3   44.43    1.09
   3  -7   3    7.30    0.75
  -3  -7  -3    5.87    0.60
  -3  -7  -3    5.26    0.63
  -3  -7  -3    6.60    0.68
   3  -7   3    5.68    0.65
  -3  -7  -3    4.62    0.63
  -3   7  -3    8.13    0.82
  -3   7  -3    7.94    0.77
   3   7   3    7.27    0.76
   3   7   3    8.02    0.75
   3   7   3    8.29    0.76
   3   7   3    7.21    0.71
  -4  -7  -3   14.15    0.87
  -4  -7  -3   12.93    0.92
   4  -7   3   13.76    0.94
  -4  -7  -3   13.95    1.03
   4  -7   3   14.91    1.06
  -4  -7  -3   16.02    1.06
   4   7   3   12.96    0.87
   4   7   3   12.43    0.95
  -4   7  -3   12.79    0.92
   4   7   3   12.41    0.92
   4   7   3   13.26    0.93
  -4   7  -3   14.18    1.13
  -5  -7  -3    0.17    0.61
   5  -7   3    0.68    0.57
  -5  -7  -3    0.17    0.64
   5  -7   3    0.49    0.51
   5   7   3    0.20    0.63
  -5   7  -3    0.09    0.53
  -5   7  -3    0.03    0.68
   5   7   3    0.05    0.64
  -6  -7  -3   12.24    1.07
   6  -7   3   12.74    1.07
   6  -7   3   12.29    0.94
  -6  -7  -3   10.72    1.02
  -6   7  -3   13.46    1.24
  -6   7  -3   11.95    0.95
   7  -7   3   11.04    0.96
   7  -7   3   13.02    1.15
  -7  -7  -3    9.19    1.07
  -7  -7  -3   11.13    1.16
  -7   7  -3   10.91    1.27
  -7   7  -3    9.95    0.93
   7   7   3    9.81    0.73
   8  -7   3    9.79    1.12
  -8  -7  -3    9.44    1.20
  -8  -7  -3   10.46    1.25
  -8   7  -3    9.20    0.99
   8   7   3    9.57    0.74
   7  -8  -3   11.94    1.23
  -7  -8   3    9.71    1.24
   7  -8  -3   12.58    1.21
   7   8  -3   12.55    1.42
   7   8  -3   11.54    0.99
   7   8  -3   12.12    1.06
  -7   8   3   14.70    1.36
   6  -8  -3   11.35    1.12
   6  -8  -3   12.12    1.19
  -6  -8   3    8.98    1.11
   6   8  -3    9.75    1.23
   6   8  -3   11.34    1.00
  -6   8   3    9.02    1.09
   6   8  -3   12.21    0.94
  -5  -8   3    6.32    0.94
   5  -8  -3    6.97    0.96
   5  -8  -3    4.49    0.85
   5   8  -3    7.05    1.06
  -5   8   3    8.12    1.00
   5   8  -3    6.50    0.82
   5   8  -3    6.98    0.74
  -4  -8   3   24.94    1.42
   4  -8  -3   25.86    1.49
   4  -8  -3   24.29    1.40
   4   8  -3   24.84    1.19
  -4   8   3   24.56    1.36
   4   8  -3   26.12    1.55
   4   8  -3   23.24    1.28
  -3  -8   3    2.35    0.60
   3  -8  -3    2.49    0.71
   3  -8  -3    1.45    0.63
   3   8  -3    1.31    0.54
  -3   8   3    1.09    0.57
   3   8  -3    1.40    0.79
   3   8  -3    1.73    0.62
   2  -8  -3   10.85    0.93
   2  -8  -3    9.73    0.93
  -2  -8   3   10.87    0.86
  -2   8   3   10.29    0.86
   2   8  -3   10.06    0.81
   2   8  -3   12.54    0.96
   2   8  -3   10.51    1.01
   1  -8  -3    6.04    0.77
   1  -8  -3    7.42    0.84
  -1  -8   3    6.04    0.73
  -1  -8   3    7.53    0.77
   1   8  -3    7.70    0.75
   1   8  -3    6.74    0.87
   1   8  -3    6.53    0.78
  -1   8   3    7.24    0.62
   0  -8   3   11.93    0.93
   0  -8  -3    9.92    0.86
   0  -8   3   14.77    0.97
   0  -8  -3   10.55    0.92
   0   8  -3    9.06    0.85
   0   8  -3   10.38    0.86
   0   8   3   10.48    0.69
   0   8  -3    9.74    0.92
  -1  -8  -3   12.10    0.91
   1  -8   3   10.59    0.91
  -1  -8  -3   13.16    0.98
   1  -8   3   14.82    1.01
   1   8   3   12.95    0.63
  -1   8  -3   14.68    1.05
  -1   8  -3   15.01    1.04
  -1   8  -3   12.87    0.98
  -2  -8  -3   15.61    1.05
   2  -8   3   15.49    1.11
   2  -8   3   15.50    1.08
  -2  -8  -3   16.39    1.15
  -2   8  -3   18.14    1.19
  -2   8  -3   18.34    1.17
   2   8   3   16.70    1.09
  -2   8  -3   16.69    1.19
   2   8   3   15.72    0.54
  -3  -8  -3   10.20    0.81
  -3  -8  -3   11.14    0.90
  -3  -8  -3   10.81    0.89
   3  -8   3   10.92    0.91
   3  -8   3   11.61    1.01
   3   8   3   10.92    1.00
  -3   8  -3   11.46    0.97
  -3   8  -3   11.43    1.02
   3   8   3   10.77    0.91
   3   8   3   12.02    0.96
  -3   8  -3   10.55    0.93
   4  -8   3    3.91    0.71
   4  -8   3    4.07    0.79
  -4  -8  -3    3.27    0.69
  -4  -8  -3    3.14    0.76
  -4   8  -3    4.85    0.92
   4   8   3    3.53    0.75
  -4   8  -3    4.55    0.76
   4   8   3    4.50    0.86
  -5  -8  -3   12.98    1.13
  -5  -8  -3   11.67    1.08
   5  -8   3   10.34    1.06
   5  -8   3   12.69    1.00
  -5   8  -3   10.76    0.97
  -5   8  -3   12.80    1.24
   5   8   3   10.52    1.14
   5   8   3   12.55    1.15
   6  -8   3    4.30    0.81
   6  -8   3    4.52    0.93
  -6  -8  -3    4.79    1.02
  -6  -8  -3    4.25    1.01
  -6   8  -3    5.58    1.14
   6   8   3    4.04    1.03
   6   8   3    4.85    1.00
  -6   8  -3    4.09    0.81
  -7  -8  -3    2.34    1.07
   7  -8   3    2.93    0.85
  -7  -8  -3    2.41    1.04
   7  -8   3    1.22    0.87
  -7   8  -3    0.93    1.11
   7   8   3    1.36    1.05
   7   8   3    2.26    1.04
  -7   8  -3    1.30    0.78
  -5  -9   3    4.33    1.09
   5  -9  -3    3.74    0.95
   5  -9  -3    3.90    1.05
   5   9  -3    3.43    0.74
  -5   9   3    5.90    1.08
   5   9  -3    3.00    1.11
   5   9  -3    4.28    0.90
   4  -9  -3    0.70    0.78
   4  -9  -3    1.39    0.92
   4   9  -3    0.92    0.96
   4   9  -3    1.10    0.64
   4   9  -3    0.94    0.74
  -4   9   3    0.71    0.80
   3  -9  -3   28.08    1.61
  -3  -9   3   29.28    1.46
   3  -9  -3   28.54    1.67
   3   9  -3   30.56    1.42
   3   9  -3   32.36    1.61
   3   9  -3   29.49    1.83
  -3   9   3   30.73    1.52
   2  -9  -3    1.35    0.75
  -2  -9   3    1.47    0.68
   2  -9  -3    1.19    0.79
   2   9  -3    1.02    0.85
  -2   9   3    1.17    0.65
   2   9  -3    1.83    0.75
   2   9  -3    1.46    0.65
  -1  -9   3    9.01    0.94
   1  -9  -3    8.47    0.95
   1  -9  -3    8.42    1.00
  -1   9   3    9.28    0.77
   1   9  -3    8.29    0.89
   1   9  -3    8.19    0.96
   1   9  -3    8.19    1.03
   0  -9  -3    4.89    0.88
   0  -9   3    4.56    0.80
   0  -9   3    4.83    0.84
   0  -9  -3    4.15    0.80
   0   9  -3    5.06    0.89
   0   9  -3    5.65    0.87
   0   9  -3    5.12    0.82
   0   9   3    5.70    0.60
  -1  -9  -3   19.54    1.26
   1  -9   3   15.16    1.18
  -1  -9  -3   17.49    1.26
   1  -9   3   16.69    1.18
  -1   9  -3   17.71    1.29
  -1   9  -3   18.24    1.34
   1   9   3   16.93    0.78
  -1   9  -3   20.04    1.35
   1   9   3   19.42    1.30
   2  -9   3    3.33    0.79
  -2  -9  -3    2.94    0.73
   2  -9   3    3.00    0.81
  -2  -9  -3    3.06    0.84
  -2   9  -3    2.84    0.81
  -2   9  -3    3.80    0.87
   2   9   3    3.25    0.86
  -2   9  -3    3.07    0.82
   3  -9   3    0.52    0.75
  -3  -9  -3    0.65    0.76
   3  -9   3    0.78    0.70
  -3   9  -3    0.85    0.76
  -3   9  -3    0.62    0.73
  -3   9  -3    0.96    0.83
   3   9   3    0.44    0.79
  -4  -9  -3    9.33    1.33
   4  -9   3   11.08    1.07
   4  -9   3    6.87    1.03
  -4   9  -3   11.59    1.26
  -4   9  -3    9.23    1.03
  -4   9  -3    9.47    1.05
   5  -9   3    1.42    0.82
   5  -9   3    1.24    0.90
  -5   9  -3    0.42    1.01
  -5   9  -3    1.24    0.83
  -5   9  -3    0.62    0.80
  -1 -10   3    2.24    0.90
   1 -10  -3    3.35    1.03
   1 -10  -3    1.67    0.90
  -1  10   3    2.70    0.70
   1  10  -3    2.46    1.06
   1  10  -3    2.43    0.87
   1  10  -3    2.90    0.96
   0 -10  -3    4.02    1.02
   0 -10   3    3.95    0.95
   0 -10  -3    4.00    0.96
   0  10   3    4.42    1.07
   0  10  -3    5.14    1.02
   0  10   3    4.52    0.65
   0  10  -3    4.62    1.11
   0  10  -3    4.76    0.97
  -1 -10  -3    0.74    0.83
   1 -10   3    0.46    0.89
  -1 -10  -3    1.74    0.94
   1 -10   3    0.36    0.85
  -1  10  -3    0.06    0.84
   1  10   3    0.33    0.47
   1  10   3    0.47    0.94
  -1  10  -3    0.59    0.93
  -1  10  -3    0.41    0.88
 -12   0   4    0.56    0.84
 -12   0   4    0.54    1.06
  11   0  -4    4.97    0.69
 -11   0   4    3.36    0.94
 -11   0   4    2.71    0.74
  10   0  -4   25.64    1.09
 -10   0   4   22.75    1.40
  10   0  -4   24.09    1.59
 -10   0   4   26.16    1.25
  -9   0   4   15.90    1.07
   9   0  -4   11.98    1.01
   9   0  -4   14.60    0.79
  -9   0   4   15.80    0.91
   8   0  -4  105.90    2.65
  -8   0   4  103.68    2.70
  -8   0   4  104.06    2.85
   8   0  -4  104.43    3.01
   7   0  -4    0.91    0.30
  -7   0   4    0.44    0.32
  -7   0   4    0.98    0.43
   7   0  -4    0.77    0.45
  -6   0   4   32.16    1.13
   6   0  -4   31.24    1.21
  -6   0   4   30.75    1.19
   6   0  -4   30.76    0.88
  -6   0   4   32.45    0.99
   6   0  -4   33.03    1.00
  -5   0   4   33.15    1.07
   5   0  -4   31.75    0.85
   5   0  -4   31.77    1.14
  -5   0   4   31.37    1.11
   5   0  -4   33.51    0.96
  -5   0   4   31.36    0.94
  -4   0   4  105.12    2.62
   4   0  -4  110.46    2.72
  -4   0   4  107.14    2.67
   4   0  -4  105.40    2.55
  -4   0   4  108.52    2.52
   4   0  -4  106.73    2.46
   3   0  -4  122.31    2.74
   3   0  -4  121.89    2.82
  -3   0   4  123.42    2.87
   3   0  -4  116.82    2.93
  -3   0   4  116.03    2.90
  -3   0   4  121.58    2.77
   2   0  -4   13.43    0.45
  -2   0   4   14.72    0.56
  -2   0   4   14.55    0.53
  -2   0   4   14.78    0.44
   2   0  -4   14.22    0.48
  -2   0   4   14.52    0.45
   2   0  -4   14.79    0.59
   2   0  -4   14.17    0.43
  -1   0   4  231.74    5.25
   1   0  -4  222.95    5.17
   1   0  -4  241.08    5.15
   1   0  -4  225.86    5.26
   1   0  -4  231.24    5.14
  -1   0   4  231.69    5.16
  -1   0   4  229.86    5.20
   0   0  -4    2.56    0.26
   0   0   4    2.93    0.28
   0   0   4    2.72    0.22
   0   0  -4    2.26    0.17
   0   0   4    2.83    0.22
   0   0  -4    2.56    0.19
   1   0   4  609.10   13.53
  -1   0  -4  608.33   13.44
  -1   0  -4  614.82   13.46
   1   0   4  611.50   13.46
  -1   0  -4  616.37   13.43
   1   0   4  616.60   13.48
  -1   0  -4  590.88   13.52
  -2   0  -4  118.23    2.78
   2   0   4  122.75    2.88
  -2   0  -4  119.51    2.79
  -2   0  -4  117.78    2.85
   2   0   4  119.39    2.79
   2   0   4  117.75    2.78
  -2   0  -4  118.85    2.65
   3   0   4    8.37    0.48
  -3   0  -4    8.05    0.42
  -3   0  -4    7.67    0.40
   3   0   4    8.13    0.41
  -4   0  -4  165.17    3.87
   4   0   4  168.82    3.86
   4   0   4  163.05    3.98
  -4   0  -4  162.06    3.87
  -5   0  -4   16.87    0.69
  -5   0  -4   16.14    0.70
   5   0   4   16.32    0.78
   5   0   4   16.42    0.68
   6   0   4   49.83    1.45
   6   0   4   49.12    1.60
  -6   0  -4   48.67    1.46
  -6   0  -4   50.65    1.49
  -7   0  -4   15.11    0.81
  -7   0  -4   16.72    0.86
   7   0   4   16.86    0.80
   7   0   4   15.49    0.95
  -8   0  -4   69.81    2.07
   8   0   4   67.58    2.00
   8   0   4   67.72    2.25
  -8   0  -4   72.37    2.06
   9   0   4   11.25    0.81
   9   0   4   10.11    1.00
  -9   0  -4   10.74    0.91
  -9   0  -4    9.46    0.78
 -10   0  -4   21.09    1.24
  10   0   4   20.68    1.52
  10   0   4   21.12    1.19
 -10   0  -4   20.79    1.34
  11   0   4    9.15    1.22
 -11   0  -4    9.92    1.14
 -11   0  -4    9.71    1.00
  12   0   4    9.94    1.46
 -12   0  -4   10.56    1.19
 -12   0  -4    8.89    1.27
 -12  -1   4   12.34    1.16
 -12  -1   4   13.72    1.42
  12   1  -4   12.22    1.47
 -12   1   4   13.56    1.39
 -11  -1   4    8.13    0.92
 -11  -1   4    6.36    1.04
  11  -1  -4    8.67    0.81
 -11   1   4   11.33    1.14
  11   1  -4    9.17    1.16
 -11   1   4    9.90    0.92
 -10  -1   4   24.73    1.26
 -10  -1   4   23.43    1.44
  10  -1  -4   23.61    1.12
  10   1  -4   23.86    1.52
  10   1  -4   24.89    1.06
 -10   1   4   21.73    1.36
 -10   1   4   24.09    1.17
   9  -1  -4   49.79    1.59
  -9  -1   4   51.95    1.67
  -9  -1   4   53.36    1.87
  -9   1   4   51.69    1.63
   9   1  -4   53.63    1.56
   9   1  -4   51.47    1.98
  -9   1   4   53.06    1.84
   8  -1  -4    7.18    0.81
  -8  -1   4    7.75    0.73
  -8  -1   4    6.73    0.60
   8  -1  -4    6.19    0.53
   8   1  -4    8.43    0.82
   8   1  -4    7.81    0.56
  -8   1   4    8.52    0.75
  -8   1   4    8.17    0.61
   7  -1  -4   65.87    1.86
  -7  -1   4   71.59    1.94
   7  -1  -4   71.14    2.18
  -7  -1   4   71.10    2.05
   7  -1  -4   70.57    1.83
   7   1  -4   74.20    2.18
  -7   1   4   74.10    2.07
   7   1  -4   71.25    1.90
  -7   1   4   69.67    2.39
  -7   1   4   72.61    1.91
   6  -1  -4   24.54    0.81
   6  -1  -4   25.09    1.09
  -6  -1   4   24.29    0.97
  -6  -1   4   23.15    0.87
   6  -1  -4   23.48    0.84
   6   1  -4   27.47    1.07
  -6   1   4   26.28    0.99
  -6   1   4   25.27    1.08
  -6   1   4   24.65    0.84
   6   1  -4   27.13    0.89
  -5  -1   4  110.81    2.83
  -5  -1   4  111.77    2.52
  -5  -1   4  114.31    2.85
   5  -1  -4  108.66    2.72
   5  -1  -4  115.88    2.70
  -5  -1   4  113.79    2.75
   5  -1  -4  118.38    2.95
  -5   1   4  121.80    2.90
   5   1  -4  114.75    2.82
  -5   1   4  114.44    2.96
  -5   1   4  114.04    2.74
   5   1  -4  122.91    3.00
   5   1  -4  114.85    2.60
   4  -1  -4   37.33    1.03
  -4  -1   4   36.01    1.10
   4  -1  -4   37.53    1.01
  -4  -1   4   35.26    1.13
   4  -1  -4   37.71    1.20
  -4  -1   4   36.75    1.04
  -4   1   4   34.62    1.07
  -4   1   4   34.62    1.12
   4   1  -4   36.48    1.14
  -4   1   4   35.39    0.92
   4   1  -4   35.10    1.01
   3  -1  -4   39.45    1.03
  -3  -1   4   38.00    0.91
  -3  -1   4   39.48    1.05
  -3  -1   4   40.16    1.10
   3  -1  -4   37.94    1.16
  -3  -1   4   38.33    1.13
  -3   1   4   33.05    0.82
   3   1  -4   31.64    0.92
   3   1  -4   32.09    1.03
   3   1  -4   32.73    0.92
  -3   1   4   34.22    1.02
  -3   1   4   33.35    0.97
  -2  -1   4   89.44    2.03
   2  -1  -4   89.13    2.11
   2  -1  -4   90.89    2.22
  -2  -1   4   87.01    2.20
   2  -1  -4   88.12    2.00
  -2  -1   4   87.30    2.15
  -2  -1   4   90.23    2.12
   2  -1  -4   91.73    2.11
  -2   1   4   86.11    2.14
   2   1  -4   88.25    2.17
  -2   1   4   85.21    1.94
   2   1  -4   88.54    2.06
  -2   1   4   85.08    2.10
   2   1  -4   87.02    2.08
   1  -1  -4   19.83    0.50
   1  -1  -4   21.41    0.59
  -1  -1   4   21.45    0.71
  -1  -1   4   20.06    0.62
   1  -1  -4   21.33    0.61
  -1  -1   4   21.03    0.57
   1   1  -4   20.74    0.64
  -1   1   4   21.64    0.64
  -1   1   4   21.28    0.67
  -1   1   4   20.37    0.66
   1   1  -4   20.38    0.60
   1   1  -4   22.04    0.72
   0  -1   4  301.85    6.67
   0  -1   4  305.28    6.78
   0  -1  -4  291.58    6.61
   0  -1   4  287.09    6.66
   0  -1  -4  313.49    6.69
   0  -1  -4  298.13    6.63
   0   1   4  290.06    6.54
   0   1  -4  283.36    6.46
   0   1   4  285.84    6.53
   0   1   4  293.48    6.52
   0   1  -4  290.09    6.52
   0   1  -4  302.48    6.60
  -1  -1  -4   78.60    1.83
  -1  -1  -4   79.94    1.87
   1  -1   4   78.90    1.92
   1  -1   4   81.06    1.89
   1  -1   4   80.43    2.03
  -1  -1  -4   81.75    1.91
  -1  -1  -4   80.00    1.94
   1   1   4   79.27    1.92
  -1   1  -4   79.85    1.85
  -1   1  -4   81.54    2.02
   1   1   4   77.59    1.94
   1   1   4   78.43    1.93
  -1   1  -4   81.17    1.94
  -2  -1  -4  154.86    3.62
  -2  -1  -4  153.92    3.45
  -2  -1  -4  154.91    3.56
   2  -1   4  155.74    3.60
   2  -1   4  159.37    3.57
  -2   1  -4  148.04    3.39
  -2   1  -4  151.62    3.54
   2   1   4  145.54    3.43
   2   1   4  143.96    3.46
   2   1   4  150.84    3.48
  -2   1  -4  145.93    3.33
  -2   1  -4  147.46    3.45
   2   1   4  153.36    3.47
  -3  -1  -4   51.04    1.44
   3  -1   4   55.39    1.43
  -3  -1  -4   52.92    1.40
   3  -1   4   54.84    1.27
   3  -1   4   55.93    1.55
   3   1   4   61.25    1.60
  -3   1  -4   58.25    1.41
  -3   1  -4   62.70    1.67
  -3   1  -4   58.68    1.56
  -3   1  -4   57.13    1.50
   3   1   4   60.70    1.54
   3   1   4   63.61    1.79
   4  -1   4   23.24    0.80
  -4  -1  -4   24.20    0.79
   4  -1   4   24.10    0.92
  -4  -1  -4   24.93    0.85
   4  -1   4   22.55    0.61
   4   1   4   24.52    0.87
  -4   1  -4   24.55    0.82
  -4   1  -4   22.62    0.62
   4   1   4   24.70    0.79
  -4   1  -4   22.74    0.91
  -4   1  -4   24.00    0.77
  -5  -1  -4   98.42    2.48
  -5  -1  -4   98.73    2.53
   5  -1   4   96.87    2.26
   5  -1   4  103.45    2.51
   5  -1   4   97.29    2.65
   5   1   4  106.20    2.52
  -5   1  -4  101.28    2.52
  -5   1  -4   99.11    2.56
   5   1   4  100.80    2.65
  -5   1  -4  102.74    2.68
  -6  -1  -4    2.94    0.45
   6  -1   4    3.52    0.43
  -6  -1  -4    3.45    0.41
   6  -1   4    2.28    0.48
  -6   1  -4    2.98    0.39
   6   1   4    4.23    0.43
  -6   1  -4    3.73    0.42
   6   1   4    2.86    0.45
   7  -1   4   51.28    1.82
   7  -1   4   55.09    1.64
  -7  -1  -4   54.77    1.64
  -7  -1  -4   54.17    1.70
  -7   1  -4   55.17    1.66
   7   1   4   51.45    1.57
  -7   1  -4   56.38    1.63
   7   1   4   55.37    1.80
  -8  -1  -4   23.32    1.15
   8  -1   4   20.77    1.24
  -8  -1  -4   21.68    1.06
   8  -1   4   21.83    1.02
  -8   1  -4   17.31    0.94
  -8   1  -4   18.36    0.97
   8   1   4   19.43    0.92
   8   1   4   18.65    1.12
   9  -1   4   37.99    1.74
   9  -1   4   41.87    1.52
  -9  -1  -4   38.15    1.60
  -9  -1  -4   40.70    1.51
  -9   1  -4   42.21    1.52
  -9   1  -4   41.12    1.52
   9   1   4   37.91    1.68
   9   1   4   38.75    1.43
 -10  -1  -4   19.62    1.29
 -10  -1  -4   17.79    1.25
  10  -1   4   19.81    1.16
  10  -1   4   19.01    1.57
 -10   1  -4   20.21    1.29
 -10   1  -4   20.41    1.25
  10   1   4   19.76    1.45
 -11  -1  -4    7.58    1.11
  11  -1   4    7.44    0.93
 -11  -1  -4    6.71    0.94
  11   1   4    5.96    1.08
 -11   1  -4    6.98    1.03
 -11   1  -4    7.54    0.92
 -12  -2   4    2.61    1.12
 -12  -2   4    2.77    0.94
  12   2  -4    2.79    1.11
 -12   2   4    2.60    1.14
  11  -2  -4   12.90    0.97
 -11  -2   4   12.74    1.25
 -11  -2   4   11.06    1.03
  11   2  -4   12.39    1.28
 -11   2   4   11.58    1.16
 -10  -2   4   10.90    0.92
  10  -2  -4   10.97    0.84
 -10  -2   4   12.13    1.08
  10   2  -4   11.12    0.77
 -10   2   4   11.58    1.06
  10   2  -4   12.70    1.14
  -9  -2   4   14.17    1.04
   9  -2  -4   12.92    0.86
  -9  -2   4   14.59    1.01
   9   2  -4   16.94    1.19
  -9   2   4   16.07    0.91
  -9   2   4   14.44    1.01
   9   2  -4   14.50    0.81
  -8  -2   4   78.48    2.37
   8  -2  -4   78.17    2.19
  -8  -2   4   81.00    2.26
   8  -2  -4   82.23    2.19
   8   2  -4   83.23    2.48
   8   2  -4   83.78    2.18
  -8   2   4   80.03    2.14
  -8   2   4   79.02    2.32
  -7  -2   4    1.28    0.48
  -7  -2   4    1.55    0.42
   7  -2  -4    2.06    0.37
   7  -2  -4    0.92    0.34
  -7   2   4    1.16    0.52
  -7   2   4    1.46    0.34
   7   2  -4    1.55    0.38
   7   2  -4    1.75    0.48
  -7   2   4    1.82    0.46
   6  -2  -4   95.77    2.43
  -6  -2   4   97.30    2.47
  -6  -2   4   96.45    2.54
   6  -2  -4   98.68    2.44
   6  -2  -4   90.41    2.65
  -6   2   4   95.84    2.62
   6   2  -4   93.81    2.62
   6   2  -4  100.94    2.46
  -6   2   4   97.32    2.52
  -6   2   4   98.34    2.35
  -5  -2   4   11.36    0.65
   5  -2  -4   12.56    0.76
   5  -2  -4   10.67    0.56
  -5  -2   4   11.31    0.62
   5  -2  -4   12.04    0.57
   5   2  -4   12.20    0.57
  -5   2   4   11.38    0.47
   5   2  -4   11.23    0.68
  -5   2   4   11.17    0.62
  -5   2   4   13.26    0.72
  -4  -2   4   78.68    2.03
   4  -2  -4   75.84    1.97
  -4  -2   4   81.81    2.02
   4  -2  -4   81.22    2.00
   4  -2  -4   76.56    2.13
  -4   2   4   82.67    1.91
   4   2  -4   81.54    2.04
  -4   2   4   81.32    2.15
   4   2  -4   81.50    2.16
  -4   2   4   84.05    2.10
   3  -2  -4  180.36    4.16
  -3  -2   4  182.29    4.18
   3  -2  -4  181.09    4.25
  -3  -2   4  171.67    3.97
  -3  -2   4  176.82    4.17
   3  -2  -4  187.42    4.15
   3   2  -4  172.72    4.05
  -3   2   4  169.16    4.03
   3   2  -4  183.91    4.13
   3   2  -4  176.36    4.01
  -3   2   4  170.36    4.08
  -3   2   4  169.11    3.84
   2  -2  -4   10.26    0.45
  -2  -2   4    9.94    0.44
   2  -2  -4   10.34    0.43
  -2  -2   4   10.21    0.35
  -2  -2   4   10.53    0.47
   2   2  -4    8.73    0.40
  -2   2   4    8.60    0.46
  -2   2   4    8.52    0.43
   2   2  -4    8.60    0.48
   2   2  -4    8.56    0.44
   1  -2  -4  217.91    4.92
   1  -2  -4  209.56    4.87
  -1  -2   4  217.72    4.86
  -1  -2   4  218.01    4.84
  -1  -2   4  215.37    4.97
  -1   2   4  216.99    4.90
   1   2  -4  225.23    4.98
   1   2  -4  211.39    4.88
  -1   2   4  214.70    4.89
  -1   2   4  201.79    4.91
   1   2  -4  220.19    4.94
   0  -2  -4    6.50    0.35
   0  -2  -4    6.65    0.25
   0  -2   4    6.72    0.33
   0  -2   4    6.25    0.43
   0  -2  -4    6.46    0.31
   0  -2   4    5.78    0.29
   0   2  -4    6.77    0.33
   0   2   4    6.46    0.39
   0   2   4    6.52    0.38
   0   2   4    6.84    0.38
   0   2   4    6.78    0.34
   0   2  -4    7.46    0.43
   0   2  -4    7.34    0.40
  -1  -2  -4  211.19    4.69
   1  -2   4  207.19    4.87
   1  -2   4  211.38    4.66
  -1  -2  -4  208.88    4.77
  -1  -2  -4  202.96    4.68
  -1  -2  -4  210.96    4.75
   1  -2   4  207.36    4.70
   1  -2   4  209.04    4.76
   1   2   4  217.87    4.88
   1   2   4  216.74    4.94
  -1   2  -4  222.96    5.05
   1   2   4  218.56    4.90
  -1   2  -4  214.36    4.89
  -1   2  -4  212.07    4.96
   1   2   4  211.60    4.95
  -2  -2  -4  105.48    2.40
   2  -2   4  108.84    2.65
  -2  -2  -4   99.97    2.53
  -2  -2  -4  101.42    2.45
   2  -2   4  108.15    2.41
   2  -2   4  106.07    2.53
  -2  -2  -4  105.59    2.48
   2  -2   4  100.45    2.43
   2   2   4   99.96    2.37
  -2   2  -4  100.27    2.45
  -2   2  -4   99.99    2.35
   2   2   4   98.71    2.38
   2   2   4  103.08    2.42
  -2   2  -4  101.58    2.30
   2   2   4   96.65    2.44
  -2   2  -4   99.42    2.53
  -3  -2  -4   91.89    2.12
   3  -2   4   95.83    2.33
  -3  -2  -4   92.21    2.26
   3  -2   4   93.07    2.44
   3  -2   4   94.91    2.20
   3  -2   4   93.76    2.20
  -3  -2  -4   91.53    2.34
   3   2   4   83.72    2.09
   3   2   4   82.10    2.09
  -3   2  -4   82.75    2.02
  -3   2  -4   86.81    2.15
  -3   2  -4   87.41    2.01
   3   2   4   85.33    2.09
  -3   2  -4   89.26    2.26
   3   2   4   82.23    1.94
  -4  -2  -4   67.25    1.71
   4  -2   4   67.82    1.60
  -4  -2  -4   62.20    1.76
   4  -2   4   61.25    1.74
  -4   2  -4   65.09    1.58
   4   2   4   62.42    1.68
   4   2   4   64.23    1.68
   4   2   4   64.58    1.64
  -4   2  -4   62.14    1.81
  -4   2  -4   57.20    1.68
  -5  -2  -4    8.98    0.63
   5  -2   4    7.26    0.55
   5  -2   4    8.78    0.71
  -5  -2  -4    7.82    0.55
   5  -2   4    9.08    0.41
  -5   2  -4    9.53    0.70
   5   2   4    8.06    0.50
  -5   2  -4    8.11    0.48
  -5   2  -4    7.78    0.54
   5   2   4    8.22    0.59
   6  -2   4   84.62    2.54
  -6  -2  -4   90.26    2.34
   6  -2   4   90.14    2.37
  -6  -2  -4   86.42    2.39
  -6   2  -4   82.42    2.19
   6   2   4   78.19    2.08
  -6   2  -4   79.93    2.07
   6   2   4   81.26    2.22
   7  -2   4    0.22    0.50
   7  -2   4    0.34    0.36
  -7  -2  -4    0.41    0.39
  -7  -2  -4    0.43    0.46
   7   2   4    0.11    0.40
  -7   2  -4    0.01    0.34
  -7   2  -4    0.17    0.35
   7   2   4    0.09    0.35
   8  -2   4   33.55    1.61
   8  -2   4   33.84    1.33
  -8  -2  -4   34.10    1.33
  -8  -2  -4   34.97    1.44
  -8   2  -4   36.91    1.38
  -8   2  -4   35.08    1.29
   8   2   4   36.27    1.26
   8   2   4   35.97    1.47
  -9  -2  -4   14.24    1.08
  -9  -2  -4   12.32    0.93
   9  -2   4   13.95    1.02
  -9   2  -4   15.68    1.04
  -9   2  -4   14.09    0.92
   9   2   4   13.21    1.11
  10  -2   4   12.82    1.01
 -10  -2  -4    9.74    0.94
 -10  -2  -4   12.34    1.13
  10   2   4   13.34    1.17
 -10   2  -4   11.52    0.95
 -11  -2  -4   18.79    1.45
  11  -2   4   17.98    1.26
 -11  -2  -4   15.46    1.25
  11   2   4   19.43    1.49
 -11   2  -4   16.85    1.21
 -12  -3   4   15.34    1.51
 -12  -3   4   14.47    1.31
 -12   3   4   16.99    1.86
  12   3  -4   15.62    1.48
  11  -3  -4    3.50    0.81
 -11  -3   4    3.61    0.90
 -11  -3   4    3.37    1.03
 -11   3   4    3.85    1.00
  11   3  -4    4.02    1.01
  10  -3  -4    7.13    0.80
 -10  -3   4    7.14    1.00
 -10  -3   4    6.21    0.86
 -10   3   4    6.31    0.92
  10   3  -4    5.26    0.88
  10   3  -4    7.16    0.70
  -9  -3   4   32.98    1.51
   9  -3  -4   28.75    1.27
   9  -3  -4   30.98    1.30
  -9  -3   4   31.70    1.39
   9   3  -4   32.89    1.25
   9   3  -4   31.59    1.52
  -9   3   4   31.15    1.44
  -8  -3   4    7.37    0.73
   8  -3  -4    6.67    0.63
  -8  -3   4    7.48    0.78
   8  -3  -4    5.84    0.62
  -8   3   4    5.10    0.92
   8   3  -4   10.07    0.85
   8   3  -4    6.91    0.63
  -8   3   4    7.92    0.74
   7  -3  -4   92.80    2.48
   7  -3  -4   89.47    2.48
  -7  -3   4   94.55    2.59
  -7  -3   4   95.26    2.56
  -7   3   4   88.02    2.58
   7   3  -4   89.81    2.53
  -7   3   4   87.62    2.36
  -7   3   4   88.06    2.39
   7   3  -4   88.97    2.33
  -6  -3   4   13.49    0.78
   6  -3  -4   14.29    0.72
  -6  -3   4   13.04    0.81
   6  -3  -4   13.43    0.73
   6   3  -4   17.15    0.72
  -6   3   4   14.71    0.61
  -6   3   4   15.67    0.92
  -6   3   4   13.68    0.75
   6   3  -4   14.71    0.83
   5  -3  -4   79.51    2.14
   5  -3  -4   78.54    2.11
  -5  -3   4   82.30    2.17
  -5  -3   4   82.11    2.17
   5   3  -4   72.33    1.92
  -5   3   4   74.57    1.96
  -5   3   4   76.13    2.08
  -5   3   4   70.92    1.76
   4  -3  -4   60.40    1.67
  -4  -3   4   61.41    1.68
  -4  -3   4   58.56    1.64
   4  -3  -4   61.09    1.64
  -4   3   4   63.78    1.73
   4   3  -4   62.78    1.80
   4   3  -4   65.91    1.79
  -4   3   4   67.93    1.82
   4   3  -4   65.86    1.72
  -4   3   4   64.02    1.53
  -3  -3   4    4.39    0.26
  -3  -3   4    4.81    0.37
  -3  -3   4    5.31    0.44
   3  -3  -4    4.55    0.40
   3  -3  -4    4.16    0.36
  -3   3   4    4.93    0.23
  -3   3   4    5.94    0.41
  -3   3   4    6.04    0.45
   3   3  -4    6.52    0.49
   3   3  -4    4.94    0.37
   3   3  -4    5.70    0.46
  -2  -3   4  127.91    3.00
  -2  -3   4  132.45    3.15
  -2  -3   4  133.63    3.06
   2  -3  -4  130.77    3.15
   2  -3  -4  129.92    3.11
   2   3  -4  137.28    3.32
  -2   3   4  135.09    3.30
  -2   3   4  133.29    3.03
   2   3  -4  133.96    3.24
   2   3  -4  142.92    3.32
  -2   3   4  135.24    3.23
  -2   3   4  139.55    3.25
  -1  -3   4   22.88    0.72
  -1  -3   4   23.86    0.74
   1  -3  -4   24.33    0.77
   1  -3  -4   23.64    0.79
  -1  -3   4   24.19    0.69
  -1   3   4   23.35    0.64
  -1   3   4   25.06    0.81
  -1   3   4   26.73    0.78
   1   3  -4   25.91    0.80
   1   3  -4   25.63    0.87
   1   3  -4   25.30    0.88
  -1   3   4   24.34    0.80
   0  -3   4  126.46    2.92
   0  -3   4  128.96    3.03
   0  -3  -4  130.43    3.04
   0  -3  -4  127.93    3.07
   0  -3  -4  129.43    2.92
   0  -3   4  130.16    3.04
   0   3  -4  146.14    3.37
   0   3   4  137.92    3.27
   0   3  -4  140.46    3.33
   0   3  -4  136.09    3.25
   0   3   4  134.35    3.18
   0   3   4  134.01    3.20
   1  -3   4    6.19    0.36
   1  -3   4    6.21    0.49
   1  -3   4    6.13    0.40
  -1  -3  -4    6.32    0.42
  -1  -3  -4    5.81    0.37
  -1  -3  -4    6.02    0.32
   1  -3   4    6.19    0.26
  -1  -3  -4    5.73    0.37
  -1   3  -4    5.52    0.46
   1   3   4    6.00    0.31
   1   3   4    6.09    0.34
  -1   3  -4    6.05    0.43
   1   3   4    5.60    0.41
  -1   3  -4    5.73    0.37
   1   3   4    5.61    0.41
  -2  -3  -4  107.15    2.57
   2  -3   4  107.42    2.61
  -2  -3  -4  108.53    2.68
   2  -3   4  112.61    2.70
   2  -3   4  109.70    2.46
  -2  -3  -4  108.31    2.60
  -2  -3  -4  109.69    2.62
   2  -3   4  110.02    2.78
   2   3   4  100.71    2.56
  -2   3  -4  105.29    2.59
   2   3   4  100.45    2.43
   2   3   4  106.63    2.54
  -2   3  -4  105.39    2.67
   2   3   4  105.18    2.42
  -2   3  -4  102.36    2.50
   3  -3   4   25.91    1.01
  -3  -3  -4   25.49    0.85
   3  -3   4   25.87    0.70
   3  -3   4   23.99    0.90
  -3  -3  -4   27.56    0.82
  -3  -3  -4   26.11    0.75
  -3  -3  -4   25.15    0.92
   3  -3   4   24.18    0.79
   3   3   4   24.33    0.82
   3   3   4   24.31    0.75
  -3   3  -4   25.51    0.66
  -3   3  -4   23.70    0.96
   3   3   4   24.05    0.76
  -3   3  -4   21.95    0.85
  -4  -3  -4   39.19    1.02
  -4  -3  -4   41.06    1.22
   4  -3   4   39.15    1.26
   4  -3   4   39.23    1.05
   4  -3   4   39.99    1.13
  -4  -3  -4   39.40    1.27
   4  -3   4   42.82    1.41
   4   3   4   38.64    1.03
   4   3   4   39.20    1.16
  -4   3  -4   41.48    1.26
  -4   3  -4   39.29    1.04
   4   3   4   38.87    1.15
  -4   3  -4   40.84    1.37
   4   3   4   40.44    1.15
   5  -3   4   97.21    2.36
  -5  -3  -4   94.91    2.48
  -5  -3  -4   92.93    2.55
   5  -3   4   98.56    2.54
   5  -3   4   96.40    2.71
   5   3   4   97.94    2.47
   5   3   4   96.01    2.42
  -5   3  -4   95.41    2.67
  -5   3  -4   98.33    2.34
  -5   3  -4   95.92    2.53
   6  -3   4    2.03    0.32
  -6  -3  -4    1.81    0.48
  -6  -3  -4    2.09    0.43
   6  -3   4    1.53    0.40
  -6   3  -4    2.19    0.36
  -6   3  -4    2.84    0.60
   6   3   4    2.47    0.40
   6   3   4    1.91    0.40
  -6   3  -4    2.22    0.42
   7  -3   4   71.41    2.10
  -7  -3  -4   67.92    2.05
  -7  -3  -4   69.63    2.14
   7   3   4   62.20    1.89
  -7   3  -4   62.17    1.87
   7   3   4   62.54    1.77
   8  -3   4   10.50    0.87
  -8  -3  -4    8.22    0.77
  -8  -3  -4    8.65    0.86
   8   3   4    7.27    0.65
   8   3   4    7.57    0.75
  -8   3  -4    8.32    0.73
   9  -3   4   32.67    1.48
  -9  -3  -4   30.82    1.51
  -9  -3  -4   36.02    1.64
  -9   3  -4   34.76    1.47
   9   3   4   34.48    1.57
 -10  -3  -4   23.66    1.50
  10  -3   4   20.51    1.33
 -10  -3  -4   18.13    1.26
  10   3   4   21.91    1.46
 -10   3  -4   21.72    1.34
  11  -3   4   11.82    1.15
 -11  -3  -4   10.68    1.30
 -11  -3  -4   12.78    1.23
  11   3   4   10.94    1.25
 -11   3  -4   10.07    1.05
 -11  -4   4   17.07    1.32
 -11  -4   4   17.95    1.50
  11  -4  -4   18.66    1.30
  11   4  -4   18.53    1.46
 -10  -4   4    7.61    0.99
  10  -4  -4    6.29    0.87
 -10  -4   4    6.36    1.05
  10  -4  -4    5.76    0.85
  10   4  -4    6.13    0.94
  10   4  -4    5.87    0.78
  -9  -4   4    8.67    0.91
   9  -4  -4   10.53    0.90
  -9  -4   4   10.26    1.03
   9  -4  -4    9.49    0.86
  -9   4   4    9.86    0.94
   9   4  -4    8.75    0.80
   9   4  -4    9.17    0.93
  -8  -4   4   33.04    1.51
   8  -4  -4   32.16    1.35
   8  -4  -4   35.11    1.39
  -8  -4   4   34.65    1.47
  -8   4   4   29.64    1.32
   8   4  -4   33.57    1.44
  -8   4   4   33.69    1.61
   8   4  -4   32.17    1.24
  -7  -4   4    1.62    0.53
   7  -4  -4    1.74    0.48
   7  -4  -4    1.69    0.48
  -7  -4   4    2.19    0.58
   7   4  -4    1.51    0.42
  -7   4   4    1.14    0.48
  -7   4   4    1.45    0.62
   7   4  -4    1.62    0.49
  -6  -4   4   67.99    2.04
   6  -4  -4   71.14    2.02
   6  -4  -4   70.88    2.05
  -6  -4   4   71.55    2.07
  -6   4   4   67.90    1.92
   6   4  -4   71.15    1.92
  -6   4   4   68.01    2.11
   5  -4  -4   11.84    0.72
   5  -4  -4   12.42    0.73
  -5  -4   4   12.12    0.79
  -5  -4   4   12.04    0.75
   5   4  -4   11.08    0.71
  -5   4   4   10.08    0.67
  -5   4   4   11.93    0.81
   5   4  -4   11.46    0.64
   5   4  -4   12.34    0.78
   4  -4  -4   70.80    1.99
   4  -4  -4   76.67    2.05
  -4  -4   4   73.68    1.95
  -4  -4   4   71.96    2.02
   4   4  -4   73.50    1.91
  -4   4   4   69.11    1.86
  -4   4   4   71.26    1.97
   4   4  -4   72.16    1.97
   4   4  -4   68.11    2.00
  -3  -4   4   90.41    2.24
   3  -4  -4   89.02    2.32
   3  -4  -4   89.29    2.35
  -3  -4   4   89.70    2.35
  -3  -4   4   89.19    2.12
   3   4  -4   92.30    2.34
  -3   4   4   91.49    2.35
  -3   4   4   92.74    2.12
   3   4  -4   91.46    2.44
   3   4  -4   91.84    2.38
  -3   4   4   90.07    2.29
  -2  -4   4   14.81    0.57
   2  -4  -4   14.87    0.68
  -2  -4   4   14.53    0.59
   2  -4  -4   15.07    0.69
  -2  -4   4   13.87    0.69
  -2   4   4   15.20    0.51
   2   4  -4   15.77    0.75
  -2   4   4   16.85    0.66
  -2   4   4   15.39    0.73
   2   4  -4   16.73    0.67
   2   4  -4   16.06    0.71
  -2   4   4   16.74    0.66
  -1  -4   4   55.81    1.37
   1  -4  -4   53.22    1.54
  -1  -4   4   55.33    1.47
  -1  -4   4   56.86    1.50
   1  -4  -4   54.91    1.52
   1   4  -4   57.57    1.56
  -1   4   4   55.84    1.40
   1   4  -4   58.73    1.62
  -1   4   4   57.52    1.53
  -1   4   4   55.67    1.48
  -1   4   4   56.85    1.53
   0  -4   4    6.45    0.45
   0  -4  -4    5.84    0.42
   0  -4  -4    6.16    0.35
   0  -4  -4    5.97    0.44
   0  -4   4    6.70    0.43
   0   4   4    6.49    0.41
   0   4  -4    7.29    0.56
   0   4  -4    5.83    0.44
   0   4   4    6.60    0.37
   0   4  -4    6.99    0.53
   0   4   4    6.08    0.39
   0   4   4    6.11    0.44
   1  -4   4   69.38    1.85
  -1  -4  -4   71.11    1.86
  -1  -4  -4   70.54    1.85
   1  -4   4   72.63    1.90
  -1  -4  -4   73.62    1.78
  -1  -4  -4   72.78    1.87
  -1   4  -4   68.08    1.82
  -1   4  -4   70.16    1.89
  -1   4  -4   70.65    1.93
   1   4   4   70.19    1.65
   1   4   4   68.12    1.82
   1   4   4   67.40    1.67
   2  -4   4   31.48    1.00
   2  -4   4   31.90    1.06
  -2  -4  -4   33.84    1.01
  -2  -4  -4   31.74    0.97
  -2  -4  -4   32.57    1.00
  -2  -4  -4   32.15    1.06
   2   4   4   35.51    0.94
  -2   4  -4   37.74    1.24
   2   4   4   34.67    1.12
   2   4   4   35.60    1.14
   2   4   4   35.34    0.92
  -2   4  -4   36.48    1.11
  -2   4  -4   34.47    1.15
   3  -4   4   42.35    1.22
  -3  -4  -4   43.15    1.20
  -3  -4  -4   38.64    1.21
  -3  -4  -4   40.34    1.16
  -3  -4  -4   39.63    1.29
   3  -4   4   42.96    1.32
  -3   4  -4   40.35    1.37
  -3   4  -4   39.74    1.27
   3   4   4   40.84    1.21
   3   4   4   39.72    1.28
   3   4   4   38.64    1.06
   3   4   4   39.26    1.05
  -4  -4  -4   56.46    1.56
  -4  -4  -4   57.25    1.49
   4  -4   4   59.65    1.73
   4  -4   4   58.75    1.60
  -4  -4  -4   58.95    1.73
  -4  -4  -4   57.29    1.64
   4   4   4   55.06    1.55
  -4   4  -4   58.60    1.79
   4   4   4   53.40    1.45
   4   4   4   53.78    1.45
  -4   4  -4   55.49    1.63
   4   4   4   56.38    1.46
   5  -4   4   10.27    0.58
  -5  -4  -4    9.84    0.73
  -5  -4  -4    9.56    0.70
   5  -4   4    9.52    0.71
   5   4   4    8.08    0.56
   5   4   4    8.33    0.55
  -5   4  -4    9.10    0.77
  -5   4  -4    9.00    0.65
   6  -4   4   50.93    1.70
  -6  -4  -4   51.35    1.65
  -6  -4  -4   51.41    1.73
   6  -4   4   52.87    1.51
  -6   4  -4   46.49    1.51
   6   4   4   47.08    1.40
  -6   4  -4   43.41    1.71
   6   4   4   46.65    1.42
   7  -4   4   10.02    0.83
  -7  -4  -4    9.73    0.87
  -7  -4  -4    8.93    0.78
  -7   4  -4   10.23    0.77
   7   4   4    9.79    0.80
   7   4   4   10.14    0.76
   8  -4   4   43.74    1.68
  -8  -4  -4   43.55    1.75
  -8  -4  -4   40.39    1.66
   8   4   4   45.58    1.64
  -8   4  -4   44.81    1.63
  -9  -4  -4    5.86    0.96
  -9  -4  -4    5.87    0.87
   9  -4   4    4.49    0.77
  -9   4  -4    4.12    0.71
   9   4   4    5.41    0.78
 -10  -4  -4   11.37    1.26
  10  -4   4   13.04    1.17
 -10  -4  -4   12.93    1.17
  10   4   4   11.49    1.10
 -10   4  -4   10.11    0.98
 -11  -5   4    9.25    1.24
 -11  -5   4    9.78    1.39
  11  -5  -4    9.19    1.15
  11   5  -4   11.96    1.27
  10  -5  -4    4.14    0.88
  10  -5  -4    3.05    0.87
 -10  -5   4    3.70    1.08
 -10  -5   4    4.27    0.98
  -9  -5   4   16.45    1.21
   9  -5  -4   16.91    1.17
  -9  -5   4   17.83    1.30
   9  -5  -4   17.12    1.25
   9   5  -4   18.01    1.13
  -8  -5   4    5.51    0.84
   8  -5  -4    6.00    0.75
   8  -5  -4    5.62    0.76
  -8  -5   4    5.84    0.89
   8   5  -4    7.16    0.87
  -8   5   4    6.90    0.97
   8   5  -4    7.42    0.71
   8   5  -4    6.86    0.81
   7  -5  -4   34.28    1.41
  -7  -5   4   33.22    1.44
   7  -5  -4   30.85    1.36
  -7  -5   4   32.30    1.42
   7   5  -4   34.81    1.46
   7   5  -4   37.81    1.54
  -7   5   4   37.08    1.62
   7   5  -4   37.32    1.34
  -6  -5   4    1.40    0.53
  -6  -5   4    1.73    0.55
   6  -5  -4    1.80    0.51
   6  -5  -4    1.39    0.49
  -6   5   4    1.44    0.50
   6   5  -4    1.70    0.45
   6   5  -4    1.28    0.46
  -6   5   4    1.30    0.57
   6   5  -4    1.01    0.51
   5  -5  -4   28.33    1.17
  -5  -5   4   28.17    1.20
   5  -5  -4   28.28    1.17
  -5  -5   4   28.30    1.15
  -5   5   4   27.76    1.06
   5   5  -4   27.77    1.06
  -5   5   4   28.46    1.21
   5   5  -4   26.74    1.23
   5   5  -4   29.69    1.14
   4  -5  -4   39.04    1.39
  -4  -5   4   41.57    1.32
   4  -5  -4   42.97    1.40
  -4  -5   4   40.52    1.41
   4   5  -4   41.39    1.30
   4   5  -4   35.78    1.39
   4   5  -4   39.61    1.30
  -4   5   4   36.48    1.21
  -4   5   4   40.03    1.35
   3  -5  -4   14.90    0.80
   3  -5  -4   13.02    0.76
  -3  -5   4   13.95    0.81
  -3  -5   4   13.29    0.69
   3   5  -4   12.23    0.68
  -3   5   4   11.14    0.65
  -3   5   4   11.24    0.68
   3   5  -4   11.03    0.67
   3   5  -4   12.36    0.81
  -2  -5   4   73.22    2.03
  -2  -5   4   71.13    1.82
  -2  -5   4   71.82    1.93
   2  -5  -4   73.70    2.04
  -2  -5   4   71.73    1.87
   2  -5  -4   73.16    2.01
  -2   5   4   70.66    1.89
  -2   5   4   70.39    1.87
   2   5  -4   70.89    2.06
   2   5  -4   72.57    1.95
   2   5  -4   72.53    1.98
  -1  -5   4   10.64    0.59
   1  -5  -4   11.84    0.67
   1  -5  -4    9.92    0.64
  -1  -5   4   10.69    0.61
  -1   5   4   10.66    0.53
  -1   5   4   10.60    0.62
  -1   5   4   10.24    0.54
   1   5  -4   10.51    0.70
  -1   5   4   11.33    0.70
   1   5  -4   10.77    0.63
   1   5  -4   10.64    0.66
   0  -5  -4   46.59    1.42
   0  -5   4   48.50    1.40
   0  -5  -4   45.79    1.42
   0  -5   4   47.43    1.41
   0  -5  -4   47.13    1.26
   0   5   4   44.29    1.17
   0   5  -4   44.58    1.41
   0   5  -4   41.30    1.34
   0   5   4   43.33    1.31
   0   5   4   41.52    1.22
   0   5  -4   44.16    1.42
   0   5   4   43.97    1.22
   1  -5   4    8.80    0.62
  -1  -5  -4    8.42    0.58
  -1  -5  -4    9.21    0.52
  -1  -5  -4    8.26    0.59
   1  -5   4    9.38    0.58
  -1  -5  -4    8.65    0.59
   1   5   4    9.85    0.46
  -1   5  -4    9.62    0.62
   1   5   4   10.23    0.57
  -1   5  -4   10.32    0.67
   1   5   4    9.86    0.64
  -1   5  -4   10.74    0.71
   1   5   4   10.35    0.43
   2  -5   4   97.23    2.58
  -2  -5  -4   98.20    2.50
  -2  -5  -4   97.45    2.47
  -2  -5  -4   95.74    2.47
   2  -5   4   98.04    2.51
  -2  -5  -4   96.18    2.43
   2   5   4   90.94    2.16
  -2   5  -4   98.40    2.47
  -2   5  -4   91.69    2.56
  -2   5  -4   95.50    2.51
   2   5   4   93.75    2.45
   2   5   4   95.34    2.18
   2   5   4   92.20    2.45
  -3  -5  -4   32.16    1.09
   3  -5   4   33.60    1.13
  -3  -5  -4   34.65    1.21
  -3  -5  -4   30.54    1.08
   3  -5   4   35.11    1.24
  -3  -5  -4   35.14    1.13
  -3   5  -4   33.57    1.30
  -3   5  -4   32.68    1.13
   3   5   4   33.65    0.88
  -3   5  -4   32.74    1.19
   3   5   4   34.10    1.15
   3   5   4   32.04    0.87
   3   5   4   32.24    1.18
  -4  -5  -4   26.94    1.07
  -4  -5  -4   27.93    0.97
   4  -5   4   29.23    1.04
  -4  -5  -4   28.66    1.15
   4  -5   4   28.69    1.15
  -4  -5  -4   28.96    1.00
   4   5   4   29.48    0.89
   4   5   4   30.32    1.04
   4   5   4   30.58    1.09
  -4   5  -4   29.52    1.16
   4   5   4   30.31    0.88
   4   5   4   30.34    1.20
  -4   5  -4   31.46    1.29
   5  -5   4   59.77    1.88
  -5  -5  -4   58.35    1.88
  -5  -5  -4   57.26    1.79
   5  -5   4   59.33    1.72
   5   5   4   57.05    1.66
   5   5   4   55.95    1.52
  -5   5  -4   56.31    1.96
  -5   5  -4   58.59    1.79
  -6  -5  -4    7.59    0.79
  -6  -5  -4    6.98    0.71
   6  -5   4    6.68    0.72
   6  -5   4    7.96    0.62
  -6   5  -4    6.26    0.66
   6   5   4    7.11    0.54
   6   5   4    7.43    0.61
  -6   5  -4    6.86    0.87
  -7  -5  -4   49.22    1.76
   7  -5   4   48.14    1.78
  -7  -5  -4   44.99    1.81
  -7   5  -4   45.86    1.66
   7   5   4   47.79    1.52
  -8  -5  -4    3.18    0.85
   8  -5   4    3.98    0.75
  -8  -5  -4    3.04    0.76
  -8   5  -4    2.35    0.64
   8   5   4    2.32    0.58
   9  -5   4   16.52    1.27
  -9  -5  -4   14.06    1.18
  -9  -5  -4   17.66    1.39
  -9   5  -4   11.79    1.01
   9   5   4   14.79    1.17
 -10  -5  -4    8.79    1.16
 -10  -5  -4   10.33    1.33
  10  -5   4    9.56    1.12
 -10   5  -4    8.08    1.00
  10   5   4    8.11    0.98
  10  -6  -4   12.73    1.26
 -10  -6   4   11.30    1.30
  10  -6  -4   12.11    1.23
 -10  -6   4   12.04    1.44
  10   6  -4   12.13    1.35
  10   6  -4   11.25    1.23
  -9  -6   4    1.17    0.92
  -9  -6   4    3.07    1.05
   9  -6  -4    1.44    0.79
   9  -6  -4    1.47    0.85
   9   6  -4    1.63    0.74
   9   6  -4    1.58    0.80
   9   6  -4    1.95    0.97
   8  -6  -4   11.10    1.02
  -8  -6   4   12.73    1.16
  -8  -6   4   11.06    1.12
   8  -6  -4   12.55    1.08
   8   6  -4   12.22    1.17
  -8   6   4   14.04    1.32
   8   6  -4   10.91    0.87
   8   6  -4   11.20    1.02
  -7  -6   4   16.39    1.12
  -7  -6   4   14.47    1.11
   7  -6  -4   15.51    1.10
   7  -6  -4   12.54    1.01
   7   6  -4   16.14    1.20
   7   6  -4   12.92    0.89
  -7   6   4   15.32    1.19
   7   6  -4   10.50    0.91
   6  -6  -4   29.35    1.38
  -6  -6   4   26.82    1.39
  -6  -6   4   28.62    1.34
   6  -6  -4   25.89    1.31
   6   6  -4   26.23    1.16
   6   6  -4   26.74    1.25
  -6   6   4   26.79    1.39
  -5  -6   4    8.12    0.77
   5  -6  -4    6.74    0.72
  -5  -6   4    8.13    0.74
   5  -6  -4    9.63    0.83
   5   6  -4    8.26    0.69
  -5   6   4    8.38    0.81
   5   6  -4    9.86    0.89
   5   6  -4    9.67    0.80
   4  -6  -4   33.83    1.36
  -4  -6   4   33.14    1.23
   4  -6  -4   34.15    1.35
  -4  -6   4   33.70    1.37
  -4   6   4   34.77    1.33
   4   6  -4   36.08    1.29
   4   6  -4   34.52    1.26
   4   6  -4   34.61    1.47
  -3  -6   4   20.64    1.04
   3  -6  -4   18.61    1.00
   3  -6  -4   18.19    0.99
  -3   6   4   23.19    0.93
   3   6  -4   22.25    0.98
   3   6  -4   22.41    0.99
   3   6  -4   23.70    1.17
  -3   6   4   22.15    0.99
   2  -6  -4   16.96    0.92
  -2  -6   4   16.27    0.79
   2  -6  -4   16.11    0.89
  -2  -6   4   16.54    0.81
   2   6  -4   16.46    0.86
   2   6  -4   16.06    0.96
  -2   6   4   16.18    0.80
   2   6  -4   15.56    0.85
  -2   6   4   17.31    0.79
   1  -6  -4   33.23    1.22
   1  -6  -4   31.79    1.21
  -1  -6   4   31.21    1.13
  -1  -6   4   28.52    1.10
   1   6  -4   29.51    1.24
  -1   6   4   32.62    1.03
   1   6  -4   32.54    1.20
   1   6  -4   31.70    1.20
  -1   6   4   32.00    1.11
   0  -6   4    1.99    0.41
   0  -6  -4    2.63    0.46
   0  -6  -4    2.98    0.47
   0  -6   4    2.08    0.43
   0   6  -4    3.22    0.48
   0   6   4    2.74    0.32
   0   6   4    3.24    0.52
   0   6  -4    3.41    0.52
   0   6  -4    3.13    0.51
   0   6   4    2.69    0.46
  -1  -6  -4   60.84    1.77
   1  -6   4   60.64    1.81
   1  -6   4   63.30    1.78
  -1  -6  -4   56.84    1.68
  -1  -6  -4   56.18    1.63
  -1  -6  -4   58.62    1.77
   1   6   4   55.31    1.62
   1   6   4   55.51    1.67
   1   6   4   55.31    1.44
  -1   6  -4   58.24    1.74
  -1   6  -4   56.05    1.78
   1   6   4   56.79    1.42
  -1   6  -4   56.16    1.78
   2  -6   4   10.98    0.80
  -2  -6  -4   11.34    0.71
  -2  -6  -4   12.16    0.79
  -2  -6  -4   12.16    0.73
  -2  -6  -4   10.69    0.76
   2  -6   4   11.69    0.74
  -2   6  -4   11.31    0.76
   2   6   4   11.06    0.75
   2   6   4   11.57    0.40
  -2   6  -4   11.06    0.81
   2   6   4   11.11    0.76
   2   6   4   11.36    0.44
   2   6   4   11.88    0.79
  -2   6  -4   11.17    0.85
   3  -6   4   48.25    1.64
  -3  -6  -4   46.67    1.47
   3  -6   4   47.93    1.54
  -3  -6  -4   51.05    1.59
  -3  -6  -4   48.23    1.50
  -3  -6  -4   47.82    1.51
  -3   6  -4   44.51    1.47
  -3   6  -4   42.93    1.60
   3   6   4   44.36    1.49
   3   6   4   43.19    1.45
  -3   6  -4   41.74    1.51
   3   6   4   42.40    1.41
   4  -6   4   36.26    1.29
  -4  -6  -4   36.36    1.23
  -4  -6  -4   34.50    1.22
  -4  -6  -4   36.28    1.34
   4  -6   4   34.79    1.41
  -4  -6  -4   35.17    1.39
   4   6   4   33.84    0.93
  -4   6  -4   37.67    1.55
   4   6   4   39.46    1.30
   4   6   4   36.47    1.30
  -4   6  -4   37.67    1.37
   4   6   4   37.89    0.95
   4   6   4   39.11    1.44
  -5  -6  -4    0.19    0.53
  -5  -6  -4   -0.05    0.41
   5  -6   4    0.06    0.45
  -5  -6  -4    0.08    0.57
   5  -6   4    0.21    0.38
   5   6   4   -0.01    0.26
   5   6   4    0.23    0.46
  -5   6  -4   -0.19    0.45
   5   6   4    0.34    0.55
  -5   6  -4    0.16    0.59
  -6  -6  -4   24.62    1.33
   6  -6   4   26.42    1.16
  -6  -6  -4   29.86    1.46
   6  -6   4   26.74    1.35
  -6   6  -4   28.50    1.26
   6   6   4   24.93    0.92
  -6   6  -4   23.92    1.52
  -7  -6  -4    0.45    0.71
  -7  -6  -4    0.83    0.78
   7  -6   4    1.06    0.63
   7   6   4    0.29    0.43
  -7   6  -4    0.23    0.55
  -8  -6  -4    8.86    1.14
  -8  -6  -4    8.09    1.02
   8  -6   4    8.07    0.97
   8   6   4    7.23    0.72
  -8   6  -4    8.13    0.89
  -9  -6  -4    6.84    1.10
   9  -6   4    7.12    1.03
  -9  -6  -4    7.26    1.19
  -9   6  -4    6.76    0.91
   9   6   4    5.27    0.79
   9  -7  -4    8.27    1.14
  -9  -7   4    7.14    1.22
   9  -7  -4    8.64    1.19
  -9  -7   4   10.76    1.38
   9   7  -4    6.81    1.31
  -9   7   4    7.55    1.40
   9   7  -4    6.89    1.07
   8  -7  -4    5.64    1.02
  -8  -7   4    4.91    1.04
  -8  -7   4    5.24    1.10
   8  -7  -4    4.14    0.91
   8   7  -4    3.96    0.79
   8   7  -4    4.35    0.89
  -8   7   4    4.64    1.15
   8   7  -4    4.56    1.12
   7  -7  -4   16.37    1.24
   7  -7  -4   13.47    1.14
  -7  -7   4   12.77    1.16
  -7   7   4   18.14    1.38
   7   7  -4   15.34    1.21
   7   7  -4   12.97    0.99
   7   7  -4   15.89    1.34
  -6  -7   4    2.66    0.82
   6  -7  -4    2.35    0.77
   6  -7  -4    3.44    0.75
   6   7  -4    3.72    0.68
   6   7  -4    4.12    0.92
   6   7  -4    3.66    0.69
  -6   7   4    4.16    0.84
  -5  -7   4   11.17    1.00
   5  -7  -4   13.60    1.03
   5  -7  -4   12.03    0.97
  -5   7   4   13.68    1.13
   5   7  -4   14.59    1.01
   5   7  -4   13.69    0.97
   5   7  -4   12.10    1.09
  -4  -7   4   16.60    1.17
   4  -7  -4   16.00    1.09
   4  -7  -4   15.96    1.11
   4   7  -4   15.77    0.97
   4   7  -4   16.20    1.21
  -4   7   4   17.30    1.08
   4   7  -4   17.03    1.04
   3  -7  -4   12.53    0.92
   3  -7  -4   13.12    0.98
   3   7  -4   12.91    0.89
  -3   7   4   12.20    0.88
   3   7  -4   13.32    0.91
   3   7  -4   12.64    1.01
   2  -7  -4   13.16    0.92
  -2  -7   4   11.78    0.85
   2  -7  -4   12.54    0.95
   2   7  -4   11.81    0.84
   2   7  -4   13.31    0.98
   2   7  -4   13.17    0.91
  -2   7   4   12.21    0.79
  -1  -7   4    0.73    0.48
  -1  -7   4    0.65    0.42
   1  -7  -4    0.81    0.50
   1  -7  -4    0.70    0.49
  -1   7   4    0.98    0.37
   1   7  -4    0.77    0.45
   1   7  -4    0.78    0.53
   1   7  -4    0.70    0.46
   0  -7  -4   39.73    1.44
   0  -7  -4   37.60    1.47
   0  -7   4   36.83    1.42
   0  -7   4   37.90    1.40
   0   7  -4   37.33    1.49
   0   7   4   35.29    1.10
   0   7  -4   36.42    1.42
   0   7  -4   37.67    1.41
   1  -7   4    2.28    0.55
   1  -7   4    1.54    0.48
  -1  -7  -4    1.62    0.50
  -1  -7  -4    1.46    0.53
  -1   7  -4    0.94    0.52
  -1   7  -4    1.08    0.48
  -1   7  -4    1.65    0.53
   1   7   4    1.11    0.51
   1   7   4    1.35    0.30
  -2  -7  -4   33.70    1.29
  -2  -7  -4   33.89    1.28
  -2  -7  -4   31.90    1.33
  -2  -7  -4   35.21    1.36
   2  -7   4   32.76    1.38
   2  -7   4   33.64    1.33
  -2   7  -4   34.57    1.45
  -2   7  -4   34.19    1.36
   2   7   4   31.73    1.45
   2   7   4   31.84    0.88
   2   7   4   33.52    1.35
   2   7   4   33.47    0.85
  -2   7  -4   34.00    1.40
   3  -7   4   34.20    1.44
  -3  -7  -4   32.88    1.31
  -3  -7  -4   35.15    1.38
  -3  -7  -4   34.16    1.35
   3  -7   4   34.51    1.36
  -3  -7  -4   33.72    1.28
   3   7   4   30.28    1.30
   3   7   4   31.90    1.34
   3   7   4   29.35    1.29
  -3   7  -4   30.00    1.45
  -3   7  -4   30.34    1.33
   3   7   4   29.97    1.36
  -3   7  -4   31.49    1.32
  -4  -7  -4    5.93    0.72
   4  -7   4    5.72    0.76
  -4  -7  -4    5.02    0.60
   4  -7   4    5.41    0.65
  -4  -7  -4    6.03    0.66
  -4  -7  -4    6.59    0.78
  -4   7  -4    6.29    0.75
   4   7   4    5.24    0.74
   4   7   4    5.92    0.69
  -4   7  -4    6.00    0.86
   4   7   4    6.23    0.77
   4   7   4    6.86    0.80
  -4   7  -4    5.52    0.69
   5  -7   4   33.59    1.42
   5  -7   4   32.48    1.56
  -5  -7  -4   36.67    1.55
  -5  -7  -4   35.37    1.59
  -5   7  -4   34.80    1.49
   5   7   4   37.07    1.61
  -5   7  -4   36.15    1.76
   6  -7   4    4.71    0.70
  -6  -7  -4    3.56    0.88
   6  -7   4    3.91    0.79
  -6  -7  -4    3.05    0.83
  -6   7  -4    4.09    0.74
   6   7   4    3.69    0.37
   6   7   4    3.55    0.86
  -6   7  -4    3.27    0.94
  -7  -7  -4   13.31    1.21
   7  -7   4   12.74    1.16
  -7  -7  -4   14.55    1.26
   7   7   4   13.19    1.22
   7   7   4   13.71    0.79
  -7   7  -4   15.29    1.11
   8  -7   4    3.50    0.95
  -8  -7  -4    3.00    1.04
  -8  -7  -4    3.22    1.07
  -8   7  -4    3.29    0.83
   8   7   4    3.69    0.62
  -7  -8   4    4.40    1.09
   7  -8  -4    5.37    1.09
   7  -8  -4    5.05    1.00
   7   8  -4    5.33    1.22
   7   8  -4    4.92    0.89
  -7   8   4    5.87    1.15
   7   8  -4    4.86    0.90
  -6  -8   4   27.38    1.71
   6  -8  -4   24.07    1.69
   6  -8  -4   25.69    1.60
   6   8  -4   25.76    1.71
   6   8  -4   25.20    1.42
   6   8  -4   28.79    1.45
  -6   8   4   24.49    1.69
   5  -8  -4    2.93    0.87
  -5  -8   4    2.97    0.90
   5  -8  -4    3.20    0.79
  -5   8   4    4.66    0.89
   5   8  -4    4.17    0.76
   5   8  -4    4.11    0.72
   5   8  -4    3.27    0.99
   4  -8  -4    8.50    0.98
   4  -8  -4    5.95    0.84
   4   8  -4    8.61    0.86
   4   8  -4    7.46    0.84
  -4   8   4   10.24    0.95
   4   8  -4    7.92    1.06
   3  -8  -4    7.37    0.90
   3  -8  -4    4.93    0.78
   3   8  -4   10.31    0.88
   3   8  -4   10.23    1.09
   3   8  -4    9.16    0.86
  -3   8   4    9.66    0.85
   2  -8  -4    4.10    0.73
   2  -8  -4    5.83    0.81
  -2  -8   4    4.34    0.68
   2   8  -4    4.49    0.68
   2   8  -4    4.00    0.83
  -2   8   4    4.83    0.63
   2   8  -4    2.78    0.66
  -1  -8   4   32.15    1.37
   1  -8  -4   32.35    1.52
   1  -8  -4   28.55    1.40
  -1   8   4   32.54    1.20
   1   8  -4   33.95    1.47
   1   8  -4   34.41    1.49
   1   8  -4   29.70    1.53
   0  -8   4    0.13    0.56
   0  -8   4    0.38    0.52
   0  -8  -4    0.05    0.55
   0  -8  -4    0.08    0.61
   0   8   4    0.17    0.38
   0   8  -4    0.17    0.55
   0   8  -4    0.11    0.61
   0   8  -4    0.19    0.53
  -1  -8  -4   17.55    1.24
   1  -8   4   17.09    1.17
  -1  -8  -4   17.18    1.12
   1  -8   4   19.67    1.15
  -1   8  -4   14.26    1.15
  -1   8  -4   16.04    1.14
  -1   8  -4   17.09    1.16
   2  -8   4    2.33    0.67
  -2  -8  -4    2.31    0.60
   2  -8   4    2.68    0.63
  -2  -8  -4    2.78    0.69
  -2   8  -4    2.62    0.66
  -2   8  -4    2.91    0.69
  -2   8  -4    2.67    0.73
   2   8   4    3.34    0.72
  -3  -8  -4    6.42    0.79
   3  -8   4    6.49    0.85
   3  -8   4    7.59    0.82
  -3  -8  -4    5.75    0.72
   3   8   4    6.81    0.85
  -3   8  -4    6.38    0.80
  -3   8  -4    6.95    0.86
   3   8   4    7.30    0.85
  -3   8  -4    9.05    1.02
   4  -8   4   17.19    1.28
  -4  -8  -4   15.00    1.19
   4  -8   4   17.92    1.16
  -4  -8  -4   17.40    1.20
  -4   8  -4   18.72    1.36
  -4   8  -4   14.34    1.08
  -4   8  -4   15.89    1.13
   4   8   4   16.92    1.41
   4   8   4   18.87    1.54
  -5  -8  -4    0.94    0.85
   5  -8   4    0.87    0.73
   5  -8   4    0.63    0.63
  -5  -8  -4    0.31    0.82
  -5   8  -4    0.27    0.65
  -5   8  -4    0.55    0.88
  -5   8  -4    0.49    0.67
   5   8   4    0.73    0.87
   5   8   4    0.61    0.83
  -6  -8  -4   10.51    1.17
   6  -8   4   11.48    1.17
  -6  -8  -4   12.15    1.23
   6  -8   4   11.15    1.00
   6   8   4   11.29    1.26
  -6   8  -4   13.09    1.12
  -6   8  -4   11.77    1.35
  -6   8  -4   12.35    1.07
   6   8   4   14.41    1.29
   5  -9  -4    4.89    1.00
   5  -9  -4    7.46    1.18
  -5   9   4    7.11    1.12
   5   9  -4    6.36    1.28
   5   9  -4    7.94    1.04
   5   9  -4    6.67    0.91
   4  -9  -4    3.38    0.98
   4  -9  -4    2.56    0.88
   4   9  -4    3.64    1.10
   4   9  -4    3.26    0.79
  -4   9   4    3.89    0.90
   4   9  -4    3.22    0.85
   3  -9  -4    3.79    0.89
   3  -9  -4    4.91    1.00
   3   9  -4    5.27    1.08
  -3   9   4    4.49    0.82
   3   9  -4    4.86    0.85
   3   9  -4    4.53    0.82
   2  -9  -4    6.34    0.98
   2  -9  -4    5.40    0.89
  -2  -9   4    6.88    0.87
  -2   9   4    5.89    0.77
   2   9  -4    4.68    0.84
   2   9  -4    5.44    0.85
   2   9  -4    4.84    1.01
   1  -9  -4    1.28    0.80
  -1  -9   4    0.97    0.67
   1  -9  -4    1.29    0.73
  -1   9   4    1.40    0.57
   1   9  -4    0.96    0.73
   1   9  -4    1.96    0.88
   1   9  -4    1.12    0.73
   0  -9  -4    9.66    1.00
   0  -9  -4   10.11    1.06
   0  -9   4   12.22    1.04
   0   9  -4    9.81    1.02
   0   9   4    8.92    0.67
   0   9  -4    7.44    1.00
   0   9  -4    9.56    1.00
  -1  -9  -4    0.04    0.65
   1  -9   4   -0.07    0.65
  -1  -9  -4    0.22    0.77
   1  -9   4    0.23    0.73
   1   9   4    0.08    0.40
  -1   9  -4   -0.12    0.76
  -1   9  -4    0.38    0.69
  -1   9  -4    0.26    0.75
  -2  -9  -4    4.69    0.81
   2  -9   4    5.65    0.85
  -2  -9  -4    5.90    0.93
   2  -9   4    5.75    0.97
  -2   9  -4    3.90    0.83
  -2   9  -4    5.17    0.91
  -2   9  -4    5.44    0.97
   2   9   4    4.81    0.93
   2   9   4    5.85    0.98
  -3  -9  -4    9.90    1.02
   3  -9   4    9.34    0.99
  -3  -9  -4   11.92    1.09
   3  -9   4    9.56    1.11
   3   9   4   10.93    1.10
  -3   9  -4   12.21    1.12
  -3   9  -4   10.67    1.08
   3   9   4   10.84    1.33
  -3   9  -4   13.85    1.29
   4  -9   4    3.46    0.85
   4  -9   4    2.99    0.94
  -4   9  -4    3.53    0.87
  -4   9  -4    3.03    1.07
  -4   9  -4    2.98    0.87
 -12   0   5   45.12    2.23
 -11   0   5    1.81    0.92
 -11   0   5    3.97    0.81
  11   0  -5    3.84    0.66
  10   0  -5   27.85    1.17
 -10   0   5   27.61    1.30
  10   0  -5   25.39    1.61
 -10   0   5   28.41    1.52
  -9   0   5   12.26    0.97
   9   0  -5   10.87    1.03
   9   0  -5   11.42    0.73
  -9   0   5   12.36    0.87
   8   0  -5    2.49    0.42
   8   0  -5    2.02    0.60
  -8   0   5    2.75    0.47
  -8   0   5    2.27    0.59
   7   0  -5   77.57    2.40
  -7   0   5   80.75    2.12
   7   0  -5   81.85    2.11
  -7   0   5   83.49    2.30
   6   0  -5    5.22    0.35
  -6   0   5    5.07    0.58
   6   0  -5    5.30    0.58
   6   0  -5    5.38    0.43
  -6   0   5    5.85    0.55
  -6   0   5    5.68    0.43
  -5   0   5   64.82    1.70
  -5   0   5   68.96    1.84
   5   0  -5   66.99    1.73
   5   0  -5   67.72    1.62
   5   0  -5   65.60    1.94
  -5   0   5   68.69    1.90
  -4   0   5    1.76    0.24
  -4   0   5    2.76    0.35
   4   0  -5    2.53    0.27
   4   0  -5    2.11    0.20
  -4   0   5    2.73    0.41
   4   0  -5    2.21    0.38
  -3   0   5  111.87    2.78
  -3   0   5  115.91    2.61
   3   0  -5  113.56    2.59
  -3   0   5  114.20    2.73
   3   0  -5  114.18    2.82
   3   0  -5  109.95    2.62
  -3   0   5  107.58    2.60
  -2   0   5  110.61    2.61
   2   0  -5  111.63    2.59
   2   0  -5  113.57    2.61
  -2   0   5  113.24    2.75
  -2   0   5  111.04    2.69
   2   0  -5  110.91    2.64
   2   0  -5  117.55    2.79
  -1   0   5   10.96    0.41
   1   0  -5   10.73    0.40
  -1   0   5    9.81    0.45
   1   0  -5   10.22    0.39
  -1   0   5   10.34    0.50
   1   0  -5   10.05    0.51
   0   0  -5   63.64    1.68
   0   0   5   65.82    1.60
   0   0   5   66.85    1.63
   0   0   5   66.33    1.70
   0   0  -5   62.91    1.55
   0   0  -5   64.51    1.57
   1   0   5  110.01    2.67
  -1   0  -5  110.37    2.58
  -1   0  -5  116.30    2.68
  -1   0  -5  112.95    2.76
  -1   0  -5  113.13    2.66
   1   0   5  114.95    2.70
   1   0   5  116.78    2.78
   2   0   5  162.61    3.82
  -2   0  -5  166.42    3.89
  -2   0  -5  167.57    3.66
  -2   0  -5  162.18    3.81
  -2   0  -5  156.93    3.79
   2   0   5  162.58    3.81
   2   0   5  173.22    3.94
   3   0   5    3.68    0.40
  -3   0  -5    3.54    0.42
  -3   0  -5    3.52    0.33
  -3   0  -5    3.49    0.32
   3   0   5    3.58    0.34
   3   0   5    5.28    0.39
  -4   0  -5  160.65    3.81
  -4   0  -5  158.30    3.80
   4   0   5  160.73    3.80
   4   0   5  162.60    3.94
  -5   0  -5  181.22    4.26
   5   0   5  175.79    4.39
   5   0   5  175.57    4.23
  -5   0  -5  181.00    4.25
  -6   0  -5   11.43    0.71
  -6   0  -5   12.81    0.70
   6   0   5   13.91    0.85
   6   0   5   13.20    0.71
  -7   0  -5  105.98    2.83
   7   0   5  111.00    3.05
   7   0   5  106.92    2.80
  -7   0  -5  107.48    2.84
   8   0   5    2.69    0.65
  -8   0  -5    3.27    0.60
   8   0   5    2.19    0.51
  -8   0  -5    1.95    0.49
  -9   0  -5   34.39    1.47
  -9   0  -5   35.55    1.43
   9   0   5   32.96    1.67
   9   0   5   35.03    1.41
 -10   0  -5    2.62    0.71
  10   0   5    3.09    0.70
  10   0   5    1.67    0.82
 -10   0  -5    2.94    0.81
 -11   0  -5    2.55    0.96
 -11   0  -5    2.91    0.83
  11   0   5    1.96    1.04
 -12  -1   5    0.78    0.90
 -12  -1   5    0.66    1.07
 -12   1   5    0.68    1.08
  11  -1  -5   25.90    1.31
 -11  -1   5   24.64    1.66
 -11  -1   5   27.19    1.46
 -11   1   5   27.87    1.67
  11   1  -5   26.73    1.25
  11   1  -5   27.24    1.85
  10  -1  -5   12.51    0.88
 -10  -1   5   10.42    0.89
 -10  -1   5   12.08    1.10
 -10   1   5   10.18    0.95
  10   1  -5   10.32    0.75
  10   1  -5   10.44    1.14
 -10   1   5    7.73    0.95
   9  -1  -5    6.44    0.62
  -9  -1   5    6.24    0.83
  -9  -1   5    6.42    0.67
  -9   1   5    4.72    0.77
  -9   1   5    4.48    0.57
   9   1  -5    5.38    0.55
   9   1  -5    4.15    0.77
   8  -1  -5    5.57    0.53
   8  -1  -5    5.80    0.79
  -8  -1   5    3.54    0.64
  -8  -1   5    4.80    0.56
  -8   1   5    2.72    0.60
   8   1  -5    3.04    0.64
  -8   1   5    3.04    0.46
   8   1  -5    2.84    0.43
   7  -1  -5   12.36    0.68
   7  -1  -5   14.41    0.64
  -7  -1   5   13.83    0.87
   7  -1  -5   11.15    0.93
  -7  -1   5   13.56    0.77
  -7   1   5   13.23    0.84
   7   1  -5   12.74    0.91
   7   1  -5   14.17    0.69
  -7   1   5   12.63    0.66
  -6  -1   5  105.01    2.74
   6  -1  -5  106.33    2.62
   6  -1  -5  105.66    2.53
  -6  -1   5  104.91    2.62
   6  -1  -5  100.81    2.85
  -6   1   5  105.61    2.71
   6   1  -5  105.96    2.83
  -6   1   5  104.33    2.81
   6   1  -5  103.94    2.60
  -6   1   5  103.50    2.52
  -5  -1   5    3.36    0.35
   5  -1  -5    3.13    0.30
  -5  -1   5    2.69    0.41
  -5  -1   5    2.17    0.17
   5  -1  -5    2.60    0.42
   5  -1  -5    2.94    0.34
  -5  -1   5    2.97    0.46
  -5   1   5    2.47    0.44
  -5   1   5    2.47    0.39
   5   1  -5    1.93    0.31
  -5   1   5    2.30    0.26
   5   1  -5    1.74    0.38
  -4  -1   5  192.99    4.45
   4  -1  -5  179.29    4.38
  -4  -1   5  188.35    4.37
  -4  -1   5  186.66    4.50
   4  -1  -5  196.74    4.34
   4  -1  -5  191.87    4.56
   4   1  -5  199.96    4.59
  -4   1   5  193.78    4.47
   4   1  -5  195.07    4.61
  -4   1   5  207.44    4.74
  -4   1   5  199.16    4.67
   4   1  -5  198.38    4.77
  -3  -1   5  101.08    2.41
   3  -1  -5   98.28    2.41
  -3  -1   5  101.56    2.30
   3  -1  -5  101.83    2.38
  -3  -1   5  101.46    2.53
  -3  -1   5   98.33    2.47
   3  -1  -5  101.28    2.30
   3  -1  -5   99.79    2.56
  -3   1   5  101.03    2.33
   3   1  -5  103.97    2.48
   3   1  -5  105.41    2.47
   3   1  -5  106.35    2.63
  -3   1   5   98.03    2.56
  -3   1   5  101.92    2.52
  -2  -1   5  118.49    2.96
  -2  -1   5  125.39    2.86
   2  -1  -5  121.20    2.85
   2  -1  -5  121.72    2.97
   2  -1  -5  117.05    2.73
  -2  -1   5  120.55    2.89
   2  -1  -5  123.16    2.85
  -2  -1   5  128.60    2.79
   2   1  -5  117.03    2.80
   2   1  -5  125.44    2.96
  -2   1   5  116.36    2.81
  -2   1   5  115.72    2.85
   2   1  -5  121.10    2.83
  -2   1   5  122.75    2.90
   1  -1  -5  215.83    4.76
  -1  -1   5  212.23    4.72
   1  -1  -5  203.51    4.64
  -1  -1   5  209.42    4.77
  -1  -1   5  205.93    4.86
   1  -1  -5  210.56    4.73
   1   1  -5  219.81    5.04
  -1   1   5  210.87    4.92
  -1   1   5  211.93    4.98
   1   1  -5  225.63    4.95
  -1   1   5  219.51    4.97
   1   1  -5  212.99    4.89
   0  -1   5    1.94    0.22
   0  -1   5    1.51    0.20
   0  -1  -5    1.50    0.16
   0  -1  -5    1.86    0.21
   0  -1   5    1.78    0.28
   0  -1  -5    1.79    0.17
   0   1  -5    2.19    0.19
   0   1  -5    2.48    0.29
   0   1   5    1.53    0.24
   0   1  -5    2.04    0.25
   0   1   5    2.42    0.25
   0   1   5    2.60    0.28
  -1  -1  -5   73.15    1.69
  -1  -1  -5   70.33    1.81
   1  -1   5   73.17    1.78
   1  -1   5   74.93    1.93
   1  -1   5   72.57    1.79
  -1  -1  -5   72.70    1.73
  -1   1  -5   76.97    1.83
  -1   1  -5   81.44    2.05
   1   1   5   79.71    1.97
   1   1   5   76.49    1.95
   1   1   5   76.43    1.92
  -1   1  -5   78.71    1.94
  -2  -1  -5    2.44    0.16
  -2  -1  -5    2.73    0.29
  -2  -1  -5    3.08    0.26
   2  -1   5    3.17    0.38
   2  -1   5    2.87    0.27
   2  -1   5    2.43    0.27
   2   1   5    2.44    0.30
  -2   1  -5    3.07    0.31
  -2   1  -5    2.46    0.18
   2   1   5    2.62    0.31
  -2   1  -5    2.45    0.24
  -2   1  -5    2.11    0.35
   2   1   5    2.87    0.29
   3  -1   5  149.89    3.53
   3  -1   5  148.25    3.48
  -3  -1  -5  149.91    3.49
  -3  -1  -5  148.42    3.55
   3  -1   5  148.31    3.67
  -3   1  -5  150.59    3.41
   3   1   5  151.61    3.57
  -3   1  -5  152.28    3.54
  -3   1  -5  151.96    3.70
   3   1   5  155.22    3.66
  -3   1  -5  154.90    3.61
   3   1   5  147.06    3.61
  -4  -1  -5   70.82    1.87
   4  -1   5   70.84    2.00
   4  -1   5   68.16    1.83
  -4  -1  -5   67.63    1.80
  -4   1  -5   66.39    1.56
  -4   1  -5   68.60    1.81
  -4   1  -5   64.01    1.90
   4   1   5   68.81    1.77
  -4   1  -5   67.56    1.75
   4   1   5   70.79    1.89
  -5  -1  -5  134.24    3.22
   5  -1   5  131.79    3.24
  -5  -1  -5  133.22    3.28
   5  -1   5  126.85    3.41
  -5   1  -5  135.54    3.34
   5   1   5  139.26    3.45
   5   1   5  134.58    3.30
  -5   1  -5  135.05    3.28
  -6  -1  -5  102.32    2.64
   6  -1   5  101.81    2.66
   6  -1   5  103.17    2.85
  -6  -1  -5  101.44    2.70
  -6   1  -5   92.65    2.46
  -6   1  -5   93.61    2.42
   6   1   5   92.04    2.41
   6   1   5   94.50    2.59
   7  -1   5   19.62    1.15
  -7  -1  -5   18.59    0.99
  -7  -1  -5   16.95    0.92
   7  -1   5   20.24    0.93
  -7   1  -5   17.20    0.89
   7   1   5   15.37    0.98
  -7   1  -5   17.18    0.86
   7   1   5   17.75    0.85
   8  -1   5   45.88    1.88
  -8  -1  -5   48.20    1.69
   8  -1   5   49.06    1.62
  -8  -1  -5   48.45    1.63
   8   1   5   45.93    1.51
  -8   1  -5   45.80    1.58
  -8   1  -5   46.15    1.56
   8   1   5   46.63    1.75
  -9  -1  -5    0.74    0.56
   9  -1   5    0.23    0.51
  -9  -1  -5    0.11    0.62
   9  -1   5    0.18    0.69
   9   1   5    0.09    0.63
  -9   1  -5    0.40    0.57
   9   1   5    0.20    0.50
  -9   1  -5    0.20    0.51
  10  -1   5   34.43    1.87
  10  -1   5   30.59    1.46
 -10  -1  -5   31.03    1.64
 -10  -1  -5   33.61    1.57
 -10   1  -5   28.57    1.50
  10   1   5   34.07    1.56
 -10   1  -5   33.73    1.53
  10   1   5   29.80    1.70
 -11  -1  -5   22.74    1.56
 -11  -1  -5   24.88    1.60
  11  -1   5   23.83    1.44
  11   1   5   22.61    1.80
 -11   1  -5   24.92    1.49
 -11   1  -5   24.58    1.61
 -12  -2   5   33.33    1.80
 -12  -2   5   23.96    1.74
  12  -2  -5   30.84    1.78
  12   2  -5   28.66    2.07
 -12   2   5   28.37    1.88
 -11  -2   5    4.05    0.86
 -11  -2   5    3.56    1.00
  11  -2  -5    4.63    0.78
  11   2  -5    4.35    1.02
 -11   2   5    3.13    0.99
  11   2  -5    3.59    0.67
 -10  -2   5   18.10    1.22
 -10  -2   5   16.41    1.23
  10  -2  -5   19.33    1.12
 -10   2   5   16.14    1.18
  10   2  -5   18.79    1.45
  10   2  -5   17.80    1.00
   9  -2  -5   22.56    1.12
  -9  -2   5   25.81    1.23
  -9  -2   5   26.88    1.40
  -9   2   5   23.77    1.30
   9   2  -5   24.05    1.40
   9   2  -5   24.57    1.05
  -8  -2   5   26.24    1.13
   8  -2  -5   27.38    1.04
  -8  -2   5   26.37    1.27
   8  -2  -5   26.30    1.10
  -8   2   5   26.70    1.22
   8   2  -5   25.23    1.30
   8   2  -5   26.88    1.05
   7  -2  -5   19.30    0.88
  -7  -2   5   21.01    0.95
   7  -2  -5   18.54    0.82
  -7  -2   5   19.20    1.02
   7   2  -5   16.14    0.98
  -7   2   5   16.02    1.12
  -7   2   5   16.06    0.72
  -7   2   5   19.00    0.96
   7   2  -5   18.25    0.85
  -6  -2   5    6.20    0.54
  -6  -2   5    4.30    0.54
   6  -2  -5    5.33    0.46
   6  -2  -5    6.02    0.49
  -6   2   5    6.40    0.68
  -6   2   5    6.14    0.56
  -6   2   5    5.51    0.38
   6   2  -5    5.88    0.49
   6   2  -5    6.86    0.64
   5  -2  -5  105.06    2.89
   5  -2  -5  110.95    2.69
  -5  -2   5  109.45    2.79
  -5  -2   5  110.34    2.74
   5  -2  -5  111.33    2.72
  -5   2   5  104.43    2.70
   5   2  -5  108.20    2.65
  -5   2   5  107.36    2.49
  -5   2   5  107.24    2.81
   4  -2  -5    1.60    0.27
  -4  -2   5    0.74    0.29
  -4  -2   5    0.80    0.28
  -4  -2   5    0.96    0.52
   4  -2  -5    0.98    0.24
   4  -2  -5    0.76    0.34
  -4   2   5    0.49    0.15
  -4   2   5    0.47    0.30
  -4   2   5    0.37    0.31
   4   2  -5    0.43    0.25
   4   2  -5    0.88    0.32
   4   2  -5    0.48    0.23
  -3  -2   5   69.82    1.84
  -3  -2   5   69.06    1.66
   3  -2  -5   73.32    1.83
   3  -2  -5   72.63    1.95
  -3  -2   5   73.70    1.86
   3  -2  -5   74.33    1.83
  -3  -2   5   72.48    1.91
   3   2  -5   77.47    1.96
  -3   2   5   77.12    2.06
  -3   2   5   77.59    2.00
   3   2  -5   81.33    2.03
   3   2  -5   79.10    2.10
   2  -2  -5  160.25    3.81
   2  -2  -5  161.41    3.78
  -2  -2   5  156.99    3.69
  -2  -2   5  165.66    3.81
  -2  -2   5  168.35    3.82
  -2  -2   5  169.31    3.90
   2   2  -5  178.01    4.18
  -2   2   5  173.11    4.18
  -2   2   5  181.08    4.16
   2   2  -5  178.00    4.12
   2   2  -5  182.37    4.25
  -1  -2   5   53.17    1.35
  -1  -2   5   51.90    1.47
   1  -2  -5   53.54    1.34
   1  -2  -5   52.51    1.37
  -1  -2   5   51.67    1.31
  -1   2   5   56.63    1.48
  -1   2   5   54.11    1.46
   1   2  -5   57.14    1.56
   1   2  -5   55.45    1.42
   1   2  -5   54.83    1.49
   0  -2   5   61.75    1.68
   0  -2   5   62.72    1.54
   0  -2  -5   59.89    1.42
   0  -2   5   61.46    1.50
   0  -2  -5   57.26    1.49
   0  -2  -5   63.27    1.56
   0   2   5   57.31    1.49
   0   2  -5   59.59    1.59
   0   2   5   53.73    1.49
   0   2  -5   55.10    1.50
   0   2   5   56.28    1.46
   0   2   5   56.69    1.50
   0   2  -5   55.65    1.42
   1  -2   5   10.97    0.42
  -1  -2  -5   10.62    0.41
  -1  -2  -5   11.01    0.47
  -1  -2  -5   11.06    0.51
   1  -2   5   10.61    0.59
  -1  -2  -5   10.80    0.40
   1  -2   5   12.12    0.50
   1   2   5   10.34    0.52
   1   2   5   10.25    0.52
   1   2   5   10.74    0.47
  -1   2  -5   10.47    0.51
  -1   2  -5    9.93    0.59
   1   2   5   12.03    0.51
  -1   2  -5   10.86    0.42
   2  -2   5  155.49    3.61
  -2  -2  -5  151.84    3.46
   2  -2   5  150.90    3.73
  -2  -2  -5  156.01    3.52
  -2  -2  -5  152.32    3.56
   2  -2   5  153.73    3.49
   2  -2   5  153.34    3.50
  -2  -2  -5  147.47    3.62
   2   2   5  155.43    3.65
   2   2   5  149.67    3.68
  -2   2  -5  152.04    3.55
  -2   2  -5  158.04    3.79
  -2   2  -5  162.05    3.70
   2   2   5  154.44    3.65
   2   2   5  153.18    3.63
   3  -2   5   29.97    0.86
   3  -2   5   29.02    1.09
  -3  -2  -5   28.94    0.75
  -3  -2  -5   30.58    1.00
   3  -2   5   29.32    0.81
  -3  -2  -5   29.94    0.90
   3  -2   5   31.30    0.97
  -3   2  -5   32.53    1.14
  -3   2  -5   33.13    0.89
   3   2   5   33.03    1.06
  -3   2  -5   33.04    1.04
   3   2   5   31.00    1.03
   3   2   5   33.30    1.02
   3   2   5   32.64    1.00
  -3   2  -5   32.03    0.90
  -4  -2  -5  145.70    3.45
   4  -2   5  144.64    3.67
   4  -2   5  142.75    3.38
   4  -2   5  141.27    3.51
   4  -2   5  144.60    3.31
  -4  -2  -5  146.35    3.54
  -4   2  -5  143.99    3.43
  -4   2  -5  156.99    3.77
  -4   2  -5  149.21    3.49
   4   2   5  148.57    3.56
  -4   2  -5  146.89    3.62
   4   2   5  152.13    3.62
   5  -2   5   76.49    1.82
   5  -2   5   77.85    2.24
  -5  -2  -5   74.07    2.08
   5  -2   5   77.14    2.07
  -5  -2  -5   71.12    2.00
   5   2   5   69.97    1.97
  -5   2  -5   70.82    2.10
  -5   2  -5   71.42    1.96
   5   2   5   69.03    1.87
  -5   2  -5   71.66    1.83
  -5   2  -5   70.61    1.72
  -6  -2  -5    3.18    0.52
   6  -2   5    3.79    0.61
  -6  -2  -5    3.57    0.47
   6  -2   5    4.10    0.49
   6   2   5    5.02    0.49
  -6   2  -5    4.43    0.48
   6   2   5    3.98    0.52
  -6   2  -5    4.17    0.44
   7  -2   5   88.58    2.48
   7  -2   5   91.25    2.75
  -7  -2  -5   88.81    2.54
  -7  -2  -5   87.10    2.44
   7   2   5   87.40    2.38
  -7   2  -5   91.44    2.48
  -7   2  -5   88.99    2.36
   7   2   5   89.60    2.56
  -8  -2  -5    1.30    0.63
  -8  -2  -5    1.33    0.52
   8  -2   5    1.98    0.55
   8  -2   5    2.00    0.73
   8   2   5    1.87    0.59
   8   2   5    1.70    0.50
  -8   2  -5    1.60    0.50
  -8   2  -5    1.31    0.50
  -9  -2  -5   27.37    1.44
  -9  -2  -5   22.59    1.25
   9  -2   5   23.53    1.24
   9   2   5   25.70    1.41
   9   2   5   23.23    1.17
  -9   2  -5   25.04    1.26
 -10  -2  -5   12.25    1.04
  10  -2   5   12.75    1.06
 -10  -2  -5   12.54    1.19
  10   2   5   11.15    1.13
 -10   2  -5    9.64    0.92
 -11  -2  -5   18.61    1.49
 -11  -2  -5   18.25    1.34
  11  -2   5   17.33    1.29
 -11   2  -5   15.18    1.20
  11   2   5   18.94    1.49
 -12  -3   5    0.94    1.02
 -12  -3   5    0.94    1.15
  12  -3  -5    1.39    0.92
 -12   3   5    1.66    1.17
  12   3  -5    0.66    1.06
  11  -3  -5    9.88    1.01
 -11  -3   5   10.82    1.09
 -11  -3   5    9.55    1.22
 -11   3   5   11.93    1.24
  11   3  -5    8.48    1.14
  11   3  -5    9.29    0.89
 -10  -3   5    8.90    1.05
  10  -3  -5    7.00    0.82
 -10  -3   5    8.77    0.96
  10   3  -5    8.68    0.78
  10   3  -5    8.11    1.03
 -10   3   5    8.98    1.03
   9  -3  -5   13.95    0.95
  -9  -3   5   13.41    1.08
  -9  -3   5   13.87    0.99
   9  -3  -5   11.92    0.89
   9   3  -5   13.18    1.08
   9   3  -5   12.67    0.84
  -9   3   5   13.31    1.01
   8  -3  -5    9.23    0.71
  -8  -3   5   10.16    0.82
  -8  -3   5    8.64    0.85
   8  -3  -5   10.12    0.77
  -8   3   5    9.32    0.82
  -8   3   5   10.38    1.26
   8   3  -5   10.12    0.91
   8   3  -5    8.42    0.71
  -7  -3   5   30.82    1.31
   7  -3  -5   30.14    1.16
   7  -3  -5   30.73    1.18
  -7  -3   5   32.56    1.24
  -7   3   5   30.24    1.21
   7   3  -5   30.91    1.13
   7   3  -5   29.18    1.30
  -7   3   5   29.78    1.38
   6  -3  -5   57.91    1.67
  -6  -3   5   54.63    1.69
  -6  -3   5   57.09    1.74
   6  -3  -5   55.29    1.64
  -6   3   5   60.13    1.79
  -6   3   5   60.96    1.93
   6   3  -5   64.13    1.75
   5  -3  -5   45.89    1.39
  -5  -3   5   47.49    1.46
  -5  -3   5   42.86    1.42
   5  -3  -5   48.16    1.40
  -5   3   5   49.06    1.51
   5   3  -5   45.30    1.34
   5   3  -5   44.68    1.49
   5   3  -5   42.24    1.42
  -5   3   5   44.87    1.39
  -4  -3   5  122.24    3.11
  -4  -3   5  129.20    3.17
   4  -3  -5  125.66    3.11
   4  -3  -5  133.18    3.15
   4   3  -5  132.38    3.26
  -4   3   5  126.03    3.14
   4   3  -5  125.10    3.20
   4   3  -5  130.85    3.12
  -4   3   5  126.32    3.21
  -3  -3   5   76.20    1.96
  -3  -3   5   72.46    1.79
  -3  -3   5   78.30    2.03
   3  -3  -5   80.64    2.01
   3  -3  -5   76.46    1.98
  -3   3   5   75.46    1.99
   3   3  -5   75.88    1.91
   3   3  -5   73.74    1.99
  -3   3   5   71.18    1.92
   3   3  -5   73.13    2.01
   2  -3  -5  130.94    3.13
   2  -3  -5  133.94    3.16
  -2  -3   5  127.83    3.02
  -2  -3   5  127.25    3.08
  -2  -3   5  133.22    3.18
  -2   3   5  129.75    3.20
   2   3  -5  135.41    3.30
  -2   3   5  139.00    3.24
   2   3  -5  129.50    3.19
   2   3  -5  134.70    3.29
   1  -3  -5  107.34    2.62
  -1  -3   5  111.63    2.56
  -1  -3   5  107.63    2.59
   1  -3  -5  108.15    2.66
  -1   3   5   97.70    2.37
  -1   3   5  107.08    2.62
   1   3  -5  108.54    2.59
   1   3  -5  106.53    2.71
  -1   3   5  108.42    2.61
   1   3  -5  107.92    2.68
  -1   3   5  109.79    2.59
   0  -3   5    0.59    0.18
   0  -3  -5    0.54    0.21
   0  -3   5    0.61    0.30
   0  -3   5    0.75    0.19
   0  -3  -5    0.59    0.14
   0  -3   5    1.03    0.25
   0  -3  -5    0.75    0.22
   0   3   5    1.35    0.24
   0   3  -5    1.23    0.22
   0   3   5    1.25    0.27
   0   3   5    1.15    0.28
   0   3   5    1.05    0.27
   0   3  -5    1.26    0.29
   0   3  -5    1.22    0.31
  -1  -3  -5  149.21    3.52
  -1  -3  -5  154.18    3.58
   1  -3   5  160.28    3.44
   1  -3   5  145.99    3.53
  -1  -3  -5  148.15    3.60
   1  -3   5  152.01    3.60
  -1  -3  -5  155.81    3.48
   1  -3   5  146.97    3.71
   1   3   5  155.43    3.65
   1   3   5  153.93    3.54
  -1   3  -5  145.80    3.55
  -1   3  -5  154.04    3.66
   1   3   5  149.95    3.51
   1   3   5  151.28    3.62
  -1   3  -5  152.22    3.73
   2  -3   5    6.14    0.30
   2  -3   5    5.82    0.53
  -2  -3  -5    6.45    0.42
   2  -3   5    6.16    0.36
  -2  -3  -5    5.49    0.45
   2  -3   5    5.87    0.45
  -2  -3  -5    6.44    0.39
  -2  -3  -5    5.37    0.39
  -2   3  -5    7.01    0.41
   2   3   5    6.71    0.47
   2   3   5    6.51    0.49
  -2   3  -5    7.03    0.51
   2   3   5    6.25    0.40
  -2   3  -5    6.94    0.57
   2   3   5    6.33    0.43
   3  -3   5   43.72    1.45
   3  -3   5   42.84    1.10
  -3  -3  -5   40.30    1.21
   3  -3   5   44.23    1.31
   3  -3   5   42.70    1.17
  -3  -3  -5   45.15    1.23
  -3  -3  -5   43.31    1.13
  -3  -3  -5   42.97    1.33
   3   3   5   43.23    1.22
   3   3   5   42.54    1.23
  -3   3  -5   41.47    1.19
   3   3   5   44.21    1.34
  -3   3  -5   42.75    1.43
  -3   3  -5   45.53    1.33
   3   3   5   41.89    1.26
   4  -3   5   34.53    1.17
   4  -3   5   35.41    1.00
  -4  -3  -5   35.98    1.10
   4  -3   5   33.52    1.29
  -4  -3  -5   33.93    1.18
   4  -3   5   32.50    0.95
  -4   3  -5   32.00    1.24
  -4   3  -5   31.33    1.10
  -4   3  -5   32.27    0.90
  -4   3  -5   31.53    0.96
   4   3   5   30.74    1.04
   4   3   5   32.68    1.04
   5  -3   5   24.27    0.99
   5  -3   5   22.98    0.78
  -5  -3  -5   23.61    0.91
   5  -3   5   22.39    1.13
   5  -3   5   22.80    0.77
  -5  -3  -5   22.96    1.02
  -5   3  -5   23.00    0.76
   5   3   5   20.43    0.84
  -5   3  -5   21.57    1.11
   5   3   5   20.21    0.88
  -5   3  -5   21.38    0.76
  -5   3  -5   21.12    0.90
  -6  -3  -5   68.54    2.04
   6  -3   5   66.99    2.00
  -6  -3  -5   64.63    1.92
   6   3   5   71.14    2.01
   6   3   5   68.17    1.91
  -6   3  -5   68.84    2.01
  -7  -3  -5    7.27    0.78
  -7  -3  -5    8.11    0.70
   7  -3   5    8.39    0.73
   7   3   5    6.32    0.67
  -7   3  -5    7.56    0.67
   7   3   5    7.64    0.63
   8  -3   5   29.84    1.35
  -8  -3  -5   29.90    1.36
  -8  -3  -5   29.69    1.46
   8   3   5   31.59    1.41
  -8   3  -5   30.68    1.33
   8   3   5   33.27    1.26
  -9  -3  -5    1.25    0.67
   9  -3   5    0.47    0.59
  -9  -3  -5    1.16    0.79
   9   3   5    1.11    0.67
  -9   3  -5    1.48    0.61
  10  -3   5   34.40    1.67
 -10  -3  -5   36.68    1.79
 -10  -3  -5   35.49    1.90
  10   3   5   36.91    1.83
 -10   3  -5   36.28    1.66
 -11  -3  -5   10.37    1.21
  11  -3   5    9.95    1.13
 -11  -3  -5   10.05    1.34
  11   3   5   10.35    1.25
 -11   3  -5    9.55    1.07
 -11  -4   5    5.82    1.06
 -11  -4   5    3.78    1.15
  11  -4  -5    6.43    1.00
  11   4  -5    4.48    1.07
 -10  -4   5   13.24    1.15
  10  -4  -5   10.87    1.04
 -10  -4   5   10.10    1.19
  10   4  -5   10.50    1.10
 -10   4   5   10.00    1.11
  10   4  -5    9.02    0.89
  -9  -4   5   14.36    1.09
   9  -4  -5   15.30    1.09
   9  -4  -5   16.79    1.09
  -9  -4   5   17.08    1.23
  -9   4   5   15.13    1.07
   9   4  -5   17.32    1.29
   9   4  -5   16.45    1.12
  -8  -4   5   11.64    0.92
   8  -4  -5   11.95    0.87
  -8  -4   5   12.53    1.01
   8  -4  -5   11.33    0.87
  -8   4   5   10.09    1.00
   8   4  -5   13.16    0.91
  -8   4   5   12.76    0.93
  -7  -4   5   38.67    1.48
   7  -4  -5   38.24    1.42
   7  -4  -5   41.23    1.45
  -7  -4   5   37.48    1.51
  -7   4   5   37.48    1.56
   7   4  -5   34.85    1.29
  -7   4   5   35.46    1.35
   7   4  -5   36.66    1.48
   7   4  -5   38.03    1.45
   6  -4  -5    0.27    0.39
   6  -4  -5    0.31    0.39
  -6  -4   5   -0.04    0.43
  -6  -4   5    0.50    0.47
   6   4  -5    0.43    0.36
   6   4  -5    0.33    0.40
  -6   4   5    0.40    0.49
  -6   4   5    0.27    0.44
   6   4  -5    0.62    0.43
  -5  -4   5   31.94    1.22
  -5  -4   5   32.02    1.19
   5  -4  -5   31.89    1.17
   5  -4  -5   34.11    1.19
   5   4  -5   32.73    1.26
   5   4  -5   34.82    1.15
  -5   4   5   34.62    1.18
   5   4  -5   31.25    1.24
  -5   4   5   34.53    1.29
   4  -4  -5   57.94    1.66
  -4  -4   5   54.70    1.61
   4  -4  -5   59.76    1.68
  -4  -4   5   53.25    1.67
   4   4  -5   54.93    1.69
   4   4  -5   56.76    1.58
   4   4  -5   54.75    1.69
  -4   4   5   56.87    1.67
  -4   4   5   51.90    1.57
   3  -4  -5  106.46    2.69
  -3  -4   5  103.86    2.45
  -3  -4   5  103.12    2.68
   3  -4  -5  102.97    2.65
  -3  -4   5  104.67    2.57
   3   4  -5  100.54    2.69
   3   4  -5  101.92    2.58
   3   4  -5  102.18    2.68
  -3   4   5  102.62    2.58
  -3   4   5  104.17    2.62
  -2  -4   5   10.11    0.51
   2  -4  -5   10.29    0.60
   2  -4  -5   12.07    0.63
  -2  -4   5   11.05    0.54
   2   4  -5   13.74    0.63
  -2   4   5   12.28    0.63
   2   4  -5   11.97    0.70
   2   4  -5   12.90    0.69
  -2   4   5   13.07    0.65
  -1  -4   5   20.42    0.66
   1  -4  -5   20.58    0.79
  -1  -4   5   20.94    0.75
   1  -4  -5   18.97    0.78
  -1  -4   5   20.27    0.74
   1   4  -5   18.28    0.82
  -1   4   5   18.36    0.70
  -1   4   5   17.91    0.76
  -1   4   5   18.10    0.56
   1   4  -5   18.79    0.74
   1   4  -5   18.86    0.83
  -1   4   5   17.32    0.76
   0  -4  -5   80.57    1.98
   0  -4  -5   83.09    2.17
   0  -4   5   85.44    1.96
   0  -4   5   89.11    2.14
   0  -4  -5   82.63    2.14
   0  -4   5   83.23    2.15
   0   4   5   80.06    1.99
   0   4  -5   79.42    2.17
   0   4  -5   79.70    2.21
   0   4   5   80.17    2.02
   0   4   5   83.02    2.12
   0   4   5   77.20    1.92
   0   4  -5   85.33    2.10
   1  -4   5   14.21    0.59
  -1  -4  -5   13.77    0.62
  -1  -4  -5   13.56    0.66
  -1  -4  -5   12.79    0.52
   1  -4   5   13.96    0.66
  -1  -4  -5   12.72    0.62
  -1   4  -5   13.84    0.64
   1   4   5   14.04    0.71
  -1   4  -5   12.49    0.73
  -1   4  -5   13.83    0.71
   1   4   5   13.38    0.69
   1   4   5   13.41    0.57
   1   4   5   13.68    0.53
  -2  -4  -5  109.82    2.75
  -2  -4  -5  112.24    2.71
  -2  -4  -5  111.22    2.69
   2  -4   5  111.41    2.73
   2  -4   5  108.14    2.81
  -2  -4  -5  115.19    2.81
  -2   4  -5  114.50    2.90
  -2   4  -5  111.64    2.80
   2   4   5  115.07    2.87
  -2   4  -5  113.74    2.99
   2   4   5  114.11    2.84
   2   4   5  110.66    2.68
   2   4   5  113.32    2.67
   3  -4   5   16.45    0.77
   3  -4   5   15.59    0.66
  -3  -4  -5   16.47    0.71
  -3  -4  -5   16.04    0.68
  -3  -4  -5   15.00    0.65
  -3  -4  -5   15.78    0.80
  -3   4  -5   18.04    0.93
  -3   4  -5   17.69    0.73
  -3   4  -5   16.62    0.80
   3   4   5   16.97    0.68
   3   4   5   16.56    0.83
   3   4   5   17.38    0.65
   3   4   5   17.35    0.79
   4  -4   5   50.72    1.58
  -4  -4  -5   50.59    1.58
  -4  -4  -5   50.22    1.43
  -4  -4  -5   48.47    1.48
   4  -4   5   49.19    1.41
   4   4   5   51.02    1.41
   4   4   5   50.57    1.49
  -4   4  -5   48.65    1.70
   4   4   5   52.62    1.62
  -4   4  -5   49.66    1.56
  -4   4  -5   50.37    1.45
  -5  -4  -5   63.63    1.95
   5  -4   5   62.35    1.72
  -5  -4  -5   62.68    1.86
   5  -4   5   65.35    1.93
  -5   4  -5   64.13    1.87
   5   4   5   63.83    1.76
   5   4   5   59.81    1.71
  -5   4  -5   60.81    2.02
  -5   4  -5   60.42    1.70
   6  -4   5   27.20    1.20
  -6  -4  -5   26.40    1.26
  -6  -4  -5   26.96    1.17
  -6   4  -5   29.57    1.17
   6   4   5   26.77    1.07
   6   4   5   27.08    1.07
  -7  -4  -5   32.28    1.38
  -7  -4  -5   34.81    1.48
   7  -4   5   30.14    1.36
   7   4   5   36.95    1.31
  -7   4  -5   34.63    1.41
   7   4   5   38.16    1.40
   8  -4   5    2.72    0.65
  -8  -4  -5    1.51    0.66
  -8  -4  -5    2.39    0.78
  -8   4  -5    2.01    0.58
   8   4   5    2.24    0.61
   9  -4   5   20.85    1.36
  -9  -4  -5   21.82    1.39
  -9  -4  -5   21.80    1.54
   9   4   5   23.22    1.38
  -9   4  -5   20.63    1.29
  10  -4   5   12.22    1.15
 -10  -4  -5   11.78    1.30
 -10  -4  -5    9.82    1.12
  10   4   5   10.76    1.11
 -10   4  -5   10.51    1.03
 -10  -5   5    6.97    1.20
  10  -5  -5    7.02    1.01
 -10  -5   5    7.53    1.09
  10  -5  -5    6.23    0.96
  10   5  -5    6.79    1.08
  10   5  -5    5.65    1.03
  10   5  -5    5.07    0.92
   9  -5  -5   16.95    1.27
   9  -5  -5   16.98    1.21
  -9  -5   5   15.89    1.24
  -9  -5   5   17.05    1.31
   9   5  -5   14.90    1.01
   9   5  -5   18.67    1.32
   9   5  -5   15.46    1.23
   8  -5  -5   20.73    1.29
  -8  -5   5   23.08    1.35
  -8  -5   5   22.99    1.43
   8  -5  -5   19.36    1.22
   8   5  -5   23.70    1.38
  -8   5   5   19.80    1.47
   8   5  -5   22.60    1.16
   8   5  -5   22.36    1.35
   7  -5  -5   10.95    0.88
   7  -5  -5    9.43    0.83
  -7  -5   5    9.99    0.91
  -7  -5   5    7.74    0.84
  -7   5   5    9.71    0.97
  -7   5   5    9.70    0.81
   7   5  -5    8.30    0.83
   7   5  -5   10.63    0.77
   7   5  -5    7.57    0.83
  -6  -5   5   48.02    1.65
   6  -5  -5   48.96    1.67
  -6  -5   5   44.95    1.67
   6  -5  -5   48.54    1.68
   6   5  -5   41.11    1.62
   6   5  -5   42.07    1.55
  -6   5   5   44.72    1.68
  -6   5   5   41.58    1.44
   6   5  -5   40.94    1.43
   5  -5  -5    0.55    0.42
   5  -5  -5    0.71    0.44
  -5  -5   5    0.82    0.49
  -5  -5   5    1.20    0.48
   5   5  -5    0.73    0.48
   5   5  -5    0.77    0.40
  -5   5   5    1.03    0.47
   5   5  -5    1.08    0.43
  -5   5   5    0.88    0.50
   4  -5  -5   53.39    1.68
   4  -5  -5   54.60    1.71
  -4  -5   5   53.53    1.60
  -4  -5   5   54.78    1.73
  -4   5   5   51.25    1.62
   4   5  -5   49.35    1.61
  -4   5   5   49.85    1.51
   4   5  -5   50.19    1.70
   4   5  -5   49.42    1.54
   3  -5  -5   13.27    0.79
   3  -5  -5   12.52    0.77
  -3  -5   5   13.25    0.83
  -3  -5   5   12.55    0.69
  -3   5   5   10.38    0.70
   3   5  -5   13.35    0.86
  -3   5   5   12.22    0.73
   3   5  -5   12.25    0.70
   3   5  -5   11.85    0.74
   2  -5  -5   21.74    0.95
   2  -5  -5   21.20    0.94
  -2  -5   5   22.62    0.80
  -2  -5   5   22.00    0.83
   2   5  -5   23.45    0.98
  -2   5   5   21.63    0.90
   2   5  -5   22.56    1.02
   2   5  -5   23.85    0.92
  -2   5   5   22.93    0.88
  -1  -5   5   66.46    1.86
   1  -5  -5   71.92    1.94
   1  -5  -5   67.83    1.94
  -1  -5   5   70.49    1.88
   1   5  -5   70.67    2.05
   1   5  -5   73.45    2.06
  -1   5   5   68.91    1.92
   1   5  -5   69.93    1.95
  -1   5   5   71.99    1.87
   0  -5  -5    7.15    0.49
   0  -5  -5    8.00    0.57
   0  -5   5    6.63    0.49
   0  -5  -5    7.20    0.57
   0  -5   5    7.79    0.58
   0   5  -5    7.97    0.65
   0   5  -5    7.16    0.55
   0   5   5    6.54    0.54
   0   5   5    7.18    0.47
   0   5  -5    7.51    0.62
   0   5   5    7.38    0.57
   0   5   5    8.42    0.64
  -1  -5  -5   94.57    2.45
  -1  -5  -5   96.78    2.46
  -1  -5  -5   94.16    2.33
  -1  -5  -5   93.09    2.46
   1  -5   5   95.97    2.45
   1  -5   5   95.61    2.51
   1   5   5  103.48    2.56
   1   5   5  105.55    2.70
  -1   5  -5  107.01    2.84
  -1   5  -5  104.28    2.69
  -1   5  -5  104.59    2.77
   1   5   5  101.90    2.51
   1   5   5  105.78    2.48
   2  -5   5    9.94    0.70
  -2  -5  -5   10.53    0.64
   2  -5   5   10.13    0.60
  -2  -5  -5    9.95    0.66
  -2  -5  -5   10.11    0.67
  -2  -5  -5    9.19    0.60
  -2   5  -5    8.79    0.67
  -2   5  -5    8.63    0.61
   2   5   5   10.22    0.68
   2   5   5    8.56    0.43
   2   5   5    7.81    0.46
  -2   5  -5    9.17    0.73
   2   5   5    8.37    0.63
   3  -5   5   22.62    0.99
  -3  -5  -5   22.17    0.90
  -3  -5  -5   22.18    0.88
  -3  -5  -5   20.05    0.97
   3  -5   5   21.01    0.87
  -3  -5  -5   22.08    0.86
  -3   5  -5   17.68    1.00
   3   5   5   20.82    0.97
   3   5   5   18.72    0.66
  -3   5  -5   20.42    0.87
   3   5   5   18.98    0.89
   3   5   5   19.10    0.69
  -3   5  -5   18.32    0.90
   4  -5   5   14.51    0.73
  -4  -5  -5   14.94    0.93
  -4  -5  -5   14.69    0.76
  -4  -5  -5   15.41    0.84
   4  -5   5   15.91    0.89
   4   5   5   16.08    0.94
  -4   5  -5   16.32    0.81
   4   5   5   15.21    0.82
  -4   5  -5   16.25    1.06
  -4   5  -5   14.41    0.87
   4   5   5   14.36    0.64
   5  -5   5    8.53    0.61
   5  -5   5    7.84    0.73
  -5  -5  -5    8.54    0.79
  -5  -5  -5    8.51    0.71
  -5   5  -5   10.40    0.95
  -5   5  -5   10.78    0.80
   5   5   5   10.36    0.74
   5   5   5    9.84    0.63
   5   5   5    9.71    0.83
  -5   5  -5    9.99    0.71
   6  -5   5   30.64    1.15
   6  -5   5   32.68    1.40
  -6  -5  -5   32.82    1.36
  -6  -5  -5   29.74    1.42
   6   5   5   29.32    1.17
   6   5   5   28.87    1.10
  -6   5  -5   30.31    1.54
  -6   5  -5   29.36    1.25
  -7  -5  -5    7.14    0.91
   7  -5   5    8.93    0.87
  -7  -5  -5    7.63    0.85
   7   5   5    6.47    0.66
  -7   5  -5    6.30    0.73
   8  -5   5   31.65    1.56
  -8  -5  -5   32.08    1.62
  -8  -5  -5   35.16    1.75
  -8   5  -5   32.35    1.48
   8   5   5   32.50    1.38
  -9  -5  -5    2.38    0.98
  -9  -5  -5    1.11    0.84
   9  -5   5    1.85    0.76
  -9   5  -5    2.42    0.73
   9   5   5    2.91    0.74
  10   5   5    5.97    0.97
 -10   5  -5    6.32    0.96
  10  -6  -5   20.12    1.50
 -10  -6   5   22.76    1.71
  10  -6  -5   19.54    1.43
 -10  -6   5   21.11    1.60
  10   6  -5   18.46    1.49
  10   6  -5   19.17    1.57
   9  -6  -5   12.48    1.15
   9  -6  -5   15.36    1.28
  -9  -6   5   17.15    1.42
  -9  -6   5   14.67    1.32
  -9   6   5   16.24    1.87
   9   6  -5   13.76    1.25
   9   6  -5   16.16    1.39
   9   6  -5   14.16    1.07
  -8  -6   5    9.49    1.09
   8  -6  -5    8.84    1.01
   8  -6  -5    6.02    0.87
  -8  -6   5    8.81    1.05
  -8   6   5    8.98    1.19
   8   6  -5    8.95    0.84
   8   6  -5    8.10    1.06
   8   6  -5    8.71    0.98
  -7  -6   5   24.03    1.42
  -7  -6   5   23.64    1.46
   7  -6  -5   25.08    1.42
   7  -6  -5   22.64    1.32
   7   6  -5   24.40    1.23
   7   6  -5   25.07    1.40
  -7   6   5   23.69    1.57
   7   6  -5   24.90    1.55
   6  -6  -5    3.17    0.65
  -6  -6   5    3.79    0.73
   6  -6  -5    3.63    0.70
  -6  -6   5    2.54    0.70
   6   6  -5    4.95    0.82
   6   6  -5    4.86    0.69
  -6   6   5    5.77    0.85
   6   6  -5    4.54    0.63
  -5  -6   5   27.79    1.30
   5  -6  -5   26.84    1.28
  -5  -6   5   27.47    1.23
   5  -6  -5   24.93    1.25
   5   6  -5   27.03    1.14
  -5   6   5   26.08    1.30
   5   6  -5   24.58    1.20
   5   6  -5   26.24    1.35
   4  -6  -5   11.78    0.84
   4  -6  -5   10.49    0.80
  -4  -6   5    9.69    0.81
   4   6  -5   11.71    0.92
  -4   6   5   12.41    0.91
   4   6  -5   12.35    0.86
  -4   6   5   11.35    0.83
   4   6  -5   12.03    0.82
   3  -6  -5    9.75    0.76
   3  -6  -5    7.85    0.71
  -3  -6   5   11.11    0.83
   3   6  -5   11.97    0.82
   3   6  -5   11.11    0.81
  -3   6   5   10.72    0.79
  -3   6   5   11.75    0.74
   3   6  -5   13.19    0.97
   2  -6  -5   31.57    1.25
   2  -6  -5   32.12    1.25
  -2  -6   5   28.81    1.29
  -2  -6   5   29.32    1.11
  -2   6   5   26.87    1.09
   2   6  -5   27.55    1.12
   2   6  -5   30.82    1.22
  -2   6   5   28.69    1.07
   2   6  -5   29.03    1.26
  -1  -6   5   20.11    0.91
   1  -6  -5   21.50    1.03
   1  -6  -5   21.11    1.00
  -1  -6   5   21.53    0.92
   1   6  -5   21.04    0.96
  -1   6   5   21.27    0.95
   1   6  -5   21.51    1.10
   1   6  -5   20.62    1.01
  -1   6   5   21.24    0.85
   0  -6   5   29.21    1.09
   0  -6  -5   27.53    1.15
   0  -6   5   27.92    1.12
   0  -6  -5   29.42    1.15
   0   6   5   28.26    0.93
   0   6  -5   28.81    1.12
   0   6  -5   28.79    1.20
   0   6  -5   26.40    1.17
   0   6   5   29.08    1.13
  -1  -6  -5    0.26    0.40
   1  -6   5    0.05    0.38
  -1  -6  -5    0.12    0.37
   1  -6   5   -0.11    0.31
  -1   6  -5    0.01    0.43
   1   6   5    0.05    0.33
  -1   6  -5    0.12    0.40
   1   6   5    0.12    0.26
   1   6   5    0.07    0.42
  -1   6  -5    0.32    0.37
   2  -6   5   54.80    1.64
  -2  -6  -5   53.85    1.63
  -2  -6  -5   53.13    1.56
  -2  -6  -5   54.48    1.66
   2  -6   5   51.40    1.72
  -2  -6  -5   50.65    1.63
   2   6   5   56.86    1.79
   2   6   5   56.01    1.46
   2   6   5   55.11    1.43
   2   6   5   56.79    1.70
  -2   6  -5   60.97    1.86
  -2   6  -5   58.45    1.91
  -2   6  -5   60.32    1.79
   2   6   5   59.04    1.82
   3  -6   5    5.16    0.56
   3  -6   5    5.91    0.68
  -3  -6  -5    5.46    0.57
  -3  -6  -5    5.16    0.55
  -3  -6  -5    6.43    0.67
  -3  -6  -5    4.88    0.55
  -3   6  -5    4.93    0.58
   3   6   5    4.96    0.65
  -3   6  -5    5.44    0.72
  -3   6  -5    4.79    0.61
   3   6   5    4.05    0.32
   3   6   5    5.51    0.62
   3   6   5    5.09    0.40
  -4  -6  -5   35.83    1.26
  -4  -6  -5   37.20    1.37
  -4  -6  -5   35.01    1.42
   4  -6   5   32.96    1.42
   4  -6   5   35.64    1.28
  -4   6  -5   29.99    1.47
  -4   6  -5   31.33    1.30
   4   6   5   29.14    0.90
   4   6   5   29.79    1.22
   4   6   5   32.02    0.91
  -4   6  -5   32.55    1.25
   4   6   5   32.22    1.37
  -5  -6  -5   27.48    1.36
  -5  -6  -5   25.96    1.11
  -5  -6  -5   25.71    1.26
   5  -6   5   25.71    1.11
   5  -6   5   27.71    1.34
   5   6   5   21.44    0.80
  -5   6  -5   21.66    1.07
  -5   6  -5   23.12    1.36
   5   6   5   22.19    1.09
   5   6   5   23.96    1.28
  -5   6  -5   21.74    1.15
   6  -6   5    5.67    0.79
  -6  -6  -5    6.63    0.83
  -6  -6  -5    7.30    0.90
   6  -6   5    6.38    0.66
  -6   6  -5    7.02    1.00
  -6   6  -5    6.43    0.74
   6   6   5    7.17    0.90
   6   6   5    6.33    0.74
   6   6   5    7.08    0.55
  -6   6  -5    5.92    0.67
  -7  -6  -5   33.50    1.70
   7  -6   5   31.65    1.59
  -7  -6  -5   32.58    1.62
   7   6   5   31.99    1.20
  -7   6  -5   31.05    1.46
   7   6   5   33.84    1.70
   8  -6   5    2.95    0.82
  -8  -6  -5    3.46    0.92
  -8  -6  -5    3.54    0.99
  -8   6  -5    3.07    0.76
   8   6   5    2.48    0.64
  -9  -6  -5    8.69    1.29
   9  -6   5    6.99    1.06
  -9  -6  -5    7.19    1.15
  -9   6  -5    8.60    1.00
   9   6   5    6.53    0.83
   8  -7  -5   15.04    1.31
   8  -7  -5   12.79    1.18
  -8  -7   5   14.77    1.33
   8   7  -5   14.86    1.24
   8   7  -5   16.16    1.11
   8   7  -5   17.34    1.49
  -8   7   5   15.12    1.42
   7  -7  -5    7.37    1.02
   7  -7  -5    5.26    0.89
  -7  -7   5    6.15    1.02
   7   7  -5    7.21    0.94
   7   7  -5    5.99    1.08
   7   7  -5    5.47    0.78
  -7   7   5    7.65    1.12
  -6  -7   5   16.66    1.22
   6  -7  -5   20.68    1.38
   6  -7  -5   16.32    1.18
  -6   7   5   17.80    1.43
   6   7  -5   19.07    1.18
   6   7  -5   18.73    1.38
   6   7  -5   18.35    1.25
   5  -7  -5    4.00    0.73
  -5  -7   5    4.81    0.82
   5  -7  -5    4.62    0.79
   5   7  -5    4.25    0.69
  -5   7   5    5.33    0.80
   5   7  -5    3.85    0.66
   5   7  -5    5.13    0.88
   4  -7  -5   24.99    1.30
  -4  -7   5   23.96    1.32
   4  -7  -5   21.68    1.31
   4   7  -5   21.07    1.36
   4   7  -5   23.15    1.18
  -4   7   5   21.88    1.18
   4   7  -5   22.47    1.19
   3  -7  -5   13.77    0.99
   3  -7  -5   14.42    1.02
   3   7  -5   15.37    1.03
   3   7  -5   14.65    1.01
   3   7  -5   15.83    1.16
  -3   7   5   15.79    0.98
   2  -7  -5   17.15    1.08
   2  -7  -5   18.62    1.15
  -2  -7   5   21.33    1.04
   2   7  -5   21.56    1.09
   2   7  -5   23.08    1.16
   2   7  -5   22.88    1.28
  -2   7   5   22.81    1.03
   1  -7  -5   19.79    1.11
  -1  -7   5   20.59    1.03
  -1  -7   5   21.11    1.07
   1  -7  -5   21.94    1.16
   1   7  -5   20.09    1.10
  -1   7   5   20.24    0.90
   1   7  -5   20.20    1.20
   1   7  -5   19.85    1.05
   0  -7   5    2.30    0.55
   0  -7   5    2.68    0.52
   0  -7  -5    1.55    0.51
   0  -7  -5    2.34    0.59
   0   7  -5    3.88    0.67
   0   7  -5    1.76    0.51
   0   7  -5    3.63    0.64
   0   7   5    2.50    0.60
   0   7   5    3.42    0.44
  -1  -7  -5   18.75    1.04
  -1  -7  -5   20.43    1.11
   1  -7   5   19.67    1.09
   1  -7   5   18.48    0.99
   1   7   5   22.22    1.14
   1   7   5   21.62    0.78
  -1   7  -5   20.25    1.19
  -1   7  -5   22.49    1.23
  -1   7  -5   24.51    1.16
   2  -7   5   14.21    0.90
  -2  -7  -5   12.78    0.87
   2  -7   5   12.01    0.93
  -2  -7  -5   13.82    0.91
  -2  -7  -5   13.33    0.88
   2   7   5   14.51    0.98
   2   7   5   13.75    0.94
  -2   7  -5   16.19    0.99
   2   7   5   14.00    0.70
  -2   7  -5   15.12    1.05
  -2   7  -5   15.08    1.10
   2   7   5   12.80    0.52
   3  -7   5   21.83    1.21
  -3  -7  -5   19.93    1.13
  -3  -7  -5   20.67    1.09
  -3  -7  -5   21.05    1.16
   3  -7   5   21.07    1.07
  -3   7  -5   19.70    1.29
   3   7   5   18.69    1.11
  -3   7  -5   20.18    1.12
   3   7   5   18.53    1.17
  -3   7  -5   20.23    1.15
   3   7   5   19.41    1.16
   4  -7   5    3.72    0.60
  -4  -7  -5    3.97    0.73
   4  -7   5    3.31    0.69
  -4  -7  -5    3.00    0.73
  -4  -7  -5    3.36    0.59
   4   7   5    3.55    0.75
  -4   7  -5    3.42    0.64
   4   7   5    2.45    0.63
  -4   7  -5    3.44    0.62
  -4   7  -5    3.25    0.80
   4   7   5    3.24    0.75
  -5  -7  -5    7.13    0.92
   5  -7   5    7.02    0.73
  -5  -7  -5    5.26    0.68
  -5  -7  -5    4.81    0.80
   5  -7   5    5.43    0.81
   5   7   5    4.13    0.84
  -5   7  -5    4.31    0.68
  -5   7  -5    3.99    0.91
  -5   7  -5    4.71    0.75
   5   7   5    4.50    0.73
  -6  -7  -5   10.49    1.06
   6  -7   5   13.25    0.95
  -6  -7  -5   11.52    1.14
   6  -7   5   13.51    1.14
  -6   7  -5   12.89    1.04
  -6   7  -5   11.59    0.94
   6   7   5   11.15    1.11
  -6   7  -5   13.28    1.33
   6   7   5   11.30    0.62
   7  -7   5    0.75    0.75
  -7  -7  -5    0.27    0.90
  -7  -7  -5    0.52    0.94
  -7   7  -5    2.05    0.72
   7   7   5    1.20    0.93
   7   7   5    1.49    0.47
  -8  -7  -5   12.24    1.35
   8  -7   5   12.85    1.30
  -8  -7  -5   14.54    1.44
   8   7   5   13.33    0.96
  -8   7  -5   10.96    1.12
   8   7   5   12.57    1.37
   7  -8  -5   13.31    1.35
   7  -8  -5    9.41    1.13
  -7  -8   5    9.98    1.26
   7   8  -5   11.64    1.44
   7   8  -5   12.98    1.18
   7   8  -5   10.88    1.07
  -7   8   5   11.83    1.35
  -6  -8   5    4.71    1.06
   6  -8  -5    4.30    0.92
   6  -8  -5    6.03    1.07
   6   8  -5    4.51    0.88
  -6   8   5    5.40    1.06
   6   8  -5    4.76    0.86
   6   8  -5    4.40    1.14
  -5  -8   5    9.94    1.11
   5  -8  -5    8.50    0.99
   5  -8  -5   10.64    1.13
   5   8  -5   10.32    1.23
   5   8  -5   11.44    1.02
   5   8  -5    9.02    0.93
  -5   8   5    9.97    1.07
   4  -8  -5   12.57    1.10
   4  -8  -5   18.26    1.28
  -4   8   5   15.88    1.25
   4   8  -5   17.91    1.25
   4   8  -5   16.01    1.11
   4   8  -5   19.67    1.41
   3  -8  -5   11.57    1.01
   3  -8  -5   11.08    1.04
   3   8  -5   11.42    0.99
   3   8  -5   12.36    0.99
   3   8  -5   14.18    1.23
  -3   8   5   12.36    0.95
  -2  -8   5   10.54    0.84
   2  -8  -5   10.28    0.98
   2  -8  -5    8.80    0.90
   2   8  -5    9.85    0.88
   2   8  -5   10.91    0.94
   2   8  -5   11.46    1.11
  -2   8   5   10.46    0.82
  -1  -8   5    2.67    0.63
   1  -8  -5    3.02    0.68
   1  -8  -5    2.95    0.75
   1   8  -5    3.58    0.73
   1   8  -5    3.69    0.68
  -1   8   5    2.87    0.55
   1   8  -5    3.28    0.79
   0  -8  -5   18.60    1.20
   0  -8   5   21.39    1.16
   0  -8  -5   19.46    1.31
   0  -8   5   19.59    1.21
   0   8  -5   21.88    1.25
   0   8  -5   17.38    1.25
   0   8  -5   18.94    1.27
  -1  -8  -5    0.59    0.65
   1  -8   5    0.11    0.62
   1  -8   5   -0.04    0.51
  -1  -8  -5   -0.21    0.54
   1   8   5    0.26    0.36
  -1   8  -5    0.74    0.69
  -1   8  -5    0.45    0.57
  -1   8  -5    0.35    0.64
   2  -8   5    6.26    0.75
  -2  -8  -5    7.16    0.86
  -2  -8  -5    6.47    0.75
   2  -8   5    5.94    0.83
  -2   8  -5    6.83    0.93
   2   8   5    7.28    0.91
  -2   8  -5    7.85    0.89
  -2   8  -5    8.07    0.85
  -3  -8  -5    3.61    0.83
   3  -8   5    3.18    0.66
   3  -8   5    3.41    0.76
  -3  -8  -5    2.27    0.67
  -3  -8  -5    2.14    0.81
  -3   8  -5    3.16    0.87
   3   8   5    2.09    0.75
  -3   8  -5    3.25    0.74
  -3   8  -5    2.71    0.69
   3   8   5    2.42    1.21
   4  -8   5   14.15    1.01
  -4  -8  -5   10.27    0.89
  -4  -8  -5   11.13    1.05
   4  -8   5   11.67    1.08
   4   8   5   10.68    0.97
  -4   8  -5    9.71    0.99
  -4   8  -5   10.47    0.98
  -4   8  -5   11.57    1.21
   4   8   5    9.67    1.04
   5  -8   5    9.16    1.06
   5  -8   5    8.41    0.90
  -5  -8  -5    8.54    1.08
  -5   8  -5    6.88    0.91
  -5   8  -5    7.88    1.20
   5   8   5    7.02    1.05
  -5   8  -5    4.94    0.84
  -6  -8  -5    2.89    1.03
   6  -8   5    3.39    0.94
   6  -8   5    3.31    0.79
  -6   8  -5    2.19    0.82
   6   8   5    1.80    1.01
  -6   8  -5    2.71    0.81
  -6   8  -5    2.68    1.13
   5  -9  -5    0.59    0.90
   5  -9  -5    0.89    1.02
   5   9  -5    0.82    1.12
   5   9  -5    0.54    0.81
  -5   9   5    0.85    0.95
   5   9  -5    0.53    0.83
   4  -9  -5   21.11    1.49
   4  -9  -5   16.29    1.30
   4   9  -5   19.17    1.58
   4   9  -5   20.59    1.47
   4   9  -5   20.69    1.47
  -4   9   5   19.36    1.50
   3  -9  -5    6.24    1.05
   3  -9  -5    5.18    0.93
   3   9  -5    6.11    0.92
   3   9  -5    8.13    0.97
   3   9  -5    7.10    1.18
  -3   9   5    6.34    0.89
   2  -9  -5    2.22    0.81
   2  -9  -5    2.39    0.92
  -2  -9   5    3.51    0.77
   2   9  -5    3.21    0.82
   2   9  -5    3.05    0.84
  -2   9   5    3.63    0.75
   2   9  -5    2.51    0.96
   1  -9  -5   13.66    1.14
   1  -9  -5   16.31    1.25
  -1  -9   5   18.03    1.18
   1   9  -5   15.72    1.33
   1   9  -5   18.06    1.25
  -1   9   5   15.30    1.07
   1   9  -5   17.03    1.39
   0  -9   5    0.29    0.66
   0  -9  -5    0.57    0.71
   0  -9  -5    0.92    0.82
   0   9   5    0.32    0.52
   0   9  -5    0.14    0.77
   0   9  -5    0.45    0.82
   0   9  -5    0.23    0.69
   1  -9   5   10.53    0.99
  -1  -9  -5    7.57    0.92
  -1  -9  -5   10.10    1.08
   1  -9   5   10.46    1.07
   1   9   5   11.58    0.69
  -1   9  -5   13.24    1.13
  -1   9  -5   14.94    1.26
  -1   9  -5   15.55    1.28
   2  -9   5    3.22    0.76
  -2  -9  -5    3.34    0.80
   2  -9   5    3.21    0.90
  -2  -9  -5    3.75    0.90
   2   9   5    4.24    0.96
   2   9   5    3.37    0.96
  -2   9  -5    2.76    0.87
  -2   9  -5    3.96    0.99
  -2   9  -5    3.22    0.81
   3  -9   5    7.57    1.07
  -3  -9  -5    6.96    0.93
   3  -9   5    8.82    0.95
  -3   9  -5    7.94    1.05
   3   9   5    8.32    1.09
  -3   9  -5    8.47    1.03
  -3   9  -5    9.61    1.25
   4  -9   5    2.84    0.97
   4  -9   5    1.72    0.74
  -4   9  -5    2.94    0.86
  -4   9  -5    2.82    0.86
  -4   9  -5    2.11    1.09
 -12   0   6    0.58    1.06
  12   0  -6    0.44    0.74
  11   0  -6    8.69    0.83
 -11   0   6    8.86    1.15
  10   0  -6    0.68    0.51
 -10   0   6    0.04    0.60
 -10   0   6    0.26    0.78
   9   0  -6   68.36    1.94
   9   0  -6   66.55    2.36
  -9   0   6   64.55    2.18
  -9   0   6   66.02    1.97
   8   0  -6    8.94    0.64
   8   0  -6    6.98    0.78
  -8   0   6    7.39    0.77
  -8   0   6    7.55    0.62
  -7   0   6   15.88    0.77
   7   0  -6   14.40    0.99
   7   0  -6   14.33    0.73
  -7   0   6   16.26    0.94
  -6   0   6   99.07    2.75
  -6   0   6   96.54    2.57
  -6   0   6   97.86    2.41
   6   0  -6   95.02    2.70
   6   0  -6   96.58    2.46
  -5   0   6    4.44    0.36
  -5   0   6    4.34    0.54
  -5   0   6    3.34    0.30
   5   0  -6    3.57    0.27
  -5   0   6    3.25    0.44
   5   0  -6    4.32    0.38
  -4   0   6   51.05    1.45
   4   0  -6   50.14    1.35
   4   0  -6   47.55    1.54
  -4   0   6   48.05    1.52
  -4   0   6   51.61    1.28
   4   0  -6   50.40    1.25
   4   0  -6   48.78    1.30
  -4   0   6   48.57    1.29
  -3   0   6   28.38    0.80
   3   0  -6   28.09    1.03
  -3   0   6   26.43    0.99
  -3   0   6   27.53    0.80
  -3   0   6   29.34    0.95
   3   0  -6   28.40    0.82
   3   0  -6   25.99    0.77
   3   0  -6   28.97    0.86
   2   0  -6  234.26    5.29
   2   0  -6  238.34    5.49
  -2   0   6  227.59    5.38
   2   0  -6  233.74    5.32
  -2   0   6  236.00    5.30
  -2   0   6  227.66    5.45
   2   0  -6  242.75    5.29
   1   0  -6   46.77    1.20
  -1   0   6   47.32    1.22
  -1   0   6   47.48    1.28
  -1   0   6   46.19    1.35
   1   0  -6   46.09    1.36
   1   0  -6   44.60    1.18
   0   0  -6   21.64    0.67
   0   0   6   24.66    0.75
   0   0  -6   23.43    0.71
   0   0   6   22.48    0.85
   0   0  -6   24.44    0.85
   0   0   6   25.76    0.79
  -1   0  -6  186.98    4.33
   1   0   6  182.29    4.23
   1   0   6  183.43    4.25
  -1   0  -6  177.32    4.11
  -1   0  -6  184.16    4.20
   1   0   6  183.14    4.34
   2   0   6   11.75    0.52
  -2   0  -6   11.18    0.51
  -2   0  -6   11.49    0.51
  -2   0  -6   11.15    0.62
   2   0   6   10.88    0.53
   2   0   6   11.21    0.63
  -2   0  -6   11.58    0.36
  -3   0  -6  184.00    4.28
   3   0   6  183.43    4.44
  -3   0  -6  187.20    4.39
   3   0   6  183.40    4.30
  -3   0  -6  179.47    4.28
   3   0   6  181.76    4.30
  -4   0  -6   19.48    0.79
   4   0   6   20.37    0.79
  -4   0  -6   20.04    0.77
   4   0   6   20.17    0.78
   4   0   6   20.41    0.92
  -5   0  -6   27.49    1.00
   5   0   6   27.22    1.14
   5   0   6   28.00    1.00
  -5   0  -6   26.80    0.99
   6   0   6    2.13    0.48
  -6   0  -6    2.40    0.43
   6   0   6    1.82    0.39
   7   0   6   58.45    2.04
  -7   0  -6   61.32    1.85
  -7   0  -6   62.67    1.87
   7   0   6   61.34    1.83
  -8   0  -6   50.37    1.71
   8   0   6   50.78    1.69
   8   0   6   50.71    1.96
  -8   0  -6   49.99    1.73
  -9   0  -6    0.52    0.54
  -9   0  -6    0.80    0.64
   9   0   6    0.58    0.70
   9   0   6    0.41    0.55
  10   0   6   46.17    1.80
 -10   0  -6   46.76    1.86
 -10   0  -6   46.77    1.90
  10   0   6   45.03    2.14
  11   0   6    2.04    1.12
 -11   0  -6    1.14    0.94
  11   0   6    1.44    0.98
 -11   0  -6    1.02    0.81
 -12  -1   6    3.90    1.20
 -12  -1   6    4.38    1.45
  12  -1  -6    3.97    0.86
  12   1  -6    3.35    0.81
 -12   1   6    2.91    1.16
 -11  -1   6    2.53    0.97
  11  -1  -6    3.38    0.73
 -11  -1   6    3.20    0.82
  11   1  -6    2.42    1.18
  11   1  -6    2.00    0.63
 -11   1   6    2.33    0.97
 -10  -1   6   30.01    1.39
 -10  -1   6   30.62    1.63
  10  -1  -6   29.45    1.31
  10   1  -6   30.96    1.27
  10   1  -6   31.98    1.75
 -10   1   6   31.08    1.63
  -9  -1   6   11.73    1.00
   9  -1  -6   11.88    0.85
  -9  -1   6   12.13    0.85
   9   1  -6   11.16    1.00
  -9   1   6   12.39    0.99
   9   1  -6   10.99    0.77
  -8  -1   6   55.23    1.70
   8  -1  -6   55.89    1.68
  -8  -1   6   54.65    1.87
  -8   1   6   49.76    1.63
   8   1  -6   50.90    1.89
  -8   1   6   53.18    1.79
   8   1  -6   50.88    1.54
   7  -1  -6   66.64    2.25
   7  -1  -6   73.95    2.11
  -7  -1   6   71.71    2.11
   7  -1  -6   69.40    1.94
  -7  -1   6   69.69    1.95
   7   1  -6   76.09    2.26
  -7   1   6   70.12    1.88
  -7   1   6   69.95    2.11
   7   1  -6   72.44    1.96
   6  -1  -6   18.34    0.68
  -6  -1   6   17.19    0.78
  -6  -1   6   16.00    0.88
   6  -1  -6   18.30    0.78
   6  -1  -6   16.58    0.98
   6   1  -6   17.35    0.74
  -6   1   6   16.62    0.88
   6   1  -6   16.77    0.95
  -6   1   6   16.98    0.68
  -6   1   6   18.69    1.02
  -5  -1   6   76.77    2.23
   5  -1  -6   81.69    2.30
  -5  -1   6   81.79    2.16
   5  -1  -6   80.47    1.99
  -5  -1   6   78.35    2.05
   5  -1  -6   81.73    2.08
   5   1  -6   77.13    2.04
   5   1  -6   82.15    2.09
  -5   1   6   78.58    2.23
  -5   1   6   79.26    2.15
   5   1  -6   79.65    2.27
  -5   1   6   80.81    1.94
  -4  -1   6    0.73    0.25
   4  -1  -6    0.77    0.19
   4  -1  -6    1.11    0.22
  -4  -1   6    0.75    0.18
   4  -1  -6    1.19    0.27
   4  -1  -6    0.68    0.34
  -4  -1   6    0.87    0.31
  -4  -1   6    0.62    0.36
  -4   1   6    0.96    0.32
  -4   1   6    0.96    0.36
  -4   1   6    0.67    0.19
   4   1  -6    1.00    0.27
   4   1  -6    1.20    0.38
   4   1  -6    1.08    0.26
  -3  -1   6   25.52    0.80
   3  -1  -6   23.84    0.68
   3  -1  -6   25.09    0.97
   3  -1  -6   23.53    0.80
  -3  -1   6   25.19    0.87
  -3  -1   6   25.94    0.71
   3  -1  -6   24.66    0.76
  -3  -1   6   26.28    0.96
   3   1  -6   24.69    0.98
  -3   1   6   25.79    0.89
  -3   1   6   25.95    0.95
   3   1  -6   25.74    0.83
   3   1  -6   25.66    0.84
  -3   1   6   27.22    0.82
   2  -1  -6   39.55    1.08
  -2  -1   6   42.87    1.16
  -2  -1   6   39.32    1.23
   2  -1  -6   37.68    0.96
   2  -1  -6   39.00    1.23
  -2  -1   6   40.18    1.04
   2   1  -6   32.88    1.10
  -2   1   6   34.62    1.03
   2   1  -6   33.28    0.97
  -2   1   6   32.22    0.96
  -2   1   6   32.20    1.06
   2   1  -6   32.11    0.95
   1  -1  -6   50.27    1.30
  -1  -1   6   47.41    1.32
   1  -1  -6   49.01    1.42
  -1  -1   6   51.43    1.29
   1  -1  -6   50.96    1.28
   1  -1  -6   50.06    1.20
  -1  -1   6   49.15    1.44
  -1   1   6   49.90    1.31
  -1   1   6   47.18    1.35
   1   1  -6   50.45    1.32
   1   1  -6   48.38    1.26
  -1   1   6   49.27    1.39
   1   1  -6   48.37    1.43
   0  -1  -6  113.78    2.64
   0  -1   6  112.75    2.87
   0  -1   6  117.45    2.73
   0  -1   6  111.08    2.74
   0  -1  -6  119.58    2.74
   0  -1  -6  116.20    2.66
   0   1  -6  115.57    2.78
   0   1   6  120.07    2.80
   0   1  -6  113.18    2.71
   0   1   6  119.08    2.85
   0   1   6  115.31    2.83
   0   1  -6  116.68    2.91
  -1  -1  -6   74.95    1.94
   1  -1   6   77.42    2.07
  -1  -1  -6   76.32    1.80
  -1  -1  -6   76.96    1.85
   1  -1   6   78.71    1.92
   1  -1   6   77.42    1.91
  -1   1  -6   76.84    1.86
   1   1   6   78.07    1.97
  -1   1  -6   76.95    1.97
   1   1   6   78.58    2.01
   1   1   6   81.94    2.04
  -1   1  -6   78.34    2.09
   2  -1   6  125.74    2.96
  -2  -1  -6  121.75    3.00
   2  -1   6  126.62    3.14
   2  -1   6  122.71    2.98
  -2  -1  -6  123.14    2.80
  -2  -1  -6  125.37    2.93
   2   1   6  119.15    2.93
  -2   1  -6  123.53    2.92
  -2   1  -6  121.89    2.85
  -2   1  -6  117.33    3.02
  -2   1  -6  120.75    2.75
   2   1   6  120.71    2.97
   2   1   6  118.65    2.90
  -3  -1  -6    2.27    0.33
   3  -1   6    3.21    0.33
  -3  -1  -6    2.74    0.31
   3  -1   6    2.37    0.32
   3  -1   6    2.11    0.38
  -3   1  -6    2.56    0.40
  -3   1  -6    3.08    0.20
   3   1   6    2.12    0.33
  -3   1  -6    1.88    0.30
   3   1   6    3.01    0.34
   3   1   6    2.71    0.39
  -3   1  -6    2.71    0.29
   4  -1   6   61.50    1.66
  -4  -1  -6   63.59    1.67
   4  -1   6   60.99    1.87
   4  -1   6   61.87    1.71
  -4  -1  -6   60.85    1.73
  -4   1  -6   58.75    1.60
   4   1   6   59.36    1.75
   4   1   6   59.16    1.69
  -4   1  -6   60.47    1.67
   4   1   6   59.46    1.63
  -5  -1  -6    4.23    0.44
  -5  -1  -6    6.14    0.54
   5  -1   6    5.00    0.60
   5  -1   6    5.26    0.49
   5  -1   6    4.95    0.46
   5   1   6    7.81    0.65
   5   1   6    6.44    0.52
  -5   1  -6    8.31    0.59
  -5   1  -6    7.03    0.52
  -6  -1  -6   42.73    1.43
  -6  -1  -6   42.75    1.37
   6  -1   6   40.72    1.56
   6  -1   6   41.40    1.38
  -6   1  -6   38.48    1.33
  -6   1  -6   39.16    1.29
   6   1   6   41.28    1.50
   6   1   6   40.82    1.31
   7  -1   6   65.62    1.97
  -7  -1  -6   66.10    1.96
  -7  -1  -6   64.93    2.01
   7  -1   6   68.07    2.22
  -7   1  -6   65.59    1.96
   7   1   6   66.06    1.95
   7   1   6   72.35    2.19
  -7   1  -6   65.13    1.98
  -8  -1  -6    9.90    0.78
  -8  -1  -6    8.18    0.83
   8  -1   6    7.53    0.93
   8  -1   6    9.48    0.80
  -8   1  -6    6.74    0.66
  -8   1  -6    7.86    0.73
   8   1   6    7.71    0.71
   8   1   6    8.55    0.89
  -9  -1  -6   66.63    2.20
   9  -1   6   67.50    2.18
   9  -1   6   72.76    2.57
  -9  -1  -6   67.53    2.28
  -9   1  -6   66.19    2.11
  -9   1  -6   67.20    2.11
   9   1   6   65.52    2.35
   9   1   6   62.05    2.04
  10  -1   6    1.88    0.72
  10  -1   6    1.81    0.96
 -10  -1  -6    1.58    0.84
 -10  -1  -6    2.58    0.76
  10   1   6    2.45    0.90
  10   1   6    1.86    0.72
 -10   1  -6    2.43    0.72
 -10   1  -6    1.79    0.79
 -11  -1  -6   18.20    1.42
 -11  -1  -6   16.78    1.30
  11  -1   6   19.94    1.48
 -11   1  -6   22.79    1.50
  11   1   6   22.15    1.70
 -12  -2   6    2.17    1.18
  12  -2  -6    2.61    0.89
 -12  -2   6    2.68    1.03
 -12   2   6    2.00    1.16
  12   2  -6    2.25    1.14
  11  -2  -6    6.80    0.85
 -11  -2   6    6.85    1.11
 -11  -2   6    6.40    0.97
  11   2  -6    7.71    0.80
  11   2  -6    6.02    1.09
 -11   2   6    7.91    1.12
 -10  -2   6    0.59    0.79
 -10  -2   6    0.86    0.69
  10  -2  -6    0.64    0.58
  10   2  -6    0.57    0.54
 -10   2   6    0.64    0.82
  10   2  -6    0.74    0.79
  -9  -2   6   24.44    1.27
  -9  -2   6   27.52    1.46
   9  -2  -6   24.69    1.19
  -9   2   6   27.45    1.39
   9   2  -6   24.39    1.09
   9   2  -6   26.63    1.49
  -8  -2   6   21.76    1.22
  -8  -2   6   19.86    1.07
   8  -2  -6   18.84    0.99
   8   2  -6   19.75    0.94
   8   2  -6   18.30    1.20
  -8   2   6   18.39    1.10
  -7  -2   6   10.33    0.71
   7  -2  -6    9.14    0.68
   7  -2  -6    9.79    0.65
  -7  -2   6   10.00    0.79
  -7   2   6    8.36    0.83
   7   2  -6    8.77    0.79
  -7   2   6    8.28    0.72
   7   2  -6    8.40    0.64
   6  -2  -6   47.06    1.45
  -6  -2   6   48.31    1.49
   6  -2  -6   47.06    1.39
  -6  -2   6   49.53    1.58
   6   2  -6   51.61    1.72
   6   2  -6   50.14    1.53
  -6   2   6   50.39    1.74
  -6   2   6   50.62    1.59
   6   2  -6   51.16    1.54
  -5  -2   6    1.39    0.39
   5  -2  -6    1.55    0.32
   5  -2  -6    1.33    0.29
  -5  -2   6    1.62    0.37
  -5   2   6    1.24    0.47
   5   2  -6    1.53    0.42
   5   2  -6    1.30    0.33
   5   2  -6    1.72    0.36
  -5   2   6    1.86    0.41
  -4  -2   6   96.44    2.37
   4  -2  -6  103.97    2.55
  -4  -2   6  106.40    2.60
   4  -2  -6  104.49    2.84
  -4  -2   6  105.53    2.62
   4  -2  -6  106.53    2.58
  -4   2   6  100.99    2.57
   4   2  -6   99.40    2.55
  -4   2   6   99.67    2.64
   4   2  -6  100.97    2.68
   4   2  -6  100.39    2.50
  -3  -2   6   10.92    0.57
   3  -2  -6   11.00    0.53
   3  -2  -6   11.02    0.52
   3  -2  -6   10.57    0.68
  -3  -2   6   11.03    0.57
  -3  -2   6    9.64    0.40
  -3  -2   6    8.85    0.62
  -3   2   6    9.09    0.57
  -3   2   6    8.33    0.61
   3   2  -6    8.97    0.62
   3   2  -6    8.84    0.55
   3   2  -6    8.98    0.49
   2  -2  -6  109.82    2.63
   2  -2  -6  109.30    2.61
  -2  -2   6  110.61    2.65
  -2  -2   6  107.02    2.53
  -2  -2   6  106.53    2.75
  -2   2   6  111.81    2.77
   2   2  -6  114.27    2.78
   2   2  -6  111.57    2.86
   2   2  -6  109.54    2.70
  -2   2   6  114.53    2.80
  -1  -2   6  115.21    2.70
   1  -2  -6  114.74    2.72
   1  -2  -6  115.63    2.50
  -1  -2   6  112.58    2.66
  -1  -2   6  110.93    2.84
   1  -2  -6  107.13    2.66
   1   2  -6  111.79    2.70
   1   2  -6  114.06    2.88
  -1   2   6  115.11    2.79
  -1   2   6  111.02    2.78
   1   2  -6  116.29    2.80
  -1   2   6  111.92    2.76
   0  -2  -6   64.81    1.60
   0  -2   6   71.53    1.91
   0  -2   6   71.48    1.74
   0  -2   6   68.40    1.70
   0  -2  -6   65.08    1.67
   0  -2  -6   70.68    1.76
   0   2  -6   68.11    1.74
   0   2   6   69.33    1.83
   0   2  -6   72.22    1.86
   0   2   6   70.92    1.86
   0   2   6   72.17    1.83
   0   2   6   69.23    1.86
   0   2  -6   71.21    1.95
   1  -2   6  184.60    4.31
  -1  -2  -6  177.81    4.12
  -1  -2  -6  173.32    4.02
  -1  -2  -6  178.74    4.17
  -1  -2  -6  177.17    4.03
   1  -2   6  172.05    4.06
   1  -2   6  177.20    4.13
   1   2   6  172.42    4.06
  -1   2  -6  173.14    4.18
   1   2   6  170.93    4.08
   1   2   6  169.82    4.04
   1   2   6  170.90    4.04
  -1   2  -6  172.19    4.07
  -1   2  -6  173.26    3.95
   2  -2   6    5.94    0.44
  -2  -2  -6    5.19    0.37
   2  -2   6    5.33    0.51
   2  -2   6    5.65    0.37
  -2  -2  -6    5.19    0.33
  -2  -2  -6    4.16    0.40
  -2   2  -6    6.31    0.55
   2   2   6    5.31    0.45
   2   2   6    6.10    0.49
  -2   2  -6    5.59    0.33
  -2   2  -6    6.75    0.48
   2   2   6    5.60    0.44
   2   2   6    6.61    0.46
  -3  -2  -6  103.19    2.64
   3  -2   6  104.08    2.51
   3  -2   6  104.91    2.63
   3  -2   6  104.92    2.80
  -3  -2  -6  103.30    2.38
  -3  -2  -6  105.83    2.55
   3   2   6  100.64    2.55
  -3   2  -6   97.78    2.39
  -3   2  -6   97.54    2.53
  -3   2  -6  100.88    2.67
   3   2   6  102.29    2.50
  -3   2  -6   97.63    2.35
   3   2   6  101.50    2.57
  -4  -2  -6   23.60    0.96
  -4  -2  -6   24.36    0.88
   4  -2   6   25.21    0.82
   4  -2   6   23.75    1.08
   4  -2   6   24.25    0.69
   4  -2   6   24.06    0.93
   4   2   6   24.93    0.99
  -4   2  -6   24.38    0.81
  -4   2  -6   24.54    0.72
   4   2   6   25.92    0.92
  -4   2  -6   23.91    1.10
  -4   2  -6   24.87    0.93
   4   2   6   25.71    0.98
   5  -2   6   32.32    1.15
   5  -2   6   32.23    1.03
   5  -2   6   30.75    1.32
  -5  -2  -6   32.82    1.10
  -5  -2  -6   33.06    1.21
  -5   2  -6   28.29    0.95
   5   2   6   26.63    1.10
   5   2   6   30.70    1.04
  -5   2  -6   28.61    1.06
   6  -2   6    7.03    0.62
  -6  -2  -6    7.39    0.70
  -6  -2  -6    6.98    0.59
   6  -2   6    9.42    0.61
   6  -2   6    6.58    0.74
  -6   2  -6    7.92    0.63
   6   2   6    8.64    0.72
  -6   2  -6    9.40    0.62
   6   2   6    9.12    0.65
  -7  -2  -6   23.56    1.18
  -7  -2  -6   23.16    1.09
   7  -2   6   23.93    1.10
   7  -2   6   22.79    1.33
   7   2   6   26.09    1.23
  -7   2  -6   23.65    1.02
   7   2   6   23.56    1.08
  -7   2  -6   25.97    1.12
   8  -2   6   51.88    1.82
  -8  -2  -6   53.45    1.91
  -8  -2  -6   55.17    1.81
  -8   2  -6   52.50    1.88
   8   2   6   51.25    1.70
   8   2   6   49.00    1.87
  -8   2  -6   52.25    1.75
   9  -2   6    0.49    0.59
  -9  -2  -6    0.62    0.73
  -9  -2  -6    0.39    0.63
  -9   2  -6    0.52    0.55
   9   2   6    0.43    0.67
   9   2   6    0.26    0.59
  10  -2   6   34.28    1.65
 -10  -2  -6   33.43    1.78
 -10  -2  -6   32.62    1.67
  10   2   6   30.09    1.75
 -10   2  -6   29.01    1.54
 -11  -2  -6    1.57    1.05
 -11  -2  -6    1.15    0.88
  11  -2   6    1.05    0.84
 -11   2  -6    1.68    0.85
  11   2   6    1.18    1.03
 -11  -3   6    2.46    0.93
  11  -3  -6    4.06    0.89
 -11  -3   6    2.55    1.06
 -11   3   6    2.50    1.04
  11   3  -6    2.44    0.98
  11   3  -6    1.75    0.70
  10  -3  -6   29.52    1.46
 -10  -3   6   27.93    1.54
 -10  -3   6   32.74    1.75
  10   3  -6   31.02    1.76
 -10   3   6   33.11    1.66
  10   3  -6   30.94    1.39
  -9  -3   6    4.68    0.87
  -9  -3   6    5.45    0.79
   9  -3  -6    4.41    0.70
  -9   3   6    5.96    0.86
   9   3  -6    6.06    0.89
   9   3  -6    5.60    0.70
   8  -3  -6   12.82    0.86
  -8  -3   6   13.75    0.94
  -8  -3   6   12.40    1.01
   8  -3  -6   11.54    0.83
  -8   3   6   11.76    0.91
   8   3  -6   12.06    0.83
  -7  -3   6   43.13    1.53
   7  -3  -6   44.30    1.44
   7  -3  -6   46.35    1.52
  -7  -3   6   44.63    1.62
  -7   3   6   41.90    1.70
   7   3  -6   40.03    1.58
   7   3  -6   39.61    1.45
  -7   3   6   38.96    1.46
   7   3  -6   42.14    1.40
   6  -3  -6    4.78    0.51
  -6  -3   6    5.81    0.60
  -6  -3   6    5.80    0.63
   6  -3  -6    5.52    0.53
   6   3  -6    4.17    0.58
   6   3  -6    4.05    0.53
   6   3  -6    2.98    0.45
  -6   3   6    3.72    0.54
  -6   3   6    3.36    0.62
  -5  -3   6   52.80    1.64
  -5  -3   6   54.30    1.66
   5  -3  -6   54.48    1.60
   5  -3  -6   59.47    1.64
   5   3  -6   58.08    1.59
  -5   3   6   55.64    1.66
   5   3  -6   54.24    1.77
  -5   3   6   53.72    1.76
   5   3  -6   53.30    1.68
   4  -3  -6    0.54    0.29
  -4  -3   6    0.65    0.35
  -4  -3   6    0.54    0.33
   4  -3  -6    0.63    0.29
  -4   3   6    0.32    0.36
   4   3  -6    0.45    0.32
  -4   3   6    0.44    0.34
   4   3  -6    0.56    0.28
   4   3  -6    0.25    0.33
  -3  -3   6   59.78    1.55
  -3  -3   6   63.71    1.72
   3  -3  -6   65.41    1.73
   3  -3  -6   64.56    1.74
  -3  -3   6   66.98    1.79
   3   3  -6   57.87    1.67
   3   3  -6   60.28    1.75
  -3   3   6   54.32    1.66
   3   3  -6   58.06    1.58
  -3   3   6   58.54    1.64
  -2  -3   6   12.81    0.53
   2  -3  -6   13.82    0.62
  -2  -3   6   13.91    0.60
   2  -3  -6   13.53    0.62
   2   3  -6   15.21    0.72
   2   3  -6   13.39    0.74
   2   3  -6   13.76    0.61
  -2   3   6   15.29    0.69
  -2   3   6   14.74    0.69
  -1  -3   6   81.37    1.95
   1  -3  -6   77.10    1.98
  -1  -3   6   75.67    2.13
   1  -3  -6   80.87    2.03
  -1  -3   6   77.31    1.95
  -1   3   6   82.81    2.11
   1   3  -6   81.08    2.08
   1   3  -6   84.24    2.20
  -1   3   6   80.46    2.14
   1   3  -6   81.14    2.24
  -1   3   6   85.71    2.16
   0  -3   6   48.60    1.53
   0  -3   6   51.28    1.31
   0  -3  -6   50.13    1.22
   0  -3  -6   51.45    1.36
   0  -3  -6   49.82    1.41
   0  -3   6   51.52    1.40
   0   3  -6   54.07    1.47
   0   3   6   55.76    1.53
   0   3   6   54.14    1.56
   0   3  -6   56.75    1.66
   0   3  -6   57.01    1.58
   0   3   6   54.43    1.56
   0   3   6   53.67    1.49
   1  -3   6   26.03    0.90
  -1  -3  -6   26.30    0.92
   1  -3   6   26.03    0.76
   1  -3   6   25.73    1.04
  -1  -3  -6   25.14    0.81
  -1  -3  -6   25.20    0.87
  -1  -3  -6   27.25    0.77
   1   3   6   23.37    0.88
  -1   3  -6   23.37    0.90
  -1   3  -6   23.61    0.99
   1   3   6   25.66    0.87
   1   3   6   24.02    0.81
   1   3   6   23.68    0.91
  -1   3  -6   24.28    0.79
   2  -3   6  121.59    3.20
   2  -3   6  127.53    3.06
   2  -3   6  128.62    2.87
   2  -3   6  119.01    2.91
  -2  -3  -6  126.39    3.00
  -2  -3  -6  120.43    3.05
  -2  -3  -6  124.17    2.90
  -2  -3  -6  117.72    2.91
  -2   3  -6  123.05    3.12
   2   3   6  121.56    3.03
   2   3   6  123.77    3.01
   2   3   6  129.33    3.09
  -2   3  -6  124.76    3.24
   2   3   6  128.00    3.13
  -2   3  -6  126.12    2.99
  -3  -3  -6    0.66    0.26
   3  -3   6    1.17    0.31
  -3  -3  -6    1.00    0.24
  -3  -3  -6    1.11    0.35
   3  -3   6    1.25    0.21
   3  -3   6    1.10    0.42
   3  -3   6    1.38    0.25
  -3   3  -6    1.09    0.30
   3   3   6    1.45    0.33
  -3   3  -6    1.56    0.42
  -3   3  -6    1.50    0.25
   3   3   6    1.10    0.36
   3   3   6    0.93    0.32
  -4  -3  -6  100.21    2.68
   4  -3   6   99.03    2.44
   4  -3   6  102.12    2.44
   4  -3   6   96.97    2.81
  -4  -3  -6  105.12    2.59
   4  -3   6  105.06    2.67
  -4   3  -6  107.14    2.94
   4   3   6  105.91    2.81
  -4   3  -6  106.41    2.59
  -4   3  -6  104.77    2.78
   4   3   6  111.08    2.74
  -4   3  -6  108.07    2.54
   4   3   6  105.16    2.71
  -5  -3  -6   15.85    0.90
  -5  -3  -6   15.61    0.81
   5  -3   6   15.87    0.84
   5   3   6   13.80    0.86
  -5   3  -6   14.25    0.77
   5   3   6   13.70    0.77
   5   3   6   13.79    0.77
  -6  -3  -6   39.42    1.48
  -6  -3  -6   37.78    1.35
   6  -3   6   36.98    1.40
   6   3   6   35.25    1.33
   6   3   6   35.68    1.24
  -6   3  -6   35.97    1.33
  -7  -3  -6   63.66    2.08
  -7  -3  -6   60.68    1.93
   7  -3   6   63.12    2.00
  -7   3  -6   60.80    1.88
   7   3   6   57.33    1.77
   7   3   6   56.67    1.89
   8  -3   6    6.52    0.78
  -8  -3  -6    4.96    0.69
  -8  -3  -6    4.67    0.83
  -8   3  -6    6.42    0.73
   8   3   6    5.22    0.77
   8   3   6    5.65    0.71
  -9  -3  -6   27.98    1.45
  -9  -3  -6   27.75    1.62
   9  -3   6   27.91    1.45
   9   3   6   22.71    1.47
  -9   3  -6   26.51    1.38
 -10  -3  -6    2.19    0.99
 -10  -3  -6    2.49    0.90
  10  -3   6    4.62    0.89
 -10   3  -6    1.96    0.73
  10   3   6    2.36    0.88
  11  -4  -6   14.22    1.26
 -11  -4   6   13.82    1.47
 -11  -4   6   14.83    1.33
  11   4  -6   13.89    1.40
 -10  -4   6    2.75    1.01
  10  -4  -6    3.45    0.85
 -10  -4   6    2.62    0.90
  10   4  -6    3.32    0.94
 -10   4   6    3.83    0.99
  10   4  -6    3.83    0.86
  10   4  -6    3.67    0.78
   9  -4  -6   17.75    1.17
  -9  -4   6   17.49    1.28
  -9  -4   6   17.80    1.21
   9  -4  -6   18.37    1.24
   9   4  -6   16.37    1.28
   9   4  -6   16.18    1.07
   9   4  -6   17.77    1.28
  -9   4   6   20.92    1.36
  -8  -4   6   19.87    1.26
   8  -4  -6   20.91    1.19
  -8  -4   6   22.38    1.35
   8  -4  -6   22.23    1.15
   8   4  -6   22.25    1.11
  -8   4   6   20.91    1.48
   8   4  -6   20.09    1.34
   8   4  -6   19.74    1.20
  -8   4   6   17.27    1.18
   7  -4  -6   29.42    1.22
  -7  -4   6   29.29    1.35
   7  -4  -6   30.93    1.29
  -7  -4   6   27.68    1.34
   7   4  -6   28.57    1.37
   7   4  -6   28.07    1.15
   7   4  -6   28.87    1.33
  -7   4   6   27.36    1.50
  -7   4   6   26.82    1.24
   6  -4  -6   34.66    1.28
   6  -4  -6   33.80    1.30
  -6  -4   6   34.07    1.33
  -6  -4   6   32.00    1.33
  -6   4   6   35.31    1.32
   6   4  -6   33.81    1.40
   6   4  -6   34.10    1.38
  -6   4   6   33.43    1.45
   6   4  -6   34.41    1.22
   5  -4  -6   44.89    1.45
  -5  -4   6   42.06    1.45
   5  -4  -6   42.62    1.43
  -5  -4   6   44.54    1.49
   5   4  -6   40.37    1.49
   5   4  -6   41.37    1.33
   5   4  -6   40.24    1.45
  -5   4   6   41.76    1.39
  -5   4   6   38.10    1.46
  -4  -4   6   29.97    1.14
   4  -4  -6   29.84    1.11
  -4  -4   6   28.85    1.08
   4  -4  -6   31.19    1.12
   4   4  -6   27.99    1.14
  -4   4   6   27.57    1.16
   4   4  -6   28.94    1.15
  -4   4   6   27.11    1.06
   4   4  -6   28.66    1.04
   3  -4  -6    1.44    0.35
  -3  -4   6    1.80    0.38
  -3  -4   6    2.35    0.44
   3  -4  -6    2.49    0.41
  -3   4   6    2.74    0.44
   3   4  -6    2.96    0.46
   3   4  -6    2.85    0.39
  -3   4   6    2.05    0.41
   3   4  -6    2.05    0.44
  -2  -4   6   75.70    1.93
  -2  -4   6   76.29    1.94
   2  -4  -6   76.28    2.07
   2  -4  -6   77.54    2.05
   2   4  -6   75.94    2.21
   2   4  -6   80.75    2.08
   2   4  -6   79.71    2.20
  -2   4   6   80.25    2.11
  -2   4   6   77.24    2.10
  -1  -4   6   40.28    1.13
  -1  -4   6   39.34    1.21
   1  -4  -6   43.44    1.30
   1  -4  -6   41.87    1.26
  -1   4   6   44.48    1.29
   1   4  -6   44.11    1.41
   1   4  -6   42.63    1.29
  -1   4   6   42.25    1.33
   1   4  -6   41.74    1.42
   0  -4   6   16.47    0.57
   0  -4  -6   16.45    0.65
   0  -4   6   15.76    0.72
   0  -4  -6   16.41    0.73
   0  -4  -6   17.21    0.74
   0   4   6   13.62    0.62
   0   4   6   13.69    0.73
   0   4  -6   14.48    0.80
   0   4  -6   14.29    0.75
   0   4   6   12.67    0.72
   0   4  -6   14.86    0.65
   0   4   6   12.84    0.72
   1  -4   6  111.69    2.75
  -1  -4  -6  112.51    2.76
  -1  -4  -6  112.40    2.66
  -1  -4  -6  113.95    2.82
   1  -4   6  112.11    2.84
  -1  -4  -6  113.17    2.83
  -1   4  -6  107.04    2.83
   1   4   6  107.71    2.69
  -1   4  -6  113.01    2.94
   1   4   6  109.62    2.81
   1   4   6  110.51    2.66
  -1   4  -6  109.95    2.73
   1   4   6  110.42    2.82
   2  -4   6    3.68    0.45
  -2  -4  -6    4.05    0.38
  -2  -4  -6    4.17    0.39
  -2  -4  -6    3.08    0.38
  -2  -4  -6    4.51    0.48
   2  -4   6    3.54    0.34
   2   4   6    3.59    0.45
  -2   4  -6    3.33    0.52
  -2   4  -6    4.13    0.49
   2   4   6    3.07    0.45
   2   4   6    3.82    0.41
  -2   4  -6    3.59    0.38
   2   4   6    3.50    0.35
  -3  -4  -6   65.27    1.85
   3  -4   6   62.65    1.84
  -3  -4  -6   62.85    1.65
  -3  -4  -6   64.03    1.73
  -3  -4  -6   62.12    1.74
   3  -4   6   62.82    1.69
  -3   4  -6   63.47    2.00
   3   4   6   63.50    1.88
   3   4   6   62.88    1.80
  -3   4  -6   64.44    1.74
  -3   4  -6   62.55    1.86
   3   4   6   63.87    1.70
   4  -4   6    1.84    0.31
  -4  -4  -6    1.97    0.48
   4  -4   6    1.90    0.42
  -4  -4  -6    1.41    0.41
   4   4   6    1.64    0.38
  -4   4  -6    2.35    0.58
  -4   4  -6    2.47    0.36
   4   4   6    2.17    0.43
  -4   4  -6    1.73    0.40
   4   4   6    2.24    0.50
  -5  -4  -6   17.33    0.93
   5  -4   6   18.14    0.75
   5  -4   6   17.28    0.95
  -5  -4  -6   18.50    1.03
  -5   4  -6   17.73    0.78
  -5   4  -6   16.47    1.16
   5   4   6   18.21    0.86
   5   4   6   17.97    1.03
   5   4   6   16.03    0.88
  -5   4  -6   17.93    0.91
   6  -4   6   29.59    1.29
  -6  -4  -6   29.83    1.27
  -6  -4  -6   31.20    1.37
   6   4   6   27.61    1.32
   6   4   6   26.70    1.13
   6   4   6   28.95    1.16
  -6   4  -6   27.61    1.19
   7  -4   6   11.60    0.93
  -7  -4  -6    9.70    0.83
  -7  -4  -6   10.63    0.98
  -7   4  -6   10.88    0.87
   7   4   6    9.45    0.80
   7   4   6    9.79    0.75
  -8  -4  -6   31.48    1.66
  -8  -4  -6   33.25    1.55
   8  -4   6   34.34    1.55
   8   4   6   30.95    1.41
   8   4   6   32.40    1.48
  -8   4  -6   32.74    1.46
   9  -4   6    0.07    0.65
  -9  -4  -6    0.19    0.89
  -9  -4  -6   -0.21    0.74
  -9   4  -6    0.40    0.62
   9   4   6    0.38    0.70
 -10  -4  -6   18.42    1.40
  10  -4   6   20.69    1.47
 -10  -4  -6   20.18    1.59
 -10   4  -6   17.64    1.28
  10   4   6   21.27    1.58
  10  -5  -6   13.83    1.25
 -10  -5   6   13.76    1.28
 -10  -5   6   12.96    1.39
  10  -5  -6   13.02    1.42
  10   5  -6   13.86    1.32
  10   5  -6   13.98    1.17
  10   5  -6   13.05    1.27
  -9  -5   6    5.26    1.06
   9  -5  -6    6.21    0.94
   9  -5  -6    5.15    0.84
  -9  -5   6    5.77    0.98
   9   5  -6    5.69    0.98
   9   5  -6    5.79    0.96
   9   5  -6    6.06    0.83
  -8  -5   6   22.36    1.47
   8  -5  -6   22.11    1.26
   8  -5  -6   22.19    1.38
  -8  -5   6   24.67    1.45
  -8   5   6   18.55    1.39
   8   5  -6   18.67    1.13
   8   5  -6   16.41    1.20
  -8   5   6   19.11    1.41
   8   5  -6   17.88    1.38
   7  -5  -6   10.52    0.85
  -7  -5   6   12.02    0.98
   7  -5  -6   11.36    0.92
  -7  -5   6   11.29    0.97
   7   5  -6   11.56    0.82
  -7   5   6   11.56    0.91
   7   5  -6   11.56    0.97
  -7   5   6   10.67    1.04
   7   5  -6   14.40    1.10
  -6  -5   6   11.47    0.88
  -6  -5   6   11.75    0.92
   6  -5  -6   11.45    0.86
   6  -5  -6   11.76    0.86
   6   5  -6   12.80    1.04
   6   5  -6   12.88    0.86
  -6   5   6   13.91    1.16
   6   5  -6   12.97    1.01
  -6   5   6   13.68    0.90
  -5  -5   6   28.39    1.28
   5  -5  -6   28.06    1.21
   5  -5  -6   28.51    1.23
  -5  -5   6   28.28    1.18
   5   5  -6   30.52    1.17
  -5   5   6   28.86    1.30
  -5   5   6   27.26    1.18
   5   5  -6   28.43    1.25
   5   5  -6   25.94    1.31
   4  -5  -6    4.77    0.57
   4  -5  -6    3.50    0.54
  -4  -5   6    4.92    0.55
  -4  -5   6    2.93    0.55
   4   5  -6    4.99    0.60
   4   5  -6    4.76    0.64
  -4   5   6    5.64    0.63
  -4   5   6    4.28    0.55
   4   5  -6    4.68    0.53
   3  -5  -6   94.94    2.53
   3  -5  -6   91.75    2.51
  -3  -5   6   91.33    2.37
   3   5  -6   92.93    2.58
   3   5  -6   90.21    2.46
  -3   5   6   92.04    2.45
   3   5  -6   91.68    2.61
  -3   5   6   96.58    2.53
  -2  -5   6   12.47    0.68
   2  -5  -6   13.95    0.77
   2  -5  -6   13.61    0.80
   2   5  -6   12.19    0.80
   2   5  -6   11.62    0.81
  -2   5   6   11.69    0.72
  -2   5   6   12.35    0.76
   2   5  -6   11.15    0.70
   1  -5  -6   21.26    0.91
   1  -5  -6   19.84    0.93
  -1  -5   6   21.17    0.88
   1   5  -6   21.09    1.03
   1   5  -6   21.72    1.04
  -1   5   6   22.92    0.97
  -1   5   6   24.12    0.89
   1   5  -6   22.22    0.91
   0  -5   6   38.41    1.21
   0  -5  -6   38.35    1.28
   0  -5   6   38.33    1.27
   0  -5  -6   38.15    1.27
   0   5  -6   36.23    1.22
   0   5   6   37.42    1.13
   0   5  -6   37.23    1.35
   0   5  -6   35.84    1.37
   0   5   6   38.92    1.31
   1  -5   6    7.73    0.55
   1  -5   6    8.38    0.64
  -1  -5  -6    8.08    0.61
  -1  -5  -6    7.52    0.58
  -1   5  -6    7.63    0.67
  -1   5  -6    7.38    0.56
   1   5   6    6.19    0.62
  -1   5  -6    7.31    0.71
   1   5   6    6.08    0.59
   1   5   6    6.65    0.49
   2  -5   6   60.14    1.79
  -2  -5  -6   60.18    1.68
   2  -5   6   58.59    1.67
  -2  -5  -6   56.45    1.74
  -2  -5  -6   58.09    1.70
  -2  -5  -6   58.63    1.61
  -2   5  -6   51.22    1.76
   2   5   6   52.76    1.40
   2   5   6   51.93    1.63
  -2   5  -6   47.78    1.64
  -2   5  -6   54.86    1.58
   2   5   6   53.75    1.67
  -3  -5  -6    0.10    0.36
  -3  -5  -6    0.27    0.37
  -3  -5  -6    0.10    0.34
   3  -5   6    0.31    0.29
  -3  -5  -6    0.13    0.42
   3  -5   6    0.12    0.37
  -3   5  -6    0.23    0.46
   3   5   6    0.31    0.30
   3   5   6    0.26    0.46
  -3   5  -6    0.39    0.33
  -3   5  -6    0.28    0.37
   3   5   6    0.48    0.41
  -4  -5  -6   76.47    2.13
   4  -5   6   77.90    2.07
  -4  -5  -6   76.92    2.25
  -4  -5  -6   74.26    2.08
   4  -5   6   75.20    2.25
   4   5   6   76.60    2.18
  -4   5  -6   77.74    2.14
  -4   5  -6   81.41    2.48
   4   5   6   79.12    2.32
  -4   5  -6   76.46    2.25
   4   5   6   75.70    2.01
  -5  -5  -6    8.12    0.73
  -5  -5  -6   10.04    0.87
   5  -5   6   10.53    0.87
   5  -5   6    9.86    0.66
   5   5   6    8.49    0.71
  -5   5  -6   10.79    0.71
   5   5   6    9.92    0.69
  -5   5  -6   11.12    1.02
   5   5   6    9.00    0.84
  -5   5  -6   10.42    0.82
   6  -5   6   43.01    1.65
  -6  -5  -6   39.93    1.69
  -6  -5  -6   40.84    1.58
  -6   5  -6   39.55    1.55
   6   5   6   41.04    1.69
   6   5   6   39.65    1.46
   6   5   6   39.23    1.37
  -7  -5  -6   20.70    1.42
   7  -5   6   21.71    1.27
  -7  -5  -6   21.91    1.31
   7   5   6   22.81    1.14
   7   5   6   20.81    1.17
  -7   5  -6   23.02    1.22
   7   5   6   23.50    1.43
  -8  -5  -6    0.74    0.84
   8  -5   6    0.60    0.66
  -8  -5  -6    0.31    0.74
  -8   5  -6    1.03    0.63
   8   5   6    0.49    0.61
   9  -5   6   29.62    1.67
  -9  -5  -6   25.77    1.71
  -9  -5  -6   28.56    1.86
   9   5   6   29.25    1.55
  -9   5  -6   31.62    1.62
  -9  -6   6    9.63    1.29
   9  -6  -6    9.50    1.06
  -9  -6   6   10.04    1.23
   9  -6  -6   11.04    1.20
  -9   6   6    8.37    1.61
   9   6  -6   10.51    1.26
   9   6  -6    8.63    0.98
   9   6  -6    7.98    1.12
  -8  -6   6   13.25    1.24
  -8  -6   6    9.66    1.10
   8  -6  -6   12.42    1.16
   8  -6  -6   12.06    1.06
   8   6  -6   11.53    1.21
   8   6  -6   11.76    0.96
  -8   6   6   11.27    1.30
   8   6  -6    9.12    1.08
  -7  -6   6   21.27    1.42
  -7  -6   6   20.29    1.37
   7  -6  -6   21.51    1.38
   7  -6  -6   19.47    1.27
   7   6  -6   19.07    1.17
   7   6  -6   18.01    1.33
   7   6  -6   19.68    1.42
  -7   6   6   18.95    1.51
   6  -6  -6    8.33    0.86
  -6  -6   6    8.38    0.85
  -6  -6   6    8.22    0.92
   6  -6  -6    8.84    0.89
  -6   6   6    9.59    0.99
   6   6  -6   10.26    0.82
   6   6  -6   10.38    1.03
   6   6  -6    8.95    0.87
   5  -6  -6   10.09    0.86
  -5  -6   6    9.57    0.88
   5  -6  -6    8.20    0.82
   5   6  -6    9.69    0.95
   5   6  -6    8.33    0.81
   5   6  -6    9.12    0.75
  -5   6   6    8.65    0.86
  -4  -6   6   58.92    1.99
   4  -6  -6   63.24    2.00
   4  -6  -6   62.17    2.00
   4   6  -6   60.21    1.97
  -4   6   6   61.36    1.97
   4   6  -6   59.14    2.07
  -4   6   6   62.24    1.87
   4   6  -6   63.77    1.91
   3  -6  -6    1.42    0.50
   3  -6  -6    0.92    0.45
   3   6  -6    1.90    0.51
   3   6  -6    1.36    0.55
  -3   6   6    1.37    0.52
  -3   6   6    1.39    0.49
   3   6  -6    1.72    0.45
   2  -6  -6   34.60    1.34
   2  -6  -6   33.92    1.35
   2   6  -6   38.93    1.34
   2   6  -6   35.29    1.41
   2   6  -6   37.21    1.50
  -2   6   6   34.19    1.31
  -2   6   6   37.32    1.30
   1  -6  -6   31.88    1.24
  -1  -6   6   28.76    1.12
  -1  -6   6   28.69    1.14
   1  -6  -6   29.49    1.20
  -1   6   6   31.61    1.21
  -1   6   6   28.54    1.07
   1   6  -6   29.26    1.28
   1   6  -6   29.46    1.30
   1   6  -6   29.97    1.15
   0  -6  -6   18.22    0.93
   0  -6  -6   17.26    0.96
   0  -6   6   18.17    0.94
   0  -6   6   16.15    0.84
   0   6   6   17.79    0.97
   0   6  -6   16.88    0.98
   0   6  -6   17.55    1.01
   0   6   6   15.64    0.74
   0   6  -6   16.08    0.88
   1  -6   6   37.39    1.41
   1  -6   6   40.30    1.33
  -1  -6  -6   39.00    1.38
  -1  -6  -6   38.28    1.37
  -1   6  -6   35.62    1.45
   1   6   6   34.84    1.08
  -1   6  -6   35.15    1.39
   1   6   6   35.43    1.39
  -1   6  -6   35.49    1.30
   1   6   6   35.61    1.35
  -2  -6  -6    1.14    0.47
   2  -6   6    1.57    0.50
  -2  -6  -6    1.92    0.46
   2  -6   6    1.74    0.40
  -2  -6  -6    1.41    0.49
  -2   6  -6    2.07    0.53
  -2   6  -6    1.59    0.44
  -2   6  -6    1.91    0.58
   2   6   6    1.73    0.55
   2   6   6    1.81    0.53
   2   6   6    1.70    0.32
  -3  -6  -6   15.29    0.99
   3  -6   6   15.32    0.98
  -3  -6  -6   15.79    0.90
   3  -6   6   14.14    0.81
   3   6   6   14.47    0.99
  -3   6  -6   16.37    0.91
  -3   6  -6   14.37    1.10
  -3   6  -6   14.48    0.94
   3   6   6   14.49    0.63
   3   6   6   14.73    1.02
   4  -6   6    0.73    0.50
  -4  -6  -6    0.30    0.57
  -4  -6  -6    0.45    0.50
   4  -6   6    0.71    0.39
  -4  -6  -6    0.63    0.47
  -4   6  -6    0.10    0.61
   4   6   6    0.61    0.52
  -4   6  -6    0.50    0.48
   4   6   6    0.36    0.33
  -4   6  -6    0.22    0.43
   4   6   6    0.22    0.58
  -5  -6  -6   20.12    1.15
  -5  -6  -6   22.89    1.30
   5  -6   6   17.91    0.96
   5  -6   6   21.55    1.23
   5   6   6   20.30    0.85
  -5   6  -6   21.47    1.07
   5   6   6   18.81    1.28
  -5   6  -6   17.82    1.37
  -5   6  -6   20.62    1.17
   5   6   6   19.67    1.12
   6  -6   6   16.23    1.19
  -6  -6  -6   14.68    1.07
  -6  -6  -6   18.52    1.25
   6   6   6   18.07    1.15
   6   6   6   16.58    0.88
   6   6   6   17.24    1.21
  -6   6  -6   18.29    1.17
  -7  -6  -6    4.96    0.92
   7  -6   6    5.79    0.90
  -7  -6  -6    5.73    1.02
   7   6   6    4.78    0.62
  -7   6  -6    4.67    0.77
   7   6   6    5.12    0.98
   8  -6   6   13.08    1.23
  -8  -6  -6   14.91    1.26
  -8  -6  -6   15.32    1.38
   8   6   6   16.20    1.39
   8   6   6   14.02    1.08
  -8   6  -6   14.60    1.15
   8  -7  -6   11.49    1.29
   8  -7  -6   10.10    1.13
  -8  -7   6   11.07    1.27
   8   7  -6    8.49    0.96
   8   7  -6   10.45    1.34
  -8   7   6    9.78    1.33
   8   7  -6    7.61    1.11
  -7  -7   6   18.17    1.38
   7  -7  -6   20.69    1.44
   7  -7  -6   21.26    1.44
   7   7  -6   19.93    1.47
   7   7  -6   16.62    1.43
  -7   7   6   19.78    1.66
   7   7  -6   19.97    1.31
  -6  -7   6    2.36    0.84
   6  -7  -6    1.64    0.72
   6  -7  -6    2.37    0.82
  -6   7   6    2.61    0.85
   6   7  -6    2.21    0.68
   6   7  -6    2.68    0.90
   6   7  -6    2.28    0.75
   5  -7  -6   20.97    1.32
  -5  -7   6   20.90    1.42
   5  -7  -6   20.68    1.40
   5   7  -6   19.11    1.36
  -5   7   6   20.04    1.37
   5   7  -6   20.94    1.30
   5   7  -6   19.89    1.18
   4  -7  -6    4.38    0.72
   4  -7  -6    3.63    0.74
   4   7  -6    3.88    0.65
   4   7  -6    4.27    0.88
   4   7  -6    3.93    0.70
  -4   7   6    3.94    0.72
   3  -7  -6   18.15    1.23
   3  -7  -6   19.34    1.16
  -3   7   6   19.10    1.11
   3   7  -6   19.71    1.17
   3   7  -6   17.28    1.10
   3   7  -6   17.98    1.32
   2  -7  -6   11.29    0.91
   2  -7  -6    7.38    0.76
   2   7  -6    9.35    0.94
   2   7  -6   10.01    0.89
   2   7  -6   11.51    0.86
  -2   7   6   10.65    0.79
   1  -7  -6   20.40    1.12
  -1  -7   6   19.95    1.01
   1  -7  -6   19.02    1.18
   1   7  -6   18.41    1.15
   1   7  -6   20.19    1.21
  -1   7   6   18.85    0.95
   1   7  -6   20.02    1.07
  -1   7   6   19.97    1.14
   0  -7   6   16.43    1.04
   0  -7  -6   16.53    1.05
   0  -7   6   16.20    0.96
   0  -7  -6   17.65    1.11
   0   7   6   17.61    0.82
   0   7  -6   15.00    1.07
   0   7   6   16.92    1.07
   0   7  -6   18.23    1.02
   0   7  -6   17.16    1.12
  -1  -7  -6    4.13    0.66
   1  -7   6    4.16    0.58
  -1  -7  -6    5.73    0.66
   1  -7   6    4.10    0.66
   1   7   6    4.59    0.71
   1   7   6    5.48    0.76
  -1   7  -6    5.30    0.65
  -1   7  -6    6.24    0.79
   1   7   6    5.56    0.47
  -1   7  -6    5.01    0.74
  -2  -7  -6   30.45    1.36
  -2  -7  -6   32.80    1.33
   2  -7   6   31.89    1.43
   2  -7   6   34.30    1.32
  -2   7  -6   32.44    1.35
   2   7   6   31.22    1.43
  -2   7  -6   34.96    1.57
   2   7   6   30.25    0.95
   2   7   6   32.81    1.46
  -2   7  -6   30.37    1.44
   3  -7   6    3.06    0.66
  -3  -7  -6    4.20    0.72
   3  -7   6    2.92    0.56
  -3  -7  -6    2.70    0.59
  -3   7  -6    3.55    0.69
   3   7   6    3.06    0.68
  -3   7  -6    3.48    0.62
  -3   7  -6    3.73    0.81
   3   7   6    2.88    0.32
   3   7   6    3.02    0.74
   4  -7   6   21.72    1.10
  -4  -7  -6   20.86    1.14
  -4  -7  -6   21.91    1.34
   4  -7   6   19.37    1.25
   4   7   6   22.55    1.28
  -4   7  -6   23.45    1.55
  -4   7  -6   22.24    1.28
   4   7   6   20.38    0.69
  -4   7  -6   21.99    1.21
   4   7   6   23.08    1.38
  -5  -7  -6    9.59    0.84
   5  -7   6   10.97    1.02
   5  -7   6   10.12    0.84
  -5  -7  -6   10.93    1.05
   5   7   6    9.73    0.54
  -5   7  -6   11.73    1.02
  -5   7  -6   11.18    1.23
   5   7   6   10.90    0.93
   5   7   6   11.74    1.10
  -5   7  -6   11.05    0.91
  -6  -7  -6   12.75    1.20
   6  -7   6   12.19    1.12
   6   7   6   12.42    1.20
  -6   7  -6   12.17    1.07
   6   7   6   12.19    0.70
  -7  -7  -6   15.07    1.36
  -7  -7  -6   15.15    1.37
   7  -7   6   15.41    1.29
   7   7   6   13.59    0.85
  -7   7  -6   15.19    1.19
   7   7   6   14.84    1.36
  -7  -8   6    5.61    1.19
   7  -8  -6    4.01    1.00
   7   8  -6    5.51    0.95
   7   8  -6    6.54    1.32
   6  -8  -6    9.98    1.11
  -6  -8   6   10.55    1.23
   6  -8  -6   12.27    1.29
   6   8  -6    9.79    1.10
  -6   8   6   10.78    1.23
   6   8  -6   11.19    1.36
   6   8  -6    8.45    0.99
   5  -8  -6    1.42    0.90
   5  -8  -6    1.63    0.80
   5   8  -6    1.17    0.79
  -5   8   6    0.86    0.83
   5   8  -6    1.15    0.69
   5   8  -6    1.41    0.99
   4  -8  -6   12.72    1.09
   4  -8  -6   18.10    1.29
   4   8  -6   21.12    1.52
   4   8  -6   18.19    1.28
  -4   8   6   17.83    1.32
   4   8  -6   17.91    1.34
   3  -8  -6    0.47    0.68
   3  -8  -6   -0.10    0.75
   3   8  -6    1.02    0.69
   3   8  -6    0.36    0.61
   3   8  -6    0.38    0.82
  -3   8   6    0.04    0.65
   2  -8  -6   21.10    1.42
   2  -8  -6   22.40    1.35
  -2   8   6   22.20    1.19
   2   8  -6   20.91    1.35
   2   8  -6   18.08    1.22
   2   8  -6   21.34    1.49
   1  -8  -6    4.45    0.84
  -1  -8   6    5.18    0.71
   1  -8  -6    3.58    0.72
   1   8  -6    4.57    0.73
  -1   8   6    5.23    0.67
   1   8  -6    4.85    0.90
   1   8  -6    4.80    0.82
   0  -8  -6    5.82    0.78
   0  -8   6    7.18    0.76
   0  -8  -6    7.73    0.91
   0   8  -6    7.45    0.83
   0   8  -6    6.83    0.93
   0   8  -6    6.70    0.88
   0   8   6    5.82    0.59
  -1  -8  -6   24.73    1.31
   1  -8   6   23.27    1.22
   1  -8   6   24.28    1.38
  -1  -8  -6   21.45    1.41
   1   8   6   22.31    1.46
   1   8   6   23.19    0.89
  -1   8  -6   21.60    1.42
  -1   8  -6   23.80    1.32
  -1   8  -6   21.41    1.41
   2  -8   6    1.05    0.66
  -2  -8  -6    1.58    0.65
  -2  -8  -6    1.46    0.74
   2  -8   6    1.76    0.59
   2   8   6    1.83    0.33
  -2   8  -6    1.40    0.77
  -2   8  -6    2.05    0.74
   2   8   6    2.47    0.80
  -2   8  -6    3.20    0.71
  -3  -8  -6   10.02    0.99
   3  -8   6   10.62    0.90
  -3  -8  -6    8.37    0.86
   3  -8   6   10.71    1.04
  -3   8  -6   11.85    1.09
  -3   8  -6   11.72    0.99
   3   8   6   10.85    1.08
  -3   8  -6   11.77    1.24
   3   8   6   10.99    1.03
   4  -8   6    2.31    0.65
  -4  -8  -6    1.78    0.87
  -4  -8  -6    2.15    0.71
   4  -8   6    1.59    0.78
   4   8   6    2.18    0.81
  -4   8  -6    3.28    0.80
  -4   8  -6    2.55    1.00
  -4   8  -6    2.87    0.75
   4   8   6    1.57    0.90
   5  -8   6   17.99    1.25
  -5  -8  -6   19.74    1.40
   5  -8   6   17.44    1.36
   5   8   6   19.48    1.43
  -5   8  -6   23.81    1.71
  -5   8  -6   20.14    1.41
  -5   8  -6   19.04    1.43
   4  -9  -6    3.73    1.08
   4  -9  -6    2.61    0.94
   4   9  -6    3.02    1.16
   4   9  -6    2.87    0.87
  -4   9   6    3.69    0.97
   4   9  -6    2.58    0.93
   3  -9  -6    4.64    0.94
   3  -9  -6    5.01    1.06
   3   9  -6    5.44    0.93
   3   9  -6    5.07    1.18
  -3   9   6    5.30    0.94
   3   9  -6    6.24    1.00
   2  -9  -6    3.87    0.89
   2  -9  -6    3.26    0.99
   2   9  -6    3.44    0.91
   2   9  -6    3.63    1.03
  -2   9   6    2.65    0.77
   2   9  -6    2.23    0.79
  -1  -9   6   12.79    1.03
   1  -9  -6   10.66    1.17
   1  -9  -6    9.44    1.04
   1   9  -6   12.63    1.09
   1   9  -6   12.93    1.27
   1   9  -6   13.94    1.23
  -1   9   6   10.55    0.88
   0  -9   6   14.76    1.09
   0  -9  -6   12.87    1.20
   0  -9  -6    9.66    1.01
   0   9  -6   12.15    1.22
   0   9   6   12.30    0.91
   0   9  -6   12.28    1.26
   0   9  -6   12.70    1.11
  -1  -9  -6    3.63    0.95
   1  -9   6    4.29    0.80
  -1  -9  -6    4.16    0.86
   1   9   6    3.88    1.00
  -1   9  -6    3.83    0.82
   1   9   6    3.80    0.49
  -1   9  -6    4.68    0.99
  -1   9  -6    3.31    0.95
  -2  -9  -6    6.25    0.91
   2  -9   6    7.70    0.91
   2  -9   6    7.67    1.09
  -2   9  -6    7.44    1.06
  -2   9  -6    7.16    0.97
  -2   9  -6    8.50    1.18
   2   9   6    6.75    1.08
   3  -9   6    0.12    0.87
   3  -9   6    0.28    0.70
  -3  -9  -6   -0.06    0.78
   3   9   6    0.39    0.92
  -3   9  -6    0.41    0.84
  -3   9  -6    0.54    0.98
  -3   9  -6    0.23    0.75
 -12   0   7   12.98    1.44
  12   0  -7   13.04    1.09
  11   0  -7    4.12    0.74
  10   0  -7   24.76    1.19
 -10   0   7   23.02    1.53
  -9   0   7    4.11    0.79
   9   0  -7    4.16    0.59
  -8   0   7   11.60    0.83
   8   0  -7   10.50    0.72
   8   0  -7    9.21    0.94
  -8   0   7   10.78    0.89
   7   0  -7    7.15    0.55
  -7   0   7    6.97    0.56
   7   0  -7    6.28    0.75
  -7   0   7    6.09    0.69
   6   0  -7   44.77    1.31
   6   0  -7   45.45    1.37
   6   0  -7   45.86    1.66
  -6   0   7   46.79    1.52
  -6   0   7   44.50    1.32
   5   0  -7   48.32    1.37
  -5   0   7   47.74    1.51
  -5   0   7   50.52    1.62
  -5   0   7   46.46    1.27
  -5   0   7   45.56    1.32
   5   0  -7   47.87    1.63
   5   0  -7   49.17    1.34
   5   0  -7   47.41    1.23
  -4   0   7   25.91    0.98
  -4   0   7   25.36    0.80
  -4   0   7   25.84    1.08
   4   0  -7   24.87    0.75
   4   0  -7   25.26    0.83
   4   0  -7   26.17    0.86
   4   0  -7   24.57    1.10
  -4   0   7   25.46    0.79
  -3   0   7  105.66    2.68
   3   0  -7  100.53    2.43
   3   0  -7  103.33    2.73
   3   0  -7  103.64    2.46
   3   0  -7  102.62    2.50
  -3   0   7  102.71    2.46
  -3   0   7   99.31    2.58
   2   0  -7    0.14    0.20
  -2   0   7    0.26    0.31
  -2   0   7    0.10    0.25
   2   0  -7   -0.08    0.17
  -2   0   7    0.17    0.20
   2   0  -7    0.09    0.28
  -1   0   7  224.07    5.05
   1   0  -7  217.80    5.14
  -1   0   7  216.78    4.98
  -1   0   7  212.62    5.12
   1   0  -7  217.88    4.93
   1   0  -7  213.15    4.94
   0   0   7   80.58    2.14
   0   0   7   82.98    2.01
   0   0  -7   78.39    1.92
   0   0  -7   77.76    2.13
   0   0   7   78.85    2.04
   0   0  -7   79.90    1.96
  -1   0  -7   90.44    2.38
   1   0   7   90.81    2.39
  -1   0  -7   86.18    2.12
   1   0   7   93.78    2.26
   1   0   7   90.40    2.29
  -1   0  -7   91.38    2.22
   2   0   7   36.11    1.12
  -2   0  -7   35.33    1.20
   2   0   7   36.97    1.10
  -2   0  -7   34.65    1.07
  -2   0  -7   38.13    0.91
  -2   0  -7   35.22    1.08
   2   0   7   34.97    1.24
   3   0   7    4.72    0.43
  -3   0  -7    5.99    0.45
   3   0   7    4.87    0.54
  -3   0  -7    5.90    0.44
   3   0   7    5.04    0.44
   4   0   7  193.08    4.51
   4   0   7  186.16    4.51
  -4   0  -7  182.42    4.48
   4   0   7  194.31    4.69
  -4   0  -7  190.10    4.50
  -5   0  -7    0.04    0.31
   5   0   7    0.03    0.40
   5   0   7    0.20    0.32
   5   0   7    0.19    0.31
  -5   0  -7   -0.04    0.33
  -6   0  -7   23.43    1.01
  -6   0  -7   25.89    1.07
   6   0   7   26.15    1.05
   6   0   7   24.23    1.02
   6   0   7   25.50    1.21
  -7   0  -7   36.05    1.34
   7   0   7   36.16    1.35
  -7   0  -7   36.49    1.37
   7   0   7   33.39    1.52
   8   0   7   21.22    1.14
  -8   0  -7   22.45    1.16
   8   0   7   22.83    1.39
  -8   0  -7   20.78    1.18
   9   0   7   19.08    1.19
   9   0   7   17.93    1.45
  -9   0  -7   17.90    1.26
  -9   0  -7   18.24    1.20
 -10   0  -7    0.48    0.83
  10   0   7    0.66    0.95
  10   0   7    1.05    0.73
 -10   0  -7    0.91    0.71
  12  -1  -7    2.49    0.87
 -12  -1   7    1.68    1.15
  12   1  -7    1.73    0.78
 -12   1   7    2.12    1.20
  11  -1  -7   15.07    1.10
 -11  -1   7   15.19    1.38
  11   1  -7   13.87    0.98
 -11   1   7   14.30    1.35
 -10  -1   7    5.12    0.96
 -10  -1   7    4.89    0.81
  10  -1  -7    7.58    0.78
  10   1  -7    5.77    1.04
 -10   1   7    5.87    0.97
  10   1  -7    4.98    0.69
  -9  -1   7   25.16    1.23
  -9  -1   7   25.09    1.40
   9  -1  -7   25.21    1.14
  -9   1   7   23.93    1.39
   9   1  -7   22.61    1.06
   9   1  -7   23.55    1.51
   8  -1  -7    0.05    0.40
  -8  -1   7    0.30    0.58
  -8  -1   7    0.47    0.47
   8   1  -7    0.24    0.57
  -8   1   7    0.21    0.58
   8   1  -7    0.41    0.41
  -7  -1   7   30.37    1.29
  -7  -1   7   30.94    1.14
   7  -1  -7   28.38    1.10
  -7   1   7   34.27    1.35
   7   1  -7   33.45    1.17
   6  -1  -7   30.11    0.96
   6  -1  -7   30.43    1.07
  -6  -1   7   30.62    1.08
  -6  -1   7   30.74    1.22
  -6   1   7   28.82    1.16
   6   1  -7   28.52    1.25
   6   1  -7   26.65    0.99
   6   1  -7   25.21    0.99
  -6   1   7   26.24    1.28
   5  -1  -7   53.48    1.41
   5  -1  -7   54.13    1.53
  -5  -1   7   50.93    1.49
   5  -1  -7   55.08    1.39
   5  -1  -7   49.83    1.73
  -5  -1   7   54.94    1.63
  -5   1   7   58.27    1.78
  -5   1   7   55.26    1.68
   5   1  -7   55.00    1.57
  -5   1   7   55.90    1.44
   5   1  -7   55.34    1.57
   5   1  -7   53.43    1.78
  -4  -1   7  133.19    3.16
  -4  -1   7  133.19    3.28
   4  -1  -7  133.32    3.20
  -4  -1   7  129.88    3.35
   4  -1  -7  136.12    3.12
   4  -1  -7  128.12    3.04
   4  -1  -7  131.69    3.41
  -4  -1   7  129.36    3.03
  -4   1   7  128.71    3.07
  -4   1   7  130.95    3.28
   4   1  -7  127.27    3.11
   4   1  -7  126.41    3.32
  -4   1   7  130.20    3.20
  -4   1   7  124.73    2.94
   4   1  -7  129.37    3.14
  -3  -1   7    7.49    0.62
  -3  -1   7    7.70    0.55
   3  -1  -7    7.58    0.61
  -3  -1   7    7.87    0.42
   3  -1  -7    7.95    0.37
   3  -1  -7    7.44    0.48
   3  -1  -7    8.70    0.44
   3   1  -7    7.64    0.50
  -3   1   7    7.25    0.57
   3   1  -7    7.05    0.58
  -3   1   7    7.22    0.48
  -3   1   7    6.89    0.51
   3   1  -7    7.11    0.49
   2  -1  -7  152.23    3.62
   2  -1  -7  154.60    3.64
   2  -1  -7  154.26    3.80
  -2  -1   7  155.82    3.69
  -2  -1   7  154.39    3.80
   2  -1  -7  152.48    3.50
  -2  -1   7  162.55    3.60
  -2   1   7  152.64    3.68
   2   1  -7  152.69    3.67
   2   1  -7  161.85    3.87
  -2   1   7  159.22    3.81
   2   1  -7  161.70    3.70
  -2   1   7  150.76    3.74
  -1  -1   7   11.13    0.53
  -1  -1   7   10.80    0.65
   1  -1  -7   10.05    0.48
   1  -1  -7    9.82    0.39
  -1  -1   7   10.92    0.50
   1  -1  -7   10.61    0.47
   1  -1  -7    9.35    0.62
   1   1  -7   11.13    0.53
   1   1  -7   10.88    0.48
  -1   1   7   10.07    0.58
   1   1  -7   10.57    0.67
  -1   1   7   11.51    0.55
  -1   1   7   11.05    0.63
   0  -1   7  156.41    3.68
   0  -1   7  152.99    3.70
   0  -1  -7  160.92    3.61
   0  -1  -7  154.93    3.59
   0  -1   7  161.23    3.87
   0   1   7  157.09    3.69
   0   1  -7  151.44    3.59
   0   1   7  150.77    3.64
   0   1   7  149.05    3.59
   0   1  -7  152.22    3.51
   0   1  -7  149.50    3.74
   1  -1   7  101.81    2.61
   1  -1   7   96.28    2.42
  -1  -1  -7   98.97    2.35
  -1  -1  -7   97.76    2.29
   1  -1   7   96.88    2.43
  -1   1  -7   94.20    2.35
  -1   1  -7   92.87    2.50
   1   1   7   96.71    2.37
  -1   1  -7   89.75    2.22
   1   1   7   98.03    2.46
   1   1   7   95.82    2.41
   2  -1   7    7.17    0.50
   2  -1   7    5.17    0.52
  -2  -1  -7    5.65    0.30
   2  -1   7    6.45    0.44
  -2  -1  -7    7.05    0.48
  -2  -1  -7    6.49    0.42
  -2   1  -7    6.05    0.31
  -2   1  -7    4.77    0.49
   2   1   7    6.44    0.53
   2   1   7    6.46    0.49
   2   1   7    5.16    0.43
  -2   1  -7    6.44    0.46
   3  -1   7  117.90    3.10
  -3  -1  -7  119.82    2.93
   3  -1   7  114.36    2.91
  -3  -1  -7  115.42    2.86
   3  -1   7  119.43    2.88
   3   1   7  117.49    2.88
   3   1   7  113.15    2.93
  -3   1  -7  116.68    2.66
  -3   1  -7  115.36    3.18
  -3   1  -7  116.67    2.90
   3   1   7  119.21    3.01
  -3   1  -7  116.79    2.83
  -4  -1  -7    5.83    0.51
  -4  -1  -7    4.94    0.44
   4  -1   7    6.21    0.51
   4  -1   7    4.90    0.57
   4  -1   7    5.25    0.47
   4   1   7    7.10    0.54
  -4   1  -7    4.84    0.46
   4   1   7    5.80    0.54
  -4   1  -7    5.76    0.46
   4   1   7    5.23    0.56
   5  -1   7  111.22    2.77
  -5  -1  -7  107.10    2.78
   5  -1   7  110.25    2.82
  -5  -1  -7  106.94    2.83
   5  -1   7  107.21    3.03
   5   1   7  116.76    3.02
  -5   1  -7  114.22    2.98
   5   1   7  116.79    2.97
  -5   1  -7  116.92    2.92
   5   1   7  117.48    3.13
  -6  -1  -7   23.94    1.10
   6  -1   7   24.61    1.02
   6  -1   7   26.88    1.09
  -6  -1  -7   25.91    1.05
   6  -1   7   27.30    1.32
   6   1   7   25.00    1.03
   6   1   7   25.78    1.19
   6   1   7   24.58    1.07
  -6   1  -7   22.88    1.03
  -6   1  -7   21.98    0.98
   7  -1   7   37.16    1.66
   7  -1   7   38.87    1.37
  -7  -1  -7   39.12    1.48
   7  -1   7   39.64    1.43
  -7  -1  -7   38.55    1.40
   7   1   7   35.98    1.57
   7   1   7   40.05    1.41
  -7   1  -7   39.75    1.42
  -7   1  -7   37.72    1.38
   8  -1   7   25.97    1.24
   8  -1   7   22.23    1.47
  -8  -1  -7   23.34    1.30
  -8  -1  -7   23.24    1.21
   8   1   7   24.36    1.39
  -8   1  -7   23.86    1.20
  -8   1  -7   24.99    1.20
   8   1   7   25.11    1.19
   9  -1   7    9.73    0.93
  -9  -1  -7   10.87    0.93
  -9  -1  -7   10.92    1.06
   9  -1   7   11.03    1.21
   9   1   7   12.17    0.96
  -9   1  -7    9.78    0.89
  -9   1  -7   10.63    0.97
   9   1   7   12.61    1.18
 -10  -1  -7   22.62    1.48
 -10  -1  -7   23.10    1.44
  10  -1   7   21.76    1.44
 -10   1  -7   16.32    1.18
  10   1   7   19.89    1.66
  10   1   7   21.03    1.37
 -11  -2   7    2.33    0.92
 -11  -2   7    2.24    1.02
  11  -2  -7    2.29    0.80
  11   2  -7    2.48    1.02
 -11   2   7    2.39    1.06
  11   2  -7    2.21    0.70
 -10  -2   7   24.15    1.41
  10  -2  -7   23.65    1.34
 -10  -2   7   25.01    1.63
  10   2  -7   22.27    1.19
  10   2  -7   23.80    1.60
 -10   2   7   22.43    1.52
  -9  -2   7    2.14    0.67
   9  -2  -7    2.58    0.61
  -9  -2   7    2.28    0.79
   9   2  -7    2.47    0.56
  -9   2   7    1.89    0.77
  -8  -2   7   43.48    1.56
  -8  -2   7   43.84    1.71
   8  -2  -7   44.35    1.55
   8   2  -7   39.25    1.40
  -8   2   7   39.38    1.59
   8   2  -7   39.93    1.72
  -7  -2   7   13.15    0.91
  -7  -2   7   14.62    0.92
   7  -2  -7   13.73    0.75
   7  -2  -7   14.93    0.86
  -7   2   7   15.43    1.00
   7   2  -7   16.47    1.11
   7   2  -7   16.49    0.90
  -7   2   7   15.59    1.20
   7   2  -7   15.89    0.90
   6  -2  -7   51.90    1.65
  -6  -2   7   60.36    1.80
  -6  -2   7   57.39    1.70
   6  -2  -7   56.95    1.59
   6   2  -7   57.51    1.72
   6   2  -7   58.80    1.73
  -6   2   7   55.46    1.92
   6   2  -7   57.23    1.90
  -6   2   7   55.86    1.78
  -5  -2   7   33.02    1.19
   5  -2  -7   29.58    1.01
   5  -2  -7   30.21    1.08
  -5  -2   7   31.96    1.11
  -5   2   7   32.77    1.19
   5   2  -7   32.10    1.14
   5   2  -7   33.39    1.11
  -5   2   7   30.77    1.29
   5   2  -7   31.10    1.30
   4  -2  -7    5.71    0.47
  -4  -2   7    5.27    0.48
  -4  -2   7    5.41    0.52
   4  -2  -7    6.22    0.45
   4   2  -7    5.63    0.51
  -4   2   7    5.51    0.57
  -4   2   7    5.97    0.54
   4   2  -7    6.29    0.48
   4   2  -7    6.80    0.66
  -3  -2   7   87.05    2.25
   3  -2  -7   89.49    2.21
  -3  -2   7   81.79    2.06
   3  -2  -7   89.83    2.19
  -3  -2   7   86.00    2.38
   3   2  -7   86.63    2.42
   3   2  -7   88.25    2.29
  -3   2   7   85.90    2.36
   3   2  -7   87.48    2.22
  -3   2   7   91.20    2.32
   2  -2  -7    6.23    0.44
  -2  -2   7    5.83    0.54
  -2  -2   7    6.18    0.41
   2  -2  -7    6.44    0.44
  -2  -2   7    6.21    0.46
  -2   2   7    6.10    0.49
  -2   2   7    7.03    0.50
   2   2  -7    6.32    0.49
   2   2  -7    6.54    0.56
  -2   2   7    5.81    0.51
   2   2  -7    7.03    0.45
   1  -2  -7  124.25    3.02
   1  -2  -7  124.57    2.80
  -1  -2   7  126.29    2.98
   1  -2  -7  127.64    2.98
  -1  -2   7  129.18    3.02
  -1  -2   7  121.55    3.18
  -1   2   7  125.04    3.03
  -1   2   7  117.99    3.01
   1   2  -7  119.95    3.00
   1   2  -7  121.17    2.91
   1   2  -7  127.32    3.14
  -1   2   7  119.08    2.97
   0  -2  -7   18.13    0.67
   0  -2   7   15.78    0.62
   0  -2   7   16.33    0.66
   0  -2  -7   15.96    0.51
   0  -2   7   16.64    0.84
   0  -2  -7   15.06    0.58
   0   2   7   15.71    0.70
   0   2   7   14.54    0.70
   0   2   7   14.63    0.67
   0   2  -7   14.57    0.77
   0   2  -7   13.60    0.64
   0   2  -7   14.72    0.56
   1  -2   7   32.38    0.96
  -1  -2  -7   31.95    1.00
   1  -2   7   34.09    1.03
  -1  -2  -7   32.29    0.90
  -1  -2  -7   31.31    0.90
   1  -2   7   31.97    1.19
   1   2   7   30.80    1.01
  -1   2  -7   29.37    1.01
   1   2   7   30.09    1.02
  -1   2  -7   31.07    1.14
  -1   2  -7   30.27    0.88
   1   2   7   28.63    1.03
  -2  -2  -7   74.13    1.81
   2  -2   7   70.90    1.91
  -2  -2  -7   72.18    1.94
   2  -2   7   70.73    2.09
  -2  -2  -7   71.48    1.73
   2  -2   7   70.77    1.82
   2   2   7   72.04    1.99
  -2   2  -7   74.32    2.11
  -2   2  -7   73.14    1.79
   2   2   7   74.00    1.98
  -2   2  -7   71.54    1.95
   2   2   7   72.04    1.94
  -3  -2  -7   17.59    0.71
   3  -2   7   19.64    0.71
   3  -2   7   16.41    0.94
   3  -2   7   17.54    0.78
  -3  -2  -7   18.93    0.83
  -3   2  -7   18.84    0.96
  -3   2  -7   18.67    0.81
   3   2   7   17.98    0.80
   3   2   7   19.32    0.84
   3   2   7   19.19    0.86
  -3   2  -7   19.24    0.61
   4  -2   7  120.08    2.98
  -4  -2  -7  122.22    3.03
   4  -2   7  121.14    3.11
   4  -2   7  123.93    3.32
  -4  -2  -7  125.40    3.14
   4   2   7  125.12    3.34
   4   2   7  134.55    3.38
   4   2   7  131.61    3.28
  -4   2  -7  136.01    3.18
  -4   2  -7  132.96    3.33
   5  -2   7   19.55    1.12
  -5  -2  -7   22.23    0.92
  -5  -2  -7   21.22    1.01
   5  -2   7   21.16    0.84
   5  -2   7   22.20    0.97
   5   2   7   19.32    1.00
   5   2   7   20.93    0.91
  -5   2  -7   20.61    0.81
   5   2   7   19.59    0.97
  -5   2  -7   20.24    0.93
  -6  -2  -7   90.71    2.49
   6  -2   7   87.15    2.67
  -6  -2  -7   87.95    2.38
   6  -2   7   83.94    2.28
   6  -2   7   81.16    2.40
   6   2   7   83.89    2.46
  -6   2  -7   81.82    2.35
   6   2   7   82.79    2.31
  -6   2  -7   85.07    2.24
   6   2   7   86.07    2.44
   7  -2   7   14.81    1.16
   7  -2   7   14.87    0.98
  -7  -2  -7   15.31    0.97
  -7  -2  -7   16.15    1.03
   7  -2   7   15.08    0.85
   7   2   7   15.71    1.06
  -7   2  -7   14.82    0.90
   7   2   7   15.30    0.93
  -7   2  -7   15.14    0.91
  -8  -2  -7   20.07    1.16
   8  -2   7   17.28    1.13
  -8  -2  -7   18.82    1.27
  -8   2  -7   18.27    1.10
   8   2   7   16.03    1.05
   8   2   7   19.98    1.30
  -9  -2  -7   32.48    1.71
   9  -2   7   34.58    1.57
  -9  -2  -7   33.22    1.55
   9   2   7   35.86    1.76
   9   2   7   37.51    1.57
  -9   2  -7   33.05    1.54
  10  -2   7    1.00    0.73
 -10  -2  -7    1.40    0.96
 -10  -2  -7    0.67    0.79
 -10   2  -7   -0.02    0.70
  10   2   7    0.71    0.90
 -11  -3   7    3.25    1.01
  11  -3  -7    3.26    0.91
 -11  -3   7    3.85    1.15
 -11   3   7    2.69    1.12
  11   3  -7    2.06    0.75
  11   3  -7    2.36    1.03
  10  -3  -7    2.50    0.79
 -10  -3   7    1.89    0.94
 -10  -3   7    1.81    0.84
  10   3  -7    1.46    0.67
  10   3  -7    2.19    0.75
  10   3  -7    1.40    0.87
 -10   3   7    2.21    0.90
  -9  -3   7   38.28    1.79
   9  -3  -7   36.29    1.56
  -9  -3   7   38.14    1.63
   9   3  -7   39.97    1.63
  -9   3   7   37.65    1.70
   9   3  -7   38.15    1.86
   9   3  -7   40.40    1.54
  -8  -3   7    2.79    0.65
   8  -3  -7    2.50    0.53
  -8  -3   7    2.50    0.73
   8  -3  -7    2.59    0.61
   8   3  -7    2.19    0.61
  -8   3   7    1.75    0.68
   8   3  -7    2.20    0.58
   8   3  -7    2.65    0.70
  -7  -3   7   50.87    1.76
   7  -3  -7   48.14    1.52
  -7  -3   7   45.75    1.64
   7  -3  -7   45.69    1.59
   7   3  -7   49.14    1.67
   7   3  -7   46.66    1.80
   7   3  -7   46.28    1.59
  -7   3   7   46.17    1.64
  -7   3   7   47.35    1.85
  -6  -3   7   35.36    1.34
   6  -3  -7   34.54    1.28
  -6  -3   7   36.44    1.38
   6  -3  -7   35.05    1.20
   6   3  -7   32.56    1.31
   6   3  -7   33.45    1.22
  -6   3   7   34.29    1.33
   6   3  -7   31.91    1.42
  -6   3   7   35.74    1.48
   5  -3  -7   45.55    1.42
   5  -3  -7   44.61    1.38
  -5  -3   7   43.61    1.47
  -5  -3   7   41.98    1.44
  -5   3   7   49.70    1.70
   5   3  -7   46.07    1.57
   5   3  -7   51.09    1.50
  -5   3   7   47.60    1.56
   5   3  -7   50.24    1.71
  -4  -3   7   84.96    2.29
   4  -3  -7   89.04    2.28
  -4  -3   7   85.35    2.30
   4  -3  -7   84.45    2.25
   4   3  -7   85.92    2.24
   4   3  -7   82.90    2.32
  -4   3   7   87.67    2.31
  -4   3   7   84.32    2.39
   4   3  -7   84.81    2.42
   3  -3  -7    0.95    0.30
   3  -3  -7    0.55    0.30
  -3  -3   7    0.87    0.25
  -3  -3   7    1.16    0.34
   3   3  -7    0.89    0.36
  -3   3   7    1.13    0.38
  -3   3   7    0.88    0.39
   3   3  -7    0.33    0.34
   3   3  -7    0.88    0.29
  -2  -3   7   58.06    1.55
   2  -3  -7   57.82    1.56
   2  -3  -7   55.03    1.57
  -2  -3   7   54.07    1.47
   2   3  -7   56.99    1.58
  -2   3   7   56.75    1.65
  -2   3   7   56.13    1.66
   2   3  -7   58.83    1.76
   2   3  -7   57.59    1.68
  -1  -3   7    2.79    0.34
   1  -3  -7    2.37    0.31
  -1  -3   7    2.58    0.34
   1  -3  -7    2.81    0.36
   1   3  -7    2.63    0.32
   1   3  -7    3.70    0.44
  -1   3   7    2.55    0.41
  -1   3   7    3.46    0.43
  -1   3   7    3.63    0.42
   1   3  -7    2.62    0.42
   0  -3  -7  101.77    2.26
   0  -3   7   99.43    2.38
   0  -3  -7  102.80    2.48
   0  -3  -7   96.50    2.40
   0  -3   7   85.87    2.85
   0  -3   7   97.47    2.45
   0   3  -7  100.01    2.54
   0   3  -7  101.14    2.67
   0   3   7  107.59    2.69
   0   3   7  103.77    2.65
   0   3   7  104.69    2.61
   0   3  -7  105.46    2.78
   1  -3   7   48.89    1.41
   1  -3   7   45.85    1.27
  -1  -3  -7   49.81    1.25
  -1  -3  -7   47.10    1.30
   1  -3   7   45.36    1.58
  -1  -3  -7   49.13    1.39
  -1   3  -7   42.08    1.45
   1   3   7   41.76    1.34
   1   3   7   40.60    1.31
   1   3   7   43.20    1.27
  -1   3  -7   42.43    1.20
  -1   3  -7   42.66    1.33
   2  -3   7   11.32    0.65
   2  -3   7   11.23    0.83
  -2  -3  -7   11.59    0.55
  -2  -3  -7   12.21    0.70
  -2  -3  -7   10.95    0.54
  -2  -3  -7   11.13    0.61
   2  -3   7   11.15    0.51
  -2   3  -7   11.18    0.66
  -2   3  -7   10.09    0.77
  -2   3  -7   11.46    0.52
   2   3   7   11.89    0.70
   2   3   7   11.32    0.64
   2   3   7   10.95    0.70
  -3  -3  -7   73.07    1.89
   3  -3   7   65.66    2.64
   3  -3   7   73.76    2.01
  -3  -3  -7   72.93    2.02
   3  -3   7   70.48    1.80
   3   3   7   72.85    2.05
  -3   3  -7   69.44    1.99
  -3   3  -7   72.25    1.81
  -3   3  -7   69.37    2.15
   3   3   7   68.69    1.95
   3   3   7   73.25    1.96
   4  -3   7    1.17    0.37
  -4  -3  -7    1.18    0.43
  -4  -3  -7    1.46    0.38
  -4   3  -7    0.86    0.52
  -4   3  -7    1.39    0.26
   4   3   7    1.05    0.39
   4   3   7    1.47    0.45
   4   3   7    1.47    0.41
  -4   3  -7    1.41    0.38
  -5  -3  -7   79.38    2.34
  -5  -3  -7   82.99    2.24
   5  -3   7   81.78    2.31
  -5   3  -7   76.55    2.20
   5   3   7   74.95    2.13
   5   3   7   75.42    2.19
   5   3   7   81.11    2.28
   6  -3   7   16.28    0.96
  -6  -3  -7   13.52    0.91
  -6  -3  -7   14.50    0.98
   6   3   7   16.29    0.98
  -6   3  -7   16.91    0.93
   6   3   7   16.37    1.04
   6   3   7   15.92    0.91
  -7  -3  -7   38.99    1.61
   7  -3   7   38.45    1.52
  -7  -3  -7   35.97    1.46
   7   3   7   35.58    1.37
   7   3   7   36.48    1.51
  -7   3  -7   35.66    1.42
   7   3   7   35.40    1.52
   8  -3   7   15.66    1.15
  -8  -3  -7   17.37    1.21
  -8  -3  -7   16.08    1.14
   8   3   7   18.53    1.26
   8   3   7   14.97    1.07
  -8   3  -7   18.31    1.14
   9  -3   7    4.07    0.80
  -9  -3  -7    3.25    0.79
  -9  -3  -7    3.83    0.96
   9   3   7    3.90    0.79
  -9   3  -7    3.31    0.70
   9   3   7    3.43    0.86
  10  -3   7   35.34    1.78
 -10  -3  -7   36.24    2.02
 -10  -3  -7   32.81    1.78
 -10   3  -7   34.22    1.73
  10   3   7   34.54    1.95
 -11  -4   7    2.51    1.22
  11  -4  -7    2.28    1.00
 -11  -4   7    1.29    1.04
  11   4  -7    1.87    1.07
  11   4  -7    2.07    0.97
  11   4  -7    2.34    0.87
 -11   4   7    2.44    1.22
 -10  -4   7   12.96    1.20
  10  -4  -7   12.61    1.17
 -10  -4   7   13.56    1.36
  10   4  -7   11.98    1.29
  10   4  -7   12.27    1.02
  10   4  -7   10.60    1.11
 -10   4   7   13.67    1.25
  -9  -4   7    5.40    0.99
   9  -4  -7    6.35    0.92
   9  -4  -7    6.51    0.89
  -9  -4   7    5.07    0.90
   9   4  -7    7.04    1.00
   9   4  -7    4.60    0.81
  -9   4   7    6.98    0.97
   9   4  -7    5.29    0.86
   8  -4  -7   32.34    1.47
  -8  -4   7   30.84    1.58
   8  -4  -7   31.29    1.37
  -8  -4   7   32.91    1.53
   8   4  -7   30.68    1.37
  -8   4   7   26.82    1.41
  -8   4   7   29.34    1.77
   8   4  -7   29.74    1.50
   8   4  -7   31.18    1.61
  -7  -4   7    2.90    0.68
   7  -4  -7    2.72    0.61
   7  -4  -7    2.60    0.55
  -7  -4   7    2.98    0.72
   7   4  -7    4.28    0.74
  -7   4   7    2.93    0.67
   7   4  -7    2.53    0.66
   7   4  -7    3.26    0.58
  -7   4   7    3.63    0.83
   6  -4  -7    5.38    0.60
  -6  -4   7    5.96    0.71
  -6  -4   7    4.64    0.67
   6  -4  -7    4.75    0.62
   6   4  -7    7.82    0.76
   6   4  -7    5.52    0.58
  -6   4   7    5.48    0.68
  -6   4   7    5.49    0.78
   6   4  -7    4.87    0.71
   5  -4  -7   42.61    1.47
   5  -4  -7   45.19    1.45
  -5  -4   7   40.54    1.48
  -5  -4   7   43.59    1.53
   5   4  -7   45.95    1.46
   5   4  -7   42.59    1.59
   5   4  -7   44.81    1.63
  -5   4   7   45.16    1.65
  -5   4   7   43.39    1.51
   4  -4  -7    5.78    0.55
  -4  -4   7    5.90    0.57
   4  -4  -7    6.70    0.59
  -4  -4   7    6.80    0.64
   4   4  -7    8.06    0.71
   4   4  -7    9.61    0.79
   4   4  -7    8.74    0.61
  -4   4   7    8.52    0.67
  -4   4   7    9.39    0.75
   3  -4  -7   62.18    1.78
  -3  -4   7   58.31    1.70
   3  -4  -7   61.95    1.76
  -3   4   7   65.08    1.88
   3   4  -7   63.95    1.99
   3   4  -7   64.96    1.82
   3   4  -7   64.16    1.95
  -3   4   7   65.92    1.92
   2  -4  -7    5.25    0.50
  -2  -4   7    3.95    0.41
  -2  -4   7    4.79    0.45
   2  -4  -7    4.56    0.47
   2   4  -7    3.85    0.42
   2   4  -7    4.07    0.52
  -2   4   7    4.33    0.49
   2   4  -7    3.35    0.51
  -2   4   7    4.05    0.49
   1  -4  -7   59.69    1.72
  -1  -4   7   59.74    1.58
  -1  -4   7   61.19    1.66
   1  -4  -7   60.35    1.69
  -1   4   7   60.80    1.73
  -1   4   7   54.45    1.72
   1   4  -7   57.96    1.84
  -1   4   7   57.32    1.66
   1   4  -7   60.40    1.79
   1   4  -7   60.07    1.65
   0  -4  -7   26.71    0.97
   0  -4  -7   27.26    1.00
   0  -4   7   27.60    1.00
   0   4   7   26.94    1.09
   0   4  -7   28.53    1.11
   0   4  -7   27.78    0.97
   0   4   7   26.28    1.08
   0   4   7   28.97    0.99
   0   4  -7   29.07    1.19
   1  -4   7   83.33    2.26
  -1  -4  -7   85.22    2.23
  -1  -4  -7   84.96    2.17
  -1   4  -7   86.61    2.49
  -1   4  -7   85.42    2.38
   1   4   7   86.13    2.35
   1   4   7   86.10    2.36
   1   4   7   88.00    2.23
  -1   4  -7   89.16    2.25
  -2  -4  -7   46.97    1.30
   2  -4   7   44.35    1.29
  -2  -4  -7   46.52    1.40
   2  -4   7   45.98    1.46
  -2  -4  -7   45.55    1.46
  -2  -4  -7   44.35    1.32
   2   4   7   47.28    1.39
  -2   4  -7   49.63    1.55
  -2   4  -7   44.81    1.67
  -2   4  -7   47.67    1.38
   2   4   7   49.04    1.53
   2   4   7   48.04    1.56
  -3  -4  -7    8.32    0.61
  -3  -4  -7    9.20    0.65
   3  -4   7    9.72    0.52
   3  -4   7   10.26    0.75
  -3  -4  -7    9.55    0.72
   3   4   7   10.61    0.67
  -3   4  -7   10.17    0.59
  -3   4  -7    9.21    0.69
   3   4   7   11.54    0.77
   3   4   7   10.96    0.77
  -3   4  -7   10.64    0.88
  -4  -4  -7   79.80    2.23
   4  -4   7   75.69    1.96
  -4  -4  -7   71.06    2.07
   4  -4   7   76.35    2.21
  -4   4  -7   78.44    2.01
   4   4   7   77.30    2.09
   4   4   7   78.17    2.15
  -4   4  -7   75.03    2.38
   4   4   7   72.22    2.23
  -4   4  -7   73.58    2.18
  -5  -4  -7    3.07    0.60
  -5  -4  -7    2.94    0.55
   5  -4   7    4.01    0.59
   5   4   7    4.50    0.58
   5   4   7    4.37    0.56
   5   4   7    4.35    0.68
  -5   4  -7    4.34    0.57
  -6  -4  -7   36.44    1.54
  -6  -4  -7   35.38    1.45
   6  -4   7   35.41    1.46
   6   4   7   36.59    1.38
   6   4   7   32.56    1.34
  -6   4  -7   35.21    1.38
   6   4   7   36.38    1.52
   7  -4   7    8.73    0.87
  -7  -4  -7    9.09    0.96
  -7  -4  -7    7.25    0.84
   7   4   7    8.18    0.92
   7   4   7    7.46    0.79
   7   4   7    9.15    0.80
  -7   4  -7    9.26    0.84
   8  -4   7   17.52    1.23
  -8  -4  -7   16.46    1.17
  -8  -4  -7   19.55    1.36
   8   4   7   16.74    1.17
   8   4   7   16.51    1.26
  -8   4  -7   17.56    1.20
   8   4   7   14.94    1.22
  -9  -4  -7   21.24    1.53
   9  -4   7   22.60    1.50
  -9  -4  -7   22.14    1.51
   9   4   7   22.45    1.49
  -9   4  -7   21.07    1.41
   9   4   7   20.75    1.50
  10  -5  -7    5.06    1.07
 -10  -5   7    4.00    1.06
 -10  -5   7    5.37    1.25
  10   5  -7    4.69    1.09
  10   5  -7    3.84    0.96
  10   5  -7    4.30    1.10
  -9  -5   7   14.40    1.32
   9  -5  -7   15.26    1.25
  -9  -5   7   13.94    1.24
   9  -5  -7   12.12    1.04
   9   5  -7   12.80    1.24
   9   5  -7   10.92    1.18
   9   5  -7   13.98    1.11
  -8  -5   7    4.38    0.94
   8  -5  -7    7.96    0.95
  -8  -5   7    4.59    0.86
   8  -5  -7    6.40    0.83
   8   5  -7    4.87    0.74
   8   5  -7    6.37    0.93
   8   5  -7    4.44    0.86
  -8   5   7    4.26    1.04
  -8   5   7    4.80    0.89
   7  -5  -7   33.67    1.51
  -7  -5   7   32.11    1.55
  -7  -5   7   31.06    1.54
   7  -5  -7   31.11    1.41
   7   5  -7   30.96    1.58
  -7   5   7   32.37    1.74
   7   5  -7   33.95    1.37
   7   5  -7   31.53    1.59
  -7   5   7   31.59    1.45
   6  -5  -7   27.57    1.34
  -6  -5   7   29.56    1.36
   6  -5  -7   27.40    1.24
  -6  -5   7   27.65    1.34
   6   5  -7   24.86    1.37
  -6   5   7   27.13    1.45
   6   5  -7   27.78    1.39
  -6   5   7   25.45    1.27
   6   5  -7   28.85    1.21
  -5  -5   7   22.61    1.14
  -5  -5   7   21.42    1.19
   5  -5  -7   22.24    1.12
   5  -5  -7   21.89    1.08
  -5   5   7   23.49    1.15
   5   5  -7   23.77    1.29
   5   5  -7   22.09    1.04
  -5   5   7   23.22    1.29
   5   5  -7   22.64    1.23
   4  -5  -7   32.27    1.29
  -4  -5   7   35.60    1.28
   4  -5  -7   33.95    1.32
  -4  -5   7   34.47    1.40
   4   5  -7   35.45    1.44
   4   5  -7   36.25    1.50
   4   5  -7   39.05    1.32
  -4   5   7   35.92    1.43
  -4   5   7   35.32    1.34
   3  -5  -7   12.07    0.85
   3  -5  -7   12.27    0.82
  -3  -5   7   12.48    0.78
   3   5  -7   10.19    0.73
   3   5  -7   12.61    0.91
  -3   5   7   12.00    0.84
   3   5  -7   12.37    0.92
  -3   5   7   12.40    0.85
   2  -5  -7   40.94    1.41
   2  -5  -7   41.39    1.41
   2   5  -7   38.64    1.31
   2   5  -7   41.24    1.50
   2   5  -7   36.94    1.45
  -2   5   7   39.40    1.35
  -2   5   7   40.06    1.38
  -1  -5   7    0.88    0.37
   1  -5  -7    1.51    0.42
   1  -5  -7    0.44    0.36
  -1   5   7    1.26    0.46
   1   5  -7    1.66    0.49
   1   5  -7    1.11    0.45
  -1   5   7    1.55    0.39
   1   5  -7    1.01    0.35
   0  -5  -7   29.42    1.12
   0  -5  -7   29.63    1.12
   0  -5   7   28.44    1.10
   0   5  -7   28.38    1.05
   0   5   7   28.44    1.01
   0   5  -7   27.32    1.24
   0   5   7   28.24    1.17
   0   5   7   27.78    1.19
   0   5  -7   28.51    1.17
   1  -5   7   48.56    1.45
  -1  -5  -7   47.64    1.51
  -1  -5  -7   47.53    1.51
   1  -5   7   52.38    1.59
   1   5   7   53.07    1.71
   1   5   7   53.67    1.53
  -1   5  -7   56.24    1.61
  -1   5  -7   51.33    1.82
   1   5   7   54.03    1.73
  -1   5  -7   55.53    1.74
  -2  -5  -7   24.69    1.02
  -2  -5  -7   26.39    1.10
   2  -5   7   25.03    1.08
  -2  -5  -7   24.53    1.00
   2  -5   7   25.18    0.94
   2   5   7   26.83    1.17
  -2   5  -7   23.15    1.12
   2   5   7   26.87    0.94
   2   5   7   25.16    1.13
  -2   5  -7   26.46    1.29
  -2   5  -7   26.39    1.01
   3  -5   7   25.32    0.96
  -3  -5  -7   24.24    1.15
  -3  -5  -7   25.06    1.06
  -3  -5  -7   27.92    1.45
   3  -5   7   29.33    1.19
   3   5   7   27.84    1.00
  -3   5  -7   26.69    1.04
  -3   5  -7   26.84    1.20
   3   5   7   27.80    1.24
  -3   5  -7   25.65    1.33
   3   5   7   27.78    1.18
   4  -5   7    3.37    0.58
  -4  -5  -7    2.68    0.52
  -4  -5  -7    2.23    0.59
   4  -5   7    3.40    0.42
   4   5   7    3.20    0.57
   4   5   7    2.61    0.63
  -4   5  -7    3.23    0.45
   4   5   7    2.27    0.46
  -4   5  -7    2.39    0.69
  -4   5  -7    2.97    0.56
   5  -5   7   17.85    1.10
  -5  -5  -7   17.61    1.07
  -5  -5  -7   19.21    1.19
   5   5   7   17.03    0.92
   5   5   7   17.88    1.07
   5   5   7   18.76    1.21
  -5   5  -7   17.26    1.06
  -6  -5  -7    2.68    0.67
  -6  -5  -7    3.77    0.79
   6  -5   7    3.20    0.65
   6   5   7    2.73    0.63
  -6   5  -7    3.00    0.61
   6   5   7    3.44    0.77
   6   5   7    2.48    0.56
  -7  -5  -7   22.03    1.42
   7  -5   7   21.97    1.34
  -7  -5  -7   21.67    1.50
   7   5   7   22.50    1.22
  -7   5  -7   25.38    1.34
   7   5   7   20.34    1.26
   7   5   7   22.15    1.49
   8  -5   7    4.16    0.84
  -8  -5  -7    4.53    1.03
  -8  -5  -7    3.36    0.90
   8   5   7    3.09    0.74
   8   5   7    2.45    0.92
  -8   5  -7    2.51    0.71
  -9  -5  -7    4.37    1.05
  -9  -5  -7    3.24    1.12
   9  -5   7    5.17    0.99
  -9   5  -7    4.60    0.87
   9   5   7    4.32    0.90
   9   5   7    5.12    1.14
  -9  -6   7    3.54    1.05
   9  -6  -7    2.04    0.88
  -9  -6   7    3.65    1.21
   9  -6  -7    2.18    1.02
   9   6  -7    2.02    0.84
  -9   6   7    3.10    1.84
   9   6  -7    2.79    1.07
   9   6  -7    1.51    0.97
   8  -6  -7   20.29    1.41
   8  -6  -7   18.91    1.37
  -8  -6   7   16.93    1.35
  -8  -6   7   25.21    1.52
   8   6  -7   24.59    1.40
   8   6  -7   22.05    1.63
  -8   6   7   24.55    1.94
   8   6  -7   22.52    1.57
   7  -6  -7   11.79    1.09
  -7  -6   7    9.41    1.04
   7  -6  -7    9.75    0.95
  -7  -6   7    9.55    1.05
  -7   6   7   11.36    1.21
   7   6  -7    8.54    1.05
   7   6  -7    8.73    1.00
   7   6  -7    8.81    0.85
   6  -6  -7   11.28    1.00
   6  -6  -7   10.33    0.90
  -6  -6   7   11.90    1.04
   6   6  -7   14.22    1.19
  -6   6   7   13.25    1.15
   6   6  -7   13.03    0.93
   6   6  -7   11.25    1.02
   5  -6  -7   28.75    1.44
  -5  -6   7   28.28    1.41
   5  -6  -7   29.25    1.35
  -5   6   7   29.02    1.47
   5   6  -7   26.87    1.45
  -5   6   7   24.79    1.29
   5   6  -7   25.96    1.23
   5   6  -7   27.93    1.39
   4  -6  -7    5.71    0.75
   4  -6  -7    5.89    0.72
  -4   6   7    5.28    0.71
   4   6  -7    5.92    0.83
  -4   6   7    5.13    0.72
   4   6  -7    5.77    0.76
   4   6  -7    5.87    0.65
   3  -6  -7   26.53    1.21
   3  -6  -7   23.82    1.24
   3   6  -7   24.13    1.23
  -3   6   7   24.40    1.18
  -3   6   7   24.97    1.18
   3   6  -7   25.43    1.13
   3   6  -7   24.04    1.32
   2  -6  -7    2.86    0.57
   2  -6  -7    2.09    0.52
   2   6  -7    1.97    0.48
  -2   6   7    1.95    0.50
  -2   6   7    1.87    0.57
   2   6  -7    1.64    0.57
   2   6  -7    1.60    0.55
   1  -6  -7   25.44    1.16
   1  -6  -7   25.83    1.18
  -1  -6   7   25.25    1.10
  -1   6   7   25.29    1.02
   1   6  -7   26.28    1.26
   1   6  -7   21.88    1.05
   1   6  -7   22.81    1.20
  -1   6   7   21.78    1.13
   0  -6  -7    3.53    0.57
   0  -6  -7    2.09    0.50
   0  -6   7    2.96    0.54
   0   6  -7    3.80    0.62
   0   6   7    3.68    0.61
   0   6   7    3.62    0.48
   0   6  -7    3.32    0.63
   0   6   7    3.73    0.65
   0   6  -7    4.18    0.53
   1  -6   7   24.63    1.01
   1  -6   7   25.22    1.15
  -1  -6  -7   25.34    1.14
  -1  -6  -7   24.88    1.11
   1   6   7   28.20    1.28
  -1   6  -7   28.80    1.16
   1   6   7   29.43    1.03
  -1   6  -7   28.75    1.29
  -1   6  -7   28.72    1.39
   1   6   7   27.21    1.30
  -2  -6  -7   54.66    1.79
   2  -6   7   57.52    1.85
  -2  -6  -7   54.91    1.75
  -2  -6  -7   56.24    1.74
   2  -6   7   52.91    1.66
   2   6   7   54.55    1.86
  -2   6  -7   56.51    1.89
  -2   6  -7   52.01    1.97
  -2   6  -7   55.98    1.73
   2   6   7   55.72    1.84
   2   6   7   54.13    1.53
  -3  -6  -7    1.11    0.49
  -3  -6  -7    2.04    0.61
   3  -6   7    1.13    0.39
   3  -6   7    1.87    0.55
   3   6   7    1.66    0.57
   3   6   7    1.61    0.40
  -3   6  -7    2.42    0.61
   3   6   7    1.53    0.64
  -3   6  -7    1.82    0.66
  -3   6  -7    1.78    0.46
   4  -6   7   22.18    1.23
  -4  -6  -7   21.02    1.10
   4  -6   7   23.58    1.02
  -4  -6  -7   20.65    1.27
   4   6   7   19.94    0.88
   4   6   7   22.15    1.22
   4   6   7   21.92    1.30
  -4   6  -7   22.99    1.07
  -4   6  -7   21.24    1.43
  -4   6  -7   22.20    1.22
  -5  -6  -7    3.05    0.78
   5  -6   7    3.93    0.72
   5   6   7    4.19    0.54
   5   6   7    4.94    0.73
   5   6   7    4.93    0.85
  -5   6  -7    5.01    0.76
  -5   6  -7    4.08    1.08
   6  -6   7   18.41    1.29
  -6  -6  -7   20.79    1.46
  -6  -6  -7   18.87    1.37
  -6   6  -7   17.04    1.21
   6   6   7   17.98    1.24
   6   6   7   17.50    0.98
   6   6   7   21.41    1.37
   7  -6   7    2.72    0.79
  -7  -6  -7    3.59    0.98
  -7  -6  -7    2.41    0.91
   7   6   7    2.80    0.94
  -7   6  -7    1.97    0.72
   7   6   7    2.40    0.63
  -8  -6  -7    9.08    1.21
  -8  -6  -7   10.05    1.30
   8  -6   7    8.64    1.09
   8   6   7    9.21    0.89
  -8   6  -7   10.18    1.07
   8   6   7   12.42    1.32
   8  -7  -7    1.85    1.06
  -8  -7   7    1.94    1.05
   8  -7  -7    1.43    0.88
   8   7  -7    1.66    0.82
   8   7  -7    1.13    1.08
   8   7  -7    1.21    0.99
  -8   7   7    2.26    1.24
   7  -7  -7   18.95    1.42
  -7  -7   7   15.55    1.33
   7  -7  -7   15.87    1.23
   7   7  -7   16.42    1.15
   7   7  -7   17.59    1.38
  -7   7   7   16.10    1.46
   7   7  -7   16.97    1.46
   6  -7  -7    7.53    0.92
  -6  -7   7    9.47    1.13
   6  -7  -7    7.31    1.03
   6   7  -7    9.02    0.91
  -6   7   7    8.39    1.11
   6   7  -7    7.75    1.02
   6   7  -7   11.37    1.24
   5  -7  -7    9.13    1.02
   5  -7  -7   10.67    0.97
   5   7  -7    9.71    0.90
  -5   7   7   11.87    1.10
   5   7  -7   10.17    1.14
   5   7  -7    9.91    1.02
   4  -7  -7   12.61    1.01
   4  -7  -7   10.79    1.01
   4   7  -7   14.14    1.12
   4   7  -7   13.45    0.98
  -4   7   7   14.34    1.08
   4   7  -7   16.34    1.29
   3  -7  -7    2.54    0.71
   3  -7  -7    1.97    0.62
  -3   7   7    2.33    0.65
   3   7  -7    2.91    0.60
   3   7  -7    2.59    0.70
   3   7  -7    2.24    0.78
   2  -7  -7   20.75    1.19
   2  -7  -7   20.17    1.25
  -2   7   7   21.59    1.22
   2   7  -7   21.95    1.14
   2   7  -7   20.27    1.25
   2   7  -7   23.16    1.38
  -2   7   7   21.70    1.14
   1  -7  -7    7.99    0.81
   1  -7  -7    7.77    0.84
   1   7  -7    8.42    0.78
  -1   7   7    7.83    0.70
   1   7  -7    9.94    0.98
   1   7  -7    8.84    0.92
  -1   7   7    8.99    0.87
   0  -7   7   18.45    1.12
   0  -7  -7   18.35    1.17
   0  -7  -7   18.46    1.10
   0  -7   7   17.84    1.01
   0   7  -7   19.66    1.07
   0   7  -7   19.21    1.23
   0   7   7   18.59    1.18
   0   7  -7   18.86    1.24
   0   7   7   16.84    0.90
   0   7   7   19.51    1.30
  -1  -7  -7    1.46    0.57
   1  -7   7    1.93    0.60
  -1  -7  -7    1.59    0.63
   1  -7   7    1.54    0.46
  -1   7  -7    1.65    0.65
  -1   7  -7    2.22    0.57
   1   7   7    2.51    0.46
   1   7   7    1.88    0.70
  -1   7  -7    2.16    0.69
   1   7   7    3.02    0.75
  -2  -7  -7    3.67    0.65
   2  -7   7    2.83    0.65
   2  -7   7    3.82    0.57
   2   7   7    2.74    0.72
   2   7   7    3.44    0.76
  -2   7  -7    2.03    0.66
  -2   7  -7    3.58    0.61
  -2   7  -7    2.59    0.72
   2   7   7    2.75    0.43
   3  -7   7   23.21    1.32
  -3  -7  -7   23.47    1.34
  -3  -7  -7   23.76    1.24
   3  -7   7   23.64    1.13
  -3   7  -7   25.86    1.25
   3   7   7   24.05    0.89
  -3   7  -7   24.28    1.38
   3   7   7   24.17    1.47
  -3   7  -7   23.19    1.53
   3   7   7   24.68    1.38
   4  -7   7    0.39    0.49
  -4  -7  -7    0.72    0.61
  -4  -7  -7    0.63    0.73
   4  -7   7    0.25    0.63
  -4   7  -7    0.05    0.81
   4   7   7    0.37    0.38
  -4   7  -7    0.75    0.63
  -4   7  -7    0.66    0.55
   4   7   7    0.62    0.79
   4   7   7    0.54    0.69
  -5  -7  -7    8.87    1.07
   5  -7   7   10.59    1.07
   5   7   7    7.47    0.91
  -5   7  -7    8.59    0.95
   5   7   7    8.09    1.06
   5   7   7    6.37    0.53
  -5   7  -7    7.70    1.18
  -6  -7  -7    0.60    0.90
   6  -7   7    0.49    0.76
   6   7   7    0.36    0.45
   6   7   7    0.75    0.94
  -6   7  -7    0.26    0.68
   6  -8  -7    6.25    1.00
   6  -8  -7    9.38    1.25
   6   8  -7    5.98    1.26
   6   8  -7    8.90    1.15
  -6   8   7    6.76    1.20
   6   8  -7    6.54    0.93
   5  -8  -7    9.57    1.17
   5  -8  -7    7.50    1.00
   5   8  -7    8.96    1.26
  -5   8   7    8.42    1.11
   5   8  -7    9.01    1.12
   5   8  -7    8.32    0.95
   4  -8  -7    1.05    0.75
   4  -8  -7    1.11    0.86
   4   8  -7    1.31    0.79
  -4   8   7    1.10    0.81
   4   8  -7    0.74    0.66
   4   8  -7    1.60    0.96
   3  -8  -7    9.99    1.00
   3  -8  -7   11.27    1.13
   3   8  -7   10.56    1.07
   3   8  -7    9.97    0.95
  -3   8   7   10.15    0.97
   3   8  -7   13.14    1.29
   2  -8  -7    6.85    0.99
   2  -8  -7    4.30    0.80
   2   8  -7    6.21    0.92
   2   8  -7    6.75    0.83
   2   8  -7    5.81    0.98
  -2   8   7    5.78    0.79
   1  -8  -7    6.62    0.87
   1  -8  -7    7.23    0.95
   1   8  -7    7.51    0.98
   1   8  -7    8.11    0.85
   1   8  -7    8.58    1.05
  -1   8   7    7.83    0.75
   0  -8   7    3.21    0.64
   0  -8  -7    3.01    0.82
   0  -8  -7    2.63    0.70
   0   8   7    2.07    0.56
   0   8  -7    2.15    0.79
   0   8  -7    2.37    0.65
   0   8  -7    2.80    0.85
   0   8   7    2.80    0.88
  -1  -8  -7   11.95    0.99
  -1  -8  -7   13.43    1.09
   1  -8   7   14.08    0.97
   1  -8   7   15.14    1.13
  -1   8  -7   12.74    1.17
  -1   8  -7   14.41    1.20
  -1   8  -7   14.75    1.06
   1   8   7   13.25    1.17
   1   8   7   14.43    0.81
   2  -8   7   11.61    0.91
   2  -8   7    9.65    1.03
  -2  -8  -7    9.19    0.92
   2   8   7    8.04    0.60
  -2   8  -7    9.76    1.07
   2   8   7   11.45    1.10
  -2   8  -7   10.03    0.91
  -2   8  -7    8.45    1.07
   2   8   7    9.47    1.04
   3  -8   7    1.78    0.80
   3  -8   7    2.40    0.65
  -3  -8  -7    2.55    0.76
   3   8   7    3.15    0.86
   3   8   7    2.97    0.94
  -3   8  -7    2.23    0.93
  -3   8  -7    2.57    0.71
  -3   8  -7    2.03    0.80
   4  -8   7   19.03    1.22
   4  -8   7   17.98    1.36
  -4  -8  -7   15.33    1.11
  -4  -8  -7   17.39    1.31
   4   8   7   17.33    1.40
   4   8   7   16.79    1.26
  -4   8  -7   20.91    1.39
  -4   8  -7   17.09    1.19
  -4   8  -7   20.55    1.62
  -5  -8  -7    0.82    0.98
   5  -8   7    0.76    0.87
   5   8   7    1.60    1.50
   5   8   7    0.82    1.05
  -5   8  -7    0.50    0.77
  -5   8  -7    0.80    1.13
   3  -9  -7    2.49    0.91
   3  -9  -7    4.01    1.08
   3   9  -7    3.95    1.15
  -3   9   7    4.17    0.94
   3   9  -7    4.76    1.02
   3   9  -7    3.71    0.90
   2  -9  -7   10.25    1.12
   2  -9  -7   12.22    1.25
   2   9  -7    9.83    1.29
  -2   9   7   11.44    1.03
   2   9  -7   12.24    1.25
   2   9  -7   12.38    1.13
   1  -9  -7    2.62    0.97
   1  -9  -7    1.52    0.82
   1   9  -7    1.91    0.98
   1   9  -7    3.22    0.83
  -1   9   7    2.96    0.75
   1   9  -7    3.73    1.02
   0  -9  -7    0.96    0.79
   0  -9  -7    0.30    0.92
   0   9  -7    1.04    0.90
   0   9   7    0.85    0.60
   0   9   7    1.22    1.02
   0   9  -7    0.60    0.74
   0   9  -7    1.13    0.94
  -1  -9  -7    2.91    1.05
  -1  -9  -7    1.63    0.81
   1  -9   7    2.51    0.74
  -1   9  -7    3.08    1.01
  -1   9  -7    2.63    0.95
  -1   9  -7    3.31    0.82
   1   9   7    3.84    1.10
   1   9   7    2.45    0.53
   2  -9   7    7.77    0.92
  -2  -9  -7    6.59    0.98
   2  -9   7    7.52    1.13
  -2   9  -7    9.63    1.29
  -2   9  -7    7.57    1.12
   2   9   7    7.94    1.18
  -2   9  -7    8.31    1.01
  11   0  -8    3.66    0.77
 -11   0   8    4.44    1.11
  10   0  -8    0.71    0.58
 -10   0   8    0.41    0.85
   9   0  -8    5.14    0.65
  -9   0   8    3.76    0.83
   8   0  -8    5.55    0.60
  -8   0   8    4.55    0.75
  -7   0   8   80.87    2.34
   7   0  -8   76.43    2.14
  -6   0   8    5.71    0.50
   6   0  -8    6.22    0.52
   6   0  -8    6.86    0.55
  -6   0   8    6.13    0.66
   6   0  -8    5.61    0.71
   5   0  -8   38.70    1.53
  -5   0   8   35.90    1.46
  -5   0   8   40.79    1.38
  -5   0   8   38.40    1.15
   5   0  -8   38.44    1.21
   5   0  -8   38.78    1.18
  -5   0   8   39.47    1.12
   5   0  -8   39.55    1.07
   4   0  -8   43.95    1.27
   4   0  -8   44.01    1.24
   4   0  -8   41.61    1.53
  -4   0   8   42.44    1.39
   4   0  -8   43.82    1.18
  -4   0   8   42.52    1.52
  -4   0   8   43.54    1.21
   3   0  -8   51.60    1.42
  -3   0   8   54.80    1.55
  -3   0   8   49.91    1.63
  -3   0   8   50.39    1.38
   3   0  -8   52.34    1.66
   3   0  -8   50.31    1.38
  -2   0   8   78.90    2.08
  -2   0   8   77.67    1.97
   2   0  -8   79.19    1.96
  -2   0   8   75.00    2.17
   2   0  -8   79.57    2.19
   2   0  -8   75.58    1.92
  -1   0   8    3.11    0.35
   1   0  -8    2.65    0.28
  -1   0   8    2.81    0.47
   1   0  -8    2.55    0.30
   1   0  -8    2.94    0.46
  -1   0   8    2.66    0.36
   0   0  -8   63.70    1.63
   0   0   8   62.69    1.73
   0   0   8   66.27    1.70
   0   0  -8   61.69    1.83
   0   0   8   62.58    1.84
   0   0  -8   60.84    1.58
  -1   0  -8   17.53    0.68
   1   0   8   17.63    0.75
  -1   0  -8   16.23    0.56
   1   0   8   17.36    0.87
   1   0   8   16.94    0.72
   2   0   8   92.52    2.39
  -2   0  -8   91.31    2.34
   2   0   8   95.68    2.56
  -2   0  -8   92.83    2.16
   2   0   8   90.71    2.37
   3   0   8   37.21    1.20
  -3   0  -8   37.32    1.17
   3   0   8   37.22    1.20
  -3   0  -8   34.92    1.15
   3   0   8   36.53    1.35
   4   0   8   14.76    0.93
   4   0   8   15.11    0.75
   4   0   8   15.06    0.75
  -4   0  -8   13.83    0.73
  -4   0  -8   13.52    0.74
   5   0   8   73.37    2.25
  -5   0  -8   72.78    2.04
  -5   0  -8   72.19    2.03
   5   0   8   70.35    2.05
   5   0   8   71.74    2.05
   6   0   8    0.17    0.50
   6   0   8   -0.01    0.40
  -6   0  -8   -0.04    0.42
  -6   0  -8    0.06    0.38
   6   0   8    0.14    0.39
   7   0   8   28.43    1.24
   7   0   8   27.12    1.46
  -7   0  -8   26.40    1.23
  -7   0  -8   26.61    1.20
   7   0   8   27.62    1.21
  -8   0  -8   15.62    1.06
  -8   0  -8   15.31    1.08
   8   0   8   14.28    1.02
   8   0   8   15.01    1.07
   8   0   8   16.34    1.26
  -9   0  -8   41.23    1.77
   9   0   8   40.86    1.73
   9   0   8   42.05    1.71
  -9   0  -8   41.83    1.74
   9   0   8   41.36    2.07
  10   0   8   28.95    1.63
  10   0   8   27.82    1.62
  10   0   8   29.73    2.03
 -10   0  -8   29.24    1.65
 -10   0  -8   31.03    1.74
  11  -1  -8    5.52    0.87
 -11  -1   8    4.17    1.11
 -11   1   8    5.52    1.18
  11   1  -8    5.53    0.82
 -10  -1   8   18.47    1.37
  10  -1  -8   23.87    1.25
  10   1  -8   24.82    1.26
 -10   1   8   24.66    1.59
   9  -1  -8    7.31    0.75
  -9  -1   8    7.30    0.92
   9   1  -8    8.46    0.73
  -9   1   8    8.64    0.98
   9   1  -8    6.28    1.26
   8  -1  -8   42.73    1.49
  -8  -1   8   42.86    1.52
  -8  -1   8   45.27    1.73
   8   1  -8   39.65    1.41
  -8   1   8   40.83    1.65
   8   1  -8   39.58    1.40
   8   1  -8   39.39    1.79
  -7  -1   8    6.39    0.75
  -7  -1   8    6.86    0.63
   7  -1  -8    6.49    0.59
   7   1  -8    6.64    0.61
   7   1  -8    7.98    0.86
   7   1  -8    6.98    0.58
  -7   1   8    7.88    0.78
  -6  -1   8   32.01    1.25
  -6  -1   8   30.55    1.10
   6  -1  -8   27.64    1.07
   6  -1  -8   28.33    0.95
   6   1  -8   30.34    1.12
   6   1  -8   29.57    1.08
   6   1  -8   29.31    1.39
  -6   1   8   29.99    1.40
  -6   1   8   30.43    1.26
  -6   1   8   29.73    1.04
  -5  -1   8    2.05    0.40
  -5  -1   8    1.94    0.48
   5  -1  -8    2.25    0.39
   5  -1  -8    2.08    0.32
  -5   1   8    2.72    0.40
   5   1  -8    2.01    0.38
  -5   1   8    2.66    0.51
  -5   1   8    3.00    0.63
   5   1  -8    2.10    0.56
   5   1  -8    3.14    0.43
  -4  -1   8   30.30    0.90
   4  -1  -8   31.67    1.04
   4  -1  -8   29.98    0.94
  -4  -1   8   30.89    1.25
  -4  -1   8   29.21    1.01
  -4  -1   8   29.46    1.12
   4   1  -8   27.96    1.21
   4   1  -8   27.77    0.99
  -4   1   8   26.25    1.08
  -4   1   8   26.66    0.93
  -4   1   8   27.75    1.17
   4   1  -8   27.10    0.97
  -3  -1   8   49.66    1.62
  -3  -1   8   52.39    1.52
  -3  -1   8   50.32    1.35
   3  -1  -8   49.81    1.43
   3  -1  -8   51.85    1.38
   3   1  -8   55.92    1.52
  -3   1   8   53.90    1.59
   3   1  -8   52.29    1.71
   3   1  -8   52.88    1.52
  -3   1   8   53.95    1.48
  -3   1   8   51.76    1.67
  -2  -1   8    5.93    0.58
   2  -1  -8    5.83    0.42
  -2  -1   8    6.36    0.43
   2  -1  -8    5.34    0.35
   2  -1  -8    6.17    0.43
  -2  -1   8    5.73    0.46
  -2   1   8    7.65    0.56
  -2   1   8    7.46    0.64
   2   1  -8    7.20    0.51
   2   1  -8    6.78    0.48
   2   1  -8    6.96    0.61
  -2   1   8    7.20    0.49
  -1  -1   8   68.93    1.86
  -1  -1   8   67.97    2.02
   1  -1  -8   72.14    1.82
   1  -1  -8   68.63    1.69
   1  -1  -8   73.00    1.79
  -1  -1   8   70.19    1.81
   1   1  -8   65.79    1.94
  -1   1   8   65.71    1.84
  -1   1   8   68.57    1.91
   1   1  -8   64.18    1.74
   1   1  -8   64.27    1.71
  -1   1   8   68.99    1.78
   0  -1  -8    7.75    0.42
   0  -1   8    6.84    0.51
   0  -1  -8    8.59    0.43
   0  -1   8    7.90    0.51
   0  -1   8    7.05    0.59
   0   1  -8    6.98    0.51
   0   1   8    7.01    0.58
   0   1   8    7.01    0.52
   0   1  -8    7.65    0.63
   0   1   8    7.30    0.54
   0   1  -8    7.07    0.41
   1  -1   8  113.54    2.77
   1  -1   8  111.08    2.95
   1  -1   8  108.23    2.75
  -1  -1  -8  112.36    2.61
  -1  -1  -8  112.56    2.67
  -1   1  -8  109.12    2.71
   1   1   8  109.46    2.84
   1   1   8  110.72    2.74
  -1   1  -8  103.52    2.57
  -1   1  -8  111.03    2.90
   1   1   8  111.04    2.79
  -2  -1  -8   34.86    1.14
  -2  -1  -8   34.70    0.92
  -2  -1  -8   34.76    1.05
   2  -1   8   34.15    1.11
   2  -1   8   35.80    1.32
   2  -1   8   34.92    1.14
   2   1   8   38.93    1.26
   2   1   8   38.11    1.21
   2   1   8   38.46    1.33
  -2   1  -8   37.56    1.02
  -2   1  -8   38.64    1.20
   3  -1   8   54.12    1.79
  -3  -1  -8   56.20    1.54
   3  -1   8   53.25    1.59
  -3  -1  -8   54.83    1.60
   3  -1   8   54.18    1.56
  -3   1  -8   53.85    1.58
   3   1   8   56.57    1.60
   3   1   8   51.66    1.62
   3   1   8   54.35    1.71
  -4  -1  -8   86.06    2.25
   4  -1   8   83.99    2.50
   4  -1   8   84.15    2.26
  -4  -1  -8   84.03    2.31
   4  -1   8   86.91    2.31
   4   1   8   83.08    2.28
   4   1   8   80.07    2.22
  -4   1  -8   82.92    2.16
  -4   1  -8   82.30    2.23
   4   1   8   82.04    2.38
   5  -1   8    0.45    0.36
   5  -1   8    0.74    0.37
  -5  -1  -8    0.40    0.36
  -5  -1  -8    0.61    0.42
   5  -1   8    1.00    0.51
   5   1   8    1.42    0.43
   5   1   8    1.16    0.50
  -5   1  -8    1.85    0.42
   5   1   8    1.11    0.41
  -5   1  -8    1.19    0.37
   6  -1   8   72.82    2.10
   6  -1   8   74.33    2.40
  -6  -1  -8   71.98    2.18
   6  -1   8   73.38    2.17
  -6  -1  -8   76.68    2.14
   6   1   8   75.94    2.34
  -6   1  -8   70.49    2.13
   6   1   8   72.24    2.12
  -6   1  -8   71.95    2.07
   6   1   8   73.60    2.18
  -7  -1  -8    6.28    0.68
   7  -1   8    6.24    0.89
   7  -1   8    5.83    0.69
   7  -1   8    5.24    0.63
  -7  -1  -8    6.93    0.77
   7   1   8    5.45    0.80
  -7   1  -8    5.38    0.65
   7   1   8    4.28    0.66
  -7   1  -8    4.45    0.60
   7   1   8    4.16    0.64
   8  -1   8   18.53    1.40
  -8  -1  -8   19.02    1.26
  -8  -1  -8   18.76    1.17
   8  -1   8   18.47    1.09
   8  -1   8   18.29    1.16
   8   1   8   18.21    1.36
   8   1   8   19.30    1.20
  -8   1  -8   20.01    1.14
   8   1   8   21.38    1.24
  -8   1  -8   21.48    1.19
   9  -1   8   12.95    1.35
  -9  -1  -8   12.34    1.01
  -9  -1  -8   12.84    1.13
   9  -1   8   13.86    1.10
   9  -1   8   10.95    0.97
   9   1   8   12.75    1.25
  -9   1  -8   11.97    1.12
   9   1   8   13.04    1.10
   9   1   8   12.94    1.04
  -9   1  -8   10.65    0.97
  10  -1   8    6.35    0.96
 -10  -1  -8    6.13    0.96
 -10  -1  -8    6.36    1.09
  10   1   8    5.58    0.91
  10   1   8    6.00    1.16
 -10   1  -8    5.54    0.90
  10   1   8    5.65    0.98
 -11  -2   8    5.18    1.16
  11  -2  -8    5.82    0.95
  11   2  -8    5.34    0.83
 -11   2   8    6.27    1.21
 -10  -2   8    4.25    0.99
 -10  -2   8    4.76    0.90
  10  -2  -8    4.74    0.81
  10   2  -8    4.05    0.79
  10   2  -8    3.03    0.70
 -10   2   8    4.73    1.02
  10   2  -8    3.09    0.96
  -9  -2   8   11.62    0.95
   9  -2  -8   11.08    0.91
  -9  -2   8   11.64    1.11
   9   2  -8   11.63    0.94
  -9   2   8   12.82    1.10
   9   2  -8   10.43    1.14
   9   2  -8   13.36    0.89
   8  -2  -8   12.48    0.88
  -8  -2   8   12.92    1.02
  -8  -2   8   10.72    0.86
   8   2  -8    8.21    0.95
   8   2  -8   10.99    0.79
   8   2  -8   12.10    0.86
  -8   2   8   10.66    0.94
  -7  -2   8   31.98    1.40
   7  -2  -8   30.66    1.23
   7  -2  -8   29.46    1.10
  -7  -2   8   30.12    1.27
   7   2  -8   31.45    1.53
  -7   2   8   33.72    1.41
   7   2  -8   33.51    1.26
   7   2  -8   32.84    1.32
  -7   2   8   33.17    1.64
  -6  -2   8    4.87    0.57
   6  -2  -8    4.52    0.54
  -6  -2   8    5.56    0.66
   6  -2  -8    4.11    0.45
  -6   2   8    4.56    0.65
   6   2  -8    4.93    0.56
  -6   2   8    5.09    0.76
   6   2  -8    4.98    0.58
   6   2  -8    4.70    0.72
  -5  -2   8   56.57    1.69
   5  -2  -8   56.68    1.59
  -5  -2   8   58.59    1.76
   5  -2  -8   55.64    1.68
   5   2  -8   52.50    1.86
  -5   2   8   54.77    1.73
  -5   2   8   56.80    1.84
   5   2  -8   54.16    1.64
   5   2  -8   54.95    1.67
  -4  -2   8   30.40    1.08
   4  -2  -8   29.22    0.99
   4  -2  -8   30.27    1.06
  -4  -2   8   28.91    1.12
   4   2  -8   29.02    1.03
  -4   2   8   29.85    1.05
  -4   2   8   29.79    1.14
   4   2  -8   28.30    1.24
  -4   2   8   28.52    1.22
   4   2  -8   30.51    1.10
  -3  -2   8   15.88    0.63
   3  -2  -8   15.50    0.72
   3  -2  -8   16.16    0.69
  -3  -2   8   16.77    0.79
   3   2  -8   15.32    0.91
  -3   2   8   15.89    0.77
  -3   2   8   16.52    0.84
   3   2  -8   17.43    0.81
   3   2  -8   17.52    0.75
  -3   2   8   18.14    0.93
   2  -2  -8  114.52    2.83
  -2  -2   8  114.45    2.77
  -2  -2   8  114.49    2.87
   2  -2  -8  118.26    2.83
  -2  -2   8  115.29    3.05
   2   2  -8  107.32    2.94
  -2   2   8  107.66    2.76
   2   2  -8  109.93    2.71
   2   2  -8  115.90    2.82
  -2   2   8  113.25    2.83
  -2   2   8  107.74    2.86
   1  -2  -8   29.79    0.94
  -1  -2   8   29.33    0.96
  -1  -2   8   29.36    1.20
  -1  -2   8   30.20    0.98
   1  -2  -8   31.05    0.99
   1   2  -8   29.44    1.16
  -1   2   8   29.54    1.09
  -1   2   8   29.09    1.01
  -1   2   8   29.75    1.10
   1   2  -8   30.29    0.94
   1   2  -8   29.55    1.03
   0  -2  -8   71.59    1.77
   0  -2   8   73.45    1.94
   0  -2  -8   77.69    1.96
   0  -2   8   73.76    1.91
   0  -2  -8   75.29    1.86
   0  -2   8   72.34    2.15
   0   2  -8   73.92    2.21
   0   2   8   79.30    2.12
   0   2  -8   76.16    1.95
   0   2   8   74.38    2.06
   0   2   8   77.46    2.12
   0   2  -8   83.93    2.09
   1  -2   8   13.94    0.68
   1  -2   8   13.74    0.63
   1  -2   8   15.86    0.91
  -1  -2  -8   14.10    0.57
  -1  -2  -8   15.02    0.58
  -1   2  -8   15.51    0.58
  -1   2  -8   14.80    0.71
   1   2   8   15.76    0.79
   1   2   8   14.92    0.74
  -1   2  -8   14.57    0.86
   1   2   8   15.03    0.79
   2  -2   8   37.96    1.45
  -2  -2  -8   39.37    1.05
   2  -2   8   36.56    1.23
   2  -2   8   39.76    1.16
  -2  -2  -8   38.51    1.26
  -2  -2  -8   39.25    1.13
   2   2   8   36.76    1.23
  -2   2  -8   37.20    1.40
  -2   2  -8   36.90    1.22
   2   2   8   36.09    1.27
  -2   2  -8   37.18    1.03
   2   2   8   38.20    1.27
   3  -2   8   72.10    1.89
  -3  -2  -8   73.51    1.89
  -3  -2  -8   72.18    2.02
   3  -2   8   71.60    1.99
   3  -2   8   67.33    2.17
   3   2   8   70.44    1.94
   3   2   8   70.35    2.00
   3   2   8   69.75    2.01
  -3   2  -8   65.98    1.69
  -3   2  -8   67.45    1.94
  -4  -2  -8   66.78    1.81
  -4  -2  -8   60.68    1.89
   4  -2   8   63.86    1.88
   4  -2   8   63.53    1.76
   4  -2   8   66.73    2.11
  -4   2  -8   63.48    1.84
   4   2   8   61.45    1.81
  -4   2  -8   63.71    1.70
   4   2   8   60.72    1.89
   4   2   8   63.03    1.94
   5  -2   8   30.89    1.10
   5  -2   8   27.02    1.36
   5  -2   8   30.69    1.21
  -5  -2  -8   30.16    1.24
  -5  -2  -8   31.04    1.15
   5   2   8   26.16    1.22
  -5   2  -8   27.22    1.00
   5   2   8   28.41    1.19
   5   2   8   26.37    1.09
  -5   2  -8   25.26    1.10
   6  -2   8    0.62    0.44
   6  -2   8    0.24    0.55
  -6  -2  -8   -0.06    0.41
   6  -2   8    0.00    0.37
  -6  -2  -8    0.42    0.53
  -6   2  -8    0.23    0.39
   6   2   8    0.15    0.51
   6   2   8    0.65    0.48
  -6   2  -8    0.57    0.40
   6   2   8    0.57    0.50
  -7  -2  -8   51.78    1.76
  -7  -2  -8   47.49    1.82
   7  -2   8   52.66    1.82
   7   2   8   52.41    1.83
   7   2   8   49.60    1.71
  -7   2  -8   50.60    1.73
   7   2   8   48.62    1.91
  -8  -2  -8    1.73    0.63
   8  -2   8    1.97    0.64
  -8  -2  -8    1.86    0.75
   8   2   8    1.65    0.68
   8   2   8    0.89    0.61
   8   2   8    0.75    0.68
  -8   2  -8    1.74    0.57
  -9  -2  -8   25.59    1.61
  -9  -2  -8   29.05    1.53
   9  -2   8   26.41    1.49
   9   2   8   28.24    1.57
   9   2   8   28.10    1.50
   9   2   8   29.77    1.72
  -9   2  -8   27.85    1.44
  10  -2   8   18.81    1.38
 -10  -2  -8   14.50    1.24
 -10  -2  -8   19.22    1.49
  10   2   8   17.20    1.49
  10   2   8   18.18    1.27
  10   2   8   19.88    1.44
 -10   2  -8   16.30    1.24
 -11  -3   8    7.43    1.28
 -11  -3   8    6.33    1.14
  11  -3  -8    7.53    1.07
  11   3  -8    6.15    1.04
  11   3  -8    6.07    1.25
 -11   3   8    7.87    1.28
  11   3  -8    6.23    0.91
 -10  -3   8   14.68    1.36
  10  -3  -8   16.59    1.20
 -10  -3   8   14.80    1.22
 -10   3   8   12.12    1.23
  10   3  -8   16.82    1.09
  10   3  -8   14.59    1.16
  10   3  -8   16.70    1.47
   9  -3  -8    4.08    0.77
  -9  -3   8    2.98    0.81
  -9  -3   8    4.37    0.95
  -9   3   8    3.46    0.89
   9   3  -8    3.67    0.88
   9   3  -8    4.08    0.78
   9   3  -8    4.34    0.72
   8  -3  -8   21.75    1.20
  -8  -3   8   20.67    1.26
  -8  -3   8   23.51    1.43
  -8   3   8   17.30    1.24
   8   3  -8   20.81    1.19
   8   3  -8   18.55    1.37
   8   3  -8   20.53    1.24
  -7  -3   8    2.35    0.62
   7  -3  -8    2.87    0.60
  -7  -3   8    2.99    0.72
   7  -3  -8    2.63    0.50
  -7   3   8    3.15    0.69
   7   3  -8    3.04    0.72
   7   3  -8    2.75    0.62
  -7   3   8    2.74    0.80
   7   3  -8    2.70    0.58
  -6  -3   8   29.38    1.23
  -6  -3   8   29.05    1.30
   6  -3  -8   28.64    1.21
   6  -3  -8   31.56    1.13
  -6   3   8   26.03    1.24
   6   3  -8   26.13    1.12
  -6   3   8   27.26    1.42
   6   3  -8   28.10    1.23
   6   3  -8   26.55    1.34
   5  -3  -8    8.91    0.68
  -5  -3   8    8.38    0.71
  -5  -3   8    7.35    0.67
   5  -3  -8    7.69    0.60
   5   3  -8    9.15    0.82
  -5   3   8   10.52    0.89
   5   3  -8    9.99    0.76
  -5   3   8    8.95    0.74
   5   3  -8    8.78    0.65
  -4  -3   8   42.53    1.46
   4  -3  -8   45.28    1.42
  -4  -3   8   45.34    1.44
   4  -3  -8   44.09    1.38
   4   3  -8   42.59    1.46
   4   3  -8   42.65    1.35
  -4   3   8   41.98    1.44
   4   3  -8   41.41    1.56
  -4   3   8   42.69    1.54
   3  -3  -8   56.20    1.62
  -3  -3   8   57.81    1.65
   3  -3  -8   55.67    1.62
   3   3  -8   53.66    1.66
  -3   3   8   54.78    1.70
  -3   3   8   53.36    1.61
   3   3  -8   53.08    1.54
  -3   3   8   52.25    1.64
   3   3  -8   51.29    1.75
   2  -3  -8    1.45    0.33
   2  -3  -8    1.92    0.36
  -2  -3   8    1.47    0.37
  -2  -3   8    1.15    0.32
  -2   3   8    1.74    0.44
   2   3  -8    2.18    0.34
  -2   3   8    1.85    0.42
  -2   3   8    1.95    0.44
   2   3  -8    1.84    0.45
   2   3  -8    2.33    0.43
   1  -3  -8   40.44    1.19
  -1  -3   8   38.83    1.19
  -1  -3   8   37.80    1.19
  -1   3   8   39.98    1.29
  -1   3   8   36.67    1.27
   1   3  -8   38.69    1.42
   1   3  -8   37.12    1.29
  -1   3   8   38.96    1.31
   1   3  -8   39.23    1.17
   0  -3  -8   18.97    0.74
   0  -3  -8   18.18    0.78
   0  -3   8   19.82    0.81
   0  -3   8   18.89    0.74
   0   3   8   18.78    0.90
   0   3  -8   18.53    0.72
   0   3   8   17.89    0.84
   0   3   8   19.33    0.86
   0   3  -8   17.98    0.84
   0   3  -8   18.31    0.95
  -1  -3  -8   75.06    1.95
  -1  -3  -8   70.90    1.94
  -1  -3  -8   69.81    1.84
   1  -3   8   70.88    1.84
   1  -3   8   73.14    1.97
  -1   3  -8   73.96    2.21
  -1   3  -8   71.39    2.06
   1   3   8   74.67    2.09
   1   3   8   73.37    2.03
  -1   3  -8   74.45    1.90
   1   3   8   73.48    2.04
  -2  -3  -8   25.98    0.97
   2  -3   8   25.91    0.88
  -2  -3  -8   26.83    0.90
   2  -3   8   29.42    1.06
  -2  -3  -8   27.81    1.07
  -2   3  -8   30.45    1.31
   2   3   8   33.79    1.16
  -2   3  -8   28.08    1.11
  -2   3  -8   30.61    0.95
   2   3   8   30.73    1.12
   2   3   8   30.32    1.19
  -3  -3  -8   61.91    1.88
  -3  -3  -8   61.44    1.74
   3  -3   8   67.57    1.90
  -3   3  -8   59.75    1.99
   3   3   8   60.93    1.86
   3   3   8   59.77    1.79
  -3   3  -8   61.35    1.59
  -3   3  -8   60.65    1.81
   3   3   8   58.84    1.78
   4  -3   8   46.00    1.52
  -4  -3  -8   48.50    1.47
  -4  -3  -8   42.46    1.54
   4   3   8   44.82    1.49
   4   3   8   46.51    1.53
   4   3   8   42.91    1.56
  -4   3  -8   46.59    1.53
  -5  -3  -8    6.40    0.63
   5  -3   8    8.31    0.74
  -5  -3  -8    7.34    0.74
   5   3   8    8.09    0.73
  -5   3  -8    7.72    0.67
   5   3   8    9.39    0.72
   5   3   8    8.03    0.78
  -6  -3  -8   49.73    1.76
   6  -3   8   44.71    1.66
  -6  -3  -8   46.37    1.62
   6   3   8   49.80    1.76
   6   3   8   48.69    1.79
  -6   3  -8   48.53    1.69
   6   3   8   48.05    1.64
   7  -3   8    8.30    0.85
  -7  -3  -8    7.39    0.88
  -7  -3  -8    8.12    0.81
   7   3   8    6.53    0.83
   7   3   8    7.93    0.88
  -7   3  -8    7.60    0.77
   7   3   8    6.57    0.76
   8  -3   8   22.16    1.35
  -8  -3  -8   21.28    1.47
  -8  -3  -8   19.40    1.31
  -8   3  -8   22.62    1.27
   8   3   8   22.89    1.45
   8   3   8   25.87    1.48
   8   3   8   23.95    1.30
   9  -3   8   17.06    1.31
  -9  -3  -8   18.32    1.42
  -9  -3  -8   16.90    1.23
   9   3   8   16.91    1.19
   9   3   8   16.46    1.33
   9   3   8   18.06    1.36
  -9   3  -8   15.82    1.16
  10  -4  -8    4.13    1.00
 -10  -4   8    4.25    1.03
 -10  -4   8    5.58    1.19
  10   4  -8    3.50    0.85
 -10   4   8    3.54    1.09
  10   4  -8    3.82    1.11
  10   4  -8    4.53    1.01
  -9  -4   8    9.50    1.06
   9  -4  -8    7.87    1.00
  -9  -4   8    8.75    1.15
   9   4  -8    7.84    0.91
   9   4  -8    8.91    1.03
  -9   4   8    6.85    1.04
   9   4  -8    8.59    1.14
  -8  -4   8    1.64    0.73
   8  -4  -8    0.89    0.67
   8  -4  -8    1.20    0.58
  -8  -4   8    1.26    0.82
   8   4  -8    1.91    0.68
  -8   4   8    1.99    0.79
   8   4  -8    2.24    0.74
  -8   4   8    1.38    0.92
   8   4  -8    1.64    0.76
   7  -4  -8   42.66    1.54
  -7  -4   8   42.82    1.70
  -7  -4   8   41.42    1.75
   7  -4  -8   46.58    1.71
   7   4  -8   47.37    1.79
   7   4  -8   45.32    1.59
  -7   4   8   41.83    1.69
   7   4  -8   39.86    1.83
  -7   4   8   45.98    1.92
  -6  -4   8    0.51    0.56
  -6  -4   8    0.41    0.60
   6  -4  -8    1.11    0.52
   6  -4  -8    0.68    0.46
   6   4  -8    0.82    0.46
  -6   4   8    0.55    0.59
   6   4  -8    0.30    0.56
  -6   4   8    0.90    0.68
   6   4  -8    0.26    0.55
   5  -4  -8   51.48    1.72
   5  -4  -8   53.01    1.66
  -5  -4   8   51.87    1.76
  -5  -4   8   52.23    1.73
  -5   4   8   46.38    1.78
   5   4  -8   47.11    1.53
   5   4  -8   46.85    1.77
  -5   4   8   49.57    1.66
   5   4  -8   47.13    1.70
   4  -4  -8   57.35    1.73
  -4  -4   8   56.35    1.74
   4  -4  -8   55.52    1.75
  -4   4   8   55.30    1.73
   4   4  -8   51.96    1.82
   4   4  -8   52.83    1.63
   4   4  -8   52.11    1.79
  -4   4   8   54.22    1.80
  -3  -4   8   31.57    1.15
   3  -4  -8   31.58    1.17
   3  -4  -8   32.03    1.19
  -3   4   8   27.86    1.17
  -3   4   8   28.12    1.20
   3   4  -8   28.30    1.06
   3   4  -8   29.71    1.22
   3   4  -8   29.61    1.28
  -2  -4   8   91.99    2.41
  -2  -4   8   99.61    2.45
   2  -4  -8   96.02    2.52
   2  -4  -8   95.87    2.54
   2   4  -8   93.57    2.70
   2   4  -8   97.16    2.49
  -2   4   8   92.69    2.55
  -2   4   8   95.83    2.58
  -2   4   8   96.31    2.59
   2   4  -8   94.61    2.64
   1  -4  -8   15.65    0.79
  -1  -4   8   16.98    0.75
   1  -4  -8   15.97    0.80
  -1  -4   8   15.55    0.77
   1   4  -8   16.40    0.76
  -1   4   8   15.79    0.91
  -1   4   8   16.03    0.85
   1   4  -8   17.91    0.92
   1   4  -8   18.58    1.01
  -1   4   8   17.13    0.92
   0  -4   8   36.71    1.23
   0  -4  -8   36.50    1.22
   0  -4  -8   36.32    1.20
   0   4   8   38.79    1.31
   0   4  -8   40.00    1.52
   0   4  -8   41.31    1.42
   0   4   8   42.23    1.43
   0   4  -8   40.95    1.26
   0   4   8   39.54    1.37
  -1  -4  -8   10.17    0.67
  -1  -4  -8    9.05    0.59
   1  -4   8    9.12    0.68
   1   4   8    8.26    0.62
  -1   4  -8    9.12    0.69
   1   4   8    8.65    0.66
  -1   4  -8    8.11    0.76
  -1   4  -8    7.74    0.56
   1   4   8    7.40    0.67
   2  -4   8   25.48    1.06
  -2  -4  -8   25.82    1.01
  -2  -4  -8   25.49    1.09
   2   4   8   23.45    1.10
  -2   4  -8   23.15    1.04
  -2   4  -8   22.46    0.86
   2   4   8   22.99    1.04
  -2   4  -8   22.89    1.23
   2   4   8   22.32    0.94
  -3  -4  -8    5.43    0.63
   3  -4   8    8.08    0.70
  -3  -4  -8    5.33    0.52
   3   4   8    6.49    0.64
  -3   4  -8   10.81    0.95
   3   4   8    7.45    0.75
  -3   4  -8    7.88    0.67
   3   4   8    7.76    0.63
  -3   4  -8    7.65    0.54
   4  -4   8    2.74    0.54
  -4  -4  -8    1.47    0.48
  -4  -4  -8    2.20    0.55
   4   4   8    2.23    0.50
   4   4   8    3.37    0.56
   4   4   8    2.26    0.60
  -4   4  -8    2.83    0.51
  -5  -4  -8   61.91    1.94
   5  -4   8   61.55    2.03
  -5  -4  -8   64.53    2.06
   5   4   8   58.34    1.87
   5   4   8   58.50    1.87
   5   4   8   63.16    2.05
  -5   4  -8   58.82    1.91
   6  -4   8    0.97    0.55
  -6  -4  -8    0.65    0.58
  -6  -4  -8    0.81    0.65
   6   4   8    0.55    0.55
  -6   4  -8    0.64    0.49
   6   4   8    1.49    0.67
   6   4   8    1.01    0.56
   7  -4   8   24.99    1.39
  -7  -4  -8   25.23    1.40
  -7  -4  -8   26.47    1.54
  -7   4  -8   27.03    1.33
   7   4   8   25.56    1.35
   7   4   8   27.37    1.41
   7   4   8   26.67    1.51
   8  -4   8   11.93    1.12
  -8  -4  -8    9.59    1.06
  -8  -4  -8   11.49    1.21
   8   4   8    9.15    0.94
   8   4   8    7.63    1.03
  -8   4  -8    9.72    0.96
   8   4   8    8.62    0.99
   9  -4   8   14.45    1.27
  -9  -4  -8   13.91    1.25
  -9  -4  -8   15.68    1.45
   9   4   8   13.03    1.21
  -9   4  -8   11.78    1.09
   9   4   8   14.25    1.33
   9  -5  -8    2.60    0.95
  -9  -5   8    3.03    0.96
   9  -5  -8    2.81    0.80
  -9  -5   8    1.61    1.07
  -9   5   8    3.99    1.10
   9   5  -8    3.35    0.87
   9   5  -8    3.46    0.99
   9   5  -8    4.68    1.02
  -8  -5   8   12.21    1.14
   8  -5  -8   13.62    1.16
   8  -5  -8   10.95    0.94
  -8  -5   8   14.85    1.24
  -8   5   8   11.65    1.30
  -8   5   8   11.51    1.11
   8   5  -8   10.57    0.95
   8   5  -8    8.48    1.10
   8   5  -8   10.75    1.13
   7  -5  -8    1.63    0.61
  -7  -5   8    1.68    0.80
   7  -5  -8    1.64    0.73
  -7  -5   8    1.26    0.76
  -7   5   8    2.95    0.80
   7   5  -8    2.75    0.64
  -7   5   8    2.45    0.91
   7   5  -8    2.26    0.76
   7   5  -8    2.57    0.78
   6  -5  -8   23.92    1.20
  -6  -5   8   23.30    1.30
   6  -5  -8   23.38    1.29
  -6  -5   8   21.97    1.33
   6   5  -8   21.71    1.34
   6   5  -8   22.94    1.39
   6   5  -8   26.33    1.21
  -6   5   8   23.22    1.44
  -6   5   8   25.56    1.33
  -5  -5   8   12.25    0.91
  -5  -5   8   14.06    0.99
   5  -5  -8   12.90    0.94
   5  -5  -8   13.07    0.95
  -5   5   8   13.06    1.01
   5   5  -8   11.23    0.97
  -5   5   8   12.14    0.93
   5   5  -8   11.44    0.96
   5   5  -8   12.95    0.92
   4  -5  -8   21.10    1.08
   4  -5  -8   22.77    1.15
  -4  -5   8   23.34    1.12
   4   5  -8   19.40    0.99
  -4   5   8   19.70    1.10
  -4   5   8   18.82    1.15
   4   5  -8   20.76    1.22
   4   5  -8   19.48    1.17
   3  -5  -8   26.21    1.15
   3  -5  -8   26.38    1.19
   3   5  -8   24.39    1.28
  -3   5   8   26.79    1.20
   3   5  -8   24.42    1.25
   3   5  -8   27.25    1.10
  -3   5   8   25.58    1.18
   2  -5  -8    5.60    0.60
   2  -5  -8    5.78    0.61
  -2   5   8    6.39    0.64
   2   5  -8    6.63    0.75
   2   5  -8    6.50    0.58
   2   5  -8    6.16    0.71
  -2   5   8    6.61    0.69
   1  -5  -8   42.61    1.43
  -1  -5   8   39.50    1.36
   1  -5  -8   41.64    1.41
   1   5  -8   41.77    1.56
  -1   5   8   41.73    1.40
   1   5  -8   44.23    1.39
   1   5  -8   37.84    1.56
  -1   5   8   40.47    1.48
  -1   5   8   42.52    1.51
   0  -5   8   10.56    0.78
   0  -5  -8   12.09    0.80
   0  -5  -8   11.20    0.76
   0   5  -8   12.09    0.90
   0   5  -8    9.74    0.70
   0   5   8   10.82    0.73
   0   5  -8    9.80    0.86
   0   5   8    9.66    0.81
   0   5   8   10.15    0.80
   1  -5   8   42.16    1.46
  -1  -5  -8   41.47    1.40
  -1  -5  -8   39.80    1.37
  -1   5  -8   39.77    1.52
   1   5   8   43.42    1.54
  -1   5  -8   43.67    1.39
   1   5   8   41.66    1.55
   1   5   8   43.12    1.38
  -1   5  -8   43.68    1.69
  -2  -5  -8   11.96    0.81
   2  -5   8   11.60    0.84
  -2   5  -8   13.75    0.76
   2   5   8   13.40    0.77
  -2   5  -8   13.65    1.06
   2   5   8   12.31    0.91
   2   5   8   13.45    0.95
  -2   5  -8   15.00    0.97
  -3  -5  -8   41.36    1.54
   3  -5   8   42.15    1.54
  -3  -5  -8   40.77    1.43
  -3   5  -8   37.21    1.46
  -3   5  -8   41.59    1.32
   3   5   8   35.97    1.46
   3   5   8   39.89    1.56
   3   5   8   38.90    1.32
  -3   5  -8   42.03    1.72
  -4  -5  -8   48.38    1.76
   4  -5   8   48.21    1.73
   4   5   8   41.48    1.43
   4   5   8   43.07    1.57
  -4   5  -8   48.68    2.52
  -4   5  -8   40.50    1.57
  -4   5  -8   45.00    1.86
   4   5   8   43.71    1.69
   5  -5   8    3.26    0.65
  -5  -5  -8    2.79    0.72
  -5  -5  -8    2.36    0.86
   5   5   8    3.35    0.59
   5   5   8    2.57    0.64
  -5   5  -8    2.23    0.58
   5   5   8    3.87    0.79
   6  -5   8   39.21    1.67
  -6  -5  -8   41.35    1.76
  -6  -5  -8   36.41    1.61
   6   5   8   40.01    1.82
  -6   5  -8   39.78    1.66
   6   5   8   43.20    1.58
   6   5   8   39.83    1.62
  -7  -5  -8    9.44    1.12
  -7  -5  -8    7.40    0.97
   7  -5   8    9.03    1.00
   7   5   8    7.59    1.05
  -7   5  -8    5.50    0.81
   7   5   8    6.24    0.81
   7   5   8    5.87    0.85
  -8  -5  -8    9.00    1.21
  -8  -5  -8    8.40    1.11
   8  -5   8    9.91    1.11
   8   5   8    9.31    1.01
   8   5   8    7.17    1.13
  -8   5  -8    7.84    0.95
  -9  -6   8   17.77    1.59
  -9  -6   8   16.38    1.44
   9  -6  -8   17.95    1.32
   9  -6  -8   17.82    1.52
   9   6  -8   15.34    1.48
   9   6  -8   15.70    1.24
   8  -6  -8    6.38    0.91
  -8  -6   8    8.36    1.32
  -8  -6   8    6.84    1.10
   8  -6  -8    7.42    1.11
   8   6  -8    7.10    1.15
  -8   6   8    4.96    1.19
   8   6  -8    6.89    1.09
   8   6  -8    6.46    0.90
   7  -6  -8   13.23    1.19
   7  -6  -8    9.91    0.97
  -7  -6   8   11.95    1.15
   7   6  -8   11.32    1.18
   7   6  -8    9.97    1.13
  -7   6   8    9.67    1.19
   7   6  -8   10.86    0.93
  -6  -6   8    2.97    0.84
   6  -6  -8    1.95    0.67
   6  -6  -8    2.44    0.79
   6   6  -8    1.38    0.75
   6   6  -8    0.88    0.59
  -6   6   8    1.71    0.85
   6   6  -8    1.12    0.77
  -6   6   8    1.30    0.79
   5  -6  -8   24.21    1.38
   5  -6  -8   24.40    1.29
  -5   6   8   17.88    1.26
   5   6  -8   19.61    1.11
   5   6  -8   18.45    1.29
  -5   6   8   18.56    1.34
   5   6  -8   18.76    1.35
   4  -6  -8   12.03    0.97
   4  -6  -8    9.93    0.85
  -4   6   8   13.75    1.14
   4   6  -8   14.78    0.99
  -4   6   8   11.85    0.94
   4   6  -8   14.93    1.16
   4   6  -8   11.66    1.02
   3  -6  -8   11.83    0.89
   3  -6  -8   10.19    0.88
   3   6  -8   14.09    1.09
  -3   6   8   13.27    1.04
   3   6  -8   14.54    1.11
   3   6  -8   13.51    0.91
  -3   6   8   11.56    0.92
   2  -6  -8   34.20    1.41
   2  -6  -8   35.67    1.46
   2   6  -8   31.10    1.47
  -2   6   8   31.34    1.31
   2   6  -8   34.27    1.29
   2   6  -8   29.91    1.46
  -2   6   8   31.04    1.38
   1  -6  -8    5.15    0.67
   1  -6  -8    5.48    0.67
  -1   6   8    5.20    0.72
  -1   6   8    5.58    0.62
   1   6  -8    5.72    0.75
   1   6  -8    6.42    0.80
  -1   6   8    4.58    0.72
   1   6  -8    5.47    0.61
   0  -6   8   39.67    1.48
   0  -6  -8   40.62    1.49
   0  -6  -8   40.43    1.51
   0   6  -8   42.85    1.66
   0   6  -8   42.23    1.72
   0   6   8   42.42    1.61
   0   6  -8   42.43    1.49
   0   6   8   42.38    1.42
   0   6   8   44.12    1.70
  -1  -6  -8    3.61    0.62
  -1  -6  -8    3.84    0.58
   1  -6   8    4.00    0.63
  -1   6  -8    3.92    0.54
  -1   6  -8    4.21    0.76
  -1   6  -8    4.61    0.70
   1   6   8    5.39    0.76
   1   6   8    4.29    0.53
   1   6   8    4.61    0.72
  -2  -6  -8   15.02    0.97
   2  -6   8   13.95    1.04
  -2   6  -8   14.65    0.88
   2   6   8   13.50    0.79
  -2   6  -8   14.18    1.02
   2   6   8   13.05    0.99
  -2   6  -8   15.85    1.20
   2   6   8   15.22    1.02
   3  -6   8   16.50    1.10
   3  -6   8   16.37    0.87
  -3  -6  -8   15.86    1.06
  -3  -6  -8   14.86    1.00
   3   6   8   16.32    1.14
   3   6   8   16.22    0.85
  -3   6  -8   15.41    1.09
  -3   6  -8   15.79    0.94
   3   6   8   14.73    1.11
  -3   6  -8   15.82    1.32
  -4  -6  -8    6.45    0.86
   4  -6   8    7.85    0.66
   4  -6   8    8.45    0.89
   4   6   8    6.87    0.65
  -4   6  -8    8.97    1.11
  -4   6  -8    8.65    0.86
   4   6   8    7.29    0.82
  -4   6  -8    7.63    0.70
   4   6   8    8.45    0.97
  -5  -6  -8   28.25    1.56
   5  -6   8   28.20    1.48
   5   6   8   27.85    1.20
   5   6   8   31.18    1.65
   5   6   8   29.85    1.45
  -5   6  -8   28.38    1.43
  -6  -6  -8    0.19    0.82
   6  -6   8   -0.01    0.65
   6   6   8    0.30    0.57
  -6   6  -8   -0.09    0.61
   6   6   8    0.13    0.84
   6   6   8    0.45    0.74
   7  -6   8   20.73    1.50
  -7  -6  -8   19.46    1.47
   7   6   8   19.21    1.24
   7   6   8   18.25    1.48
  -7   6  -8   20.10    1.44
   7   6   8   19.65    1.47
   7  -7  -8   10.05    1.08
  -7  -7   8   11.09    1.28
   7  -7  -8   12.96    1.33
   7   7  -8    9.18    1.19
   7   7  -8    9.06    0.98
  -7   7   8    8.80    1.26
   7   7  -8   13.12    1.41
   6  -7  -8    5.95    1.05
   6  -7  -8    6.59    0.93
   6   7  -8    6.53    1.05
   6   7  -8    4.81    1.06
  -6   7   8    4.63    1.04
   6   7  -8    5.31    0.82
   5  -7  -8    9.66    1.08
   5  -7  -8    8.36    0.92
   5   7  -8    9.86    1.18
  -5   7   8   10.07    1.08
   5   7  -8   10.76    1.11
   5   7  -8   10.11    0.93
   4  -7  -8   11.37    1.07
   4  -7  -8   10.93    1.00
   4   7  -8   10.41    0.90
   4   7  -8   12.56    1.19
  -4   7   8   11.21    1.04
   4   7  -8   11.18    1.08
   3  -7  -8   12.81    1.06
   3  -7  -8   14.02    1.05
   3   7  -8   11.91    0.91
  -3   7   8   10.20    1.24
   3   7  -8   13.09    1.18
  -3   7   8   13.88    1.15
   3   7  -8   13.33    1.12
   2  -7  -8    6.14    0.85
   2  -7  -8    6.34    0.79
   2   7  -8    6.80    0.89
  -2   7   8    5.14    0.81
   2   7  -8    6.81    0.74
  -2   7   8    6.66    0.77
   2   7  -8    5.31    0.88
   1  -7  -8   19.49    1.28
   1  -7  -8   18.99    1.15
  -1   7   8   19.94    1.42
   1   7  -8   18.50    1.34
  -1   7   8   20.22    1.31
   1   7  -8   20.73    1.13
  -1   7   8   19.00    1.09
   1   7  -8   20.83    1.33
   0  -7  -8    4.51    0.70
   0  -7  -8    3.21    0.73
   0   7  -8    3.67    0.80
   0   7  -8    4.82    0.84
   0   7  -8    4.37    0.65
   0   7   8    3.83    0.60
   0   7   8    5.33    0.89
   0   7   8    3.89    0.78
  -1  -7  -8   23.52    1.33
  -1  -7  -8   23.63    1.26
   1  -7   8   26.53    1.35
  -1   7  -8   21.79    1.46
   1   7   8   25.02    1.47
  -1   7  -8   25.28    1.44
   1   7   8   24.96    1.05
  -1   7  -8   25.56    1.23
   1   7   8   21.64    1.39
   2  -7   8    9.01    0.75
  -2  -7  -8    8.10    0.81
   2  -7   8    6.96    0.86
  -2   7  -8    6.59    0.90
   2   7   8    6.03    0.58
   2   7   8    7.66    0.92
  -2   7  -8    7.46    0.76
   2   7   8    7.66    0.95
  -2   7  -8    6.82    0.98
  -3  -7  -8   11.23    0.92
   3  -7   8    9.79    0.79
   3  -7   8   12.53    1.07
  -3   7  -8   10.25    1.03
   3   7   8    9.77    0.99
  -3   7  -8   11.60    1.21
   3   7   8    9.11    1.03
   3   7   8    9.35    0.75
  -3   7  -8   12.13    0.91
  -4  -7  -8   26.23    1.37
   4  -7   8   29.17    1.56
   4  -7   8   26.32    1.24
  -4  -7  -8   27.03    1.56
  -4   7  -8   26.45    1.74
   4   7   8   22.19    0.99
   4   7   8   26.05    1.66
   4   7   8   24.04    1.46
  -4   7  -8   23.93    1.46
  -4   7  -8   25.33    1.31
   5  -7   8    0.14    0.73
  -5  -7  -8    0.23    0.85
   5   7   8    0.37    0.50
   5   7   8    0.39    0.79
  -5   7  -8    0.16    0.67
   5   7   8    0.36    0.93
   6  -7   8   23.91    1.64
  -6  -7  -8   25.54    1.78
   6   7   8   24.12    1.13
   6   7   8   26.10    1.61
  -6   7  -8   25.03    1.55
   6   7   8   25.58    1.67
   5  -8  -8   23.15    1.60
   5  -8  -8   20.72    1.57
   5   8  -8   22.92    1.72
   5   8  -8   21.42    1.70
   5   8  -8   17.35    1.25
  -5   8   8   16.90    1.40
   4  -8  -8   10.78    1.09
   4  -8  -8   11.01    1.21
  -4   8   8   12.43    1.17
   4   8  -8   13.73    1.08
   4   8  -8   13.16    1.25
   4   8  -8   13.09    1.38
   3  -8  -8    8.35    1.09
   3  -8  -8    6.74    0.94
   3   8  -8    7.46    0.89
  -3   8   8    7.47    0.96
   3   8  -8    7.36    1.03
   3   8  -8    8.61    1.18
   2  -8  -8   12.73    1.11
   2  -8  -8   13.11    1.18
   2   8  -8   15.28    1.10
   2   8  -8   13.30    1.21
   2   8  -8   10.87    1.21
  -2   8   8   13.06    1.03
   1  -8  -8    2.33    0.74
   1  -8  -8    2.08    0.85
   1   8  -8    1.90    0.88
   1   8  -8    2.22    0.69
  -1   8   8    1.60    0.95
   1   8  -8    1.61    0.82
  -1   8   8    1.74    0.66
   0  -8  -8    8.92    0.93
   0  -8  -8    7.75    1.00
   0   8   8   10.11    1.16
   0   8   8    8.86    0.76
   0   8  -8    9.48    1.12
   0   8  -8    9.82    0.92
   0   8  -8   11.56    1.21
  -1  -8  -8   10.62    0.98
   1   8   8   11.39    1.15
  -1   8  -8   13.09    1.20
  -1   8  -8   13.72    1.03
  -1   8  -8   13.79    1.29
   1   8   8   11.50    1.18
   1   8   8   12.06    0.88
   2  -8   8    8.16    1.03
   2  -8   8   10.31    0.88
  -2  -8  -8    9.60    0.96
  -2   8  -8    8.24    0.87
   2   8   8    6.85    1.02
  -2   8  -8    8.10    1.13
  -2   8  -8    8.87    1.11
   2   8   8    6.98    0.61
   2   8   8    7.72    1.11
  -3  -8  -8    2.38    0.78
   3  -8   8    2.66    0.66
   3  -8   8    2.85    0.89
  -3   8  -8    2.03    0.71
  -3   8  -8    2.33    0.86
  -3   8  -8    3.07    1.05
   3   8   8    2.44    0.46
   3   8   8    2.77    0.93
   3   8   8    2.64    1.01
   4  -8   8    0.47    0.83
   4  -8   8    0.50    0.63
  -4  -8  -8    0.39    0.78
  -4   8  -8    0.39    0.79
   4   8   8    0.61    0.92
  -4   8  -8    0.41    0.71
   4   8   8    0.64    1.03
  -4   8  -8    0.65    1.10
  11   0  -9   26.62    1.45
 -10   0   9   25.48    1.67
  10   0  -9   25.81    1.32
   9   0  -9   29.81    1.29
  -9   0   9   29.55    1.61
   8   0  -9   17.45    1.01
  -8   0   9   17.91    1.25
  -7   0   9    8.74    0.83
   7   0  -9   10.30    0.72
  -6   0   9   68.04    2.09
   6   0  -9   66.38    1.90
   5   0  -9    0.03    0.42
  -5   0   9    0.12    0.68
   5   0  -9   -0.25    0.30
  -5   0   9    0.16    0.45
  -5   0   9    0.12    0.36
   4   0  -9   13.63    0.67
  -4   0   9   14.93    1.00
   4   0  -9   14.58    0.70
  -4   0   9   14.97    0.68
  -4   0   9   14.61    0.85
  -3   0   9   35.86    1.25
  -3   0   9   36.27    1.39
   3   0  -9   36.95    1.12
  -3   0   9   35.66    1.12
   3   0  -9   36.38    1.09
  -2   0   9   26.41    0.93
   2   0  -9   28.00    0.88
  -2   0   9   26.15    1.03
   2   0  -9   26.10    0.87
  -2   0   9   24.63    1.13
   1   0  -9   83.37    2.05
  -1   0   9   77.45    2.32
   1   0  -9   81.99    2.04
  -1   0   9   83.62    2.12
  -1   0   9   79.59    2.17
   0   0   9   10.71    0.67
   0   0   9   11.25    0.78
   0   0  -9   10.13    0.49
   0   0   9   10.87    0.64
   0   0  -9   10.36    0.57
  -1   0  -9   37.74    1.08
   1   0   9   42.00    1.28
   1   0   9   39.91    1.44
  -1   0  -9   40.45    1.20
   1   0   9   40.73    1.30
   2   0   9    7.99    0.73
   2   0   9    9.22    0.64
   2   0   9    9.10    0.65
  -2   0  -9    8.19    0.58
   3   0   9   70.64    2.20
   3   0   9   73.14    2.04
  -3   0  -9   73.76    1.99
   3   0   9   73.51    2.05
   4   0   9   27.75    1.09
   4   0   9   28.93    1.31
  -4   0  -9   28.18    1.07
   4   0   9   27.46    1.11
  -4   0  -9   26.23    1.06
  -5   0  -9   29.53    1.18
   5   0   9   31.55    1.43
   5   0   9   30.90    1.22
   5   0   9   30.13    1.21
  -5   0  -9   31.28    1.20
   6   0   9   94.70    2.62
   6   0   9   93.96    2.86
   6   0   9   94.12    2.60
  -6   0  -9   87.91    2.56
  -6   0  -9   89.64    2.56
   7   0   9    0.45    0.66
  -7   0  -9   -0.04    0.47
  -7   0  -9    0.10    0.52
   7   0   9   -0.06    0.51
   7   0   9    0.67    0.55
  -8   0  -9   51.39    1.88
  -8   0  -9   50.75    1.86
   8   0   9   51.49    2.19
   8   0   9   51.11    1.88
   8   0   9   51.01    1.87
  -9   0  -9    2.45    0.84
   9   0   9    2.67    0.79
  -9   0  -9    2.76    0.76
   9   0   9    3.22    0.81
   9   0   9    3.19    1.03
  11  -1  -9    1.40    0.80
 -11  -1   9    1.47    1.10
 -11   1   9    1.06    1.06
  11   1  -9    1.86    0.78
  10  -1  -9   28.64    1.42
  10   1  -9   29.16    1.40
 -10   1   9   26.07    1.72
   9  -1  -9    8.42    0.81
  -9  -1   9    6.05    0.94
  -9   1   9    5.01    0.91
   9   1  -9    4.70    0.66
  -8  -1   9    1.86    0.71
   8  -1  -9    2.33    0.56
  -8   1   9    1.80    0.71
   8   1  -9    1.67    0.53
   7  -1  -9   26.36    1.12
  -7  -1   9   26.45    1.46
  -7  -1   9   26.34    1.33
  -7   1   9   25.42    1.28
   7   1  -9   24.99    1.06
   7   1  -9   26.17    1.42
   7   1  -9   25.16    1.48
  -6  -1   9    1.10    0.46
   6  -1  -9    1.28    0.40
  -6  -1   9    1.50    0.55
  -6   1   9    1.08    0.80
   6   1  -9    1.19    0.65
   6   1  -9    0.99    0.40
   6   1  -9    0.95    0.45
  -6   1   9    0.51    0.54
   5  -1  -9   68.01    1.78
   5  -1  -9   66.43    1.89
  -5  -1   9   65.62    1.86
  -5  -1   9   70.75    2.05
  -5   1   9   70.63    2.23
  -5   1   9   66.93    2.06
   5   1  -9   68.65    1.92
   5   1  -9   64.87    2.22
  -5   1   9   70.35    1.87
   5   1  -9   70.99    1.92
  -4  -1   9   28.13    0.92
   4  -1  -9   29.71    1.04
   4  -1  -9   29.73    0.96
  -4  -1   9   28.72    1.15
   4   1  -9   26.07    0.99
  -4   1   9   25.92    1.26
   4   1  -9   28.29    1.01
  -4   1   9   24.38    1.11
  -4   1   9   26.57    0.97
   4   1  -9   25.82    1.23
  -3  -1   9   57.68    1.60
   3  -1  -9   62.24    1.68
  -3  -1   9   60.23    1.77
   3  -1  -9   60.80    1.62
  -3   1   9   58.61    1.78
   3   1  -9   62.45    1.94
   3   1  -9   60.72    1.69
  -3   1   9   58.39    1.68
   3   1  -9   60.16    1.68
  -3   1   9   61.12    1.91
  -2  -1   9   76.84    2.24
  -2  -1   9   75.67    1.94
  -2  -1   9   75.08    2.04
   2  -1  -9   74.33    1.94
   2  -1  -9   71.41    1.94
   2   1  -9   82.50    2.34
  -2   1   9   79.02    2.10
  -2   1   9   79.84    2.29
  -2   1   9   76.50    2.17
   2   1  -9   79.81    2.08
  -1  -1   9    8.95    0.60
   1  -1  -9    9.03    0.47
  -1  -1   9    8.05    0.73
  -1  -1   9    8.83    0.59
   1  -1  -9    8.81    0.51
   1   1  -9    9.77    0.77
  -1   1   9    7.36    0.53
  -1   1   9    7.98    0.61
   1   1  -9    7.93    0.56
  -1   1   9    8.72    0.71
   1   1  -9    8.28    0.52
   0  -1   9   87.68    2.29
   0  -1   9   88.93    2.52
   0  -1  -9   88.24    2.18
   0  -1   9   89.38    2.31
   0  -1  -9   88.57    2.17
   0   1  -9   87.75    2.51
   0   1   9   89.28    2.35
   0   1   9   88.15    2.29
   0   1  -9   85.43    2.18
   0   1   9   87.23    2.43
   0   1  -9   86.21    2.26
   1  -1   9    6.99    0.71
  -1  -1  -9    7.98    0.50
   1  -1   9    7.75    0.57
  -1  -1  -9    7.39    0.44
   1  -1   9    7.31    0.54
  -1   1  -9    7.81    0.55
   1   1   9    7.43    0.60
   1   1   9    6.96    0.54
   1   1   9    7.64    0.67
  -1   1  -9    6.64    0.45
   2  -1   9   81.24    2.38
  -2  -1  -9   80.29    2.07
   2  -1   9   77.63    2.13
   2  -1   9   80.03    2.17
   2   1   9   71.43    2.05
   2   1   9   77.82    2.04
  -2   1  -9   73.10    1.99
  -2   1  -9   70.99    1.81
   2   1   9   71.53    2.15
   3  -1   9   42.87    1.39
   3  -1   9   42.63    1.36
  -3  -1  -9   43.62    1.34
   3  -1   9   45.10    1.65
  -3  -1  -9   41.81    1.40
  -3   1  -9   44.90    1.42
   3   1   9   46.29    1.51
   3   1   9   45.32    1.60
   3   1   9   45.59    1.45
  -4  -1  -9   37.09    1.23
   4  -1   9   37.92    1.53
   4  -1   9   34.91    1.28
   4  -1   9   33.65    1.23
  -4  -1  -9   34.99    1.28
  -4   1  -9   36.16    1.29
   4   1   9   39.06    1.50
  -4   1  -9   36.61    1.22
   4   1   9   37.08    1.31
   4   1   9   36.02    1.35
   5  -1   9   26.98    1.14
  -5  -1  -9   25.48    1.08
   5  -1   9   24.63    1.07
  -5  -1  -9   25.48    1.14
   5  -1   9   27.32    1.38
  -5   1  -9   25.91    1.09
   5   1   9   26.91    1.15
  -5   1  -9   25.23    1.05
   5   1   9   25.79    1.30
   5   1   9   26.95    1.17
   6  -1   9   13.63    0.94
  -6  -1  -9   13.40    0.90
   6  -1   9   12.73    0.87
  -6  -1  -9   12.37    0.89
   6  -1   9   11.78    1.03
   6   1   9   13.18    0.95
  -6   1  -9   12.34    0.88
   6   1   9   14.15    0.97
  -6   1  -9   11.91    0.89
   6   1   9   14.36    1.10
  -7  -1  -9   53.50    1.84
   7  -1   9   55.36    1.90
   7  -1   9   52.76    1.79
  -7  -1  -9   54.53    1.89
   7  -1   9   53.25    2.17
   7   1   9   51.86    2.07
  -7   1  -9   53.95    1.79
  -7   1  -9   55.29    1.84
   7   1   9   52.94    1.84
   7   1   9   54.11    1.89
  -8  -1  -9    3.03    0.70
  -8  -1  -9    4.65    0.83
   8  -1   9    4.20    0.98
   8  -1   9    3.89    0.71
   8  -1   9    4.17    0.77
  -8   1  -9    4.01    0.69
  -8   1  -9    4.74    0.76
   8   1   9    4.16    0.78
   8   1   9    4.04    0.76
   8   1   9    3.66    0.90
  -9  -1  -9   30.64    1.60
   9  -1   9   31.64    1.64
  -9  -1  -9   30.69    1.70
   9   1   9   31.30    1.57
   9   1   9   31.49    1.63
  -9   1  -9   31.41    1.60
   9   1   9   32.86    1.92
 -11  -2   9   15.94    1.48
  11  -2  -9   18.79    1.33
 -11   2   9   16.26    1.49
  11   2  -9   18.07    1.20
  10  -2  -9    3.07    0.79
 -10  -2   9    2.67    0.98
 -10   2   9    3.62    1.05
  10   2  -9    3.08    0.76
   9  -2  -9    3.29    0.72
  -9  -2   9    3.94    0.92
  -9  -2   9    3.96    0.90
   9   2  -9    2.43    0.85
   9   2  -9    2.99    0.65
  -9   2   9    2.72    0.88
   9   2  -9    2.32    0.91
  -8  -2   9   23.32    1.26
   8  -2  -9   24.23    1.22
  -8  -2   9   24.79    1.45
   8   2  -9   22.71    1.53
   8   2  -9   19.49    1.19
  -8   2   9   21.31    1.35
   8   2  -9   21.76    1.14
   7  -2  -9    4.34    0.61
  -7  -2   9    4.80    0.75
  -7  -2   9    4.11    0.65
   7   2  -9    3.77    0.63
  -7   2   9    4.10    0.74
   7   2  -9    3.73    0.59
   7   2  -9    3.19    0.74
  -6  -2   9   33.58    1.31
  -6  -2   9   36.24    1.45
   6  -2  -9   34.77    1.31
   6  -2  -9   35.10    1.17
  -6   2   9   35.86    1.64
  -6   2   9   34.90    1.27
   6   2  -9   36.19    1.38
   6   2  -9   35.81    1.33
  -6   2   9   36.32    1.47
   6   2  -9   35.51    1.62
  -5  -2   9   24.77    1.13
   5  -2  -9   23.10    0.91
  -5  -2   9   23.89    1.06
   5  -2  -9   24.71    1.03
   5   2  -9   22.56    1.27
  -5   2   9   26.58    1.30
  -5   2   9   22.55    1.01
  -5   2   9   25.23    1.17
   5   2  -9   23.77    1.07
   5   2  -9   23.89    1.03
   4  -2  -9   55.84    1.65
   4  -2  -9   54.28    1.57
  -4  -2   9   55.45    1.71
  -4   2   9   56.87    1.65
  -4   2   9   54.72    1.86
   4   2  -9   53.02    1.63
  -4   2   9   54.72    1.75
   4   2  -9   57.24    1.90
   4   2  -9   54.26    1.69
   3  -2  -9   20.64    0.86
  -3  -2   9   19.10    0.77
  -3  -2   9   17.67    0.88
   3  -2  -9   19.13    0.79
   3   2  -9   19.47    0.90
  -3   2   9   19.04    0.89
  -3   2   9   20.48    1.00
  -3   2   9   18.05    1.03
   3   2  -9   19.34    1.06
   3   2  -9   20.63    0.85
  -2  -2   9   34.33    1.19
   2  -2  -9   36.33    1.15
   2  -2  -9   35.94    1.15
  -2  -2   9   36.57    1.14
  -2   2   9   37.59    1.29
  -2   2   9   34.48    1.20
   2   2  -9   35.10    1.14
   2   2  -9   36.64    1.22
  -2   2   9   36.77    1.35
   2   2  -9   33.91    1.39
  -1  -2   9  108.80    2.65
   1  -2  -9  109.56    2.62
  -1  -2   9  102.63    2.91
  -1  -2   9  104.52    2.66
   1  -2  -9  101.92    2.65
  -1   2   9  112.35    2.89
  -1   2   9  113.65    2.97
   1   2  -9  113.79    2.90
   1   2  -9  110.32    3.08
   1   2  -9  113.55    2.79
  -1   2   9  118.37    3.01
   0  -2  -9   25.14    0.93
   0  -2   9   27.62    0.95
   0  -2   9   25.45    1.18
   0  -2  -9   26.02    0.88
   0  -2   9   27.01    0.98
   0   2   9   24.47    1.06
   0   2   9   24.83    0.97
   0   2  -9   24.06    0.82
   0   2   9   24.15    1.02
   0   2  -9   22.08    1.09
   0   2  -9   24.87    0.97
  -1  -2  -9   71.99    1.82
   1  -2   9   70.57    2.20
   1  -2   9   72.83    1.98
   1  -2   9   69.00    1.90
  -1  -2  -9   72.83    1.81
   1   2   9   67.21    2.00
   1   2   9   69.73    1.94
  -1   2  -9   68.13    1.76
  -1   2  -9   68.40    1.93
  -1   2  -9   71.10    2.14
   1   2   9   67.51    2.00
   2  -2   9    3.96    0.64
   2  -2   9    3.14    0.41
  -2  -2  -9    2.96    0.38
   2  -2   9    2.50    0.43
   2   2   9    3.45    0.51
   2   2   9    2.95    0.46
   2   2   9    3.45    0.53
  -2   2  -9    3.49    0.32
  -2   2  -9    3.64    0.47
  -3  -2  -9   36.75    1.22
   3  -2   9   38.14    1.55
  -3  -2  -9   40.33    1.37
   3  -2   9   40.92    1.26
   3  -2   9   38.06    1.34
   3   2   9   43.60    1.50
   3   2   9   42.45    1.41
  -3   2  -9   38.47    1.36
   3   2   9   38.77    1.43
   4  -2   9   23.67    0.97
   4  -2   9   22.95    1.26
   4  -2   9   23.24    1.05
  -4  -2  -9   25.43    0.99
  -4  -2  -9   24.14    1.10
  -4   2  -9   26.24    1.07
   4   2   9   24.98    1.09
   4   2   9   25.92    1.19
   4   2   9   23.86    1.13
   5  -2   9   12.68    0.79
  -5  -2  -9   11.49    0.83
   5  -2   9   12.29    0.86
   5  -2   9   13.19    1.13
  -5  -2  -9   14.16    0.94
  -5   2  -9   12.69    0.83
  -5   2  -9   11.33    0.73
   5   2   9   11.10    0.90
   5   2   9   11.43    0.81
   5   2   9   13.34    0.93
  -6  -2  -9   56.51    1.79
  -6  -2  -9   54.85    1.87
   6  -2   9   53.87    1.87
   6   2   9   56.79    2.01
   6   2   9   58.05    1.87
  -6   2  -9   55.75    1.84
   6   2   9   56.20    1.94
   7  -2   9    2.90    0.67
  -7  -2  -9    2.75    0.65
  -7  -2  -9    2.45    0.72
   7   2   9    2.05    0.65
   7   2   9    2.24    0.69
   7   2   9    2.63    0.74
  -7   2  -9    2.28    0.57
  -8  -2  -9   28.16    1.56
  -8  -2  -9   28.50    1.47
   8  -2   9   27.73    1.46
   8   2   9   27.11    1.40
  -8   2  -9   26.48    1.39
   8   2   9   26.11    1.62
   8   2   9   25.21    1.47
   9  -2   9    7.08    0.98
  -9  -2  -9    7.77    1.11
  -9  -2  -9    6.50    0.95
   9   2   9    7.95    1.17
   9   2   9    6.16    0.94
   9   2   9    6.72    1.01
  -9   2  -9    6.55    0.88
  10  -3  -9   10.55    1.10
 -10  -3   9    9.74    1.27
 -10  -3   9   12.76    1.21
 -10   3   9   11.42    1.27
  10   3  -9   11.02    1.15
  10   3  -9   11.51    1.00
  10   3  -9    9.57    1.33
  -9  -3   9   11.13    1.07
   9  -3  -9   14.32    1.13
  -9  -3   9   13.50    1.25
  -9   3   9   10.05    1.14
   9   3  -9   12.68    0.97
   9   3  -9   11.48    1.07
   9   3  -9    9.34    1.19
  -8  -3   9    6.53    0.94
  -8  -3   9    5.39    0.81
   8  -3  -9    6.04    0.81
   8   3  -9    4.81    0.72
   8   3  -9    4.35    0.89
  -8   3   9    4.56    0.86
   8   3  -9    5.54    0.81
  -7  -3   9   24.57    1.32
   7  -3  -9   26.23    1.29
   7  -3  -9   25.31    1.12
  -7  -3   9   29.71    1.45
   7   3  -9   26.79    1.34
   7   3  -9   26.42    1.28
  -7   3   9   27.08    1.40
  -7   3   9   27.34    1.64
   7   3  -9   28.14    1.57
  -6  -3   9   10.94    0.91
   6  -3  -9   10.14    0.82
  -6  -3   9   10.67    0.83
   6  -3  -9   11.35    0.78
  -6   3   9   12.17    1.03
   6   3  -9   10.64    0.78
   6   3  -9   10.24    0.84
   6   3  -9    9.33    0.93
  -6   3   9    9.57    0.88
  -5  -3   9   32.21    1.30
   5  -3  -9   32.07    1.15
   5  -3  -9   32.64    1.27
  -5  -3   9   31.95    1.33
  -5   3   9   32.45    1.38
   5   3  -9   33.68    1.23
  -5   3   9   31.38    1.45
   5   3  -9   30.69    1.32
   5   3  -9   31.48    1.47
   4  -3  -9   15.25    0.79
  -4  -3   9   14.94    0.90
   4  -3  -9   15.53    0.86
   4   3  -9   15.22    0.81
  -4   3   9   17.74    1.08
   4   3  -9   14.77    1.05
  -4   3   9   14.59    0.96
   4   3  -9   14.60    0.93
  -4   3   9   14.40    0.90
   3  -3  -9   54.94    1.64
  -3  -3   9   57.53    1.71
   3  -3  -9   57.23    1.68
  -3   3   9   55.99    1.88
   3   3  -9   58.00    1.97
  -3   3   9   59.71    1.81
   3   3  -9   60.52    1.72
   3   3  -9   59.71    1.83
  -3   3   9   61.48    1.87
   2  -3  -9   50.17    1.51
  -2  -3   9   51.73    1.54
   2  -3  -9   51.60    1.53
  -2  -3   9   50.20    1.47
   2   3  -9   54.42    1.73
   2   3  -9   56.08    1.61
  -2   3   9   54.23    1.70
  -2   3   9   55.65    1.75
  -2   3   9   54.95    1.78
   2   3  -9   60.14    1.90
   1  -3  -9   23.60    0.96
   1  -3  -9   25.31    0.95
  -1  -3   9   26.03    0.97
  -1  -3   9   26.15    0.97
   1   3  -9   23.08    1.03
   1   3  -9   23.65    0.89
  -1   3   9   23.62    1.07
  -1   3   9   23.58    1.03
  -1   3   9   24.71    1.11
   1   3  -9   23.76    1.16
   0  -3  -9  108.91    2.71
   0  -3   9  107.92    2.72
   0  -3   9  111.32    2.81
   0  -3  -9  109.95    2.79
   0   3   9  102.33    2.71
   0   3   9  103.07    2.69
   0   3  -9  104.72    2.70
   0   3  -9   98.34    2.85
   0   3   9  103.34    2.74
   0   3  -9   95.71    2.53
  -1  -3  -9    0.33    0.31
  -1  -3  -9    0.41    0.31
   1  -3   9    0.47    0.32
   1  -3   9    0.28    0.36
   1   3   9    0.64    0.41
  -1   3  -9    0.49    0.37
   1   3   9    0.26    0.42
  -1   3  -9    0.34    0.46
  -1   3  -9    0.54    0.25
   1   3   9    0.45    0.39
   2  -3   9   59.94    1.75
   2  -3   9   58.38    1.78
   2   3   9   56.89    1.79
   2   3   9   58.06    1.84
  -2   3  -9   59.34    2.10
  -2   3  -9   59.17    1.78
  -2   3  -9   58.04    1.57
   2   3   9   57.05    1.76
  -3  -3  -9   17.08    0.84
   3  -3   9   18.71    0.93
  -3  -3  -9   18.19    0.98
   3   3   9   18.25    0.99
   3   3   9   18.47    1.01
   3   3   9   18.30    0.94
  -3   3  -9   16.76    0.93
  -4  -3  -9    2.29    0.55
   4  -3   9    2.00    0.50
  -4  -3  -9    2.51    0.50
   4   3   9    3.60    0.60
   4   3   9    3.54    0.57
   4   3   9    3.18    0.60
  -4   3  -9    3.56    0.53
  -5  -3  -9   33.93    1.32
   5  -3   9   30.73    1.37
  -5  -3  -9   36.76    1.46
   5   3   9   35.40    1.49
   5   3   9   33.95    1.37
  -5   3  -9   33.87    1.36
   5   3   9   34.04    1.44
  -6  -3  -9    8.06    0.79
   6  -3   9   10.56    0.90
  -6  -3  -9    9.82    0.91
   6   3   9    9.06    0.83
  -6   3  -9    8.50    0.80
   6   3   9    8.65    0.88
   6   3   9    8.27    0.91
  -7  -3  -9   32.19    1.62
   7  -3   9   34.67    1.54
  -7  -3  -9   35.97    1.55
   7   3   9   34.00    1.61
   7   3   9   30.14    1.45
  -7   3  -9   32.70    1.43
   7   3   9   32.86    1.62
   8  -3   9    2.54    0.78
  -8  -3  -9    2.21    0.78
  -8  -3  -9    2.18    0.90
   8   3   9    3.44    0.82
   8   3   9    2.40    0.84
   8   3   9    2.98    0.86
  -8   3  -9    2.25    0.67
   9  -3   9   16.38    1.32
  -9  -3  -9   16.72    1.42
  -9  -3  -9   17.52    1.29
   9   3   9   15.25    1.39
   9   3   9   13.56    1.17
  -9   3  -9   13.18    1.12
   9   3   9   16.10    1.36
 -10  -4   9    4.16    1.10
 -10  -4   9    4.20    1.22
  10  -4  -9    4.80    1.08
  10   4  -9    3.71    1.14
  10   4  -9    4.38    0.91
  10   4  -9    4.17    1.06
 -10   4   9    3.92    1.17
   9  -4  -9   16.20    1.28
  -9  -4   9   15.20    1.38
  -9  -4   9   14.96    1.24
  -9   4   9   13.41    1.26
   9   4  -9   13.47    1.34
   9   4  -9   14.58    1.25
   9   4  -9   13.33    1.11
  -8  -4   9   13.82    1.14
   8  -4  -9   11.32    0.90
   8  -4  -9   12.68    1.11
  -8  -4   9   13.05    1.19
   8   4  -9   12.44    1.01
  -8   4   9   10.20    1.78
   8   4  -9   10.90    1.18
  -8   4   9   10.86    1.08
   8   4  -9   11.63    1.08
   7  -4  -9    2.72    0.60
  -7  -4   9    3.10    0.77
  -7  -4   9    3.20    0.84
   7  -4  -9    3.81    0.74
   7   4  -9    2.13    0.77
  -7   4   9    2.75    0.89
  -7   4   9    3.15    0.81
   7   4  -9    3.74    0.78
   7   4  -9    2.86    0.64
   6  -4  -9   25.26    1.15
  -6  -4   9   23.73    1.34
  -6  -4   9   24.97    1.32
   6  -4  -9   26.06    1.29
   6   4  -9   23.01    1.31
   6   4  -9   22.53    1.40
   6   4  -9   25.29    1.19
  -6   4   9   24.17    1.49
  -6   4   9   22.58    1.31
   5  -4  -9    3.52    0.55
  -5  -4   9    3.16    0.65
   5  -4  -9    4.68    0.65
  -5   4   9    3.43    0.70
   5   4  -9    4.72    0.71
   5   4  -9    4.14    0.74
   5   4  -9    4.63    0.58
  -5   4   9    5.14    0.79
   4  -4  -9   22.85    1.10
  -4  -4   9   24.00    1.13
   4  -4  -9   24.60    1.06
   4   4  -9   27.06    1.10
   4   4  -9   26.07    1.27
  -4   4   9   26.60    1.31
   4   4  -9   25.75    1.34
  -4   4   9   26.21    1.23
  -3  -4   9   13.48    0.87
   3  -4  -9   13.68    0.88
   3  -4  -9   12.82    0.81
   3   4  -9    9.73    0.87
  -3   4   9   14.92    0.93
  -3   4   9   10.83    0.84
  -3   4   9    9.74    0.81
   3   4  -9   12.74    0.77
   3   4  -9    9.52    0.82
   2  -4  -9   21.06    0.98
  -2  -4   9   22.17    0.96
   2  -4  -9   22.90    0.98
   2   4  -9   22.04    0.92
  -2   4   9   22.91    1.10
   2   4  -9   23.16    1.12
  -2   4   9   21.37    1.10
   2   4  -9   20.50    1.18
  -2   4   9   21.18    1.09
   1  -4  -9   19.92    0.92
   1  -4  -9   20.85    0.94
  -1  -4   9   21.32    0.94
   1   4  -9   23.34    1.08
  -1   4   9   20.94    1.11
  -1   4   9   24.12    1.11
   1   4  -9   22.98    0.93
   1   4  -9   23.52    1.21
  -1   4   9   22.41    1.05
   0  -4   9    0.34    0.39
   0  -4  -9    0.34    0.36
   0  -4  -9    0.49    0.37
   0   4  -9    0.30    0.41
   0   4  -9    0.42    0.48
   0   4   9    0.28    0.47
   0   4   9    0.21    0.44
   0   4   9    0.33    0.43
   0   4  -9    0.26    0.29
  -1  -4  -9   83.43    2.28
   1  -4   9   83.58    2.32
  -1  -4  -9   83.08    2.20
  -1   4  -9   82.59    2.17
   1   4   9   79.65    2.39
  -1   4  -9   83.94    2.38
  -1   4  -9   81.45    2.53
   1   4   9   83.55    2.31
   1   4   9   80.27    2.33
  -2  -4  -9   17.53    0.89
   2  -4   9   17.00    0.94
   2   4   9   15.34    1.02
   2   4   9   18.33    0.96
  -2   4  -9   18.06    0.77
   2   4   9   17.77    1.00
  -2   4  -9   16.36    1.19
  -2   4  -9   17.27    0.96
  -3  -4  -9   52.21    1.75
   3  -4   9   51.41    1.72
  -3   4  -9   55.75    1.62
  -3   4  -9   57.56    1.84
   3   4   9   54.98    1.91
   3   4   9   58.00    1.80
   3   4   9   58.77    1.84
   4  -4   9   25.48    1.21
  -4  -4  -9   25.97    1.26
   4   4   9   27.89    1.21
   4   4   9   24.76    1.21
   4   4   9   25.75    1.33
  -4   4  -9   24.48    1.18
   5  -4   9   16.45    1.11
  -5  -4  -9   14.62    1.07
  -5  -4  -9   15.51    1.09
   5   4   9   13.47    0.95
   5   4   9   14.68    1.01
   5   4   9   15.74    1.11
  -5   4  -9   14.56    0.97
   6  -4   9   38.43    1.67
  -6  -4  -9   41.41    1.68
  -6  -4  -9   41.97    1.76
   6   4   9   37.21    1.71
  -6   4  -9   38.77    1.56
   6   4   9   34.59    1.54
   6   4   9   38.94    1.61
  -7  -4  -9    8.55    0.98
   7  -4   9    9.22    0.98
  -7  -4  -9    9.03    1.08
  -7   4  -9   10.55    0.96
   7   4   9    9.51    1.01
   7   4   9    8.53    0.92
   7   4   9    7.42    1.01
  -8  -4  -9   22.76    1.55
   8  -4   9   22.38    1.52
  -8  -4  -9   20.35    1.40
   8   4   9   23.24    1.55
   8   4   9   21.79    1.52
   8   4   9   21.45    1.41
  -8   4  -9   22.01    1.36
  -9  -5   9   15.65    1.47
   9  -5  -9   14.18    1.36
  -9  -5   9   15.08    1.34
  -9   5   9   15.02    1.40
   9   5  -9   15.73    1.37
   9   5  -9   12.58    1.36
   8  -5  -9   24.03    1.64
   8  -5  -9   25.22    1.42
  -8  -5   9   22.97    1.61
  -8  -5   9   26.17    1.78
  -8   5   9   25.37    1.90
  -8   5   9   20.93    1.39
   8   5  -9   21.79    1.70
   8   5  -9   24.52    1.68
   7  -5  -9   18.76    1.21
  -7  -5   9   16.29    1.25
  -7  -5   9   19.72    1.29
   7  -5  -9   18.54    1.28
  -7   5   9   20.50    1.69
   7   5  -9   19.10    1.20
   7   5  -9   20.53    1.38
  -7   5   9   18.45    1.28
   7   5  -9   17.68    1.49
   6  -5  -9    2.21    0.63
  -6  -5   9    2.88    0.81
   6  -5  -9    2.75    0.73
  -6  -5   9    1.94    0.74
  -6   5   9    2.75    0.84
   6   5  -9    2.56    0.78
   6   5  -9    1.67    0.72
   6   5  -9    3.10    0.63
  -6   5   9    2.52    0.80
   5  -5  -9   13.73    1.00
  -5  -5   9   13.76    1.00
   5  -5  -9   14.24    1.01
   5   5  -9   16.00    1.23
   5   5  -9   14.80    0.96
  -5   5   9   14.12    1.10
  -5   5   9   13.60    1.04
   5   5  -9   15.71    1.14
   4  -5  -9    9.44    0.84
   4  -5  -9    7.96    0.74
  -4   5   9    9.20    0.84
   4   5  -9   10.34    0.99
  -4   5   9    9.43    0.91
   4   5  -9    8.34    0.88
   4   5  -9    9.19    0.76
   3  -5  -9   25.37    1.22
   3  -5  -9   24.86    1.14
   3   5  -9   25.75    1.32
  -3   5   9   25.98    1.28
   3   5  -9   26.68    1.13
  -3   5   9   26.84    1.29
   3   5  -9   27.13    1.40
   2  -5  -9   12.71    0.86
   2  -5  -9   11.73    0.84
   2   5  -9   13.74    0.85
   2   5  -9   11.85    0.99
  -2   5   9   13.77    1.01
  -2   5   9   13.52    0.95
  -2   5   9   13.37    0.96
   2   5  -9   13.70    0.99
  -1  -5   9   10.23    0.74
   1  -5  -9   11.35    0.84
   1  -5  -9    9.52    0.75
  -1   5   9    7.48    0.70
  -1   5   9    8.37    0.81
  -1   5   9    9.67    0.83
   1   5  -9    8.26    0.83
   1   5  -9    9.06    0.84
   1   5  -9    8.01    0.63
   0  -5  -9   45.78    1.54
   0  -5  -9   45.40    1.54
   0  -5   9   47.64    1.57
   0   5   9   46.16    1.54
   0   5   9   44.11    1.66
   0   5  -9   46.98    1.48
   0   5   9   44.98    1.63
   0   5  -9   47.47    1.68
   0   5  -9   45.32    1.77
   1  -5   9    1.37    0.50
  -1  -5  -9    1.27    0.47
  -1  -5  -9    1.98    0.66
   1   5   9    1.01    0.55
   1   5   9    0.94    0.46
  -1   5  -9    1.60    0.65
   1   5   9    1.16    0.61
  -1   5  -9    0.64    0.36
  -1   5  -9    1.38    0.50
   2  -5   9   20.26    1.08
  -2  -5  -9   19.84    1.03
  -2   5  -9   21.14    1.15
  -2   5  -9   22.32    0.96
   2   5   9   21.72    1.18
   2   5   9   19.92    1.21
  -2   5  -9   19.44    1.31
   2   5   9   22.55    1.04
  -3  -5  -9    8.68    0.73
   3  -5   9    7.64    0.79
  -3  -5  -9    8.11    0.83
   3   5   9    7.41    0.70
   3   5   9    8.33    0.88
   3   5   9    7.93    0.80
  -3   5  -9    7.74    0.62
  -3   5  -9    6.36    1.04
  -3   5  -9    9.03    0.82
  -4  -5  -9    6.71    0.83
   4  -5   9    8.68    0.86
   4   5   9    6.36    0.87
   4   5   9    6.76    0.72
   4   5   9    6.60    0.79
  -4   5  -9    7.89    0.81
   5  -5   9   16.06    1.18
  -5  -5  -9   17.43    1.21
   5   5   9   17.99    1.26
  -5   5  -9   16.70    1.11
   5   5   9   16.51    1.09
   5   5   9   16.19    1.20
  -6  -5  -9    5.32    0.94
   6  -5   9    5.33    0.85
   6   5   9    4.79    0.81
   6   5   9    5.02    0.79
  -6   5  -9    6.07    0.79
   6   5   9    5.75    0.97
  -7  -5  -9   20.93    1.46
   7  -5   9   20.90    1.47
  -7   5  -9   21.45    1.37
   7   5   9   19.66    1.46
   7   5   9   22.13    1.52
   7   5   9   21.07    1.40
  -8  -6   9   11.92    1.29
   8  -6  -9   15.59    1.41
   8  -6  -9   15.41    1.21
   8   6  -9   13.52    1.40
   8   6  -9   13.73    1.39
  -8   6   9   12.74    1.46
  -7  -6   9    1.81    0.95
   7  -6  -9    4.80    0.99
   7  -6  -9    3.18    0.81
  -7   6   9    4.15    1.10
   7   6  -9    4.25    0.80
   7   6  -9    2.82    0.95
   7   6  -9    4.73    1.03
   6  -6  -9   11.90    1.13
   6  -6  -9    9.59    0.94
   6   6  -9    8.72    1.08
   6   6  -9   10.51    1.13
  -6   6   9    9.50    1.17
  -6   6   9   10.29    1.11
   6   6  -9   10.76    0.94
   5  -6  -9   14.26    1.14
   5  -6  -9   12.13    0.99
   5   6  -9   13.08    1.18
   5   6  -9   11.68    0.93
   5   6  -9   12.53    1.15
  -5   6   9   14.07    1.16
  -5   6   9   11.96    1.08
   4  -6  -9   18.32    1.19
   4  -6  -9   15.88    1.16
   4   6  -9   16.79    1.07
   4   6  -9   15.76    1.28
   4   6  -9   15.94    1.24
  -4   6   9   15.86    1.26
  -4   6   9   17.16    1.14
   3  -6  -9   13.43    1.01
   3  -6  -9   14.82    1.05
  -3   6   9   13.31    1.04
  -3   6   9   13.60    1.00
   3   6  -9   13.41    0.95
   3   6  -9   14.04    1.12
   3   6  -9   14.28    1.15
   2  -6  -9   19.67    1.21
   2  -6  -9   18.58    1.12
  -2   6   9   18.18    1.29
   2   6  -9   19.77    1.33
  -2   6   9   19.46    1.24
  -2   6   9   17.81    1.13
   2   6  -9   20.15    1.29
   2   6  -9   21.24    1.08
   1  -6  -9   14.00    0.97
   1  -6  -9   16.70    1.04
  -1   6   9   16.10    1.11
  -1   6   9   15.23    1.06
  -1   6   9   15.87    1.01
   1   6  -9   14.46    1.20
   1   6  -9   14.94    0.93
   1   6  -9   15.87    1.11
   0  -6   9    1.90    0.58
   0  -6  -9    2.41    0.58
   0  -6  -9    2.34    0.61
   0   6   9    1.64    0.68
   0   6   9    2.10    0.57
   0   6  -9    2.74    0.52
   0   6   9    2.49    0.71
   0   6  -9    2.56    0.72
   0   6  -9    2.76    0.69
  -1  -6  -9   29.00    1.29
   1  -6   9   30.03    1.35
  -1   6  -9   30.85    1.48
   1   6   9   30.23    1.50
   1   6   9   30.29    1.22
   1   6   9   31.32    1.49
  -1   6  -9   29.87    1.25
  -1   6  -9   29.57    1.59
  -2  -6  -9    0.50    0.53
   2  -6   9    0.85    0.56
  -2   6  -9    1.23    0.47
   2   6   9    0.68    0.69
  -2   6  -9    0.59    0.69
   2   6   9    0.62    0.51
  -2   6  -9    0.70    0.58
   2   6   9    0.57    0.65
  -3  -6  -9   20.25    1.17
   3  -6   9   21.76    1.27
  -3   6  -9   22.69    1.11
   3   6   9   22.20    1.35
  -3   6  -9   23.88    1.34
   3   6   9   24.51    1.47
  -3   6  -9   22.35    1.55
   3   6   9   22.70    1.09
   4  -6   9    5.09    0.81
  -4  -6  -9    5.22    0.88
  -4   6  -9    6.05    0.81
   4   6   9    5.11    0.68
   4   6   9    4.56    0.92
   4   6   9    4.47    0.80
  -5  -6  -9   12.57    1.16
   5  -6   9   12.68    1.12
   5   6   9    9.68    1.14
   5   6   9    8.24    0.81
  -5   6  -9   10.36    1.01
   5   6   9    9.34    0.98
   6  -6   9   13.92    1.24
  -6  -6  -9   14.09    1.28
   6   6   9   14.10    1.18
   6   6   9   14.59    1.33
   6   6   9   14.29    1.15
  -6   6  -9   14.44    1.20
   7  -7  -9   14.49    1.43
   7  -7  -9   12.29    1.21
   7   7  -9   13.55    1.15
   7   7  -9   14.21    1.47
  -7   7   9   11.03    1.39
   6  -7  -9    3.14    1.02
   6  -7  -9    2.96    0.88
   6   7  -9    3.42    0.81
  -6   7   9    4.32    1.08
   6   7  -9    3.66    1.04
   6   7  -9    3.85    1.09
   5  -7  -9   12.43    1.11
   5  -7  -9   11.86    1.20
   5   7  -9    9.95    0.96
  -5   7   9   10.82    1.18
   5   7  -9   13.30    1.30
   5   7  -9   11.76    1.20
   4  -7  -9    3.74    0.81
   4  -7  -9    4.66    0.92
   4   7  -9    2.70    0.88
  -4   7   9    2.65    0.84
   4   7  -9    2.67    0.68
   4   7  -9    2.09    0.93
   3  -7  -9   10.93    1.04
   3  -7  -9    9.14    0.93
  -3   7   9   11.33    1.09
   3   7  -9   10.62    1.11
   3   7  -9   11.78    1.16
  -3   7   9   11.04    1.01
   3   7  -9   11.52    0.93
   2  -7  -9   14.38    1.11
   2  -7  -9   12.72    1.03
  -2   7   9   15.21    1.17
   2   7  -9   13.66    0.97
   2   7  -9   14.14    1.23
   2   7  -9   16.17    1.26
  -2   7   9   14.75    1.22
  -2   7   9   15.29    1.15
   1  -7  -9    5.38    0.77
   1  -7  -9    6.67    0.88
   1   7  -9    3.76    0.66
  -1   7   9    4.72    0.95
   1   7  -9    4.95    0.89
  -1   7   9    4.37    0.88
   1   7  -9    3.95    0.87
  -1   7   9    5.05    0.76
   0  -7  -9   14.10    1.06
   0  -7  -9   14.05    1.03
   0   7  -9   17.12    1.25
   0   7   9   15.05    1.17
   0   7   9   16.69    1.24
   0   7   9   17.24    1.07
   0   7  -9   16.94    1.11
   0   7  -9   16.91    1.32
  -1  -7  -9    0.82    0.62
   1  -7   9    0.75    0.65
  -1   7  -9    0.69    0.54
  -1   7  -9    0.93    0.69
   1   7   9    0.53    0.77
   1   7   9    0.85    0.56
  -1   7  -9    0.69    0.78
   1   7   9    0.66    0.79
  -2  -7  -9    9.23    0.90
   2  -7   9   10.43    1.03
   2   7   9    9.36    0.75
  -2   7  -9   12.76    1.13
   2   7   9   11.01    1.13
   2   7   9    8.39    0.99
  -2   7  -9   10.85    0.89
  -2   7  -9    8.97    1.14
  -3  -7  -9    0.81    0.68
   3  -7   9    1.43    0.75
   3   7   9    0.46    0.80
  -3   7  -9    1.07    0.59
   3   7   9    0.99    0.56
  -3   7  -9    1.19    0.89
   3   7   9    1.01    0.87
  -3   7  -9    1.28    0.75
   4  -7   9   12.46    1.16
  -4  -7  -9   11.03    1.15
   4   7   9   10.93    1.22
   4   7   9   11.38    1.10
   4   7   9    9.76    0.77
  -4   7  -9   12.10    1.15
  -5  -7  -9    5.08    1.05
   5  -7   9    5.41    0.99
   5   7   9    5.14    0.69
   5   7   9    5.42    1.01
   5   7   9    6.26    1.18
  -5   7  -9    6.16    0.98
   4  -8  -9    2.68    1.03
   4  -8  -9    3.38    0.91
   4   8  -9    4.00    1.03
  -4   8   9    4.14    1.00
   4   8  -9    3.51    0.83
   4   8  -9    4.86    1.20
   3  -8  -9    9.74    1.20
   3  -8  -9    9.29    1.04
   3   8  -9    9.05    0.96
  -3   8   9   10.13    1.09
   3   8  -9   10.48    1.27
   3   8  -9    9.67    1.22
   2  -8  -9    2.56    0.83
   2  -8  -9    3.87    1.00
   2   8  -9    3.82    1.02
  -2   8   9    3.12    0.85
  -2   8   9    2.45    1.07
   2   8  -9    2.44    0.72
   2   8  -9    2.94    0.96
   1  -8  -9   11.58    1.07
   1  -8  -9   14.50    1.22
   1   8  -9   17.41    1.41
   1   8  -9   15.60    1.11
   1   8  -9   14.23    1.33
  -1   8   9   14.03    1.36
  -1   8   9   15.91    1.23
   0  -8  -9    3.42    0.81
   0   8  -9    5.64    1.04
   0   8   9    6.13    1.11
   0   8  -9    5.65    1.09
   0   8   9    4.86    0.76
   0   8  -9    5.69    0.83
  -1  -8  -9    8.54    0.97
  -1   8  -9   10.18    1.26
  -1   8  -9    9.68    0.95
   1   8   9    9.27    1.16
   1   8   9    7.99    0.79
   1   8   9    8.89    1.16
  -1   8  -9    9.79    1.16
   2  -8   9    0.11    0.83
  -2  -8  -9    0.76    0.78
   2   8   9    0.11    0.57
  -2   8  -9    0.15    0.65
  -2   8  -9    0.98    0.86
   2   8   9    0.06    0.97
  -2   8  -9    0.93    1.01
   2   8   9   -0.29    0.89
   3  -8   9    6.10    1.05
  -3  -8  -9    6.57    0.98
   3   8   9    4.61    1.05
   3   8   9    3.69    1.13
  -3   8  -9    5.70    1.02
   3   8   9    5.14    0.63
  -3   8  -9    8.00    1.35
  -3   8  -9    6.96    0.91
  11   0 -10    1.95    0.82
 -11   0  10    1.73    1.13
  10   0 -10    5.50    0.83
 -10   0  10    4.76    1.06
  -9   0  10    1.46    0.83
   9   0 -10    2.32    0.65
  -8   0  10   12.91    1.06
   8   0 -10   10.01    0.82
  -7   0  10   34.36    1.53
   7   0 -10   35.90    1.34
   6   0 -10    2.08    0.45
  -6   0  10    2.38    0.63
   5   0 -10   54.89    1.63
  -5   0  10   53.47    1.80
  -4   0  10    6.16    0.52
  -4   0  10    7.32    0.69
  -4   0  10    6.27    0.80
   4   0 -10    6.54    0.53
  -3   0  10   23.51    1.22
  -3   0  10   25.01    1.08
   3   0 -10   24.24    0.90
  -3   0  10   24.51    0.95
  -2   0  10   15.49    0.78
   2   0 -10   15.45    0.71
   2   0 -10   16.68    0.70
  -2   0  10   15.92    0.87
  -2   0  10   16.16    1.07
   1   0 -10   57.56    1.55
  -1   0  10   56.23    1.69
   1   0 -10   55.78    1.52
  -1   0  10   56.12    1.87
  -1   0  10   54.70    1.62
   0   0 -10   75.96    1.96
   0   0 -10   73.44    1.89
   0   0  10   74.89    2.25
   0   0  10   72.84    2.09
   0   0  10   72.64    2.03
   1   0  10    2.93    0.58
  -1   0 -10    3.55    0.41
   1   0  10    4.31    0.50
  -1   0 -10    3.94    0.34
   1   0  10    3.43    0.48
   2   0  10  105.49    2.76
  -2   0 -10  107.12    2.69
   2   0  10  103.61    2.77
   2   0  10  102.26    2.96
   3   0  10    2.36    0.50
  -3   0 -10    1.82    0.42
   3   0  10    1.61    0.44
   3   0  10    2.26    0.61
   4   0  10   34.46    1.33
   4   0  10   35.55    1.56
  -4   0 -10   37.15    1.30
   4   0  10   36.83    1.37
  -5   0 -10   12.43    0.84
   5   0  10   12.32    1.04
  -5   0 -10   11.79    0.86
   5   0  10   11.57    0.84
   5   0  10   13.27    0.93
   6   0  10   21.85    1.42
   6   0  10   22.18    1.20
  -6   0 -10   21.55    1.14
  -6   0 -10   22.56    1.15
   6   0  10   21.09    1.15
  -7   0 -10   12.90    0.96
   7   0  10   12.80    1.23
   7   0  10   16.82    1.17
  -7   0 -10   16.61    1.14
   7   0  10   15.89    1.08
   8   0  10   10.19    1.24
  -8   0 -10    8.57    0.90
   8   0  10    9.97    1.02
  -8   0 -10    9.79    0.98
   8   0  10    9.67    0.99
  -9   0 -10   41.59    1.88
  -9   0 -10   40.69    1.87
   9   0  10   43.40    1.91
   9   0  10   44.48    2.31
   9   0  10   39.95    1.88
  11  -1 -10    4.46    0.95
 -10  -1  10    0.41    0.92
  10  -1 -10    0.82    0.72
  10   1 -10    0.03    0.70
 -10   1  10    0.45    0.98
  -9  -1  10   10.31    1.10
   9  -1 -10   11.40    0.94
   9   1 -10    9.42    0.85
  -9   1  10    8.28    1.07
  -8  -1  10   14.76    1.13
   8  -1 -10   17.21    1.04
  -8   1  10   17.42    1.20
   8   1 -10   19.43    1.09
   7  -1 -10   16.29    0.95
  -7  -1  10   17.40    1.20
   7   1 -10   14.46    0.92
  -7   1  10   15.71    1.09
  -6  -1  10   35.76    1.47
   6  -1 -10   33.12    1.25
   6   1 -10   30.39    1.17
  -6   1  10   28.93    1.38
   5  -1 -10    0.97    0.40
   5  -1 -10    1.05    0.35
  -5  -1  10    0.91    0.54
   5   1 -10    0.84    0.58
   5   1 -10    0.72    0.39
  -5   1  10    1.12    0.44
  -5   1  10    0.85    0.53
  -5   1  10    0.97    0.68
   4  -1 -10   30.38    1.03
   4  -1 -10   31.11    1.12
  -4  -1  10   30.92    1.26
   4   1 -10   32.45    1.12
  -4   1  10   32.45    1.29
  -4   1  10   30.92    1.13
  -4   1  10   28.42    1.39
   4   1 -10   28.40    1.11
   3  -1 -10    0.36    0.30
   3  -1 -10    0.50    0.33
  -3  -1  10    0.30    0.35
  -3  -1  10    0.07    0.41
   3   1 -10    0.00    0.30
   3   1 -10    0.08    0.35
  -3   1  10    0.34    0.54
  -3   1  10    0.51    0.43
  -3   1  10    0.07    0.36
   2  -1 -10   48.46    1.43
  -2  -1  10   49.45    1.45
  -2  -1  10   50.09    1.76
  -2  -1  10   50.84    1.56
   2   1 -10   51.10    1.47
   2   1 -10   49.35    1.45
  -2   1  10   45.19    1.69
  -2   1  10   49.85    1.60
  -2   1  10   50.40    1.51
  -1  -1  10   35.02    1.47
  -1  -1  10   37.55    1.28
  -1  -1  10   38.27    1.23
   1  -1 -10   39.02    1.16
   1   1 -10   33.81    1.10
  -1   1  10   34.95    1.41
   1   1 -10   34.00    1.15
  -1   1  10   33.64    1.20
  -1   1  10   34.85    1.28
   0  -1  10   28.89    1.10
   0  -1  10   33.12    1.14
   0  -1 -10   30.18    1.01
   0  -1  10   30.67    1.33
   0  -1 -10   31.55    0.99
   0   1 -10   29.40    0.98
   0   1  10   29.58    1.28
   0   1 -10   30.62    1.06
   0   1  10   29.58    1.16
   0   1  10   30.08    1.11
   1  -1  10   73.10    2.36
   1  -1  10   78.68    2.16
  -1  -1 -10   80.24    2.03
  -1  -1 -10   82.85    1.99
   1  -1  10   77.34    2.16
   1   1  10   83.85    2.44
   1   1  10   84.40    2.34
  -1   1 -10   82.13    2.09
  -1   1 -10   82.81    2.23
   1   1  10   83.93    2.29
   2  -1  10    6.44    0.74
   2  -1  10    6.41    0.60
  -2  -1 -10    7.22    0.54
   2  -1  10    5.84    0.55
  -2   1 -10    7.30    0.58
   2   1  10    6.80    0.60
   2   1  10    5.66    0.61
   2   1  10    6.18    0.70
   3  -1  10   86.31    2.64
   3  -1  10   86.67    2.40
   3  -1  10   84.27    2.35
  -3  -1 -10   86.67    2.30
   3   1  10   84.83    2.50
   3   1  10   84.36    2.37
  -3   1 -10   83.26    2.30
   3   1  10   80.19    2.32
  -4  -1 -10    9.31    0.74
   4  -1  10   10.71    0.80
  -4  -1 -10    8.99    0.68
   4  -1  10   11.01    0.75
   4  -1  10    8.22    0.87
  -4   1 -10   10.33    0.75
   4   1  10    9.93    0.81
   4   1  10   10.67    0.92
   4   1  10   11.48    0.82
  -5  -1 -10   15.54    0.98
   5  -1  10   15.87    0.95
   5  -1  10   16.85    1.02
   5  -1  10   16.56    1.24
  -5  -1 -10   15.81    0.96
  -5   1 -10   16.68    0.92
   5   1  10   18.29    1.06
  -5   1 -10   15.94    0.96
   5   1  10   16.08    1.02
   5   1  10   15.47    1.17
  -6  -1 -10    9.34    0.84
   6  -1  10    9.22    0.86
  -6  -1 -10    7.83    0.75
   6  -1  10    6.99    0.96
   6  -1  10    9.02    0.79
  -6   1 -10    5.84    0.69
  -6   1 -10    8.04    0.73
   6   1  10    8.09    0.94
   6   1  10    9.66    0.86
   6   1  10    7.08    0.80
  -7  -1 -10   15.03    1.10
   7  -1  10   13.30    1.27
   7  -1  10   15.76    1.07
  -7  -1 -10   15.20    1.11
   7  -1  10   14.61    1.09
  -7   1 -10   14.23    1.01
   7   1  10   13.81    1.07
   7   1  10   15.86    1.09
  -7   1 -10   14.74    1.01
   7   1  10   12.99    1.21
  -8  -1 -10   33.59    1.61
   8  -1  10   36.54    2.26
   8  -1  10   33.35    1.65
  -8  -1 -10   34.58    1.65
   8   1  10   35.45    1.69
   8   1  10   34.23    1.63
   8   1  10   34.21    1.92
  -8   1 -10   36.85    1.59
  -9  -1 -10   -0.06    0.84
   9  -1  10    0.21    0.77
  -9  -1 -10    0.34    0.78
   9   1  10    0.16    0.83
   9   1  10    0.15    0.97
   9   1  10    0.23    0.78
  -9   1 -10    0.26    0.73
 -10  -2  10    8.38    1.23
  10  -2 -10    7.99    0.99
 -10   2  10    6.67    1.16
  10   2 -10    7.72    0.91
  -9  -2  10    2.86    0.92
   9  -2 -10    3.31    0.77
  -9   2  10    4.55    1.01
   9   2 -10    3.27    0.71
  -8  -2  10   25.56    1.54
   8  -2 -10   27.14    1.33
  -8   2  10   25.88    1.51
  -7  -2  10   31.75    1.40
  -7  -2  10   34.31    1.56
   7  -2 -10   32.91    1.38
   7   2 -10   30.07    1.31
  -7   2  10   31.88    1.52
   7   2 -10   33.53    1.40
   7   2 -10   27.45    1.67
   6  -2 -10    6.86    0.68
  -6  -2  10    6.36    0.70
   6  -2 -10    6.65    0.58
  -6  -2  10    7.48    0.80
   6   2 -10    5.89    0.63
   6   2 -10    6.26    0.86
   6   2 -10    7.64    0.74
  -6   2  10    7.69    0.98
  -6   2  10    6.46    0.80
  -6   2  10    7.39    0.70
   5  -2 -10   49.41    1.49
   5  -2 -10   48.54    1.60
  -5  -2  10   49.25    1.70
  -5   2  10   46.04    1.69
   5   2 -10   44.65    1.82
   5   2 -10   49.26    1.60
  -5   2  10   49.40    1.55
  -5   2  10   46.11    1.86
   5   2 -10   45.21    1.57
   4  -2 -10    0.72    0.35
  -4  -2  10    0.76    0.49
   4  -2 -10    1.14    0.42
   4   2 -10    1.12    0.42
   4   2 -10    0.65    0.54
  -4   2  10    1.24    0.48
  -4   2  10    0.51    0.51
   4   2 -10    0.60    0.44
  -4   2  10    0.78    0.62
   3  -2 -10   22.33    0.90
  -3  -2  10   20.89    1.01
   3  -2 -10   21.87    0.95
  -3  -2  10   22.98    0.94
   3   2 -10   21.08    0.97
  -3   2  10   20.37    1.06
  -3   2  10   19.48    1.16
  -3   2  10   19.73    0.97
   3   2 -10   20.14    1.17
   3   2 -10   20.90    0.93
   2  -2 -10    6.62    0.53
   2  -2 -10    5.78    0.51
  -2  -2  10    7.30    0.57
  -2  -2  10    5.94    0.59
  -2   2  10    5.22    0.68
   2   2 -10    4.85    0.54
  -2   2  10    4.16    0.57
   2   2 -10    5.84    0.72
   2   2 -10    4.91    0.47
  -2   2  10    4.95    0.56
  -1  -2  10   45.71    1.40
   1  -2 -10   44.60    1.37
   1  -2 -10   43.53    1.32
  -1  -2  10   42.26    1.38
   1   2 -10   46.81    1.43
   1   2 -10   50.13    1.77
  -1   2  10   51.35    1.58
  -1   2  10   50.21    1.70
   1   2 -10   49.09    1.53
  -1   2  10   49.95    1.65
   0  -2  10   46.79    1.46
   0  -2 -10   47.30    1.35
   0  -2  10   44.88    1.42
   0   2  10   40.17    1.49
   0   2 -10   38.79    1.20
   0   2  10   38.92    1.35
   0   2  10   39.14    1.42
   0   2 -10   41.58    1.35
   1  -2  10    1.07    0.38
   1  -2  10    1.08    0.41
   1  -2  10    0.69    0.55
   1   2  10    1.57    0.51
   1   2  10    1.26    0.44
  -1   2 -10    0.91    0.29
   1   2  10    0.94    0.46
  -1   2 -10    1.21    0.39
   2  -2  10   69.52    2.02
   2  -2  10   66.85    1.93
   2  -2  10   74.23    2.32
  -2  -2 -10   67.42    1.97
  -2   2 -10   65.18    1.95
   2   2  10   65.90    2.03
   2   2  10   67.12    1.97
   2   2  10   66.87    2.09
   3  -2  10    1.04    0.57
   3  -2  10    1.05    0.44
  -3  -2 -10    0.97    0.40
   3  -2  10    1.55    0.42
  -3   2 -10    1.07    0.41
   3   2  10    1.11    0.55
   3   2  10    1.34    0.48
   3   2  10    1.52    0.52
   4  -2  10   66.56    1.94
  -4  -2 -10   65.80    1.94
  -4  -2 -10   67.32    2.07
   4  -2  10   68.73    2.07
   4   2  10   64.63    2.15
   4   2  10   67.65    2.10
   4   2  10   65.79    2.02
  -4   2 -10   65.01    2.00
  -5  -2 -10   17.52    1.00
  -5  -2 -10   15.65    1.05
   5  -2  10   17.47    1.05
   5   2  10   15.91    1.07
  -5   2 -10   17.21    0.98
   5   2  10   16.97    1.09
   5   2  10   17.01    1.17
  -6  -2 -10   18.77    1.22
  -6  -2 -10   19.32    1.11
   6  -2  10   19.33    1.20
   6   2  10   18.42    1.32
  -6   2 -10   19.33    1.11
   6   2  10   18.75    1.21
   6   2  10   17.09    1.15
   7  -2  10   31.50    1.55
  -7  -2 -10   33.08    1.51
  -7  -2 -10   29.40    1.53
   7   2  10   31.81    1.65
  -7   2 -10   30.92    1.43
   7   2  10   29.46    1.55
   7   2  10   28.97    1.48
   8  -2  10    5.27    0.89
  -8  -2 -10    6.01    0.89
  -8  -2 -10    4.72    0.93
   8   2  10    5.48    1.03
   8   2  10    6.14    0.96
  -8   2 -10    4.27    0.78
   8   2  10    5.84    0.90
  10  -3 -10    5.01    1.01
 -10  -3  10    5.73    1.23
  10   3 -10    4.35    0.88
 -10   3  10    4.43    1.18
  -9  -3  10    9.71    1.22
  -9  -3  10   10.04    1.16
   9  -3 -10   11.95    1.10
   9   3 -10    7.95    1.19
  -9   3  10    8.15    1.14
   9   3 -10    7.94    1.13
   9   3 -10    8.79    0.91
   8  -3 -10    8.86    0.96
  -8  -3  10   12.24    1.15
  -8  -3  10    9.34    0.98
   8   3 -10    8.69    1.16
   8   3 -10    7.47    0.83
   8   3 -10    8.40    0.95
  -8   3  10    7.97    1.01
  -7  -3  10    4.63    0.86
   7  -3 -10    3.99    0.72
  -7  -3  10    4.51    0.79
   7  -3 -10    5.12    0.71
  -7   3  10    2.74    0.80
   7   3 -10    2.55    0.66
  -7   3  10    3.24    0.93
  -7   3  10    4.52    0.75
   7   3 -10    3.16    0.82
   7   3 -10    3.29    0.72
   6  -3 -10   18.56    0.97
  -6  -3  10   21.33    1.25
   6  -3 -10   16.15    1.15
   6   3 -10   16.59    1.14
   6   3 -10   14.29    1.17
   6   3 -10   18.60    1.06
  -6   3  10   18.96    1.44
  -6   3  10   17.43    1.09
  -6   3  10   17.75    1.25
  -5  -3  10    1.69    0.61
   5  -3 -10    2.23    0.47
   5  -3 -10    1.86    0.56
  -5   3  10    1.98    0.67
   5   3 -10    1.87    0.49
  -5   3  10    2.09    0.76
   5   3 -10    1.58    0.56
  -5   3  10    1.90    0.58
   5   3 -10    1.93    0.66
  -4  -3  10   26.98    1.22
   4  -3 -10   30.89    1.23
   4  -3 -10   27.33    1.11
   4   3 -10   25.84    1.22
   4   3 -10   26.82    1.41
  -4   3  10   28.06    1.40
  -4   3  10   25.91    1.27
   4   3 -10   26.91    1.11
  -4   3  10   27.54    1.23
   3  -3 -10    2.72    0.47
  -3  -3  10    2.08    0.52
   3  -3 -10    2.21    0.46
   3   3 -10    1.11    0.39
  -3   3  10    1.86    0.54
  -3   3  10    1.74    0.57
  -3   3  10    1.17    0.59
   3   3 -10    1.71    0.59
   3   3 -10    1.52    0.51
   2  -3 -10   41.16    1.34
  -2  -3  10   39.06    1.31
   2  -3 -10   39.89    1.33
  -2  -3  10   40.74    1.37
   2   3 -10   33.29    1.18
  -2   3  10   35.26    1.42
  -2   3  10   34.77    1.37
   2   3 -10   35.67    1.33
  -2   3  10   34.46    1.33
   2   3 -10   34.60    1.51
  -1  -3  10   21.70    0.98
   1  -3 -10   22.43    0.95
   1  -3 -10   23.56    0.95
  -1  -3  10   23.11    0.97
  -1   3  10   23.26    1.14
  -1   3  10   22.70    1.15
   1   3 -10   23.91    1.07
   1   3 -10   23.00    0.90
  -1   3  10   23.30    1.07
   1   3 -10   21.15    1.19
   0  -3  10   34.50    1.25
   0  -3  10   33.94    1.16
   0  -3 -10   32.67    1.13
   0  -3 -10   31.20    1.18
   0   3  10   36.89    1.35
   0   3 -10   34.23    1.30
   0   3 -10   32.50    1.10
   0   3 -10   32.73    1.45
   0   3  10   30.02    1.31
   1  -3  10   41.87    1.45
   1  -3  10   40.90    1.31
  -1   3 -10   39.56    1.23
   1   3  10   42.25    1.44
  -1   3 -10   38.79    1.43
   1   3  10   43.25    1.54
   1   3  10   38.30    1.47
   2  -3  10   -0.03    0.42
  -2   3 -10    0.25    0.39
  -2   3 -10    0.15    0.28
   2   3  10   -0.07    0.46
   2   3  10    0.20    0.48
   2   3  10   -0.09    0.43
   3  -3  10   91.41    2.59
   3   3  10   97.22    2.76
   3   3  10   94.75    2.67
  -3   3 -10   96.24    2.68
   3   3  10   96.69    2.76
  -4  -3 -10   11.80    0.92
   4  -3  10   12.37    0.91
   4   3  10   12.57    0.96
  -4   3 -10   11.63    0.85
   4   3  10   12.99    0.92
   4   3  10   10.04    0.89
  -5  -3 -10   30.28    1.43
   5  -3  10   30.16    1.37
  -5  -3 -10   32.29    1.36
   5   3  10   29.20    1.45
   5   3  10   29.92    1.43
   5   3  10   28.54    1.36
  -5   3 -10   28.98    1.29
  -6  -3 -10   18.74    1.22
  -6  -3 -10   17.59    1.21
   6  -3  10   16.60    1.18
   6   3  10   16.79    1.20
   6   3  10   15.74    1.18
  -6   3 -10   15.43    1.07
   6   3  10   18.90    1.31
  -7  -3 -10    3.71    0.88
   7  -3  10    4.60    0.84
  -7  -3 -10    3.16    0.78
   7   3  10    4.51    0.90
   7   3  10    4.66    0.83
   7   3  10    3.42    0.87
  -7   3 -10    4.10    0.73
  -8  -3 -10   33.82    1.81
   8  -3  10   34.08    1.76
  -8  -3 -10   33.12    1.75
   8   3  10   37.02    1.94
   8   3  10   37.33    1.89
  -8   3 -10   36.74    1.72
   8   3  10   34.09    1.70
  -9  -4  10    3.81    1.04
  -9  -4  10    3.20    1.13
   9  -4 -10    3.52    1.01
   9   4 -10    2.78    0.96
   9   4 -10    1.87    1.02
   9   4 -10    2.01    0.83
  -9   4  10    2.98    1.07
   8  -4 -10    9.48    1.09
  -8  -4  10    9.42    1.17
  -8  -4  10    9.05    1.04
   8   4 -10    6.75    0.99
   8   4 -10    6.05    1.06
  -8   4  10    8.08    1.07
   8   4 -10    7.88    0.94
  -7  -4  10   20.79    1.39
  -7  -4  10   23.06    1.54
   7  -4 -10   20.69    1.39
   7  -4 -10   22.46    1.19
   7   4 -10   18.49    1.52
  -7   4  10   19.10    1.30
   7   4 -10   19.20    1.23
  -7   4  10   19.91    1.64
   7   4 -10   20.24    1.38
   6  -4 -10   16.37    1.12
   6  -4 -10   13.92    0.97
  -6  -4  10   15.51    1.12
   6   4 -10   13.18    1.16
  -6   4  10   14.18    1.11
  -6   4  10   16.22    1.24
   6   4 -10   15.37    1.11
   6   4 -10   15.78    1.03
  -5  -4  10   34.44    1.47
   5  -4 -10   31.56    1.29
   5  -4 -10   30.39    1.40
   5   4 -10   28.26    1.55
  -5   4  10   30.36    1.55
   5   4 -10   32.56    1.32
  -5   4  10   34.04    1.44
   5   4 -10   31.40    1.49
  -5   4  10   30.86    1.51
   4  -4 -10    2.19    0.57
  -4  -4  10    2.54    0.63
   4  -4 -10    2.25    0.52
  -4   4  10    1.87    0.66
   4   4 -10    2.11    0.67
  -4   4  10    2.49    0.71
   4   4 -10    2.55    0.65
   4   4 -10    3.15    0.53
  -4   4  10    2.43    0.65
  -3  -4  10   32.88    1.31
   3  -4 -10   31.45    1.26
   3  -4 -10   34.29    1.33
  -3   4  10   30.11    1.36
  -3   4  10   31.23    1.40
   3   4 -10   29.14    1.19
  -3   4  10   28.33    1.39
   3   4 -10   30.31    1.36
   3   4 -10   32.27    1.49
   2  -4 -10   15.69    0.90
   2  -4 -10   16.96    0.95
  -2  -4  10   17.82    1.15
   2   4 -10   15.67    0.85
  -2   4  10   16.81    1.08
   2   4 -10   15.09    1.03
   2   4 -10   14.21    1.12
  -2   4  10   16.66    1.05
  -2   4  10   15.69    1.06
   1  -4 -10   21.24    1.00
   1  -4 -10   20.63    1.00
  -1  -4  10   22.25    1.02
   1   4 -10   23.97    1.32
   1   4 -10   22.66    1.17
  -1   4  10   22.00    1.17
  -1   4  10   24.05    1.25
  -1   4  10   24.42    1.16
   1   4 -10   22.49    0.97
   0  -4  10   35.85    1.34
   0  -4 -10   33.74    1.29
   0  -4 -10   37.60    1.27
   0   4 -10   37.04    1.42
   0   4 -10   34.89    1.60
   0   4  10   34.76    1.42
   0   4 -10   35.29    1.20
   0   4  10   34.35    1.39
   0   4  10   37.77    1.48
  -1  -4 -10    8.71    0.69
   1  -4  10   11.67    0.82
  -1   4 -10   12.05    1.04
  -1   4 -10    9.91    0.65
   1   4  10    9.60    0.85
  -1   4 -10    9.69    0.81
   1   4  10    8.54    0.77
   1   4  10   10.03    0.80
   2  -4  10   41.26    1.51
   2   4  10   40.09    1.51
   2   4  10   39.34    1.53
   2   4  10   42.20    1.63
  -2   4 -10   38.80    1.27
  -2   4 -10   42.29    1.54
   3  -4  10    1.01    0.51
  -3   4 -10    1.16    0.51
   3   4  10    0.72    0.56
   3   4  10    1.17    0.59
   3   4  10    1.04    0.62
   4  -4  10   32.11    1.41
  -4  -4 -10   34.11    1.49
   4   4  10   29.01    1.49
   4   4  10   31.78    1.42
  -4   4 -10   31.04    1.36
   4   4  10   29.91    1.37
  -5  -4 -10    6.17    0.85
   5  -4  10    7.16    0.85
   5   4  10    8.42    0.87
   5   4  10    6.65    0.84
   5   4  10    6.95    0.92
  -5   4 -10    6.68    0.76
  -6  -4 -10   16.13    1.23
   6  -4  10   14.47    1.15
   6   4  10   14.10    1.08
  -6   4 -10   15.35    1.13
   6   4  10   17.17    1.28
   6   4  10   15.60    1.27
  -7  -4 -10    7.85    1.10
   7  -4  10    8.82    1.03
   7   4  10    5.42    0.97
  -7   4 -10    5.97    0.84
   7   4  10    6.53    0.94
   7   4  10    7.56    1.10
  -8  -5  10    4.75    1.03
   8  -5 -10    4.40    1.05
  -8  -5  10    4.27    1.16
   8  -5 -10    3.65    0.85
   8   5 -10    4.19    0.90
   8   5 -10    4.03    1.08
  -8   5  10    4.07    1.07
   8   5 -10    4.22    0.99
  -8   5  10    4.97    1.25
   7  -5 -10    3.81    0.95
  -7  -5  10    3.10    1.01
   7  -5 -10    3.01    0.75
   7   5 -10    3.66    0.76
  -7   5  10    3.77    1.00
  -7   5  10    2.05    0.99
   7   5 -10    2.02    0.85
   7   5 -10    2.12    0.91
   6  -5 -10   18.05    1.25
   6  -5 -10   17.46    1.16
  -6  -5  10   17.01    1.24
   6   5 -10   15.98    1.23
  -6   5  10   15.84    1.28
   6   5 -10   16.28    1.12
  -6   5  10   14.53    1.19
   6   5 -10   15.05    1.28
   5  -5 -10    4.31    0.79
   5  -5 -10    4.34    0.68
  -5   5  10    3.45    0.85
   5   5 -10    3.85    0.80
  -5   5  10    4.00    0.87
   5   5 -10    2.86    0.60
   5   5 -10    5.35    0.92
   4  -5 -10   34.74    1.44
   4  -5 -10   37.26    1.54
   4   5 -10   35.51    1.73
  -4   5  10   35.14    1.60
  -4   5  10   36.43    1.60
   4   5 -10   35.21    1.39
   4   5 -10   35.09    1.65
  -4   5  10   36.31    1.64
   3  -5 -10    3.07    0.60
   3  -5 -10    2.64    0.63
   3   5 -10    3.19    0.75
  -3   5  10    3.15    0.74
   3   5 -10    3.69    0.58
  -3   5  10    3.34    0.72
  -3   5  10    3.21    0.73
   3   5 -10    2.92    0.69
   2  -5 -10   17.76    1.09
   2  -5 -10   17.20    1.03
   2   5 -10   17.33    0.96
   2   5 -10   17.39    1.14
  -2   5  10   17.03    1.15
  -2   5  10   18.02    1.21
  -2   5  10   17.69    1.22
   2   5 -10   15.93    1.25
   1  -5 -10   25.95    1.18
   1  -5 -10   25.98    1.21
  -1   5  10   24.25    1.24
   1   5 -10   26.68    1.11
   1   5 -10   25.65    1.36
  -1   5  10   26.50    1.38
   1   5 -10   25.86    1.44
  -1   5  10   23.97    1.33
   0  -5 -10    7.05    0.70
   0  -5  10    7.64    0.74
   0  -5 -10    6.05    0.67
   0   5  10    8.59    0.85
   0   5  10    7.14    0.82
   0   5  10    8.03    0.78
   0   5 -10    9.50    0.86
   0   5 -10    8.48    0.67
   0   5 -10    6.53    0.88
  -1  -5 -10   54.62    1.77
   1  -5  10   53.41    1.83
  -1   5 -10   54.09    1.91
  -1   5 -10   54.72    2.10
   1   5  10   52.97    1.94
  -1   5 -10   54.42    1.67
   1   5  10   54.88    1.81
   1   5  10   52.64    1.88
   2  -5  10    8.92    0.85
  -2  -5 -10    9.11    0.79
  -2   5 -10    8.00    0.63
   2   5  10    7.93    0.76
   2   5  10    8.84    0.89
  -2   5 -10    8.72    0.87
   2   5  10    7.66    0.89
   3  -5  10   23.55    1.27
   3   5  10   21.26    1.36
   3   5  10   21.59    1.28
   3   5  10   22.68    1.17
  -3   5 -10   20.00    1.20
   4  -5  10    9.73    0.93
  -4  -5 -10    8.26    0.93
   4   5  10    9.81    0.88
  -4   5 -10   12.46    1.02
   4   5  10    8.79    0.92
   4   5  10    9.71    1.04
  -5  -5 -10   21.91    1.46
   5  -5  10   22.30    1.38
  -5   5 -10   21.15    1.32
   5   5  10   21.88    1.55
   5   5  10   24.55    1.34
   5   5  10   22.58    1.41
   6  -5  10   15.39    1.25
  -6  -5 -10   14.63    1.26
  -6   5 -10   14.06    1.09
   6   5  10   12.93    1.08
   6   5  10   11.39    1.05
   6   5  10   11.78    1.23
  -7  -5 -10    4.81    1.09
   7  -5  10    4.60    0.96
   7   5  10    5.16    0.97
   7   5  10    4.39    1.11
   7   5  10    4.02    0.92
  -7   5 -10    4.14    0.85
   7  -6 -10   16.20    1.39
   7  -6 -10   14.79    1.18
  -7   6  10   12.57    1.40
   7   6 -10   13.24    1.34
   7   6 -10   13.08    1.36
  -7   6  10   13.67    1.34
   7   6 -10   10.77    1.04
   6  -6 -10   10.13    0.99
   6  -6 -10   13.46    1.24
   6   6 -10   11.56    0.99
  -6   6  10   10.74    1.22
   6   6 -10   11.24    1.21
   6   6 -10   10.33    1.18
  -6   6  10    9.68    1.17
   5  -6 -10   29.88    1.68
   5  -6 -10   31.01    1.50
  -5   6  10   31.12    1.74
   5   6 -10   35.32    1.52
  -5   6  10   31.93    1.80
   5   6 -10   32.55    1.83
   5   6 -10   30.61    1.79
   4  -6 -10    6.45    0.91
   4  -6 -10    5.66    0.81
  -4   6  10    4.54    0.88
   4   6 -10    4.77    0.91
   4   6 -10    5.27    0.73
  -4   6  10    6.67    0.98
  -4   6  10    5.36    0.92
   4   6 -10    4.66    0.92
   3  -6 -10   24.45    1.32
   3  -6 -10   23.43    1.41
  -3   6  10   24.47    1.48
  -3   6  10   24.56    1.53
   3   6 -10   21.41    1.51
   3   6 -10   24.36    1.22
   3   6 -10   23.35    1.50
  -3   6  10   22.19    1.41
   2  -6 -10    7.06    0.79
   2  -6 -10    7.19    0.86
   2   6 -10    9.04    0.98
   2   6 -10    7.46    0.74
  -2   6  10    8.18    0.88
   2   6 -10    8.51    1.01
  -2   6  10    8.51    0.99
  -2   6  10    9.03    0.96
   1  -6 -10    3.65    0.72
   1  -6 -10    4.39    0.70
  -1   6  10    4.73    0.87
  -1   6  10    4.64    0.74
   1   6 -10    4.12    0.81
   1   6 -10    5.75    0.66
  -1   6  10    3.90    0.82
   1   6 -10    5.70    0.91
   0  -6 -10   11.53    1.31
   0  -6 -10   10.31    0.85
   0   6  10   11.26    1.04
   0   6  10   11.32    0.90
   0   6  10   10.73    1.03
   0   6 -10   11.34    1.11
   0   6 -10   13.09    1.07
   0   6 -10   11.51    0.83
   1  -6  10    0.84    0.61
  -1  -6 -10    0.96    0.59
  -1   6 -10    0.73    0.65
   1   6  10    0.71    0.75
   1   6  10    0.30    0.59
   1   6  10    0.66    0.74
  -1   6 -10    0.84    0.48
  -1   6 -10    0.88    0.77
  -2  -6 -10   11.04    0.91
   2  -6  10   14.10    1.07
  -2   6 -10   13.73    1.27
  -2   6 -10   12.76    1.06
   2   6  10   12.77    1.01
   2   6  10   10.81    1.08
   2   6  10   11.06    1.03
  -2   6 -10   13.74    0.89
   3  -6  10    6.41    0.87
  -3   6 -10    5.92    0.85
   3   6  10    4.62    0.87
   3   6  10    5.83    0.75
   3   6  10    5.42    0.94
   4  -6  10   10.22    1.05
   4   6  10    8.74    0.86
   4   6  10    8.26    1.10
  -4   6 -10    9.25    0.98
   4   6  10   10.09    1.06
  -5  -6 -10    7.34    1.08
   5  -6  10    7.59    1.01
   5   6  10    6.94    0.99
   5   6  10    6.15    0.83
  -5   6 -10    7.94    0.99
   5   6  10    6.72    1.13
   6  -6  10    7.27    1.05
  -6  -6 -10    7.15    1.16
  -6   6 -10    7.57    1.00
   6   6  10    6.63    0.92
   6   6  10    6.12    1.20
   6   6  10    5.43    1.01
   6  -7 -10   24.18    1.65
   6  -7 -10   22.30    1.61
   6   7 -10   19.29    1.60
   6   7 -10   19.07    1.28
  -6   7  10   16.77    1.49
   6   7 -10   17.21    1.52
   5  -7 -10    1.51    0.99
   5  -7 -10    0.91    0.80
   5   7 -10    0.75    0.99
   5   7 -10    1.55    0.96
   5   7 -10    0.60    0.69
  -5   7  10    1.30    0.98
   4  -7 -10   21.00    1.43
   4  -7 -10   20.88    1.45
  -4   7  10   19.57    1.53
   4   7 -10   20.98    1.64
  -4   7  10   18.36    1.39
   4   7 -10   21.91    1.34
   4   7 -10   20.66    1.54
   3  -7 -10    3.75    0.92
   3  -7 -10    3.65    0.80
   3   7 -10    3.94    0.75
  -3   7  10    2.28    0.97
  -3   7  10    2.47    0.96
  -3   7  10    3.15    0.88
   3   7 -10    4.17    0.98
   3   7 -10    4.16    0.96
   2  -7 -10    6.83    0.97
   2  -7 -10    7.52    0.90
   2   7 -10    7.33    1.08
  -2   7  10    9.05    1.15
   2   7 -10    7.55    0.82
   2   7 -10    9.92    1.14
  -2   7  10    7.35    1.04
  -2   7  10    6.82    0.94
   1  -7 -10    6.08    0.84
   1  -7 -10    6.19    0.95
   1   7 -10    6.83    1.03
   1   7 -10    7.78    1.09
  -1   7  10    6.28    1.01
  -1   7  10    5.63    0.84
   1   7 -10    7.88    0.81
  -1   7  10    6.26    1.04
   0  -7 -10    7.04    0.86
   0   7 -10    9.54    1.08
   0   7  10    9.09    1.10
   0   7  10    9.33    1.09
   0   7 -10    9.71    0.86
   0   7 -10   10.74    1.24
   0   7  10    9.85    0.91
  -1  -7 -10   25.80    1.44
   1   7  10   22.94    1.57
   1   7  10   22.91    1.63
   1   7  10   24.74    1.29
  -1   7 -10   23.76    1.71
  -1   7 -10   23.16    1.58
  -1   7 -10   23.70    1.29
  -2  -7 -10    1.61    0.74
   2  -7  10    1.27    0.78
  -2   7 -10    0.66    0.88
  -2   7 -10    1.25    0.61
   2   7  10    1.15    0.94
   2   7  10    1.32    0.88
  -2   7 -10    1.97    0.82
   2   7  10    1.20    0.64
   3  -7  10   20.45    1.47
  -3  -7 -10   19.59    1.38
   3   7  10   19.49    1.17
   3   7  10   21.24    1.50
  -3   7 -10   23.65    1.50
   3   7  10   18.37    1.35
   4  -7  10    1.57    0.85
   4   7  10    1.48    1.03
   4   7  10    1.08    0.92
   4   7  10    1.33    0.66
  -4   7 -10    1.02    0.79
   2  -8 -10    3.91    0.92
   2  -8 -10    4.85    1.10
   2   8 -10    6.33    1.17
   2   8 -10    4.93    1.09
  -2   8  10    5.44    0.99
   2   8 -10    6.18    0.89
  -2   8  10    6.21    1.23
   1  -8 -10    4.43    1.05
   1  -8 -10    3.32    0.87
   1   8 -10    2.41    1.05
  -1   8  10    3.69    0.87
  -1   8  10    3.79    1.15
   1   8 -10    4.04    0.80
   1   8 -10    4.27    1.10
   0  -8 -10    5.43    0.93
   0   8 -10    6.44    1.11
   0   8 -10    6.62    0.89
   0   8 -10    6.45    1.20
   0   8  10    6.08    0.89
   0   8  10    6.22    1.19
   0   8  10    5.95    1.19
  -1  -8 -10    2.27    0.86
  -1   8 -10    2.85    1.09
   1   8  10    2.58    1.10
   1   8  10    2.01    0.73
  -1   8 -10    2.95    1.02
  -1   8 -10    3.69    0.81
   1   8  10    3.17    1.07
  10   0 -11    0.66    0.78
 -10   0  11    0.34    0.99
   9   0 -11   21.81    1.31
  -9   0  11   22.67    1.58
  -8   0  11    4.72    0.88
   8   0 -11    5.75    0.74
  -7   0  11    2.76    0.74
   7   0 -11    2.75    0.59
   6   0 -11    5.96    0.63
  -6   0  11    4.90    0.78
  -5   0  11   27.33    1.33
   5   0 -11   28.31    1.12
  -4   0  11   49.38    1.74
   4   0 -11   51.86    1.56
  -4   0  11   48.88    1.50
  -3   0  11    0.06    0.46
   3   0 -11    0.09    0.32
  -3   0  11    0.12    0.40
  -3   0  11    0.01    0.60
  -2   0  11   94.89    2.50
  -2   0  11   93.57    2.83
  -2   0  11   97.36    2.64
   2   0 -11   93.93    2.43
  -1   0  11   -0.24    0.39
   1   0 -11    0.05    0.29
  -1   0  11    0.10    0.40
  -1   0  11    0.25    0.55
   0   0  11   44.74    1.46
   0   0 -11   39.63    1.28
   0   0  11   41.28    1.40
   0   0 -11   38.86    1.20
   0   0  11   41.96    1.63
   1   0  11   16.16    0.91
  -1   0 -11   16.12    0.82
   1   0  11   15.28    1.11
   1   0  11   16.38    0.91
   2   0  11    0.64    0.58
   2   0  11    0.65    0.44
  -2   0 -11    0.87    0.41
   2   0  11    1.14    0.47
  -3   0 -11   48.99    1.56
   3   0  11   48.64    1.66
   3   0  11   50.72    1.91
   3   0  11   46.50    1.64
  -4   0 -11    1.34    0.49
   4   0  11    1.13    0.54
   4   0  11    0.72    0.49
   4   0  11    0.89    0.65
  -5   0 -11   81.83    2.37
   5   0  11   81.34    2.71
   5   0  11   78.90    2.44
   5   0  11   82.15    2.43
  -6   0 -11   17.62    1.13
  -6   0 -11   16.10    1.11
   6   0  11   18.61    1.18
   6   0  11   15.06    1.29
   6   0  11   17.38    1.21
   7   0  11    1.74    0.75
  -7   0 -11    0.81    0.67
   7   0  11    0.92    0.86
   7   0  11    1.58    0.73
  -7   0 -11    1.39    0.66
   8   0  11   26.18    1.55
   8   0  11   22.03    1.72
  -8   0 -11   21.21    1.45
   8   0  11   24.67    1.54
  -8   0 -11   22.03    1.46
 -10  -1  11   11.10    1.29
  10  -1 -11   12.82    1.11
  10   1 -11   15.14    1.14
 -10   1  11   13.22    1.36
   9  -1 -11    2.92    0.77
  -9  -1  11    3.11    0.95
   9   1 -11    3.95    0.76
  -9   1  11    2.40    0.96
   8  -1 -11   10.74    0.90
  -8  -1  11   11.72    1.12
  -8   1  11    9.25    1.04
   8   1 -11   12.39    0.91
  -7  -1  11    4.14    0.79
   7  -1 -11    3.48    0.63
   7   1 -11    4.64    0.64
  -7   1  11    4.22    0.82
  -6  -1  11   20.69    1.26
   6  -1 -11   21.01    1.04
  -6   1  11   21.76    1.32
   6   1 -11   22.22    1.06
   5  -1 -11   22.65    0.96
   5  -1 -11   21.94    1.01
  -5  -1  11   25.14    1.27
  -5   1  11   18.56    1.47
   5   1 -11   20.33    0.98
  -5   1  11   22.05    1.04
  -5   1  11   19.64    1.19
   4  -1 -11   10.82    0.75
  -4  -1  11   10.58    0.83
  -4   1  11   12.01    0.89
  -4   1  11   11.02    0.73
  -4   1  11    9.97    1.01
   4   1 -11   10.36    0.73
   3  -1 -11   79.38    2.15
  -3  -1  11   80.26    2.32
  -3  -1  11   79.53    2.13
   3   1 -11   80.02    2.15
  -3   1  11   81.57    2.34
  -3   1  11   81.08    2.19
   3   1 -11   77.63    2.19
  -3   1  11   72.93    2.47
   2  -1 -11   31.16    1.12
  -2  -1  11   33.71    1.18
  -2  -1  11   35.04    1.29
  -2   1  11   35.69    1.39
  -2   1  11   33.70    1.51
  -2   1  11   33.23    1.27
   2   1 -11   35.41    1.16
   2   1 -11   34.42    1.21
  -1  -1  11   45.14    1.51
   1  -1 -11   45.10    1.37
  -1  -1  11   44.94    1.79
  -1  -1  11   46.98    1.48
  -1   1  11   47.44    1.79
   1   1 -11   50.04    1.52
  -1   1  11   46.62    1.55
   1   1 -11   48.83    1.43
  -1   1  11   49.69    1.65
   0  -1 -11   22.71    0.87
   0  -1  11   22.07    1.26
   0  -1  11   22.86    1.03
   0  -1  11   23.55    1.02
   0   1 -11   22.23    0.84
   0   1  11   23.53    1.07
   0   1 -11   20.88    0.96
   0   1  11   22.18    1.23
   0   1  11   23.95    1.12
   1  -1  11   12.70    0.84
   1  -1  11   12.98    0.83
   1  -1  11   12.23    1.02
   1   1  11   10.05    0.87
   1   1  11   10.95    0.77
  -1   1 -11    9.46    0.69
   1   1  11    9.93    0.77
   2  -1  11   29.01    1.50
   2  -1  11   32.79    1.23
  -2  -1 -11   32.89    1.17
   2  -1  11   32.84    1.27
  -2   1 -11   30.42    1.19
   2   1  11   31.66    1.29
   2   1  11   32.88    1.45
   2   1  11   32.40    1.31
   3  -1  11    7.47    0.68
   3  -1  11    7.36    0.71
  -3  -1 -11    6.47    0.61
   3  -1  11    6.04    0.85
   3   1  11    6.10    0.71
   3   1  11    5.95    0.67
   3   1  11    6.88    0.81
  -3   1 -11    7.28    0.66
   4  -1  11   39.49    1.77
   4  -1  11   40.89    1.48
  -4  -1 -11   38.55    1.43
   4  -1  11   42.99    1.57
   4   1  11   38.15    1.50
   4   1  11   39.47    1.52
  -4   1 -11   37.19    1.42
   4   1  11   38.00    1.69
   5  -1  11    3.68    0.84
  -5  -1 -11    2.48    0.58
   5  -1  11    2.59    0.59
  -5  -1 -11    3.29    0.64
   5  -1  11    4.53    0.69
   5   1  11    2.96    0.65
   5   1  11    2.60    0.75
  -5   1 -11    2.75    0.58
   5   1  11    2.98    0.70
   6  -1  11   32.39    1.51
   6  -1  11   30.84    1.40
   6  -1  11   32.96    1.81
  -6  -1 -11   31.34    1.45
  -6  -1 -11   30.86    1.41
   6   1  11   31.49    1.51
  -6   1 -11   33.07    1.45
   6   1  11   33.66    1.74
   6   1  11   32.96    1.53
   7  -1  11   24.65    1.48
  -7  -1 -11   23.24    1.40
  -7  -1 -11   23.10    1.37
   7  -1  11   26.38    2.09
  -7   1 -11   24.00    1.37
   7   1  11   20.87    1.61
   7   1  11   22.94    1.44
   7   1  11   23.58    1.43
  -8  -1 -11   11.00    1.13
  -8  -1 -11    9.02    1.01
   8  -1  11    9.79    1.09
   8   1  11   11.32    1.33
   8   1  11   11.15    1.14
  -8   1 -11   12.53    1.08
   8   1  11   12.08    1.15
  10  -2 -11    5.31    0.98
 -10  -2  11    3.77    1.15
 -10   2  11    3.55    1.16
  10   2 -11    3.94    0.88
  -9  -2  11   17.02    1.37
   9  -2 -11   15.72    1.16
  -9   2  11   15.05    1.33
   9   2 -11   14.84    1.08
  -8  -2  11    3.27    0.92
   8  -2 -11    4.63    0.78
   8   2 -11    4.57    0.73
  -8   2  11    4.26    0.93
  -7  -2  11    9.18    1.00
   7  -2 -11    9.60    0.86
  -7   2  11    6.61    0.94
   7   2 -11   10.00    0.81
  -6  -2  11    2.33    0.70
   6  -2 -11    2.69    0.60
   6   2 -11    3.62    0.60
  -6   2  11    3.52    0.78
  -6   2  11    3.00    0.98
   5  -2 -11    7.49    0.61
   5  -2 -11    7.32    0.68
  -5  -2  11    7.94    0.82
   5   2 -11    9.58    0.80
  -5   2  11    7.91    0.86
   5   2 -11    8.19    0.71
  -5   2  11    7.32    0.94
  -5   2  11    7.78    0.72
   4  -2 -11   47.70    1.47
   4  -2 -11   44.29    1.53
  -4  -2  11   46.55    1.65
  -4   2  11   46.02    1.70
  -4   2  11   47.25    1.86
   4   2 -11   43.18    1.55
   4   2 -11   44.07    1.53
  -4   2  11   44.69    1.55
   3  -2 -11    1.29    0.45
  -3  -2  11    0.51    0.50
   3  -2 -11    0.74    0.40
   3   2 -11    0.97    0.47
   3   2 -11    0.67    0.41
  -3   2  11    0.77    0.50
  -3   2  11    1.10    0.66
  -3   2  11    1.03    0.57
  -2  -2  11   40.79    1.38
  -2  -2  11   40.41    1.44
   2  -2 -11   42.32    1.38
   2  -2 -11   42.48    1.37
  -2   2  11   39.94    1.63
  -2   2  11   39.75    1.49
   2   2 -11   37.60    1.31
  -2   2  11   38.02    1.40
   2   2 -11   38.00    1.36
  -1  -2  11    9.91    0.72
   1  -2 -11    9.53    0.63
  -1  -2  11    7.80    0.66
   1   2 -11   11.66    0.78
   1   2 -11    9.78    0.68
  -1   2  11    9.56    0.80
  -1   2  11    9.71    0.74
  -1   2  11   10.48    0.89
   0  -2  11   42.00    1.43
   0  -2 -11   40.00    1.28
   0  -2  11   41.91    1.40
   0   2  11   36.90    1.53
   0   2 -11   36.98    1.22
   0   2  11   36.72    1.45
   0   2  11   40.10    1.42
   0   2 -11   36.78    1.36
   1  -2  11   35.89    1.25
   1  -2  11   34.28    1.32
  -1   2 -11   35.69    1.32
   1   2  11   35.13    1.36
  -1   2 -11   36.73    1.16
   1   2  11   35.97    1.50
   1   2  11   35.53    1.42
   2  -2  11   17.24    0.91
   2  -2  11   15.52    0.97
   2   2  11   16.89    0.99
  -2   2 -11   15.73    0.93
   2   2  11   17.49    1.13
   2   2  11   17.28    1.06
   3  -2  11   40.47    1.52
   3  -2  11   39.58    1.39
   3   2  11   40.26    1.67
   3   2  11   40.63    1.56
   3   2  11   38.90    1.49
  -3   2 -11   38.81    1.45
  -4  -2 -11    1.65    0.52
   4  -2  11    1.98    0.57
   4   2  11    2.22    0.61
   4   2  11    1.87    0.62
  -4   2 -11    2.31    0.55
   4   2  11    1.93    0.68
  -5  -2 -11   58.57    1.99
   5  -2  11   56.10    1.99
  -5  -2 -11   56.74    1.88
  -5   2 -11   54.96    1.92
   5   2  11   60.00    2.07
   5   2  11   58.90    2.18
   5   2  11   58.31    1.99
  -6  -2 -11   14.78    1.02
  -6  -2 -11   15.36    1.13
   6  -2  11   17.47    1.21
  -6   2 -11   14.52    1.09
   6   2  11   17.06    1.31
   6   2  11   14.34    1.15
   6   2  11   15.61    1.11
  -7  -2 -11   13.56    1.10
  -7  -2 -11   15.03    1.21
   7  -2  11   16.51    1.27
  -7   2 -11   11.42    1.00
   7   2  11   11.80    1.22
   7   2  11   13.58    1.18
   7   2  11   12.85    1.09
  -8  -2 -11    8.33    1.03
  -8  -2 -11    9.36    1.14
   8  -2  11    9.99    1.13
   8   2  11   11.02    1.20
   8   2  11   10.85    1.13
   8   2  11   10.72    1.31
  -8   2 -11   11.92    1.10
  -9  -3  11    0.12    1.02
   9  -3 -11    0.17    0.82
   9   3 -11    0.47    0.73
  -9   3  11    0.22    1.00
   8  -3 -11   25.51    1.53
  -8  -3  11   28.53    1.73
  -8   3  11   25.76    1.67
  -7  -3  11    1.26    0.81
   7  -3 -11    2.65    0.74
  -7   3  11    1.16    0.84
   7   3 -11    1.90    0.86
   7   3 -11    1.00    0.63
   7   3 -11    1.09    0.72
   6  -3 -11    7.69    0.86
   6  -3 -11    8.97    0.74
  -6  -3  11    9.72    0.97
   6   3 -11    8.29    0.88
   6   3 -11    7.21    0.78
  -6   3  11    8.61    0.85
   6   3 -11    6.15    0.96
  -6   3  11    7.93    0.97
  -6   3  11    6.94    1.04
  -5  -3  11   38.33    1.59
   5  -3 -11   39.68    1.57
   5  -3 -11   40.98    1.43
   5   3 -11   39.21    1.51
   5   3 -11   41.36    1.59
  -5   3  11   40.61    1.85
  -5   3  11   38.00    1.69
  -5   3  11   39.70    1.55
   5   3 -11   38.17    1.84
  -4  -3  11    5.98    0.73
   4  -3 -11    6.00    0.71
   4  -3 -11    5.92    0.61
  -4   3  11    6.19    0.73
   4   3 -11    4.65    0.82
  -4   3  11    5.28    0.84
   4   3 -11    4.34    0.69
   4   3 -11    4.13    0.58
  -4   3  11    5.26    0.77
   3  -3 -11   58.81    1.82
   3  -3 -11   62.76    1.88
  -3  -3  11   59.00    1.89
  -3   3  11   60.80    1.91
   3   3 -11   58.76    1.79
   3   3 -11   53.93    2.10
   3   3 -11   56.83    1.90
  -3   3  11   59.88    2.07
  -3   3  11   61.73    2.03
   2  -3 -11    8.11    0.67
   2  -3 -11    6.85    0.63
  -2  -3  11    6.78    0.67
  -2   3  11    7.22    0.74
  -2   3  11    7.51    0.84
   2   3 -11    6.94    0.90
  -2   3  11    5.85    0.74
   2   3 -11    7.19    0.72
   2   3 -11    7.61    0.62
   1  -3 -11   19.15    0.97
  -1  -3  11   20.63    1.05
  -1  -3  11   20.03    1.00
   1  -3 -11   19.37    0.94
   1   3 -11   23.56    1.14
   1   3 -11   22.35    0.95
  -1   3  11   22.80    1.23
  -1   3  11   20.81    1.14
  -1   3  11   23.05    1.23
   0  -3  11   15.85    0.89
   0  -3 -11   17.43    1.16
   0  -3  11   16.52    0.99
   0   3  11   15.96    1.01
   0   3  11   13.74    0.96
   0   3 -11   14.66    0.95
   0   3 -11   15.02    0.76
   0   3  11   14.82    1.08
   1  -3  11   12.37    0.91
  -1   3 -11   12.22    0.87
   1   3  11   12.57    0.94
   1   3  11   12.48    0.94
   1   3  11    9.75    0.86
  -1   3 -11   11.54    0.67
   2  -3  11   22.93    1.16
   2   3  11   19.51    1.19
   2   3  11   20.87    1.22
   2   3  11   19.29    1.14
  -2   3 -11   19.43    1.08
   3  -3  11    3.21    0.64
  -3   3 -11    3.53    0.60
   3   3  11    3.29    0.66
   3   3  11    2.47    0.67
   3   3  11    3.15    0.71
   4  -3  11   30.35    1.41
   4   3  11   30.81    1.51
   4   3  11   32.19    1.50
  -4   3 -11   30.84    1.37
   4   3  11   29.25    1.38
  -5  -3 -11    2.24    0.71
   5  -3  11    2.87    0.71
   5   3  11    1.45    0.68
  -5   3 -11    1.67    0.58
   5   3  11    1.71    0.73
   5   3  11    1.76    0.73
  -6  -3 -11   38.40    1.74
   6  -3  11   36.46    1.70
   6   3  11   33.83    1.74
   6   3  11   37.35    1.76
   6   3  11   34.27    1.62
  -6   3 -11   35.71    1.58
   7  -3  11    9.94    1.07
  -7  -3 -11   10.97    1.15
  -7  -3 -11    8.26    1.19
  -7   3 -11    9.17    0.95
   7   3  11    6.81    1.08
   7   3  11    8.83    1.14
   7   3  11    9.68    1.03
   9  -4 -11   15.76    1.40
  -9  -4  11   12.95    1.56
  -9  -4  11   15.91    1.52
  -9   4  11   13.01    1.39
   9   4 -11   10.79    1.42
   9   4 -11   10.30    2.09
   8  -4 -11    2.90    0.95
  -8  -4  11    1.67    1.06
  -8  -4  11    3.41    1.00
   8   4 -11    2.51    0.92
  -8   4  11    3.20    1.04
   8   4 -11    1.79    1.01
   8   4 -11    2.99    0.84
   7  -4 -11   13.03    1.17
   7  -4 -11   10.50    0.91
  -7  -4  11   13.36    1.22
  -7   4  11   11.75    1.06
   7   4 -11   11.70    1.11
  -7   4  11   12.40    1.31
   7   4 -11   12.17    1.02
  -7   4  11   12.17    1.21
   7   4 -11   10.03    1.22
  -6  -4  11   14.29    1.15
   6  -4 -11   10.90    0.87
   6  -4 -11   14.69    1.14
   6   4 -11   12.75    1.22
   6   4 -11   14.37    1.13
  -6   4  11   11.50    1.18
  -6   4  11   12.07    1.03
   6   4 -11   11.47    0.93
  -6   4  11   11.99    1.15
  -5  -4  11    7.52    0.90
   5  -4 -11    6.76    0.73
   5  -4 -11    7.69    0.87
  -5   4  11    6.90    1.00
  -5   4  11    6.76    0.93
  -5   4  11    8.12    0.90
   5   4 -11    5.50    0.85
   5   4 -11    6.11    0.72
   5   4 -11    6.56    0.95
   4  -4 -11   23.12    1.25
   4  -4 -11   21.06    1.12
  -4  -4  11   21.74    1.26
   4   4 -11   18.64    1.27
  -4   4  11   22.15    1.33
  -4   4  11   18.98    1.27
  -4   4  11   18.08    1.35
   4   4 -11   19.43    1.09
   4   4 -11   17.64    1.36
   3  -4 -11    1.21    0.51
   3  -4 -11    0.72    0.54
  -3  -4  11    0.88    0.73
  -3   4  11    1.41    0.65
   3   4 -11    0.73    0.60
   3   4 -11    0.84    0.67
   3   4 -11    0.41    0.45
  -3   4  11    0.75    0.66
  -3   4  11    0.12    0.65
   2  -4 -11   23.45    1.15
   2  -4 -11   25.13    1.14
  -2   4  11   26.18    1.33
   2   4 -11   26.09    1.32
  -2   4  11   25.29    1.38
   2   4 -11   26.73    1.12
  -2   4  11   26.51    1.36
   2   4 -11   25.44    1.49
  -1  -4  11    3.79    0.61
   1  -4 -11    3.76    0.58
   1  -4 -11    4.43    0.60
   1   4 -11    3.27    0.49
   1   4 -11    3.81    0.78
  -1   4  11    3.83    0.73
  -1   4  11    3.69    0.69
   1   4 -11    3.32    0.64
  -1   4  11    2.48    0.68
   0  -4  11   26.76    1.22
   0  -4 -11   23.96    1.12
   0   4 -11   24.85    1.03
   0   4 -11   23.48    1.25
   0   4  11   23.76    1.28
   0   4  11   22.89    1.24
   0   4  11   24.48    1.33
  -1  -4 -11   22.07    1.10
   1  -4  11   22.52    1.19
   1   4  11   25.36    1.28
  -1   4 -11   26.38    1.25
   1   4  11   25.61    1.31
  -1   4 -11   25.35    1.03
   1   4  11   23.38    1.35
   2  -4  11   18.16    1.11
   2   4  11   15.89    1.13
  -2   4 -11   15.90    1.04
   2   4  11   17.29    1.17
   2   4  11   16.19    1.13
   3  -4  11   20.63    1.20
  -3   4 -11   21.94    1.18
   3   4  11   20.63    1.33
   3   4  11   20.29    1.24
   3   4  11   21.88    1.28
   4  -4  11    3.15    0.69
   4   4  11    2.96    0.74
   4   4  11    3.17    0.80
  -4   4 -11    1.40    0.57
   4   4  11    2.13    0.72
  -5  -4 -11   27.03    1.54
   5  -4  11   26.36    1.45
  -5   4 -11   25.09    1.37
   5   4  11   27.10    1.46
   5   4  11   25.47    1.59
   5   4  11   27.90    1.52
   6  -4  11   20.34    1.41
  -6  -4 -11   21.49    1.44
   6   4  11   17.86    1.33
   6   4  11   16.34    1.34
   6   4  11   17.42    1.23
  -6   4 -11   17.27    1.22
   7  -4  11   18.33    1.42
  -7  -4 -11   17.27    1.42
   7   4  11   14.04    1.37
   7   4  11   15.14    1.33
  -7   4 -11   15.80    1.20
   7   4  11   14.49    1.23
  -8  -5  11   18.59    1.57
   8  -5 -11   16.38    1.48
   8   5 -11   14.41    1.53
   8   5 -11   15.34    1.38
  -8   5  11   16.04    1.44
   7  -5 -11    1.04    0.75
  -7  -5  11    1.66    1.42
   7  -5 -11    0.67    0.94
   7   5 -11    0.94    0.76
  -7   5  11    1.05    1.03
  -7   5  11    0.79    1.06
  -7   5  11    1.10    0.94
   7   5 -11    1.41    0.92
   7   5 -11    1.31    0.99
   6  -5 -11   13.65    1.24
   6  -5 -11   11.91    0.99
   6   5 -11    9.42    1.19
   6   5 -11   12.26    1.17
  -6   5  11   12.98    1.15
   6   5 -11   10.96    0.96
  -6   5  11   13.05    1.24
  -6   5  11   10.01    1.20
   5  -5 -11   17.44    1.23
   5  -5 -11   17.98    1.19
   5   5 -11   15.01    1.33
   5   5 -11   16.40    1.26
  -5   5  11   15.60    1.25
  -5   5  11   18.66    1.54
   5   5 -11   17.37    1.14
  -5   5  11   19.53    1.44
   4  -5 -11    4.26    0.80
   4  -5 -11    2.95    0.66
   4   5 -11    3.90    0.66
  -4   5  11    3.33    0.86
   4   5 -11    4.14    0.90
   4   5 -11    3.64    0.83
  -4   5  11    4.68    0.88
  -4   5  11    3.27    0.85
   3  -5 -11   37.74    1.60
   3  -5 -11   37.82    1.52
  -3   5  11   40.23    1.74
   3   5 -11   35.60    1.69
   3   5 -11   32.57    1.78
  -3   5  11   37.84    1.69
  -3   5  11   36.11    1.67
   3   5 -11   36.59    1.44
   2  -5 -11    5.19    0.70
   2  -5 -11    4.90    0.74
  -2   5  11    4.39    0.82
  -2   5  11    3.07    0.79
   2   5 -11    4.81    0.62
  -2   5  11    2.73    0.74
   2   5 -11    3.45    0.82
   2   5 -11    5.64    0.83
   1  -5 -11   26.53    1.27
   1  -5 -11   25.47    1.29
  -1   5  11   27.15    1.48
   1   5 -11   25.20    1.36
  -1   5  11   24.67    1.42
   1   5 -11   28.27    1.20
  -1   5  11   26.91    1.40
   1   5 -11   23.74    1.53
   0  -5 -11    2.85    0.61
   0  -5  11    2.98    0.66
   0   5 -11    2.87    0.81
   0   5 -11    3.17    0.71
   0   5 -11    2.30    0.49
   0   5  11    3.33    0.77
   0   5  11    2.12    0.68
   0   5  11    1.75    0.73
   1  -5  11    8.14    0.84
  -1  -5 -11    6.19    0.73
  -1   5 -11    4.66    0.58
   1   5  11    4.76    0.76
  -1   5 -11    5.76    0.79
   1   5  11    5.97    0.89
   1   5  11    4.90    0.84
   2  -5  11   19.33    1.25
   2   5  11   24.91    1.51
   2   5  11   26.14    1.46
  -2   5 -11   23.21    1.34
   2   5  11   24.90    1.34
   3  -5  11    0.51    0.62
  -3   5 -11    1.50    0.64
   3   5  11    1.57    0.77
   3   5  11    1.20    0.77
   3   5  11    1.35    0.70
   4  -5  11   22.25    1.40
   4   5  11   19.86    1.43
   4   5  11   21.97    1.34
   4   5  11   20.88    1.41
  -4   5 -11   19.21    1.31
   5  -5  11    2.66    0.80
  -5  -5 -11    2.09    0.88
   5   5  11    1.46    0.94
   5   5  11    2.24    0.83
  -5   5 -11    1.85    0.70
   5   5  11    1.65    0.78
  -6  -5 -11   17.82    1.43
   6  -5  11   20.49    1.44
   6   5  11   18.37    1.49
  -6   5 -11   17.06    1.29
   6   5  11   19.33    1.50
   6   5  11   17.69    1.32
   6  -6 -11    1.48    0.99
   6  -6 -11    1.54    0.80
   6   6 -11    1.54    0.96
  -6   6  11    2.36    1.05
  -6   6  11    1.58    1.09
   6   6 -11    2.42    1.05
   6   6 -11    1.60    0.75
  -6   6  11    2.31    1.06
   5  -6 -11    1.14    0.88
   5  -6 -11    1.55    0.76
  -5   6  11    1.50    1.00
  -5   6  11    1.15    0.95
   5   6 -11    1.32    0.68
  -5   6  11    1.13    0.94
   5   6 -11    0.70    0.89
   5   6 -11    1.32    0.93
   4  -6 -11    7.98    0.91
   4  -6 -11    7.33    1.01
  -4   6  11    9.58    1.14
   4   6 -11    8.89    1.16
  -4   6  11    7.49    1.07
   4   6 -11    8.73    0.86
  -4   6  11    7.93    1.08
   4   6 -11    7.71    1.04
   3  -6 -11    5.42    0.90
   3  -6 -11    5.09    0.79
   3   6 -11    5.14    0.72
  -3   6  11    5.75    1.01
  -3   6  11    4.56    0.97
   3   6 -11    5.61    0.96
   3   6 -11    6.18    1.05
  -3   6  11    4.16    0.92
   2  -6 -11   16.00    1.16
   2  -6 -11   12.61    1.01
   2   6 -11   11.92    1.13
  -2   6  11   11.78    1.13
   2   6 -11   12.63    1.25
  -2   6  11   10.63    1.04
  -2   6  11   11.44    1.10
   2   6 -11   11.81    0.92
   1  -6 -11   10.44    0.97
   1  -6 -11    7.21    0.81
   1   6 -11   10.94    0.85
  -1   6  11    9.41    0.98
   1   6 -11    9.84    1.04
   1   6 -11    9.44    1.13
  -1   6  11    8.26    1.04
  -1   6  11   10.33    1.10
   0  -6 -11   28.27    1.43
   0   6  11   25.55    1.57
   0   6  11   27.07    1.64
   0   6 -11   27.94    1.71
   0   6  11   24.63    1.38
   0   6 -11   25.69    1.54
   0   6 -11   26.17    1.25
  -1  -6 -11   13.56    1.02
   1  -6  11   14.73    1.12
   1   6  11   15.26    1.21
  -1   6 -11   16.78    1.07
   1   6  11   15.09    1.21
  -1   6 -11   15.05    1.21
   1   6  11   14.60    1.22
   2  -6  11    9.60    1.02
  -2  -6 -11    7.75    0.88
  -2   6 -11   11.02    1.09
   2   6  11    9.37    1.05
   2   6  11    7.67    1.07
   2   6  11    8.75    0.91
   3  -6  11   38.89    1.82
   3   6  11   34.32    1.76
  -3   6 -11   36.37    1.74
   3   6  11   34.76    1.58
   3   6  11   37.08    1.93
   4  -6  11    0.78    0.76
   4   6  11    0.24    0.93
   4   6  11    0.02    0.73
  -4   6 -11    0.56    0.73
   4   6  11    0.11    0.86
   4  -7 -11    3.64    0.88
   4  -7 -11    4.54    1.09
   4   7 -11    3.42    1.05
  -4   7  11    2.43    1.03
  -4   7  11    4.35    1.16
  -4   7  11    2.76    1.11
   4   7 -11    2.77    1.05
   4   7 -11    3.54    0.81
   3  -7 -11   11.41    1.09
   3  -7 -11   10.41    1.19
   3   7 -11    8.47    1.21
  -3   7  11    9.79    1.26
   3   7 -11    8.33    1.15
   3   7 -11    8.28    0.92
  -3   7  11    8.38    1.22
  -3   7  11    9.38    1.16
   2  -7 -11    4.03    0.98
   2  -7 -11    2.16    0.79
  -2   7  11    3.76    1.07
   2   7 -11    2.87    0.98
   2   7 -11    3.38    0.72
   2   7 -11    4.79    1.03
  -2   7  11    2.71    0.91
  -2   7  11    2.93    1.03
  -1   7  11    9.48    1.20
   1   7 -11   11.05    1.28
  -1   7  11    9.78    1.06
  -1   7  11   10.64    1.24
   1   7 -11   11.73    0.97
   1   7 -11   11.26    1.20
   0  -7 -11    6.32    0.90
   0   7  11    9.14    1.20
   0   7  11   10.01    1.19
   0   7 -11    8.63    0.87
   0   7  11    8.75    0.98
   0   7 -11    8.91    1.24
   0   7 -11   10.00    1.15
  -1  -7 -11   10.49    1.01
   1   7  11   12.19    1.27
  -1   7 -11   14.88    1.45
   1   7  11   11.82    1.03
  -1   7 -11   12.97    1.00
  -1   7 -11   15.65    1.31
   1   7  11   12.96    1.28
  -2  -7 -11    4.26    0.89
   2  -7  11    3.34    0.93
  -2   7 -11    3.92    0.98
   2   7  11    4.77    0.84
   2   7  11    4.19    1.05
   2   7  11    4.11    1.12
  -9   0  12    0.88    0.95
   9   0 -12    0.00    0.70
   8   0 -12   14.51    1.02
  -7   0  12    1.07    0.77
   7   0 -12    1.04    0.58
  -6   0  12   27.24    1.47
   6   0 -12   25.35    1.21
  -5   0  12    6.31    0.84
   5   0 -12    8.99    0.71
   4   0 -12    5.31    0.56
  -4   0  12    6.05    0.78
  -3   0  12   16.72    1.68
  -3   0  12   12.81    0.89
  -3   0  12   13.24    0.94
   3   0 -12   14.24    0.80
   2   0 -12    4.55    0.49
  -2   0  12    4.70    0.59
  -2   0  12    3.81    0.64
  -2   0  12    4.69    0.82
  -1   0  12   16.20    1.00
  -1   0  12   15.46    0.95
   1   0 -12   17.18    0.78
  -1   0  12   13.37    1.08
   0   0 -12   17.01    1.12
   0   0  12   16.03    0.97
   0   0  12   13.86    1.10
   0   0  12   15.25    0.98
  -1   0 -12   77.58    2.34
   1   0  12   76.14    2.21
   1   0  12   70.23    2.43
   1   0  12   68.56    2.19
  -2   0 -12   45.33    1.50
   2   0  12   42.72    1.83
   2   0  12   44.93    1.60
   2   0  12   44.80    1.63
   3   0  12   32.33    1.66
  -3   0 -12   34.52    1.30
   3   0  12   33.19    1.42
   3   0  12   32.61    1.39
  -4   0 -12   36.06    1.43
   4   0  12   35.78    1.51
   4   0  12   37.41    1.57
   4   0  12   36.62    1.79
   5   0  12    0.72    0.78
   5   0  12    0.87    0.63
   5   0  12    1.32    0.66
  -5   0 -12    1.09    0.58
  -6   0 -12   41.35    1.66
   6   0  12   38.23    2.04
   6   0  12   40.55    1.71
   6   0  12   37.61    1.74
   7   0  12    3.31    0.89
  -7   0 -12    2.45    0.80
  -7   0 -12    2.36    0.77
   7   0  12    2.48    1.04
   7   0  12    3.73    0.89
  -9  -1  12    6.74    1.11
   9  -1 -12    8.45    0.97
   9   1 -12    6.11    0.89
  -8  -1  12    3.32    0.95
   8  -1 -12    3.20    0.73
   8   1 -12    3.52    0.72
  -8   1  12    3.22    0.94
  -7  -1  12   24.63    1.49
   7  -1 -12   22.64    1.25
  -7   1  12   24.98    1.55
   7   1 -12   26.56    1.28
   6  -1 -12    9.57    0.82
  -6  -1  12    9.76    0.97
   6   1 -12    7.18    0.70
  -6   1  12    9.30    0.97
   5  -1 -12   14.54    0.94
  -5  -1  12   12.51    1.00
   5   1 -12   10.45    0.74
  -5   1  12   10.51    0.97
   4  -1 -12    7.79    0.66
  -4  -1  12    9.15    0.86
  -4   1  12    8.11    0.85
  -4   1  12    9.35    0.74
  -4   1  12    7.13    0.99
   4   1 -12    7.93    0.65
  -3  -1  12   12.56    0.91
   3  -1 -12   12.29    0.80
  -3  -1  12   12.72    0.85
   3   1 -12   11.01    0.76
  -3   1  12   11.85    0.81
  -3   1  12   10.27    1.02
  -3   1  12   10.75    0.88
   2  -1 -12   43.70    1.43
  -2  -1  12   46.21    1.61
  -2  -1  12   45.65    1.50
  -2   1  12   47.67    1.63
   2   1 -12   47.95    1.49
  -2   1  12   49.62    1.76
  -2   1  12   47.93    1.93
  -1  -1  12    5.74    0.66
   1  -1 -12    6.19    0.56
  -1  -1  12    5.72    0.64
  -1   1  12    5.14    0.69
  -1   1  12    4.61    0.79
   1   1 -12    4.06    0.47
   1   1 -12    4.94    0.56
  -1   1  12    5.07    0.65
   0  -1  12   28.17    1.20
   0  -1  12   28.12    1.20
   0  -1  12   25.86    1.47
   0   1  12   30.07    1.29
   0   1  12   30.99    1.36
   0   1 -12   30.75    1.06
   0   1 -12   31.51    1.21
   0   1  12   29.24    1.52
   1  -1  12    9.96    0.78
   1  -1  12    9.78    0.80
   1  -1  12    8.45    0.97
   1   1  12    8.53    0.79
   1   1  12    9.12    0.78
  -1   1 -12    8.62    0.69
   1   1  12    9.23    0.95
   2  -1  12   42.49    1.84
   2  -1  12   44.62    1.57
   2  -1  12   43.38    1.61
  -2   1 -12   44.23    1.51
   2   1  12   41.77    1.59
   2   1  12   45.13    1.64
   2   1  12   42.85    1.82
   3  -1  12   37.20    1.50
   3  -1  12   35.72    1.41
   3  -1  12   35.23    1.79
   3   1  12   38.33    1.56
  -3   1 -12   36.43    1.43
   3   1  12   39.20    1.75
   3   1  12   40.12    1.57
   4  -1  12    7.25    0.81
   4  -1  12    8.05    0.79
   4  -1  12    5.79    0.97
  -4  -1 -12    7.04    0.71
   4   1  12    6.98    0.80
  -4   1 -12    7.01    0.73
   4   1  12    6.99    0.82
   4   1  12    6.65    0.95
   5  -1  12   31.93    1.85
  -5  -1 -12   37.75    1.54
   5  -1  12   37.21    1.64
   5  -1  12   36.56    1.53
  -5   1 -12   35.93    1.50
   5   1  12   35.37    1.82
   5   1  12   35.69    1.61
   5   1  12   35.05    1.59
  -6  -1 -12    0.55    0.68
  -6  -1 -12    1.09    0.67
   6  -1  12    0.44    0.68
   6   1  12    0.18    0.70
   6   1  12    0.63    0.72
  -6   1 -12    0.30    0.60
   6   1  12    0.23    0.84
  -7  -1 -12   25.40    1.55
  -7  -1 -12   23.44    1.52
   7  -1  12   27.86    1.65
  -7   1 -12   25.09    1.49
   7   1  12   24.87    1.86
   7   1  12   24.98    1.60
   7   1  12   27.22    1.62
  -9  -2  12    1.54    1.05
   9  -2 -12    0.85    0.83
   9   2 -12    0.79    0.79
  -9   2  12    0.43    1.00
  -8  -2  12   11.60    1.19
   8  -2 -12   10.77    1.00
  -8   2  12   11.35    1.20
   8   2 -12   12.41    0.97
  -7  -2  12    2.38    0.87
   7  -2 -12    3.15    0.73
   7   2 -12    2.32    0.66
  -7   2  12    1.88    0.88
  -6  -2  12   26.57    1.50
   6  -2 -12   27.63    1.33
   6   2 -12   28.50    1.29
  -6   2  12   26.39    1.56
   5  -2 -12   13.10    0.88
   5  -2 -12   13.00    0.92
  -5  -2  12   12.62    1.00
  -5   2  12   13.18    1.24
  -5   2  12   12.03    0.90
  -5   2  12   13.40    1.08
   5   2 -12   12.45    0.85
   4  -2 -12   18.73    0.97
   4  -2 -12   16.18    1.02
  -4  -2  12   17.59    1.18
  -4   2  12   17.76    1.11
  -4   2  12   15.62    1.23
  -4   2  12   15.47    1.09
   4   2 -12   17.65    1.01
  -3  -2  12   21.26    1.18
   3  -2 -12   21.79    1.01
   3  -2 -12   19.57    1.04
  -3   2  12   24.83    1.18
   3   2 -12   22.76    1.08
   3   2 -12   21.33    1.12
  -3   2  12   20.94    1.45
  -3   2  12   23.12    1.30
   2  -2 -12    4.20    0.56
  -2  -2  12    3.64    0.63
  -2  -2  12    5.33    0.63
  -2   2  12    5.95    0.87
   2   2 -12    5.18    0.58
  -2   2  12    4.98    0.67
  -2   2  12    4.56    0.72
   2   2 -12    5.60    0.66
   1  -2 -12   65.88    1.85
  -1  -2  12   63.50    1.94
  -1  -2  12   60.17    1.92
   1   2 -12   58.78    1.80
  -1   2  12   62.33    2.16
  -1   2  12   61.78    2.05
  -1   2  12   64.73    1.98
   1   2 -12   59.09    1.89
   0  -2  12    4.94    0.66
   0  -2  12    4.44    0.61
   0   2 -12    4.48    0.59
   0   2 -12    2.82    0.47
   0   2  12    3.34    0.68
   0   2  12    3.91    0.65
   0   2  12    3.28    0.72
   1  -2  12   27.46    1.20
   1  -2  12   30.02    1.30
  -1   2 -12   28.50    1.21
   1   2  12   24.94    1.26
   1   2  12   27.32    1.44
   1   2  12   26.69    1.32
   2  -2  12   24.61    1.13
   2  -2  12   22.02    1.20
  -2   2 -12   22.39    1.15
   2   2  12   25.81    1.28
   2   2  12   23.88    1.39
   2   2  12   25.60    1.30
   3  -2  12    9.94    0.89
  -3   2 -12    8.04    0.75
   3   2  12    9.00    0.96
   3   2  12    7.82    0.88
   3   2  12    9.30    0.87
   4  -2  12   27.13    1.38
   4   2  12   23.24    1.48
   4   2  12   28.16    1.37
  -4   2 -12   24.52    1.25
   4   2  12   25.99    1.38
   5  -2  12    3.29    0.78
   5   2  12    4.28    0.81
   5   2  12    2.84    0.85
  -5   2 -12    3.83    0.70
   5   2  12    3.76    0.80
  -6  -2 -12   18.39    1.29
   6  -2  12   18.73    1.33
   6   2  12   16.05    1.37
  -6   2 -12   16.40    1.21
   6   2  12   16.64    1.29
   6   2  12   17.83    1.24
  -7  -2 -12    5.74    0.98
  -7  -2 -12    5.26    0.97
   7  -2  12    4.37    0.96
   7   2  12    5.97    0.98
   7   2  12    4.50    0.99
   7   2  12    6.79    1.16
  -7   2 -12    5.07    0.86
   9  -3 -12    4.87    1.03
  -9  -3  12    5.15    1.23
  -9   3  12    2.89    1.16
   9   3 -12    4.34    0.90
  -8  -3  12    0.34    0.98
   8  -3 -12   -0.08    0.80
  -8   3  12    0.92    1.00
   8   3 -12    0.41    0.72
   7  -3 -12   19.44    1.31
  -7  -3  12   20.45    1.39
   7   3 -12   18.54    1.26
  -7   3  12   14.52    1.29
  -6  -3  12    5.99    0.95
   6  -3 -12    4.42    0.67
   6  -3 -12    6.44    0.86
  -6   3  12    4.22    1.05
   6   3 -12    3.33    0.70
  -6   3  12    3.73    0.92
  -6   3  12    5.94    0.85
   5  -3 -12   21.77    1.11
  -5  -3  12   23.23    1.38
   5  -3 -12   19.88    1.28
  -5   3  12   19.23    1.23
  -5   3  12   20.41    1.43
   5   3 -12   18.92    1.29
  -5   3  12   18.68    1.57
   5   3 -12   20.74    1.20
   4  -3 -12   13.77    0.94
   4  -3 -12   12.82    0.98
  -4  -3  12   13.17    1.01
   4   3 -12    9.97    0.89
  -4   3  12   11.30    1.01
  -4   3  12    9.98    1.07
  -4   3  12   10.53    0.90
   4   3 -12   10.05    0.83
   3  -3 -12   11.24    0.85
  -3  -3  12    9.77    0.88
   3  -3 -12   10.73    0.79
   3   3 -12    7.84    0.71
  -3   3  12    9.16    1.01
  -3   3  12    9.59    0.96
   3   3 -12    9.69    0.85
  -3   3  12   10.94    0.90
   2  -3 -12   38.18    1.42
  -2  -3  12   37.50    1.47
   2  -3 -12   36.19    1.39
  -2   3  12   35.69    1.67
  -2   3  12   36.90    1.52
   2   3 -12   35.57    1.34
   2   3 -12   36.00    1.46
  -2   3  12   39.12    1.61
  -1  -3  12    6.25    0.73
  -1  -3  12    6.16    0.71
   1  -3 -12    6.63    0.67
   1  -3 -12    6.05    0.63
   1   3 -12    7.06    0.62
  -1   3  12    8.23    0.81
  -1   3  12    5.33    0.83
   1   3 -12    5.82    0.73
  -1   3  12    5.44    0.79
   0  -3  12   35.74    1.46
   0   3  12   35.44    1.58
   0   3 -12   36.38    1.46
   0   3  12   35.34    1.48
   0   3 -12   35.68    1.26
   0   3  12   35.37    1.59
   1  -3  12   12.77    0.97
   1   3  12    9.96    0.92
   1   3  12   11.20    0.99
   1   3  12   11.43    0.94
  -1   3 -12   12.83    0.94
   2  -3  12   19.40    1.19
   2   3  12   17.87    1.23
  -2   3 -12   18.97    1.13
   2   3  12   18.72    1.27
   2   3  12   21.03    1.25
   3  -3  12   19.50    1.24
   3   3  12   20.91    1.40
   3   3  12   19.85    1.32
  -3   3 -12   20.49    1.13
   3   3  12   21.17    1.32
   4  -3  12    5.79    0.84
  -4   3 -12    5.07    0.72
   4   3  12    4.92    0.86
   4   3  12    3.82    0.86
   4   3  12    4.13    0.80
   5  -3  12   32.59    1.64
  -5   3 -12   33.35    1.56
   5   3  12   35.14    1.79
   5   3  12   32.32    1.65
   5   3  12   35.83    1.73
   6  -3  12    1.41    0.79
  -6  -3 -12    1.71    0.85
   6   3  12    1.71    0.90
  -6   3 -12    1.41    0.68
   6   3  12    1.48    0.82
   6   3  12    1.29    0.88
   8  -4 -12    8.46    1.18
  -8  -4  12   10.28    1.36
  -8   4  12    9.21    1.31
  -7  -4  12    2.13    1.03
   7  -4 -12    1.76    0.90
   7   4 -12    1.69    0.78
   7   4 -12    1.66    0.89
  -7   4  12    2.56    1.06
  -7   4  12    1.65    1.23
   6  -4 -12    9.95    0.89
  -6  -4  12    9.08    1.11
   6  -4 -12    8.21    1.04
   6   4 -12    8.08    1.02
  -6   4  12    9.73    1.03
  -6   4  12    7.59    1.10
  -6   4  12    8.15    1.21
   6   4 -12    9.42    0.95
   5  -4 -12    5.36    0.73
  -5  -4  12    6.95    0.95
   5  -4 -12    5.83    0.89
   5   4 -12    5.31    1.24
   5   4 -12    5.02    0.74
  -5   4  12    6.43    1.08
  -5   4  12    5.21    0.98
  -5   4  12    6.47    0.92
   5   4 -12    6.29    0.93
  -4  -4  12   20.25    1.48
   4  -4 -12   21.56    1.18
   4  -4 -12   21.95    1.34
  -4   4  12   19.18    1.51
  -4   4  12   21.43    1.40
   4   4 -12   20.23    1.36
   4   4 -12   19.64    1.18
  -4   4  12   21.78    1.44
   3  -4 -12   23.45    1.21
   3  -4 -12   25.65    1.33
   3   4 -12   22.23    1.37
  -3   4  12   25.17    1.41
   3   4 -12   23.79    1.18
  -3   4  12   22.29    1.49
  -3   4  12   22.80    1.47
   2  -4 -12    2.30    0.59
   2  -4 -12    3.80    0.67
  -2   4  12    2.77    0.76
   2   4 -12    2.92    0.55
   2   4 -12    3.60    0.71
  -2   4  12    2.50    0.81
  -2   4  12    3.16    0.79
   1  -4 -12   34.49    1.54
   1  -4 -12   29.71    1.34
   1   4 -12   27.12    1.38
  -1   4  12   28.48    1.50
   1   4 -12   27.21    1.16
  -1   4  12   27.74    1.47
  -1   4  12   27.67    1.45
   0  -4 -12   16.98    1.06
   0  -4  12   15.41    1.13
   0   4 -12   16.33    0.92
   0   4  12   15.13    1.14
   0   4 -12   17.07    1.11
   0   4  12   15.57    1.26
   0   4  12   16.43    1.13
   1  -4  12   19.11    1.24
   1   4  12   17.66    1.23
  -1   4 -12   19.77    1.21
   1   4  12   19.07    1.27
   1   4  12   19.76    1.28
   2  -4  12    8.02    0.88
   2   4  12    7.32    0.92
   2   4  12    7.99    0.95
   2   4  12    7.61    0.93
  -2   4 -12    8.45    0.87
   3  -4  12    2.51    0.72
   3   4  12    1.41    0.77
  -3   4 -12    2.69    0.66
   3   4  12    1.60    0.76
   3   4  12    1.22    0.74
   4  -4  12   28.46    1.52
  -4   4 -12   27.87    1.42
   4   4  12   24.85    1.57
   4   4  12   26.36    1.56
   4   4  12   29.31    1.61
   5  -4  12    6.42    0.93
  -5   4 -12    6.58    0.85
   5   4  12    5.62    0.98
   5   4  12    5.08    0.94
   5   4  12    4.79    0.98
   6  -4  12   23.13    1.59
  -6  -4 -12   24.12    1.57
   6   4  12   27.11    1.82
   6   4  12   24.40    1.72
   6   4  12   26.14    1.69
  -6   4 -12   22.73    1.51
   7  -5 -12    8.58    1.27
   7  -5 -12    6.96    0.97
  -7   5  12    4.88    1.13
   7   5 -12    2.90    1.17
   7   5 -12    4.62    1.08
  -7   5  12    4.42    1.30
  -7   5  12    4.00    1.19
   7   5 -12    4.02    0.93
   6  -5 -12    5.60    1.07
   6  -5 -12    4.14    0.83
  -6   5  12    4.68    1.05
  -6   5  12    5.56    1.15
  -6   5  12    5.09    1.19
   6   5 -12    4.36    1.11
   6   5 -12    4.72    0.85
   6   5 -12    4.53    1.02
   5  -5 -12   13.59    1.05
   5  -5 -12   15.21    1.26
   5   5 -12   12.66    1.21
   5   5 -12   13.89    1.04
   5   5 -12   10.61    1.26
  -5   5  12   11.02    1.14
  -5   5  12   11.26    1.27
  -5   5  12   12.24    1.26
   4  -5 -12    8.17    0.85
   4  -5 -12    8.58    1.01
  -4   5  12    6.80    1.06
   4   5 -12    7.51    1.13
   4   5 -12    7.09    0.99
   4   5 -12    7.22    0.80
  -4   5  12    7.76    1.02
  -4   5  12    8.41    1.08
   3  -5 -12    5.63    0.77
   3  -5 -12    7.60    0.92
  -3   5  12    5.34    0.99
   3   5 -12    6.88    0.77
  -3   5  12    6.38    0.97
  -3   5  12    6.54    1.01
   3   5 -12    6.49    0.94
   3   5 -12    5.37    1.03
   2  -5 -12   11.85    0.94
   2  -5 -12   14.68    1.08
  -2   5  12   11.94    1.12
  -2   5  12   13.12    1.12
   2   5 -12   13.60    1.13
   2   5 -12   13.98    1.61
   2   5 -12   12.46    0.88
  -2   5  12   14.12    1.17
   1  -5 -12    6.66    0.79
  -1   5  12    6.13    0.94
  -1   5  12    6.83    0.93
  -1   5  12    6.55    0.97
   1   5 -12    6.81    0.70
   1   5 -12    6.44    0.88
   0  -5 -12   25.34    1.35
   0   5 -12   26.08    1.20
   0   5  12   26.03    1.52
   0   5  12   26.56    1.55
   0   5  12   27.63    1.63
   0   5 -12   26.49    1.49
   1  -5  12   13.75    1.11
  -1  -5 -12   15.00    1.05
   1   5  12   13.20    1.12
   1   5  12    9.71    1.08
  -1   5 -12   15.91    1.30
  -1   5 -12   13.19    1.09
   1   5  12   13.31    1.10
   2  -5  12   21.62    1.42
   2   5  12   23.27    1.48
  -2   5 -12   20.60    1.38
   2   5  12   21.94    1.56
   2   5  12   22.27    1.44
   3  -5  12   13.22    1.15
   3   5  12   10.40    1.18
  -3   5 -12   10.66    1.04
   3   5  12   10.61    1.11
   3   5  12   10.01    1.05
   4  -5  12    5.44    0.92
   4   5  12    5.21    0.98
   4   5  12    5.37    0.94
  -4   5 -12    3.80    0.79
   4   5  12    3.64    1.02
   5  -5  12   23.60    1.56
   5   5  12   21.65    1.58
  -5   5 -12   19.38    1.45
   5   5  12   20.76    1.56
   5   5  12   19.89    1.40
   5  -6 -12    9.03    1.02
   5  -6 -12   10.93    1.27
   5   6 -12    9.96    1.00
  -5   6  12    9.00    1.29
   5   6 -12    7.75    1.26
  -5   6  12    9.56    1.25
   5   6 -12   12.65    1.28
  -5   6  12    8.67    1.26
   4  -6 -12    9.12    1.01
   4  -6 -12   11.37    1.22
   4   6 -12    8.34    1.16
  -4   6  12    9.86    1.23
   4   6 -12    8.72    0.92
   4   6 -12    7.21    1.22
  -4   6  12    9.18    1.19
  -4   6  12   10.04    1.24
   3  -6 -12   14.25    1.23
   3  -6 -12   12.02    1.03
  -3   6  12   15.58    1.34
  -3   6  12   15.63    1.37
   3   6 -12   14.57    1.29
   3   6 -12   20.70    1.29
   3   6 -12   15.23    1.41
  -3   6  12   13.99    1.27
   2  -6 -12    2.75    0.91
   2  -6 -12    2.37    0.75
  -2   6  12    1.95    0.95
   2   6 -12    1.97    0.64
   2   6 -12    2.42    0.99
  -2   6  12    1.21    0.89
  -2   6  12    2.61    0.97
   2   6 -12    1.38    0.84
   1  -6 -12   16.12    1.14
   1   6 -12   17.90    1.18
   1   6 -12   18.73    2.11
  -1   6  12   15.86    1.26
  -1   6  12   16.72    1.34
   1   6 -12   14.61    1.23
  -1   6  12   16.53    1.34
   0  -6 -12    2.28    0.74
   0   6  12    2.53    0.89
   0   6 -12    3.26    0.67
   0   6 -12    3.45    0.88
   0   6  12    2.24    0.98
   0   6  12    2.24    0.96
  -1  -6 -12    6.88    0.91
   1   6  12    7.31    1.10
   1   6  12    8.04    1.12
  -1   6 -12    8.21    0.86
  -1   6 -12    8.93    1.06
   1   6  12    7.79    0.97
   2  -6  12    8.27    1.07
  -2   6 -12    7.82    1.01
   2   6  12    5.80    0.94
   2   6  12    5.11    1.09
   2   6  12    5.95    1.03
   3  -6  12    6.85    1.05
   3   6  12    5.82    1.15
   3   6  12    5.16    1.07
   3   6  12    6.53    0.98
  -3   6 -12    6.81    1.02
   2  -7 -12    7.28    0.98
   2   7 -12   10.14    1.27
  -2   7  12   11.19    1.24
   2   7 -12   12.04    1.46
  -2   7  12   10.83    1.32
   2   7 -12    8.64    0.97
  -2   7  12   11.29    1.33
   1  -7 -12    2.81    0.86
  -1   7  12    4.65    1.16
   1   7 -12    2.30    1.08
  -1   7  12    3.54    1.15
   1   7 -12    3.93    1.02
   1   7 -12    2.52    0.75
  -1   7  12    3.99    1.01
   0  -7 -12   12.50    1.14
   0   7 -12   13.14    1.32
   0   7  12   12.48    1.39
   0   7  12   11.84    1.20
   0   7 -12   12.22    1.03
   0   7  12   13.29    1.38
  -9   0  13    7.90    1.23
   9   0 -13    9.15    1.03
   8   0 -13    0.92    0.69
  -8   0  13    0.75    0.89
  -7   0  13   12.31    1.18
   7   0 -13   14.50    1.01
  -6   0  13    0.05    0.76
   6   0 -13   -0.01    0.57
  -5   0  13   21.52    1.42
   5   0 -13   22.16    1.14
  -4   0  13    1.62    0.70
   4   0 -13    2.51    0.54
  -3   0  13    3.57    0.73
  -3   0  13    5.31    0.67
   3   0 -13    3.93    0.55
  -2   0  13   56.69    1.95
   2   0 -13   54.96    1.69
  -2   0  13   55.77    1.82
  -1   0  13   14.13    1.01
  -1   0  13   15.42    1.07
   1   0 -13   16.01    0.85
  -1   0  13   13.32    1.18
   0   0  13   23.08    1.23
   0   0  13   22.14    1.52
   0   0  13   26.45    1.27
   1   0  13    0.72    0.59
   1   0  13    0.56    0.72
   1   0  13    0.36    0.56
   2   0  13   35.09    1.49
   2   0  13   30.62    1.74
   2   0  13   35.87    1.53
   3   0  13    6.58    0.84
   3   0  13    4.14    0.74
   3   0  13    4.82    0.95
  -4   0 -13    3.11    0.67
   4   0  13    4.10    0.80
   4   0  13    3.08    0.74
   4   0  13    2.79    0.91
  -5   0 -13    6.93    0.83
   5   0  13    7.22    1.14
   5   0  13    7.94    0.97
   5   0  13    8.68    0.99
   6   0  13    4.09    0.90
   6   0  13    5.07    0.96
   6   0  13    3.25    1.10
  -6   0 -13    4.33    0.83
  -8  -1  13   12.70    1.27
   8  -1 -13   15.16    1.13
   8   1 -13   13.19    1.04
  -7  -1  13    0.89    0.84
   7  -1 -13    0.99    0.67
   7   1 -13    0.72    0.63
  -7   1  13    0.78    0.86
  -6  -1  13   23.48    1.51
   6  -1 -13   22.49    1.24
   6   1 -13   22.36    1.22
   5  -1 -13    3.50    0.62
  -5  -1  13    3.62    0.84
   5   1 -13    4.13    0.64
  -5   1  13    3.56    0.83
   4  -1 -13    8.52    0.74
  -4  -1  13    6.61    0.87
  -4   1  13    9.22    0.81
  -4   1  13    9.64    0.97
   4   1 -13    8.59    0.71
  -3  -1  13   24.90    1.37
   3  -1 -13   25.60    1.14
   3   1 -13   23.42    1.05
  -3   1  13   22.57    1.34
  -3   1  13   21.08    1.63
  -3   1  13   23.71    1.22
  -2  -1  13    9.49    0.87
  -2  -1  13   11.70    0.84
   2  -1 -13   11.22    0.75
   2   1 -13   13.76    0.85
  -2   1  13   12.67    1.16
  -2   1  13   12.89    1.03
  -2   1  13   14.08    1.03
  -1  -1  13   31.62    1.37
  -1  -1  13   34.23    1.44
   1  -1 -13   34.91    1.45
  -1   1  13   29.19    1.34
   1   1 -13   31.35    1.13
  -1   1  13   27.79    1.40
  -1   1  13   31.82    1.68
   0  -1  13    0.17    0.53
   0  -1  13    0.17    0.55
   0   1  13    0.12    0.58
   0   1  13   -0.10    0.71
   0   1  13   -0.25    0.55
   1  -1  13   30.12    1.35
   1  -1  13   30.15    1.40
   1   1  13   24.41    1.31
   1   1  13   25.67    1.51
   1   1  13   26.71    1.37
  -1   1 -13   26.26    1.20
   2  -1  13    1.61    0.62
   2  -1  13    2.19    0.67
   2   1  13    0.61    0.59
  -2   1 -13    0.95    0.54
   2   1  13    1.31    0.77
   2   1  13    1.01    0.64
   3  -1  13   15.53    1.12
   3  -1  13   14.36    1.03
   3   1  13   12.64    1.02
   3   1  13   11.18    1.16
   3   1  13   10.65    0.95
  -3   1 -13   12.90    0.91
   4  -1  13   19.79    1.35
   4  -1  13   19.52    1.23
  -4   1 -13   19.76    1.21
   4   1  13   20.99    1.59
   4   1  13   21.31    1.35
   4   1  13   22.53    1.41
   5  -1  13   11.17    1.10
   5   1  13    7.83    1.14
   5   1  13    8.60    1.00
  -5   1 -13    9.40    0.92
   5   1  13    9.73    1.05
   6  -1  13   21.56    1.54
  -6   1 -13   23.12    1.41
   6   1  13   21.91    1.53
   6   1  13   22.16    1.83
   6   1  13   23.92    1.58
  -8  -2  13    3.88    1.08
   8  -2 -13    4.00    0.89
  -8   2  13    3.98    1.08
   8   2 -13    3.12    0.80
  -7  -2  13    7.23    1.08
   7  -2 -13    7.97    0.92
  -7   2  13    5.09    1.05
   7   2 -13    5.97    0.79
   6  -2 -13    1.18    0.68
  -6  -2  13    0.89    0.82
   6   2 -13    0.99    0.60
  -6   2  13    0.95    0.88
  -5  -2  13   10.21    1.03
   5  -2 -13   11.51    1.27
   5  -2 -13   12.84    0.98
   5   2 -13   11.73    0.88
  -5   2  13   10.89    1.19
  -5   2  13   11.74    1.10
   4  -2 -13    8.89    0.80
  -4  -2  13    9.50    0.96
  -4   2  13    8.58    1.16
  -4   2  13    9.32    1.00
   4   2 -13   10.62    0.81
  -4   2  13    9.50    0.88
   3  -2 -13   18.76    1.10
  -3  -2  13   23.07    1.30
  -3   2  13   20.98    1.34
   3   2 -13   17.66    1.03
  -3   2  13   21.12    1.20
  -3   2  13   17.01    1.44
  -2  -2  13    8.66    0.86
   2  -2 -13    9.93    0.78
   2   2 -13    9.87    0.74
  -2   2  13   10.01    0.89
  -2   2  13    9.16    0.92
  -2   2  13   10.19    1.11
  -1  -2  13    3.23    0.66
  -1  -2  13    4.36    0.71
   1   2 -13    2.66    0.60
  -1   2  13    3.97    0.72
   1   2 -13    2.84    0.52
  -1   2  13    3.80    0.85
  -1   2  13    3.34    0.73
   0  -2  13   46.76    1.66
   0  -2  13   44.37    1.67
   0   2  13   47.79    1.85
   0   2  13   45.10    1.74
   0   2 -13   47.49    1.67
   0   2  13   48.52    2.00
   1  -2  13    0.17    0.59
   1  -2  13    0.20    0.56
  -1   2 -13   -0.17    0.49
   1   2  13    0.00    0.61
   1   2  13    0.21    0.64
   1   2  13   -0.25    0.71
   2  -2  13   24.11    1.34
  -2   2 -13   24.58    1.26
   2   2  13   27.12    1.39
   2   2  13   23.79    1.52
   2   2  13   27.38    1.43
   3  -2  13   31.65    1.55
  -3   2 -13   28.82    1.36
   3   2  13   29.00    1.65
   3   2  13   28.54    1.50
   3   2  13   29.85    1.53
   4  -2  13    9.35    1.01
   4   2  13    6.39    1.02
  -4   2 -13    6.94    0.82
   4   2  13    7.63    0.96
   4   2  13    7.08    0.91
   5  -2  13   13.21    1.17
   5   2  13   10.19    1.12
   5   2  13   12.00    1.25
  -5   2 -13    9.77    0.96
   5   2  13   13.13    1.16
   6  -2  13    3.06    0.93
   6   2  13    2.34    0.90
   6   2  13    2.10    0.90
   6   2  13    1.71    1.00
  -6   2 -13    2.36    0.76
   8  -3 -13   13.25    1.23
  -8  -3  13   14.47    1.43
  -8   3  13    9.43    1.29
   7  -3 -13    2.55    0.86
  -7  -3  13    2.62    1.04
   7   3 -13    2.09    0.75
  -7   3  13    2.38    1.06
   6  -3 -13   16.35    1.18
  -6  -3  13   16.06    1.29
   6   3 -13   13.33    1.02
  -5  -3  13    4.74    0.92
   5  -3 -13    4.83    0.84
   5  -3 -13    4.87    0.72
  -5   3  13    4.99    0.87
   5   3 -13    5.72    0.78
  -5   3  13    4.76    1.12
  -5   3  13    4.06    0.97
   4  -3 -13    7.39    0.76
   4  -3 -13    6.18    0.82
  -4  -3  13    7.13    0.93
   4   3 -13    7.46    0.81
  -4   3  13    8.14    0.92
  -4   3  13    6.10    1.08
  -4   3  13    6.64    0.97
  -3  -3  13   13.88    1.05
   3  -3 -13   13.83    0.93
   3  -3 -13   12.01    0.96
   3   3 -13   12.04    0.91
   3   3 -13   12.42    0.97
  -3   3  13   13.63    1.04
  -3   3  13   11.02    1.06
  -3   3  13   12.80    1.23
  -2  -3  13   12.10    0.97
   2  -3 -13   10.67    0.86
  -2   3  13    9.78    1.01
   2   3 -13    9.95    0.82
  -2   3  13   13.47    1.02
  -2   3  13    9.80    1.08
   2   3 -13   11.72    0.95
  -1  -3  13   15.63    1.14
   1   3 -13   15.21    1.02
  -1   3  13   15.25    1.07
  -1   3  13   12.46    1.16
   1   3 -13   13.65    0.96
  -1   3  13   12.76    1.10
   0  -3  13    2.19    0.70
   0   3 -13    1.50    0.60
   0   3  13    2.19    0.76
   0   3  13    1.19    0.71
   0   3  13    1.47    0.79
   1  -3  13   40.67    1.68
  -1   3 -13   38.16    1.58
   1   3  13   37.31    1.72
   1   3  13   39.27    1.69
   1   3  13   38.36    1.79
   2  -3  13    4.95    0.82
   2   3  13    3.56    0.81
   2   3  13    3.04    0.87
  -2   3 -13    4.14    0.71
   2   3  13    4.52    0.83
   3  -3  13   22.14    1.41
  -3   3 -13   25.11    1.33
   3   3  13   22.55    1.45
   3   3  13   22.19    1.56
   3   3  13   22.50    1.47
   4  -3  13   14.27    1.21
   4   3  13   11.87    1.13
   4   3  13    9.13    1.10
  -4   3 -13   12.78    1.05
   4   3  13   10.68    1.17
   5  -3  13    4.27    0.92
   5   3  13    5.12    0.98
  -5   3 -13    5.31    0.85
   5   3  13    5.27    1.03
   5   3  13    5.09    1.03
  -7  -4  13    9.82    1.32
   7  -4 -13    8.47    1.17
   7   4 -13    6.98    0.96
  -7   4  13    7.36    1.28
  -6  -4  13    2.96    1.06
   6  -4 -13    2.27    0.92
   6  -4 -13    2.80    0.77
   6   4 -13    3.95    0.85
  -6   4  13    3.44    1.10
  -6   4  13    2.92    0.97
  -6   4  13    2.48    1.14
   5  -4 -13   10.88    1.09
   5  -4 -13    9.36    0.91
  -5   4  13   11.23    1.09
   5   4 -13   10.23    0.98
  -5   4  13   10.43    1.31
  -5   4  13    9.49    1.19
   5   4 -13   10.42    1.10
   4  -4 -13    4.38    0.73
   4  -4 -13    4.80    0.89
   4   4 -13    4.58    0.87
  -4   4  13    3.32    0.89
  -4   4  13    4.08    1.05
  -4   4  13    3.37    0.94
   4   4 -13    3.90    0.76
   3  -4 -13    5.05    0.76
   3  -4 -13    4.99    0.85
   3   4 -13    3.74    0.82
   3   4 -13    4.15    0.69
  -3   4  13    5.22    0.91
  -3   4  13    4.03    0.95
  -3   4  13    3.48    0.98
   2  -4 -13   17.88    1.25
   2  -4 -13   15.31    1.13
  -2   4  13   16.95    1.20
   2   4 -13   16.76    1.11
   2   4 -13   17.49    1.28
  -2   4  13   16.12    1.29
  -2   4  13   17.59    1.26
   1  -4 -13   13.69    0.99
   1   4 -13   10.58    0.83
  -1   4  13   12.13    1.07
  -1   4  13   12.51    1.13
  -1   4  13   11.18    1.14
   1   4 -13   10.75    1.02
   0  -4  13   23.90    1.38
   0   4  13   25.04    1.58
   0   4 -13   24.34    1.39
   0   4 -13   24.54    1.27
   0   4  13   24.23    1.47
   0   4  13   20.30    1.46
   1  -4  13    1.76    0.74
   1   4  13    1.90    0.84
   1   4  13    1.82    0.84
  -1   4 -13    2.54    0.69
   1   4  13    1.93    0.82
   2  -4  13   41.76    1.81
  -2   4 -13   42.10    1.72
   2   4  13   40.70    1.89
   2   4  13   39.98    1.85
   2   4  13   40.17    1.89
   3  -4  13   13.98    1.19
  -3   4 -13   10.32    0.97
   3   4  13   12.55    1.16
   3   4  13    7.71    1.07
   3   4  13    9.93    1.14
   4  -4  13    3.21    0.86
   4   4  13    4.11    0.98
  -4   4 -13    3.92    0.81
   4   4  13    4.50    1.00
   4   4  13    4.38    0.96
  -5   4 -13   17.83    1.29
   5   4  13   18.67    1.41
   6  -5 -13   21.62    1.49
   6  -5 -13   18.02    1.52
  -6   5  13   19.00    1.62
  -6   5  13   26.38    2.10
   6   5 -13   21.05    1.53
  -6   5  13   23.19    1.55
   5  -5 -13    6.62    0.91
   5  -5 -13    7.71    1.16
  -5   5  13    8.70    1.16
  -5   5  13    6.65    1.22
  -5   5  13    6.83    1.23
   5   5 -13    7.11    0.92
   5   5 -13    6.24    1.11
   4  -5 -13    9.07    0.94
   4  -5 -13    9.29    1.13
   4   5 -13    8.22    1.07
  -4   5  13    8.34    1.24
  -4   5  13    9.38    1.22
   4   5 -13    8.06    0.90
  -4   5  13    9.26    1.14
   3  -5 -13    5.06    0.81
   3  -5 -13    7.24    1.02
  -3   5  13    8.70    1.10
  -3   5  13    4.83    1.07
   3   5 -13    6.42    0.81
   3   5 -13    7.54    1.06
  -3   5  13    6.41    1.11
   2  -5 -13    5.36    0.82
  -2   5  13    6.91    1.05
  -2   5  13    8.52    1.13
   2   5 -13    6.93    0.78
  -2   5  13    6.61    1.07
   2   5 -13    5.95    0.94
   1  -5 -13   11.72    1.01
   1   5 -13   11.66    0.90
  -1   5  13   12.13    1.18
   1   5 -13   12.46    1.15
  -1   5  13   11.47    1.20
  -1   5  13   11.45    1.18
   0  -5 -13    2.61    0.76
   0   5 -13    2.35    0.80
   0   5  13    1.86    0.90
   0   5 -13    2.11    0.61
   0   5  13    2.66    0.91
   0   5  13    2.15    0.95
   1  -5  13   25.62    1.59
  -1   5 -13   23.43    1.42
   1   5  13   22.46    1.59
   1   5  13   22.21    1.51
   1   5  13   25.38    1.60
   2  -5  13    3.99    0.89
  -2   5 -13    3.67    0.85
   2   5  13    3.16    1.01
   2   5  13    3.71    0.95
   2   5  13    4.44    1.02
   3  -5  13    5.70    0.99
   3   5  13    5.54    1.05
   3   5  13    5.87    1.02
  -3   5 -13    7.17    0.94
   3   5  13    5.33    1.13
   3  -6 -13    4.91    1.09
   3  -6 -13    4.76    0.90
  -3   6  13    5.34    1.15
  -3   6  13    5.32    1.16
  -3   6  13    4.23    1.20
   3   6 -13    6.04    1.11
   3   6 -13    5.24    0.86
   2  -6 -13    5.41    0.91
   2   6 -13    5.60    0.83
  -2   6  13    4.73    1.12
  -2   6  13    4.96    1.14
   2   6 -13    5.25    1.04
  -2   6  13    5.56    1.16
   1  -6 -13    2.90    0.84
   1   6 -13    4.19    0.78
   1   6 -13    4.78    0.99
  -1   6  13    4.14    1.12
  -1   6  13    4.05    1.05
  -1   6  13    3.56    1.08
   0  -6 -13   29.81    1.64
   0   6  13   25.51    1.80
   0   6  13   31.53    1.97
   0   6 -13   27.44    1.75
   0   6 -13   28.53    1.43
   0   6  13   26.66    1.76
   1   6  13    0.84    1.03
  -1   6 -13    0.75    0.85
   1   6  13    0.14    0.90
   1   6  13    1.11    1.01
   8   0 -14    0.27    0.77
  -8   0  14    0.99    1.00
   7   0 -14    6.52    0.85
  -7   0  14    6.64    1.09
   6   0 -14   12.22    0.97
  -6   0  14   12.11    1.19
  -5   0  14    2.01    0.86
   5   0 -14    1.14    0.61
  -4   0  14   23.93    1.51
   4   0 -14   23.01    1.19
  -3   0  14   13.65    1.11
  -3   0  14   15.13    1.44
   3   0 -14   15.22    1.01
  -2   0  14   22.07    1.36
   2   0 -14   23.50    1.09
  -2   0  14   19.14    1.24
  -1   0  14   20.23    1.33
  -1   0  14   17.04    1.24
   0   0  14    3.13    0.74
   0   0  14    2.58    0.96
   0   0  14    4.86    0.77
   1   0  14   23.20    1.71
   1   0  14   25.27    1.40
   1   0  14   22.23    1.36
   2   0  14    1.64    0.72
   2   0  14    1.91    0.91
   2   0  14    1.53    0.74
   3   0  14   34.47    2.01
   3   0  14   36.28    1.68
   3   0  14   37.22    1.74
   4   0  14    1.44    0.78
   4   0  14    1.13    0.99
   4   0  14    2.38    0.83
   5   0  14   11.12    1.17
   5   0  14    9.62    1.10
   5   0  14    9.23    1.33
   7  -1 -14    8.44    0.95
  -7  -1  14    8.79    1.18
  -7   1  14    6.82    1.11
   7   1 -14    9.21    0.93
   6  -1 -14    5.88    0.82
  -6  -1  14    5.19    1.02
  -6   1  14    5.08    1.00
   6   1 -14    6.75    0.81
  -5  -1  14   20.06    1.37
   5  -1 -14   23.45    1.27
   5   1 -14   19.62    1.20
  -5   1  14   23.22    1.59
   4  -1 -14    0.35    0.59
  -4  -1  14   -0.02    0.77
  -4   1  14    0.28    0.78
   4   1 -14    0.29    0.55
  -3  -1  14   32.39    1.64
   3  -1 -14   33.77    1.39
   3   1 -14   34.52    1.38
  -3   1  14   32.67    1.50
  -3   1  14   33.72    1.66
  -2  -1  14    0.81    0.61
  -2  -1  14    0.24    0.68
   2  -1 -14    1.50    0.55
  -2   1  14    0.43    0.85
   2   1 -14    0.95    0.52
  -2   1  14    0.64    0.67
  -2   1  14    0.62    0.73
  -1  -1  14   15.13    1.13
  -1  -1  14   15.83    1.07
  -1   1  14   13.53    1.09
  -1   1  14   17.44    1.22
  -1   1  14   14.07    1.30
   0  -1  14   26.31    1.39
   0  -1  14   24.39    1.36
   0   1  14   25.10    1.42
   0   1  14   24.91    1.65
   0   1  14   22.95    1.39
   1  -1  14    0.26    0.68
   1  -1  14   -0.24    0.63
   1   1  14    0.00    0.69
   1   1  14   -0.31    0.67
   1   1  14   -0.43    0.80
   2  -1  14   41.56    1.73
   2  -1  14   43.26    1.80
   2   1  14   43.93    1.85
   2   1  14   41.16    2.11
   2   1  14   46.32    1.84
   3  -1  14    0.10    0.72
   3  -1  14    0.62    0.75
   3   1  14    0.63    0.91
  -3   1 -14    0.19    0.80
   3   1  14    0.73    0.74
   3   1  14    0.55    0.74
   4  -1  14   43.72    1.95
  -4   1 -14   47.11    1.81
   4   1  14   46.96    2.25
   4   1  14   42.84    1.95
   4   1  14   44.45    1.95
   5  -1  14   11.14    1.17
   5   1  14   11.53    1.37
  -5   1 -14   10.47    1.03
   5   1  14   13.77    1.24
   5   1  14   11.97    1.21
   7  -2 -14    4.67    0.91
  -7  -2  14    4.85    1.12
  -7   2  14    3.83    1.11
   7   2 -14    6.13    0.88
   6  -2 -14   17.29    1.20
  -6  -2  14   18.91    1.37
   6   2 -14   18.41    1.24
  -6   2  14   15.76    1.37
   5  -2 -14    1.35    0.70
  -5  -2  14    2.45    0.92
   5   2 -14    2.34    0.68
  -5   2  14    1.54    0.88
  -4  -2  14   21.60    1.52
   4  -2 -14   24.09    1.31
   4   2 -14   21.36    1.20
  -4   2  14   23.30    1.40
  -4   2  14   14.98    1.44
  -4   2  14   17.19    1.30
   3  -2 -14    5.61    0.74
  -3  -2  14    6.07    0.92
   3   2 -14    6.95    0.73
  -3   2  14    6.14    0.93
  -3   2  14    5.17    1.08
  -3   2  14    7.32    0.89
  -2  -2  14   14.27    1.11
   2  -2 -14   15.78    1.45
  -2   2  14   13.57    1.29
  -2   2  14   15.87    1.10
  -2   2  14   13.89    1.16
   2   2 -14   15.22    1.02
  -1  -2  14   15.80    1.11
  -1  -2  14   17.53    1.19
  -1   2  14   16.03    1.19
  -1   2  14   13.39    1.25
  -1   2  14   15.00    1.11
   0  -2  14    4.34    0.77
   0  -2  14    4.95    0.80
   0   2  14    6.27    0.87
   0   2  14    5.97    0.90
   0   2  14    3.93    0.97
   1  -2  14   28.21    1.48
   1   2  14   27.64    1.51
   1   2  14   26.96    1.72
   1   2  14   27.03    1.57
  -1   2 -14   26.48    1.34
   2  -2  14    1.78    0.78
   2   2  14    1.38    0.78
  -2   2 -14    0.90    0.61
   2   2  14    1.73    0.93
   2   2  14    1.27    0.78
   3  -2  14   23.09    1.50
   3   2  14   23.59    1.56
   3   2  14   24.29    1.54
   3   2  14   21.58    1.70
  -3   2 -14   25.86    1.37
   4  -2  14    4.94    0.96
   4   2  14    3.19    1.05
   4   2  14    4.02    0.93
  -4   2 -14    2.48    0.74
   4   2  14    4.57    0.93
   5  -2  14   26.85    1.76
  -5   2 -14   22.29    1.47
   5   2  14   19.99    1.51
   5   2  14   23.80    1.66
   5   2  14   19.97    1.60
  -6  -3  14    2.08    1.04
   6  -3 -14    1.31    0.86
   6   3 -14    1.50    0.76
  -6   3  14    2.26    1.06
  -5  -3  14   14.51    1.27
   5  -3 -14   14.50    1.17
   5  -3 -14   13.67    1.01
   5   3 -14   13.54    1.04
  -5   3  14   12.20    1.28
  -5   3  14   15.74    1.20
  -5   3  14   13.21    1.50
  -4  -3  14    0.50    0.87
   4  -3 -14    0.19    0.72
   4  -3 -14    0.44    0.65
  -4   3  14    0.34    0.87
  -4   3  14    0.08    1.04
  -4   3  14    0.21    0.80
   4   3 -14    0.20    0.64
  -3  -3  14   11.76    1.09
   3  -3 -14   10.93    1.00
  -3   3  14   11.99    1.06
  -3   3  14    9.98    1.23
  -3   3  14   11.13    1.15
   3   3 -14    9.61    0.89
  -2   3  14    5.10    0.95
  -2   3  14    4.49    1.07
   2   3 -14    6.34    0.77
  -2   3  14    7.41    0.94
  -1   3  14   13.91    1.11
   1   3 -14   11.43    0.98
   1   3 -14   12.04    0.95
  -1   3  14   10.82    1.20
  -1   3  14   11.61    1.10
   0  -3  14   28.76    1.49
   0   3  14   27.32    1.63
   0   3  14   27.98    1.75
   0   3  14   30.14    1.60
   0   3 -14   27.12    1.45
   1  -3  14    9.64    1.02
   1   3  14    7.86    1.06
   1   3  14    8.71    1.02
  -1   3 -14    9.16    0.92
   1   3  14    8.54    1.12
   2  -3  14   11.67    1.12
   2   3  14   11.27    1.24
   2   3  14   13.07    1.17
  -2   3 -14   11.04    0.98
   2   3  14   11.29    1.16
   3  -3  14    0.76    0.78
   3   3  14    1.26    0.88
   3   3  14    1.17    0.87
  -3   3 -14    1.19    0.67
   3   3  14    1.02    0.92
   4  -3  14   33.65    1.81
   4   3  14   37.87    1.92
   4   3  14   35.67    1.90
  -4   3 -14   32.20    1.69
   4   3  14   33.93    1.96
   5  -4 -14    2.08    0.93
   5  -4 -14    3.22    0.82
  -5   4  14    2.37    1.01
  -5   4  14    1.73    1.23
   5   4 -14    1.72    0.81
  -5   4  14    0.94    1.07
   4  -4 -14   28.54    1.50
   4  -4 -14   30.81    1.73
   4   4 -14   31.03    1.61
  -4   4  14   27.94    2.03
  -4   4  14   29.65    1.74
   3  -4 -14    0.32    0.68
   3  -4 -14    0.95    0.83
  -3   4  14    0.52    0.87
   3   4 -14    0.25    0.68
  -3   4  14    0.87    1.01
  -3   4  14   -0.10    0.91
   3   4 -14    0.80    0.79
  -2   4  14    9.05    1.08
  -2   4  14    8.61    1.13
  -2   4  14    7.91    1.18
   2   4 -14   10.34    0.94
   2   4 -14    9.54    1.05
  -1   4  14   14.67    1.28
  -1   4  14   16.25    1.41
   1   4 -14   16.87    1.21
  -1   4  14   18.55    1.31
   1   4 -14   16.92    1.20
   0   4  14    2.30    0.96
   0   4  14    4.84    0.99
   0   4 -14    4.68    0.82
   0   4  14    3.56    0.98
   1  -4  14    9.51    1.07
   1   4  14    8.61    1.16
   1   4  14   11.22    1.23
  -1   4 -14   10.26    1.04
   1   4  14   12.43    1.20
   2  -4  14    0.85    0.80
   2   4  14    0.38    0.87
   2   4  14    0.41    0.92
   2   4  14    0.77    0.88
  -2   4 -14    0.36    0.67
   3  -4  14   19.02    1.40
   3   4  14   16.84    1.43
  -3   4 -14   18.46    1.35
   3   4  14   18.86    1.48
   3   4  14   20.08    1.44
   4  -5 -14    3.87    1.11
   4  -5 -14    3.55    0.87
  -4   5  14    4.08    1.10
   4   5 -14    2.21    1.00
  -4   5  14    4.35    1.20
  -4   5  14    2.46    1.20
   4   5 -14    3.08    0.86
   3  -5 -14   13.92    1.14
   3  -5 -14   15.54    2.07
   3   5 -14   12.64    1.22
  -3   5  14   13.42    1.32
   3   5 -14   13.03    1.08
  -3   5  14   11.97    1.41
  -3   5  14   12.31    1.38
   2  -5 -14    5.59    0.90
   2   5 -14    7.22    0.89
  -2   5  14    8.17    1.21
   2   5 -14    7.37    1.06
  -2   5  14    6.50    1.18
  -2   5  14    8.55    1.19
  -1   5  14    4.82    1.13
   1   5 -14    6.06    0.85
  -1   5  14    5.12    1.10
   1   5 -14    3.39    0.89
  -1   5  14    4.39    1.06
   0   5  14   11.18    1.29
   0   5  14   16.11    1.35
   0   5 -14   12.76    1.18
   0   5  14   12.92    1.32
  -1   5 -14    1.45    0.82
   1   5  14    1.67    1.05
   1   5  14    1.13    0.99
   1   5  14    1.61    1.03
   6   0 -15    1.01    0.72
  -6   0  15    1.23    1.03
   5   0 -15    4.40    0.77
  -5   0  15    3.18    1.00
   4   0 -15    4.88    0.75
  -4   0  15    5.59    1.02
   3   0 -15   37.44    1.51
  -3   0  15   37.20    1.85
  -2   0  15    0.23    0.73
  -2   0  15   -0.09    0.78
  -1   0  15   10.41    0.99
  -1   0  15    7.98    1.01
   0   0  15    6.00    0.95
   0   0  15    7.29    0.95
   1   0  15   11.59    1.06
   1   0  15   13.60    1.14
   2   0  15   14.11    1.20
   2   0  15   14.05    1.21
   3   0  15    0.50    0.85
   3   0  15    1.02    0.87
   4   0  15   11.87    1.21
   4   0  15   11.81    1.23
   6  -1 -15    1.51    0.78
  -6  -1  15    1.85    1.04
  -6   1  15    1.39    1.00
   6   1 -15    1.50    0.74
   5  -1 -15    2.21    0.75
  -5  -1  15    1.00    0.95
  -5   1  15    1.52    0.98
   5   1 -15    1.90    0.69
  -4  -1  15    6.26    1.06
   4  -1 -15    6.61    0.84
  -4   1  15    7.09    1.10
   4   1 -15    6.48    0.78
  -3  -1  15    0.36    0.85
   3  -1 -15    0.52    0.65
   3   1 -15    1.08    0.61
  -3   1  15    1.20    0.78
  -3   1  15    0.44    0.83
  -2  -1  15   18.65    1.30
  -2   1  15   20.23    1.38
  -2   1  15   19.36    1.37
  -1  -1  15   11.22    1.03
  -1  -1  15   10.40    1.06
  -1   1  15    9.14    1.07
  -1   1  15   11.88    1.05
  -1   1  15   10.12    1.31
   0  -1  15   16.30    1.22
   0  -1  15   15.83    1.19
   0   1  15   13.00    1.17
   0   1  15   13.13    1.12
   0   1  15   13.66    1.38
   1  -1  15   10.55    1.06
   1  -1  15   10.18    1.05
   1   1  15   10.65    1.09
   1   1  15   10.92    1.12
   1   1  15    7.93    1.25
   2  -1  15    5.48    0.95
   2  -1  15    3.37    0.88
   2   1  15    4.12    0.96
   2   1  15    2.68    1.08
   2   1  15    3.68    0.91
   3  -1  15   19.23    1.39
   3   1  15   10.90    1.40
   3   1  15   14.27    1.26
   3   1  15   15.79    1.28
   6  -2 -15    3.68    0.91
  -6  -2  15    3.24    1.10
   6   2 -15    1.96    0.80
  -6   2  15    2.35    1.08
  -5  -2  15    3.62    1.05
   5  -2 -15    3.29    0.85
  -5   2  15    2.96    1.02
   5   2 -15    2.11    0.72
  -4  -2  15    0.38    0.92
   4  -2 -15    0.96    0.75
  -4   2  15    0.36    0.90
   4   2 -15    0.21    0.64
  -3  -2  15   25.86    1.71
   3  -2 -15   26.93    1.51
  -3   2  15   28.09    1.64
  -3   2  15   25.54    1.69
   3   2 -15   26.97    1.35
  -2  -2  15    3.42    0.94
  -2   2  15    2.67    0.91
  -2   2  15    3.03    1.09
  -2   2  15    3.75    0.88
   2   2 -15    3.26    0.80
  -1  -2  15   11.18    1.10
  -1   2  15   10.23    1.07
  -1   2  15    8.46    1.07
  -1   2  15    8.75    1.26
   0  -2  15    6.81    0.95
   0   2  15    6.10    1.02
   0   2  15    6.09    1.19
   0   2  15    5.80    0.96
   1  -2  15    8.25    1.02
   1   2  15    5.36    1.15
   1   2  15    6.50    1.00
   1   2  15    6.96    1.08
   2  -2  15   15.94    1.26
   2   2  15   17.06    1.27
   2   2  15   12.65    1.39
   2   2  15   13.63    1.28
   3  -2  15    0.62    0.85
   3   2  15   -0.14    0.89
   3   2  15   -0.11    0.85
   3   2  15    0.30    1.05
  -5  -3  15    1.16    1.05
   5  -3 -15    1.72    0.89
  -5   3  15    2.27    1.10
   5   3 -15    1.82    0.80
   4  -3 -15   14.03    1.21
  -4  -3  15   17.62    1.72
   4   3 -15   13.74    1.05
  -4   3  15   16.07    1.24
  -4   3  15   11.92    1.47
  -4   3  15   13.89    1.37
  -3   3  15    6.43    1.06
  -3   3  15    6.33    1.08
   3   3 -15    7.83    0.89
  -2   3  15   18.27    1.42
   2   3 -15   17.13    1.10
  -2   3  15   14.14    1.47
  -2   3  15   18.42    1.31
  -1   3  15    3.26    0.95
  -1   3  15    2.12    0.94
  -1   3  15    3.33    1.11
   0   3  15    6.61    1.04
   0   3  15    7.97    1.13
   0   3  15    4.92    1.16
   1  -3  15    7.07    1.03
   1   3  15    7.50    1.09
   1   3  15    8.47    1.16
   1   3  15    7.99    1.23
  -1   3 -15    5.46    0.86
   2  -3  15    1.72    0.90
  -2   3 -15    0.97    0.74
   2   3  15    0.67    0.91
   2   3  15    0.97    1.05
   2   3  15    0.85    0.95
   3   4 -15   11.68    1.09
  -3   4  15   10.85    1.22
  -3   4  15    8.97    1.36
  -3   4  15   10.42    1.30
  -2   4  15    4.41    1.23
   2   4 -15    4.84    0.90
  -2   4  15    5.74    1.17
  -2   4  15    4.61    1.04
   1   4 -15   11.46    1.12
  -1   4  15   10.34    1.23
  -1   4  15    9.98    1.34
  -1   4  15   13.65    1.38
   0   4  15    7.49    1.15
   0   4 -15    8.36    1.03
   0   4  15    6.02    1.25
   0   4  15    7.33    1.21
  -4   0  16    8.42    1.25
   4   0 -16    7.96    0.92
  -3   0  16    0.42    0.99
  -2   0  16    6.48    1.12
  -1   0  16    1.43    0.87
  -1   0  16    1.10    0.91
   0   0  16    7.21    1.03
   0   0  16    7.43    1.11
   1   0  16    7.77    1.09
   1   0  16    9.98    1.18
  -4  -1  16    1.90    1.08
   4  -1 -16    1.06    0.78
   4   1 -16    1.97    0.77
  -4   1  16    1.22    1.03
  -3  -1  16    9.63    1.24
  -3   1  16    8.91    1.20
  -2  -1  16    2.64    1.03
  -2   1  16    1.41    0.90
  -2   1  16    2.90    0.99
  -1  -1  16   18.25    1.38
  -1  -1  16   16.58    1.42
  -1   1  16   19.56    1.46
  -1   1  16   19.19    1.34
   0  -1  16    2.32    0.97
   0  -1  16    1.73    0.89
   0   1  16    1.28    0.94
   0   1  16    2.00    0.93
   1  -1  16   17.52    1.34
   1  -1  16   19.80    1.43
   1   1  16   15.69    1.37
   1   1  16   14.70    1.26
   1   1  16   14.25    1.59
  -3  -2  16    4.60    1.13
  -3   2  16    5.33    1.05
   3   2 -16    6.27    0.91
  -3   2  16    5.53    1.15
  -2  -2  16    5.11    1.11
  -2   2  16    4.59    1.09
  -2   2  16    6.00    1.05
  -2   2  16    5.33    1.35
  -1   2  16    0.55    0.96
  -1   2  16    0.97    0.91
  -1   2  16    0.69    1.19
   0  -2  16   21.63    1.61
   0   2  16   17.88    1.66
   0   2  16   23.11    1.49
   0   2  16   21.09    1.52
   0   0   0    0.00    0.00
;
_shelx_hkl_checksum              64124
_olex2_submission_special_instructions 'No special instructions were received'
loop_
_space_group_symop_operation_xyz
'x, y, z'
'-x, y+1/2, -z'
loop_
_atom_site_label
_atom_site_type_symbol
_atom_site_fract_x
_atom_site_fract_y
_atom_site_fract_z
_atom_site_U_iso_or_equiv
_atom_site_adp_type
_atom_site_occupancy
_atom_site_site_symmetry_order
_atom_site_calc_flag
_atom_site_refinement_flags_posn
I1 I 0.78733(2) 0.03755(3) 0.19096(2) 0.02266(6) Uani 1 1 d .
O1 O -0.0212(2) 0.5934(3) 0.09458(17) 0.0192(4) Uani 1 1 d .
O2 O 0.0961(2) 0.6411(2) 0.32490(16) 0.0109(4) Uani 1 1 d .
O3 O 0.1499(2) 1.0501(4) 0.27867(16) 0.0192(4) Uani 1 1 d .
O4 O 0.5498(2) 0.7502(3) 0.46441(18) 0.0193(4) Uani 1 1 d .
N1 N 0.1481(3) 0.3693(3) 0.0838(2) 0.0125(4) Uani 1 1 d .
H1 H 0.087880 0.313479 0.030684 0.015 Uiso 1 1 calc R
N2 N 0.3561(3) 0.9332(3) 0.3866(2) 0.0144(5) Uani 1 1 d .
H2 H 0.361988 1.016627 0.441339 0.017 Uiso 1 1 calc R
C1 C 0.5724(3) 0.1428(4) 0.1561(2) 0.0125(5) Uani 1 1 d .
C2 C 0.4796(3) 0.0842(3) 0.0595(2) 0.0133(5) Uani 1 1 d .
H2A H 0.512725 -0.006037 0.009654 0.016 Uiso 1 1 calc R
C3 C 0.3385(3) 0.1593(4) 0.0373(2) 0.0121(5) Uani 1 1 d .
H3 H 0.274540 0.119226 -0.027693 0.015 Uiso 1 1 calc R
C4 C 0.2903(3) 0.2932(3) 0.1099(2) 0.0110(5) Uani 1 1 d .
C5 C 0.0959(3) 0.5205(5) 0.1329(2) 0.0130(5) Uani 1 1 d .
C6 C 0.1873(3) 0.5987(4) 0.2399(2) 0.0110(5) Uani 1 1 d .
C7 C 0.0276(3) 0.4840(3) 0.3756(2) 0.0126(5) Uani 1 1 d .
H7 H 0.058188 0.366959 0.339986 0.015 Uiso 1 1 calc R
C8 C -0.1390(3) 0.5060(4) 0.3536(3) 0.0183(6) Uani 1 1 d .
H8A H -0.168949 0.617525 0.392095 0.027 Uiso 1 1 calc GR
H8B H -0.187067 0.398193 0.383488 0.027 Uiso 1 1 calc GR
H8C H -0.168723 0.516516 0.270995 0.027 Uiso 1 1 calc GR
C9 C 0.0816(3) 0.4842(4) 0.5028(2) 0.0162(5) Uani 1 1 d .
H9A H 0.188585 0.461693 0.513767 0.024 Uiso 1 1 calc GR
H9B H 0.030794 0.386803 0.540920 0.024 Uiso 1 1 calc GR
H9C H 0.060382 0.604114 0.535742 0.024 Uiso 1 1 calc GR
C10 C 0.2759(3) 0.7762(4) 0.2162(2) 0.0124(5) Uani 1 1 d .
H10 H 0.277134 0.807462 0.133387 0.015 Uiso 1 1 calc R
C11 C 0.2472(3) 0.9373(4) 0.2927(2) 0.0149(5) Uani 1 1 d .
C12 C 0.4535(3) 0.7880(4) 0.3864(2) 0.0136(5) Uani 1 1 d .
C13 C 0.4187(3) 0.6839(4) 0.2744(2) 0.0127(5) Uani 1 1 d .
H13 H 0.501979 0.678474 0.225893 0.015 Uiso 1 1 calc R
C14 C 0.3347(3) 0.4984(3) 0.2839(2) 0.0107(5) Uani 1 1 d .
H14 H 0.336788 0.455266 0.364949 0.013 Uiso 1 1 calc R
C15 C 0.3823(3) 0.3510(3) 0.2059(2) 0.0100(5) Uani 1 1 d .
C16 C 0.5236(3) 0.2740(4) 0.2285(2) 0.0125(5) Uani 1 1 d .
H16 H 0.586802 0.312257 0.294257 0.015 Uiso 1 1 calc R
loop_
_atom_site_aniso_label
_atom_site_aniso_U_11
_atom_site_aniso_U_22
_atom_site_aniso_U_33
_atom_site_aniso_U_23
_atom_site_aniso_U_13
_atom_site_aniso_U_12
I1 0.01679(9) 0.03107(10) 0.01846(9) -0.00919(9) -0.00507(6) 0.01214(9)
O1 0.0138(10) 0.0265(11) 0.0163(9) 0.0004(7) -0.0025(7) 0.0073(7)
O2 0.0108(9) 0.0097(8) 0.0126(9) 0.0002(7) 0.0033(7) 0.0000(7)
O3 0.0167(8) 0.0140(9) 0.0272(9) 0.0028(11) 0.0043(7) 0.0027(11)
O4 0.0192(10) 0.0161(9) 0.0208(11) -0.0016(8) -0.0063(8) -0.0010(8)
N1 0.0089(11) 0.0171(10) 0.0106(11) -0.0015(8) -0.0028(8) -0.0006(8)
N2 0.0167(12) 0.0105(10) 0.0160(12) -0.0021(8) 0.0021(9) 0.0002(8)
C1 0.0094(12) 0.0139(12) 0.0139(12) -0.0003(9) -0.0004(9) 0.0016(9)
C2 0.0140(12) 0.0133(13) 0.0124(12) -0.0014(8) 0.0007(9) -0.0004(9)
C3 0.0113(12) 0.0139(11) 0.0109(12) 0.0004(9) -0.0001(9) -0.0012(9)
C4 0.0095(12) 0.0120(11) 0.0112(12) 0.0038(9) 0.0005(9) -0.0008(9)
C5 0.0099(10) 0.0175(13) 0.0115(10) 0.0032(12) 0.0003(8) -0.0025(12)
C6 0.0091(11) 0.0123(10) 0.0116(11) 0.0027(8) 0.0011(9) 0.0006(8)
C7 0.0113(12) 0.0099(11) 0.0168(13) 0.0000(8) 0.0034(10) 0.0000(8)
C8 0.0119(12) 0.0197(18) 0.0237(13) -0.0004(10) 0.0035(10) -0.0032(10)
C9 0.0179(13) 0.0173(12) 0.0139(13) 0.0025(9) 0.0033(10) -0.0001(9)
C10 0.0122(13) 0.0111(11) 0.0137(12) 0.0029(9) 0.0006(9) 0.0003(9)
C11 0.0150(13) 0.0121(12) 0.0184(14) 0.0043(10) 0.0048(10) -0.0023(10)
C12 0.0134(12) 0.0109(11) 0.0166(13) -0.0009(9) 0.0017(10) -0.0023(9)
C13 0.0088(12) 0.0131(11) 0.0167(14) -0.0016(10) 0.0029(10) 0.0007(9)
C14 0.0111(11) 0.0117(14) 0.0092(11) -0.0009(8) 0.0003(8) -0.0004(8)
C15 0.0111(12) 0.0092(10) 0.0096(12) 0.0002(9) 0.0003(9) 0.0018(9)
C16 0.0119(12) 0.0135(11) 0.0117(12) -0.0001(9) -0.0005(9) -0.0003(9)
loop_
_atom_type_symbol
_atom_type_description
_atom_type_scat_dispersion_real
_atom_type_scat_dispersion_imag
_atom_type_scat_source
C C 0.0033 0.0016 'International Tables Vol C Tables 4.2.6.8 and 6.1.1.4'
H H 0.0000 0.0000 'International Tables Vol C Tables 4.2.6.8 and 6.1.1.4'
I I -0.4742 1.8119 'International Tables Vol C Tables 4.2.6.8 and 6.1.1.4'
N N 0.0061 0.0033 'International Tables Vol C Tables 4.2.6.8 and 6.1.1.4'
O O 0.0106 0.0060 'International Tables Vol C Tables 4.2.6.8 and 6.1.1.4'
loop_
_geom_angle_atom_site_label_1
_geom_angle_atom_site_label_2
_geom_angle_atom_site_label_3
_geom_angle
C6 O2 C7 115.81(19)
C4 N1 H1 117.1
C5 N1 H1 117.1
C5 N1 C4 125.8(2)
C11 N2 H2 122.8
C12 N2 H2 122.8
C12 N2 C11 114.4(2)
C2 C1 I1 120.66(19)
C16 C1 I1 119.24(19)
C16 C1 C2 120.1(2)
C1 C2 H2A 120.3
C3 C2 C1 119.4(2)
C3 C2 H2A 120.3
C2 C3 H3 119.8
C2 C3 C4 120.4(2)
C4 C3 H3 119.8
C3 C4 N1 119.0(2)
C15 C4 N1 120.7(2)
C15 C4 C3 120.2(2)
O1 C5 N1 121.7(2)
O1 C5 C6 120.5(3)
N1 C5 C6 117.8(2)
O2 C6 C5 110.8(2)
O2 C6 C10 107.8(2)
O2 C6 C14 115.0(2)
C5 C6 C10 113.6(2)
C5 C6 C14 117.6(2)
C14 C6 C10 90.09(19)
O2 C7 H7 109.8
O2 C7 C8 108.3(2)
O2 C7 C9 107.3(2)
C8 C7 H7 109.8
C8 C7 C9 111.8(2)
C9 C7 H7 109.8
C7 C8 H8A 109.5
C7 C8 H8B 109.5
C7 C8 H8C 109.5
H8A C8 H8B 109.5
H8A C8 H8C 109.5
H8B C8 H8C 109.5
C7 C9 H9A 109.5
C7 C9 H9B 109.5
C7 C9 H9C 109.5
H9A C9 H9B 109.5
H9A C9 H9C 109.5
H9B C9 H9C 109.5
C6 C10 H10 115.1
C11 C10 C6 113.7(2)
C11 C10 H10 115.1
C11 C10 C13 105.3(2)
C13 C10 C6 89.36(19)
C13 C10 H10 115.1
O3 C11 N2 124.5(3)
O3 C11 C10 128.1(3)
N2 C11 C10 107.3(2)
O4 C12 N2 125.1(3)
O4 C12 C13 126.7(3)
N2 C12 C13 108.1(2)
C10 C13 H13 114.7
C10 C13 C14 90.7(2)
C12 C13 C10 104.4(2)
C12 C13 H13 114.7
C12 C13 C14 115.0(2)
C14 C13 H13 114.7
C6 C14 H14 112.5
C13 C14 C6 89.07(18)
C13 C14 H14 112.5
C15 C14 C6 115.2(2)
C15 C14 C13 113.0(2)
C15 C14 H14 112.5
C4 C15 C14 121.3(2)
C4 C15 C16 119.2(2)
C16 C15 C14 119.4(2)
C1 C16 C15 120.7(2)
C1 C16 H16 119.6
C15 C16 H16 119.6
loop_
_geom_bond_atom_site_label_1
_geom_bond_atom_site_label_2
_geom_bond_distance
I1 C1 2.095(3)
O1 C5 1.227(3)
O2 C6 1.403(3)
O2 C7 1.458(3)
O3 C11 1.202(4)
O4 C12 1.223(3)
N1 H1 0.8800
N1 C4 1.406(3)
N1 C5 1.350(4)
N2 H2 0.8800
N2 C11 1.395(4)
N2 C12 1.376(3)
C1 C2 1.399(4)
C1 C16 1.383(4)
C2 H2A 0.9500
C2 C3 1.391(4)
C3 H3 0.9500
C3 C4 1.396(4)
C4 C15 1.389(4)
C5 C6 1.533(4)
C6 C10 1.560(4)
C6 C14 1.560(4)
C7 H7 1.0000
C7 C8 1.516(4)
C7 C9 1.518(4)
C8 H8A 0.9800
C8 H8B 0.9800
C8 H8C 0.9800
C9 H9A 0.9800
C9 H9B 0.9800
C9 H9C 0.9800
C10 H10 1.0000
C10 C11 1.514(4)
C10 C13 1.548(4)
C12 C13 1.518(4)
C13 H13 1.0000
C13 C14 1.557(4)
C14 H14 1.0000
C14 C15 1.504(3)
C15 C16 1.398(4)
C16 H16 0.9500
loop_
_geom_hbond_atom_site_label_D
_geom_hbond_atom_site_label_H
_geom_hbond_atom_site_label_A
_geom_hbond_distance_DH
_geom_hbond_distance_HA
_geom_hbond_distance_DA
_geom_hbond_angle_DHA
_geom_hbond_site_symmetry_A
_geom_hbond_publ_flag
N1 H1 O1 0.88 2.21 3.027(3) 154.9 2_545 yes
N2 H2 O4 0.88 2.13 2.955(3) 156.1 2_656 yes
loop_
_geom_torsion_atom_site_label_1
_geom_torsion_atom_site_label_2
_geom_torsion_atom_site_label_3
_geom_torsion_atom_site_label_4
_geom_torsion
I1 C1 C2 C3 -178.7(2)
I1 C1 C16 C15 178.1(2)
O1 C5 C6 O2 44.7(3)
O1 C5 C6 C10 -76.9(3)
O1 C5 C6 C14 179.8(2)
O2 C6 C10 C11 3.0(3)
O2 C6 C10 C13 109.5(2)
O2 C6 C14 C13 -103.0(2)
O2 C6 C14 C15 141.8(2)
O4 C12 C13 C10 172.9(3)
O4 C12 C13 C14 75.2(4)
N1 C4 C15 C14 -1.0(4)
N1 C4 C15 C16 -179.2(2)
N1 C5 C6 O2 -134.7(2)
N1 C5 C6 C10 103.7(3)
N1 C5 C6 C14 0.3(3)
N2 C12 C13 C10 -6.3(3)
N2 C12 C13 C14 -104.0(3)
C1 C2 C3 C4 0.6(4)
C2 C1 C16 C15 -0.6(4)
C2 C3 C4 N1 178.7(2)
C2 C3 C4 C15 -0.8(4)
C3 C4 C15 C14 178.5(2)
C3 C4 C15 C16 0.2(4)
C4 N1 C5 O1 169.5(3)
C4 N1 C5 C6 -11.0(4)
C4 C15 C16 C1 0.5(4)
C5 N1 C4 C3 -167.6(3)
C5 N1 C4 C15 11.8(4)
C5 C6 C10 C11 126.3(2)
C5 C6 C10 C13 -127.3(2)
C5 C6 C14 C13 123.7(2)
C5 C6 C14 C15 8.6(3)
C6 O2 C7 C8 -119.9(2)
C6 O2 C7 C9 119.3(2)
C6 C10 C11 O3 -86.0(4)
C6 C10 C11 N2 93.7(3)
C6 C10 C13 C12 -109.2(2)
C6 C10 C13 C14 6.8(2)
C6 C14 C15 C4 -8.4(3)
C6 C14 C15 C16 169.9(2)
C7 O2 C6 C5 67.3(3)
C7 O2 C6 C10 -167.8(2)
C7 O2 C6 C14 -69.1(3)
C10 C6 C14 C13 6.8(2)
C10 C6 C14 C15 -108.3(2)
C10 C13 C14 C6 -6.9(2)
C10 C13 C14 C15 110.3(2)
C11 N2 C12 O4 -174.0(3)
C11 N2 C12 C13 5.2(3)
C11 C10 C13 C12 5.2(3)
C11 C10 C13 C14 121.3(2)
C12 N2 C11 O3 178.1(3)
C12 N2 C11 C10 -1.7(3)
C12 C13 C14 C6 99.4(2)
C12 C13 C14 C15 -143.5(2)
C13 C10 C11 O3 177.8(3)
C13 C10 C11 N2 -2.5(3)
C13 C14 C15 C4 -108.8(3)
C13 C14 C15 C16 69.4(3)
C14 C6 C10 C11 -113.3(2)
C14 C6 C10 C13 -6.8(2)
C14 C15 C16 C1 -177.8(2)
C16 C1 C2 C3 0.1(4)
