#------------------------------------------------------------------------------
#$Date: 2019-11-03 12:33:01 +0200 (Sun, 03 Nov 2019) $
#$Revision: 221398 $
#$URL: file:///home/coder/svn-repositories/cod/cif/4/12/82/4128276.cif $
#------------------------------------------------------------------------------
#
# This file is available in the Crystallography Open Database (COD),
# http://www.crystallography.net/
#
# All data on this site have been placed in the public domain by the
# contributors.
#
data_4128276
loop_
_publ_author_name
'Zhang, Juner'
'Huang, Xiongyi'
'Zhang, Ruijie K.'
'Arnold, Frances H.'
_publ_section_title
;
 Enantiodivergent \a-Amino C-H Fluoroalkylation Catalyzed by Engineered
 Cytochrome P450s.
;
_journal_issue                   25
_journal_name_full               'Journal of the American Chemical Society'
_journal_page_first              9798
_journal_page_last               9802
_journal_paper_doi               10.1021/jacs.9b04344
_journal_volume                  141
_journal_year                    2019
_chemical_absolute_configuration ad
_chemical_formula_moiety         'C14 H16 F5 N O'
_chemical_formula_sum            'C14 H16 F5 N O'
_chemical_formula_weight         309.28
_space_group_crystal_system      monoclinic
_space_group_IT_number           4
_space_group_name_Hall           'P 2yb'
_space_group_name_H-M_alt        'P 1 21 1'
_symmetry_space_group_name_Hall  'P 2yb'
_symmetry_space_group_name_H-M   'P 1 21 1'
_atom_sites_solution_hydrogens   geom
_audit_creation_date             2019-03-30
_audit_creation_method
;
Olex2 1.2
(compiled 2018.05.29 svn.r3508 for OlexSys, GUI svn.r5506),
 SHELXL-2018/3, and manual edit
;
_cell_angle_alpha                90
_cell_angle_beta                 98.627(7)
_cell_angle_gamma                90
_cell_formula_units_Z            2
_cell_length_a                   8.7849(11)
_cell_length_b                   5.4108(8)
_cell_length_c                   14.8752(19)
_cell_measurement_reflns_used    9848
_cell_measurement_temperature    100
_cell_measurement_theta_max      79.05
_cell_measurement_theta_min      3.00
_cell_volume                     699.07(16)
_computing_cell_refinement       'SAINT V8.38A (Bruker-AXS, 2016)'
_computing_data_collection
'BIS V6.2.9/2018-03-16 & APEX3 v2018.7-2 (Bruker-AXS, 2018)'
_computing_data_reduction        'SAINT V8.38A (Bruker-AXS, 2016)'
_computing_molecular_graphics    'DIAMOND 3 (Crystal Impact, 1999)'
_computing_publication_material  'Olex2 (Dolomanov et al., 2009)'
_computing_structure_refinement  'SHELXL-2018/3 (Sheldrick, 2015)'
_computing_structure_solution    'SHELXT-2014/5 (Sheldrick, 2013)'
_diffrn_ambient_temperature      100
_diffrn_detector                 'CPAD Area Detector'
_diffrn_detector_area_resol_mean 7.69
_diffrn_detector_type            'Bruker PHOTON II'
_diffrn_measured_fraction_theta_full 0.985
_diffrn_measured_fraction_theta_max 0.967
_diffrn_measurement_device       '\k-geometry diffractometer'
_diffrn_measurement_device_type  'Bruker APEX-II CCD'
_diffrn_measurement_method       '\f and \w scans'
_diffrn_radiation_monochromator  'multilayer mirrors'
_diffrn_radiation_type           CuK\a
_diffrn_radiation_wavelength     1.54178
_diffrn_reflns_av_R_equivalents  0.0414
_diffrn_reflns_av_unetI/netI     0.0219
_diffrn_reflns_Laue_measured_fraction_full 0.985
_diffrn_reflns_Laue_measured_fraction_max 0.967
_diffrn_reflns_limit_h_max       11
_diffrn_reflns_limit_h_min       -10
_diffrn_reflns_limit_k_max       6
_diffrn_reflns_limit_k_min       -6
_diffrn_reflns_limit_l_max       18
_diffrn_reflns_limit_l_min       -18
_diffrn_reflns_number            22266
_diffrn_reflns_point_group_measured_fraction_full 0.979
_diffrn_reflns_point_group_measured_fraction_max 0.936
_diffrn_reflns_theta_full        67.679
_diffrn_reflns_theta_max         79.309
_diffrn_reflns_theta_min         3.005
_diffrn_source                   'microfocus sealed tube'
_diffrn_source_current           1
_diffrn_source_power             0.05
_diffrn_source_type              'Incoatec I\mS HB'
_diffrn_source_voltage           50
_diffrn_standards_number         0
_exptl_absorpt_coefficient_mu    1.212
_exptl_absorpt_correction_T_max  1.0000
_exptl_absorpt_correction_T_min  0.6450
_exptl_absorpt_correction_type   multi-scan
_exptl_absorpt_process_details
;
SADABS-2016/2 (Bruker,2016/2) was used for absorption correction.
wR2(int) was 0.1210 before and 0.0849 after correction.
The Ratio of minimum to maximum transmission is 0.6450.
The \l/2 correction factor is Not present.
;
_exptl_crystal_colour            colourless
_exptl_crystal_density_diffrn    1.469
_exptl_crystal_description       block
_exptl_crystal_F_000             320
_exptl_crystal_size_max          0.24
_exptl_crystal_size_mid          0.23
_exptl_crystal_size_min          0.12
_refine_diff_density_max         0.213
_refine_diff_density_min         -0.137
_refine_diff_density_rms         0.032
_refine_ls_abs_structure_details
;
 Flack x determined using 1190 quotients [(I+)-(I-)]/[(I+)+(I-)]
 (Parsons, Flack and Wagner, Acta Cryst. B69 (2013) 249-259).
;
_refine_ls_abs_structure_Flack   0.15(4)
_refine_ls_extinction_coef       0.0038(9)
_refine_ls_extinction_expression Fc^*^=kFc[1+0.001xFc^2^\l^3^/sin(2\q)]^-1/4^
_refine_ls_extinction_method     'SHELXL-2018/3 (Sheldrick 2018)'
_refine_ls_goodness_of_fit_ref   1.046
_refine_ls_hydrogen_treatment    constr
_refine_ls_matrix_type           full
_refine_ls_number_parameters     192
_refine_ls_number_reflns         2842
_refine_ls_number_restraints     1
_refine_ls_restrained_S_all      1.046
_refine_ls_R_factor_all          0.0279
_refine_ls_R_factor_gt           0.0276
_refine_ls_shift/su_max          0.000
_refine_ls_shift/su_mean         0.000
_refine_ls_structure_factor_coef Fsqd
_refine_ls_weighting_details
'w=1/[\s^2^(Fo^2^)+(0.0283P)^2^+0.2093P] where P=(Fo^2^+2Fc^2^)/3'
_refine_ls_weighting_scheme      calc
_refine_ls_wR_factor_gt          0.0694
_refine_ls_wR_factor_ref         0.0696
_reflns_Friedel_coverage         0.748
_reflns_Friedel_fraction_full    0.972
_reflns_Friedel_fraction_max     0.899
_reflns_number_gt                2809
_reflns_number_total             2842
_reflns_threshold_expression     'I > 2\s(I)'
_cod_data_source_file            ja9b04344_si_003.cif
_cod_data_source_block           v18651
_cod_database_code               4128276
_shelx_shelxl_version_number     2018/3
_shelx_space_group_comment
;
The symmetry employed for this shelxl refinement is uniquely defined
by the following loop, which should always be used as a source of
symmetry information in preference to the above space-group names.
They are only intended as comments.
;
_shelx_estimated_absorpt_t_max   0.868
_shelx_estimated_absorpt_t_min   0.760
_refine_ls_abs_structure_hooft   0.17(3)
_olex2_refinement_description
;
1. Fixed Uiso
 At 1.2 times of:
  All C(H) groups, All C(H,H) groups
 At 1.5 times of:
  All C(H,H,H) groups
2.a Ternary CH refined with riding coordinates:
 C11(H11)
2.b Secondary CH2 refined with riding coordinates:
 C8(H8A,H8B), C9(H9A,H9B), C10(H10A,H10B), C12(H12A,H12B)
2.c Aromatic/amide H refined with riding coordinates:
 C1(H1), C2(H2), C4(H4), C5(H5)
2.d Idealised Me refined as rotating group:
 C7(H7A,H7B,H7C)
;
_shelx_res_file
;
TITL v18651 in P2(1)
    v18651.res
    created by SHELXL-2018/3 at 23:48:52 on 30-Mar-2019
CELL 1.54178 8.7849 5.4108 14.8752 90 98.6274 90
ZERR 2 0.0011 0.0008 0.0019 0 0.0071 0
LATT -1
SYMM -X,0.5+Y,-Z
SFAC C H F N O
UNIT 28 32 10 2 2

L.S. 31
PLAN  20
SIZE 0.12 0.23 0.24
TEMP -173.15
BOND $H
conf
htab 3.1
fmap -2
ACTA
REM <olex2.extras>
REM <HklSrc "%.\\v18651.hkl">
REM </olex2.extras>

WGHT    0.028300    0.209300
EXTI    0.003819
FVAR       0.42151
F1    3    0.733207    0.160747    0.166607    11.00000    0.04800    0.02955 =
         0.04182    0.00252    0.00988    0.00912
F2    3    0.578084    0.291971    0.048343    11.00000    0.02590    0.04939 =
         0.03339   -0.01770    0.00033   -0.00394
F3    3    0.954136    0.479467    0.128390    11.00000    0.02112    0.08828 =
         0.04341   -0.01781    0.00398   -0.00652
F4    3    0.869374    0.235644    0.018120    11.00000    0.03592    0.07430 =
         0.04170   -0.02146    0.01031    0.01202
F5    3    0.801298    0.617045    0.012093    11.00000    0.04672    0.06290 =
         0.04072    0.00931    0.02130   -0.00304
O1    5    0.904826    0.625383    0.635840    11.00000    0.01968    0.03001 =
         0.02517   -0.00191   -0.00071    0.00276
N1    4    0.519299    0.683150    0.301762    11.00000    0.02211    0.03433 =
         0.02235   -0.00246    0.00209    0.00857
C1    1    0.729625    0.474754    0.399718    11.00000    0.01879    0.02687 =
         0.02368   -0.00293    0.00651    0.00156
AFIX  43
H1    2    0.739885    0.359297    0.352887    11.00000   -1.20000
AFIX   0
C2    1    0.827237    0.457473    0.482363    11.00000    0.01570    0.02354 =
         0.02742    0.00065    0.00498    0.00174
AFIX  43
H2    2    0.902623    0.330433    0.491443    11.00000   -1.20000
AFIX   0
C3    1    0.814853    0.624982    0.551484    11.00000    0.01455    0.02450 =
         0.02318    0.00051    0.00336   -0.00200
C4    1    0.702938    0.808834    0.537201    11.00000    0.01915    0.02224 =
         0.02439   -0.00297    0.00576   -0.00013
AFIX  43
H4    2    0.693558    0.923973    0.584272    11.00000   -1.20000
AFIX   0
C5    1    0.605118    0.826069    0.455279    11.00000    0.01778    0.02178 =
         0.02644    0.00127    0.00679    0.00154
AFIX  43
H5    2    0.529293    0.952537    0.447040    11.00000   -1.20000
AFIX   0
C6    1    0.616351    0.659278    0.384162    11.00000    0.01589    0.02541 =
         0.02238    0.00364    0.00579   -0.00050
C7    1    1.014748    0.431002    0.653127    11.00000    0.01922    0.03302 =
         0.02962    0.00164   -0.00149    0.00335
AFIX 137
H7A   2    1.090139    0.444755    0.611046    11.00000   -1.50000
H7B   2    0.962055    0.271237    0.644392    11.00000   -1.50000
H7C   2    1.067650    0.443325    0.715832    11.00000   -1.50000
AFIX   0
C8    1    0.382994    0.839646    0.291229    11.00000    0.01923    0.02558 =
         0.02857    0.00586    0.00466    0.00314
AFIX  23
H8A   2    0.411033    1.014968    0.303430    11.00000   -1.20000
H8B   2    0.310757    0.787084    0.332630    11.00000   -1.20000
AFIX   0
C9    1    0.313223    0.801886    0.192520    11.00000    0.02065    0.03486 =
         0.03003    0.00471    0.00022    0.00370
AFIX  23
H9A   2    0.359414    0.915838    0.152071    11.00000   -1.20000
H9B   2    0.200336    0.827008    0.183670    11.00000   -1.20000
AFIX   0
C10   1    0.353712    0.532282    0.174816    11.00000    0.01961    0.03257 =
         0.03062   -0.00046    0.00138   -0.00157
AFIX  23
H10A  2    0.352387    0.501508    0.109098    11.00000   -1.20000
H10B  2    0.281269    0.417084    0.198136    11.00000   -1.20000
AFIX   0
C11   1    0.517094    0.505188    0.227666    11.00000    0.01936    0.02712 =
         0.02228    0.00118    0.00414   -0.00103
AFIX  13
H11   2    0.532897    0.333945    0.252609    11.00000   -1.20000
AFIX   0
C12   1    0.645583    0.571858    0.171362    11.00000    0.02129    0.02581 =
         0.02266   -0.00173    0.00393   -0.00387
AFIX  23
H12A  2    0.609734    0.711466    0.130603    11.00000   -1.20000
H12B  2    0.736896    0.629043    0.213422    11.00000   -1.20000
AFIX   0
C13   1    0.693440    0.364624    0.115020    11.00000    0.02242    0.03019 =
         0.02445   -0.00272   -0.00068   -0.00073
C14   1    0.832564    0.424614    0.067157    11.00000    0.02397    0.05071 =
         0.02949   -0.00890    0.00472    0.00136
HKLF 4




REM  v18651 in P2(1)
REM wR2 = 0.069646, GooF = S = 1.04615, Restrained GooF = 1.04595 for all data
REM R1 = 0.027598 for 2809 Fo > 4sig(Fo) and 0.027926 for all 2842 data
REM 192 parameters refined using 1 restraints

END

WGHT      0.0283      0.2092

REM Instructions for potential hydrogen bonds
HTAB C1 F1
EQIV $1 -x+2, y-1/2, -z+1
HTAB C1 O1_$1
HTAB C2 O1_$1
EQIV $2 -x+1, y+1/2, -z+1
HTAB C4 N1_$2
HTAB C7 N1_$1
EQIV $3 -x+2, y+1/2, -z+1
HTAB C7 F1_$3
HTAB C7 F3_$1
HTAB C8 O1_$2
EQIV $4 x, y+1, z
HTAB C9 F1_$4
HTAB C9 F2_$4
EQIV $5 -x+1, y+1/2, -z
HTAB C9 F2_$5
HTAB C9 F5_$5
EQIV $6 x-1, y, z
HTAB C9 F3_$6
HTAB C9 O1_$2
HTAB C10 F2
HTAB C10 F2_$5
HTAB C10 F4_$5
EQIV $7 -x+1, y-1/2, -z
HTAB C10 F5_$7
HTAB C10 F3_$6
EQIV $8 -x+1, y-1/2, -z+1
HTAB C10 O1_$8
HTAB C12 F1_$4
HTAB C12 F2_$5

REM Highest difference peak  0.213,  deepest hole -0.137,  1-sigma level  0.032
Q1    1   0.9571  0.3378  0.1618  11.00000  0.05    0.21
Q2    1   0.4364  0.5109  0.2011  11.00000  0.05    0.16
Q3    1   0.7584  0.4180  0.0895  11.00000  0.05    0.15
Q4    1   0.6173  0.7450  0.4180  11.00000  0.05    0.15
Q5    1   0.8754  0.1253  0.0629  11.00000  0.05    0.15
Q6    1   0.5514  0.6698  0.3461  11.00000  0.05    0.14
Q7    1   0.9614  0.6197  0.1192  11.00000  0.05   -0.14
Q8    1   0.5644  0.5655  0.1806  11.00000  0.05    0.14
Q9    1   0.6560  0.4697  0.1422  11.00000  0.05    0.13
Q10   1   0.8424  0.5680  0.5085  11.00000  0.05    0.13
Q11   1   0.7652  0.7312  0.0021  11.00000  0.05   -0.13
Q12   1   0.3376  0.8677  0.2385  11.00000  0.05    0.12
Q13   1   0.7500  0.4619  0.4530  11.00000  0.05    0.12
Q14   1   0.7812  0.4832  0.4406  11.00000  0.05    0.12
Q15   1   0.7769  0.7378  0.5367  11.00000  0.05    0.12
Q16   1   0.5210  0.5977  0.2657  11.00000  0.05    0.12
Q17   1   0.3449  0.4287  0.1362  11.00000  0.05    0.12
Q18   1   0.8901  0.4428  0.0410  11.00000  0.05   -0.12
Q19   1   0.3334  0.6706  0.1742  11.00000  0.05    0.12
Q20   1   0.6963  0.0726  0.2015  11.00000  0.05    0.12
;
_shelx_res_checksum              89101
_shelx_hkl_file
;
  -1   0   0  103.11    5.42
  -1   0   0  108.18    5.45
  -1   0   0  105.05    5.36
   1   0   0   96.40    5.29
   1   0   0  116.90    5.45
   1   0   0  107.02    5.45
   1   0   0  102.27    5.35
  -1   0   0  113.48    5.34
   2   0   0   78.24    3.78
   2   0   0   80.60    4.48
   2   0   0   77.49    4.30
  -2   0   0   74.73    4.19
  -2   0   0   76.71    4.42
  -2   0   0   79.23    3.81
  -2   0   0   72.52    3.79
  -2   0   0   78.15    3.76
  -2   0   0   84.07    4.53
  -2   0   0   83.79    4.35
  -2   0   0   64.25    3.75
  -2   0   0   77.14    3.80
   2   0   0   70.42    3.74
   2   0   0   80.58    4.24
   2   0   0   78.91    4.43
   3   0   0   17.03    1.70
  -3   0   0   17.78    0.98
  -3   0   0   19.26    1.82
  -3   0   0   17.22    1.57
  -3   0   0   16.85    0.87
  -3   0   0   16.98    1.03
   3   0   0   16.32    0.94
   3   0   0   17.87    0.86
   3   0   0   16.77    0.85
  -3   0   0   15.97    0.85
  -3   0   0   17.79    0.86
   3   0   0   17.38    1.53
  -3   0   0   17.72    1.70
  -3   0   0   16.02    1.45
  -4   0   0   25.06    1.50
   4   0   0   27.97    2.33
   4   0   0   28.30    2.40
  -4   0   0   25.27    1.24
  -4   0   0   26.00    1.44
   4   0   0   23.50    2.39
   4   0   0   24.67    1.42
  -4   0   0   24.67    1.24
  -4   0   0   22.01    2.52
   4   0   0   24.32    1.36
   4   0   0   26.42    1.25
   4   0   0   23.66    1.23
   4   0   0   25.04    2.60
  -4   0   0   22.23    2.24
  -5   0   0    3.16    1.24
   5   0   0    2.40    1.45
   5   0   0    1.45    0.95
   5   0   0    2.13    1.34
  -6   0   0   10.07    0.56
   6   0   0    9.37    0.50
   6   0   0    8.49    0.70
  -6   0   0   10.04    0.59
  -6   0   0    9.56    0.56
  -6   0   0   10.61    0.94
  -6   0   0    8.99    0.54
  -6   0   0    9.87    0.54
   6   0   0    9.92    0.54
  -6   0   0    9.77    0.54
  -7   0   0    1.22    0.16
  -7   0   0    1.08    0.14
   7   0   0    0.89    0.14
   7   0   0    1.42    0.11
  -7   0   0    1.05    0.13
  -7   0   0    1.34    0.14
  -7   0   0    0.97    0.16
   8   0   0    0.06    0.04
  -8   0   0    0.09    0.08
  -8   0   0    0.04    0.05
  -8   0   0    0.07    0.06
   8   0   0    0.11    0.06
  -8   0   0    0.02    0.04
  -9   0   0   30.95    1.60
  -9   0   0   32.08    1.59
  -9   0   0   31.53    1.59
  -9   0   0   35.32    1.69
  -9   0   0   29.56    1.64
 -10   0   0    9.53    0.48
  10   0   0    8.34    0.46
  11   0   0    1.97    0.13
   0  -1   0    0.08    0.04
   0  -1   0    0.01    0.05
   0  -1   0    0.07    0.04
   0  -1   0    0.06    0.01
   0   1   0    0.16    0.08
   0   1   0    0.02    0.02
   0   1   0    0.04    0.02
   0   1   0    0.06    0.02
   0   1   0    0.03    0.02
   0   1   0    0.05    0.07
   0   1   0    0.08    0.05
  -1  -1   0  596.98   25.99
   1  -1   0  554.62   26.45
   1  -1   0  564.42   26.34
   1  -1   0  525.48   26.41
  -1   1   0  550.73   26.45
  -1   1   0  537.69   26.42
   1   1   0  550.67   25.98
   1   1   0  474.20   25.95
   1   1   0  554.96   25.95
  -1   1   0  540.92   26.31
   2  -1   0   78.04    3.83
  -2  -1   0   74.26    4.18
  -2  -1   0   83.04    3.90
   2  -1   0   83.95    4.58
   2  -1   0   81.21    4.09
   2  -1   0   80.57    4.01
  -2  -1   0   77.21    3.81
  -2  -1   0   84.44    4.37
  -2  -1   0   84.76    4.38
  -2  -1   0   77.36    3.87
  -2  -1   0   78.58    4.01
   2  -1   0   83.79    4.83
   2  -1   0   83.87    4.81
   2  -1   0   85.18    4.67
   2  -1   0   81.29    3.93
   2   1   0   81.04    3.82
   2   1   0   82.84    4.44
   2   1   0   76.74    4.22
   2   1   0   83.98    4.31
  -2   1   0   88.70    4.85
   2   1   0   68.37    3.89
  -2   1   0   86.44    4.87
  -2   1   0   81.65    4.62
  -2   1   0   75.22    3.92
  -2   1   0   79.21    3.83
  -2   1   0   79.81    4.50
  -2   1   0   71.46    3.90
   2   1   0   79.60    3.85
   2   1   0   75.21    4.32
  -3  -1   0   39.91    2.69
  -3  -1   0   36.89    1.76
  -3  -1   0   39.67    1.84
  -3  -1   0   35.64    1.85
  -3  -1   0   34.80    1.74
   3  -1   0   36.57    2.07
  -3  -1   0   36.62    2.46
  -3  -1   0   33.29    2.33
   3  -1   0   36.05    1.92
   3  -1   0   37.76    2.80
   3  -1   0   35.06    1.75
   3  -1   0   37.09    2.70
  -3  -1   0   37.32    2.62
   3  -1   0   37.23    2.92
   3  -1   0   35.69    2.96
  -3  -1   0   39.10    2.25
   3  -1   0   36.76    1.98
   3  -1   0   35.80    1.77
   3   1   0   37.10    1.79
   3   1   0   37.09    1.73
   3   1   0   35.84    2.45
   3   1   0   37.34    1.77
   3   1   0   35.25    2.59
  -3   1   0   34.57    1.75
  -3   1   0   31.33    2.83
   3   1   0   39.30    1.77
   3   1   0   34.70    2.51
  -3   1   0   34.81    1.89
   3   1   0   38.30    2.42
   3   1   0   31.13    1.85
  -3   1   0   36.06    2.61
  -3   1   0   38.64    2.95
  -3   1   0   29.25    2.57
  -3   1   0   33.91    1.76
   4  -1   0   37.77    3.24
  -4  -1   0   31.01    2.93
  -4  -1   0   35.60    1.73
  -4  -1   0   37.95    1.76
   4  -1   0   34.25    2.00
  -4  -1   0   36.21    1.73
  -4  -1   0   37.28    1.90
   4  -1   0   35.66    3.28
  -4  -1   0   30.19    2.65
  -4  -1   0   41.00    3.08
  -4  -1   0   36.90    2.08
   4  -1   0   31.43    1.74
   4  -1   0   33.99    2.22
   4  -1   0   37.86    3.48
   4  -1   0   35.43    1.74
  -4  -1   0   35.59    1.74
   4  -1   0   39.36    3.02
  -4  -1   0   36.09    1.73
  -4  -1   0   39.49    2.73
  -4   1   0   34.16    1.74
  -4   1   0   32.75    1.71
   4   1   0   35.91    1.73
   4   1   0   35.54    2.92
   4   1   0   37.26    2.69
  -4   1   0   34.38    1.72
   4   1   0   36.07    2.77
   4   1   0   36.87    1.78
  -4   1   0   36.10    2.91
  -4   1   0   37.01    3.31
  -4   1   0   34.89    1.74
   4   1   0   40.45    3.07
  -4   1   0   33.62    1.76
  -4   1   0   28.73    2.88
  -4   1   0   35.73    1.95
  -4   1   0   29.74    3.16
   5  -1   0    0.96    0.62
   5  -1   0    0.61    0.10
  -5  -1   0    0.65    0.09
   5  -1   0    0.71    1.74
  -5  -1   0    0.65    0.09
  -5  -1   0    0.65    0.09
   5  -1   0    0.86    0.20
   5  -1   0    0.46    1.21
   5  -1   0    0.62    0.09
  -5  -1   0    0.42    0.48
   5  -1   0    0.95    0.27
  -5  -1   0    0.36    1.09
   5  -1   0    0.59    0.09
   5  -1   0    0.60    0.10
   5  -1   0    2.42    1.91
  -5  -1   0    0.69    0.11
  -5  -1   0    0.91    0.82
   5   1   0    2.09    1.50
  -5   1   0    0.72    0.08
  -5   1   0    0.70    0.09
  -5   1   0    0.89    0.24
   5   1   0    1.76    1.07
  -5   1   0    0.68    0.08
  -5   1   0    0.74    0.10
  -5   1   0   -0.71    1.44
   5   1   0    0.91    0.12
   5   1   0    2.72    1.23
  -5   1   0    0.62    0.10
   5   1   0    0.81    0.09
   6  -1   0   37.82    2.21
   6  -1   0   41.16    2.13
  -6  -1   0   45.49    2.16
   6  -1   0   45.46    2.21
  -6  -1   0   44.09    2.18
  -6  -1   0   44.49    2.18
  -6  -1   0   45.47    2.19
  -6  -1   0   46.35    2.22
   6  -1   0   39.26    2.49
   6  -1   0   43.56    2.14
  -6  -1   0   46.93    2.78
   6  -1   0   45.72    2.15
  -6   1   0   42.27    2.18
   6   1   0   45.60    2.23
  -6   1   0   42.76    2.17
   6   1   0   46.09    2.18
  -6   1   0   42.16    2.15
  -6   1   0   44.01    2.21
  -6   1   0   43.19    2.56
   6   1   0   43.13    2.15
  -6   1   0   42.06    2.14
   6   1   0   42.67    2.12
   6   1   0   47.77    2.31
  -6   1   0   42.70    2.15
  -6   1   0   43.41    2.17
  -7  -1   0   22.60    1.11
  -7  -1   0   22.81    1.18
  -7  -1   0   21.28    1.13
  -7  -1   0   22.17    1.14
  -7  -1   0   22.07    1.11
  -7  -1   0   20.95    1.11
  -7   1   0   19.70    1.08
   7   1   0   17.83    1.10
   7   1   0   21.79    1.06
   7   1   0   21.05    1.06
  -7   1   0   19.91    1.08
  -7   1   0   20.46    1.07
  -7   1   0   21.10    1.18
   7   1   0   19.97    1.10
  -7   1   0   22.12    1.13
   7   1   0   21.50    1.11
  -7   1   0   21.61    1.12
  -8  -1   0   15.59    0.85
  -8  -1   0   15.67    0.91
  -8  -1   0   15.90    0.84
  -8  -1   0   16.66    0.87
  -8  -1   0   15.48    0.87
  -8  -1   0   15.79    0.87
   8   1   0   14.93    0.84
  -8   1   0   14.94    0.85
  -8   1   0   14.37    0.80
   8   1   0   15.37    0.79
  -9  -1   0    2.26    0.24
  -9  -1   0    2.26    0.19
  -9  -1   0    2.30    0.21
  -9  -1   0    2.64    0.23
  -9  -1   0    2.14    0.19
  -9  -1   0    2.30    0.21
   9   1   0    2.28    0.20
   9   1   0    2.12    0.15
   9   1   0    2.32    0.20
  -9   1   0    1.98    0.24
 -10  -1   0   25.91    1.29
 -10  -1   0   27.46    1.30
 -10  -1   0   26.68    1.33
 -10   1   0   23.67    1.31
  10   1   0   27.51    1.32
   0  -2   0    4.45    0.41
   0  -2   0    4.74    0.33
   0  -2   0    4.87    0.47
   0  -2   0    4.79    0.24
   0   2   0    4.58    0.28
   0   2   0    4.06    0.32
   0   2   0    4.71    0.27
   0   2   0    4.73    0.27
   0   2   0    4.80    0.31
   0   2   0    4.40    0.30
   0   2   0    4.62    0.27
   0   2   0    4.31    0.31
   0   2   0    5.37    0.34
   0   2   0    5.07    0.27
   0   2   0    4.88    0.33
   0   2   0    4.11    0.32
   0   2   0    5.14    0.35
  -1  -2   0   87.76    4.52
   1  -2   0   96.07    4.81
   1  -2   0   95.82    5.21
   1  -2   0   96.00    4.50
   1  -2   0   91.68    4.40
  -1  -2   0   96.11    4.68
   1  -2   0   92.23    4.41
   1  -2   0   98.76    5.22
   1  -2   0   94.56    4.69
  -1  -2   0   88.02    4.58
   1  -2   0   99.43    5.09
   1  -2   0   95.12    4.98
  -1  -2   0   89.13    4.55
  -1   2   0   92.03    4.43
   1   2   0   94.60    4.43
   1   2   0   90.05    4.44
   1   2   0   90.97    4.42
  -1   2   0   92.56    4.89
  -1   2   0   92.55    4.43
  -1   2   0   92.11    4.41
   1   2   0   92.68    4.42
  -1   2   0   86.09    5.07
  -1   2   0   85.94    4.93
  -1   2   0   89.34    5.06
   1   2   0   93.58    4.42
  -1   2   0   88.09    4.40
  -2  -2   0   20.50    1.18
   2  -2   0   21.88    1.18
  -2  -2   0   23.08    1.19
   2  -2   0   20.66    1.34
   2  -2   0   19.13    1.07
   2  -2   0   21.56    1.79
   2  -2   0   21.61    1.08
  -2  -2   0   22.78    1.25
  -2  -2   0   21.18    1.04
   2  -2   0   23.00    1.93
   2  -2   0   21.78    1.97
  -2  -2   0   21.19    1.30
   2  -2   0   22.06    1.07
   2  -2   0   23.73    1.71
   2  -2   0   21.14    2.03
  -2   2   0   18.59    1.85
  -2   2   0   21.83    1.07
  -2   2   0   19.44    1.66
  -2   2   0   22.78    1.09
   2   2   0   22.20    1.07
  -2   2   0   21.88    1.08
   2   2   0   21.33    1.11
   2   2   0   21.72    1.07
   2   2   0   21.60    1.09
   2   2   0   22.13    1.06
   3  -2   0  103.34    5.32
  -3  -2   0  115.93    5.35
   3  -2   0  105.42    4.95
   3  -2   0  107.58    6.29
  -3  -2   0  115.42    5.41
  -3  -2   0  101.76    5.07
   3  -2   0  100.70    4.95
  -3  -2   0  101.83    4.92
  -3  -2   0  104.48    5.31
  -3  -2   0  112.30    5.52
  -3  -2   0  104.69    4.93
   3  -2   0  100.08    4.93
   3  -2   0   98.49    5.45
   3  -2   0  100.69    5.12
   3  -2   0  116.47    6.83
  -3  -2   0  116.35    5.55
  -3   2   0  106.04    4.95
   3   2   0  100.59    4.94
   3   2   0  104.82    4.97
  -3   2   0   91.57    6.00
  -3   2   0   97.89    4.94
  -3   2   0   99.13    5.07
  -3   2   0   89.73    6.68
  -3   2   0   84.31    6.29
   3   2   0  107.70    4.95
  -3   2   0   91.55    6.37
   3   2   0  105.41    5.00
   4  -2   0   25.71    1.33
  -4  -2   0   23.61    1.28
   4  -2   0   27.19    1.31
  -4  -2   0   29.16    1.75
   4  -2   0   22.83    2.94
  -4  -2   0   26.58    1.30
  -4  -2   0   23.36    2.26
   4  -2   0   31.08    3.09
   4  -2   0   26.90    1.31
   4  -2   0   27.84    1.73
  -4  -2   0   25.77    2.08
  -4  -2   0   27.22    1.27
   4  -2   0   25.86    1.29
  -4  -2   0   27.40    1.28
   4   2   0   26.71    1.35
   4   2   0   25.86    1.29
  -4   2   0   24.64    1.28
  -4   2   0   27.63    1.30
   4   2   0   25.23    1.93
   4   2   0   20.72    2.35
  -4   2   0   25.38    1.46
   4   2   0   25.35    3.02
  -4   2   0   19.97    2.82
   4   2   0   23.21    2.04
   5  -2   0    5.43    0.35
   5  -2   0    5.71    0.39
  -5  -2   0    6.57    0.71
   5  -2   0    5.53    0.34
   5  -2   0    5.97    0.65
  -5  -2   0    5.80    0.37
  -5  -2   0    5.84    0.34
   5  -2   0    5.70    0.34
  -5  -2   0    5.67    0.33
  -5  -2   0    4.80    0.32
   5  -2   0    5.41    0.35
   5  -2   0    5.61    0.36
  -5  -2   0    5.87    0.35
  -5  -2   0    6.56    2.11
  -5  -2   0    6.06    1.38
  -5   2   0    5.09    0.33
   5   2   0    5.73    0.40
  -5   2   0    4.97    0.54
  -5   2   0    5.35    0.33
   5   2   0    5.39    0.37
   5   2   0    5.40    0.35
   5   2   0    5.68    0.32
   5   2   0    5.46    0.34
   5   2   0    5.70    0.41
   6  -2   0   29.84    1.53
  -6  -2   0   30.36    1.47
  -6  -2   0   29.86    1.46
   6  -2   0   28.94    1.45
   6  -2   0   28.30    1.46
   6  -2   0   29.19    1.48
  -6  -2   0   28.69    1.45
   6  -2   0   31.50    1.63
   6  -2   0   26.28    1.94
   6  -2   0   29.15    1.52
  -6  -2   0   30.21    1.52
  -6  -2   0   30.99    1.52
   6   2   0   26.56    1.45
   6   2   0   28.48    1.42
   6   2   0   28.83    1.48
   6   2   0   27.94    1.47
   6   2   0   27.62    1.49
  -6   2   0   26.43    1.45
  -6   2   0   30.43    1.43
   6   2   0   29.13    1.42
   6   2   0   29.32    1.46
   6   2   0   29.51    1.55
   6   2   0   26.77    1.42
  -7  -2   0   57.87    3.41
  -7  -2   0   69.94    3.27
  -7  -2   0   70.77    3.38
   7  -2   0   61.87    3.21
  -7  -2   0   64.78    3.24
   7  -2   0   62.77    3.23
  -7  -2   0   70.56    3.24
  -7  -2   0   71.46    3.26
   7   2   0   65.85    3.18
   7   2   0   65.78    3.26
   7   2   0   61.50    3.17
   7   2   0   68.04    3.25
   7   2   0   67.31    3.18
   7   2   0   63.71    3.23
   7   2   0   68.11    3.23
  -8  -2   0    6.69    0.42
  -8  -2   0    6.54    0.45
  -8  -2   0    6.87    0.43
  -8  -2   0    7.29    0.51
   8  -2   0    6.22    0.37
   8   2   0    6.95    0.46
   8   2   0    7.78    0.41
   8   2   0    7.21    0.46
   8   2   0    7.71    0.41
  -8   2   0    5.80    0.41
  -9  -2   0    3.95    0.28
  -9  -2   0    3.97    0.27
  -9  -2   0    3.97    0.27
  -9  -2   0    3.74    0.29
  -9  -2   0    3.79    0.32
  -9  -2   0    3.96    0.26
   9   2   0    3.72    0.23
   9   2   0    3.65    0.25
   9   2   0    3.63    0.26
 -10  -2   0   12.72    0.70
 -10  -2   0   14.07    0.67
 -10  -2   0   10.56    0.67
  10   2   0   13.79    0.68
  10   2   0   13.53    0.67
   0  -3   0   -0.04    0.12
   0  -3   0    0.09    0.02
   0  -3   0   -0.08    0.14
   0   3   0    0.03    0.04
   0   3   0    0.08    0.03
   0   3   0    0.10    0.04
   0   3   0    0.06    0.04
   1  -3   0   17.65    1.01
  -1  -3   0   20.75    1.32
   1  -3   0   21.68    1.05
   1  -3   0   19.60    1.03
   1  -3   0   21.71    1.43
   1  -3   0   21.87    1.59
  -1  -3   0   21.58    1.35
  -1  -3   0   20.71    0.99
  -1  -3   0   20.73    1.28
   1   3   0   20.75    1.06
   1   3   0   20.46    1.06
  -1   3   0   19.66    1.35
   1   3   0   21.02    1.06
  -1   3   0   21.31    1.07
   1   3   0   21.53    1.05
  -1   3   0   19.12    1.03
   1   3   0   21.68    1.07
  -1   3   0   20.55    1.51
  -1   3   0   21.99    1.06
  -1   3   0   21.65    1.05
   1   3   0   20.69    1.08
  -1   3   0   21.38    1.08
  -2  -3   0   21.64    1.50
  -2  -3   0   24.79    1.17
   2  -3   0   25.76    1.23
   2  -3   0   25.12    1.23
  -2  -3   0   21.91    1.42
  -2  -3   0   20.54    1.40
   2  -3   0   26.32    1.26
  -2  -3   0   20.50    1.41
  -2  -3   0   26.90    1.58
   2  -3   0   28.45    1.91
   2  -3   0   23.96    2.13
   2   3   0   24.83    1.24
  -2   3   0   24.38    1.26
   2   3   0   25.37    1.24
  -2   3   0   25.28    1.24
  -2   3   0   22.37    1.91
   2   3   0   25.87    1.24
  -2   3   0   26.55    1.27
   2   3   0   26.66    1.27
   2   3   0   24.08    1.24
   2   3   0   25.48    1.29
   3  -3   0   72.74    3.98
   3  -3   0   70.39    3.40
  -3  -3   0   75.38    3.77
  -3  -3   0   70.97    3.36
   3  -3   0   71.78    3.41
   3  -3   0   70.91    3.42
   3  -3   0   67.50    3.40
  -3   3   0   70.78    3.43
  -3   3   0   68.34    3.40
   3   3   0   68.02    3.41
   3   3   0   65.53    3.41
   3   3   0   71.35    3.45
   3   3   0   71.94    3.42
   3   3   0   70.57    3.48
   4  -3   0    9.36    0.57
  -4  -3   0    9.70    0.95
   4  -3   0    9.69    0.97
  -4  -3   0    9.14    0.48
   4  -3   0    8.46    0.53
  -4  -3   0    9.94    0.52
   4  -3   0    9.18    0.54
   4  -3   0    8.92    0.53
   4  -3   0    9.79    0.59
  -4   3   0    8.93    0.53
   4   3   0    9.47    0.49
  -4   3   0    8.73    0.50
   4   3   0    9.05    0.50
   4   3   0    8.83    0.59
   4   3   0    9.39    0.53
  -4   3   0   10.02    0.51
  -4   3   0    8.79    0.50
  -4   3   0    9.09    0.54
   4   3   0    9.09    0.52
   4   3   0    9.26    0.52
  -5  -3   0   14.96    0.78
  -5  -3   0   13.34    0.73
   5  -3   0   14.09    0.76
   5  -3   0   13.98    0.75
   5  -3   0   14.23    0.77
   5  -3   0   13.41    0.78
  -5  -3   0   14.24    0.76
  -5  -3   0   14.50    0.74
   5  -3   0   14.48    0.82
   5  -3   0   14.03    0.78
   5   3   0   14.10    0.79
  -5   3   0   14.15    0.72
   5   3   0   14.45    0.72
   5   3   0   13.41    0.72
   5   3   0   13.62    0.75
   5   3   0   14.01    0.78
   5   3   0   14.00    0.77
   5   3   0   13.38    0.76
   5   3   0   14.08    0.77
   5   3   0   12.95    0.84
  -5   3   0   14.38    0.74
   5   3   0   14.34    0.72
   6  -3   0    5.73    0.38
   6  -3   0    6.85    0.59
  -6  -3   0    6.47    0.38
  -6  -3   0    6.88    0.41
  -6  -3   0    6.22    0.38
   6  -3   0    5.48    0.42
   6  -3   0    6.08    0.41
   6  -3   0    6.35    0.39
   6   3   0    6.01    0.40
   6   3   0    5.82    0.48
   6   3   0    5.94    0.40
   6   3   0    6.22    0.35
   6   3   0    5.53    0.34
  -6   3   0    6.35    0.35
   6   3   0    6.09    0.40
   6   3   0    6.05    0.41
   6   3   0    6.04    0.34
   6   3   0    5.69    0.38
   7  -3   0    2.79    0.23
  -7  -3   0    2.88    0.26
   7  -3   0    2.51    0.21
   7  -3   0    2.87    0.29
  -7  -3   0    2.70    0.24
  -7  -3   0    2.87    0.22
   7  -3   0    2.58    0.26
  -7  -3   0    2.88    0.26
   7  -3   0    2.58    0.22
   7   3   0    2.44    0.23
   7   3   0    3.01    0.21
   7   3   0    2.55    0.21
   7   3   0    2.66    0.23
   7   3   0    2.65    0.23
   8  -3   0   21.52    1.06
  -8  -3   0   23.17    1.12
  -8  -3   0   17.68    1.13
  -8  -3   0   20.61    1.10
  -8  -3   0   22.83    1.10
  -8  -3   0   21.71    1.11
   8   3   0   20.88    1.04
   8   3   0   21.29    1.10
   8   3   0   20.72    1.08
   8   3   0   20.06    1.07
   8   3   0   21.64    1.05
   8   3   0   21.80    1.11
  -8   3   0   20.00    1.05
  -9  -3   0    4.53    0.29
  -9  -3   0    4.93    0.33
   9   3   0    5.38    0.29
   9   3   0    5.05    0.29
   9   3   0    5.20    0.30
   9   3   0    4.99    0.30
   9   3   0    5.10    0.29
   0  -4   0    9.82    0.91
   0  -4   0    9.97    0.48
   0  -4   0   10.14    0.90
   0   4   0    9.06    0.51
   0   4   0    8.97    0.55
   0   4   0    9.01    0.56
   0   4   0    9.15    0.50
   0   4   0    9.40    0.52
   0   4   0   10.04    0.58
   0   4   0    9.13    0.56
   0   4   0    9.10    0.62
   0   4   0    9.38    0.52
   0   4   0    9.16    0.51
   0   4   0    9.82    0.51
  -1  -4   0   36.13    2.36
   1  -4   0   40.44    2.00
   1  -4   0   36.24    1.95
   1  -4   0   41.23    1.99
   1  -4   0   45.60    2.69
   1   4   0   41.23    1.98
  -1   4   0   42.28    1.96
   1   4   0   37.02    2.02
  -1   4   0   45.78    2.07
   1   4   0   39.19    2.02
   1   4   0   42.23    1.96
   1   4   0   41.01    2.03
   1   4   0   41.53    1.99
   1   4   0   43.46    2.07
  -1   4   0   37.72    1.97
  -1   4   0   40.96    1.98
  -1   4   0   41.54    2.03
   1   4   0   40.33    2.00
  -1   4   0   39.44    1.96
  -1   4   0   39.53    2.11
   1   4   0   40.25    1.96
  -1   4   0   38.13    1.97
   1   4   0   38.00    2.09
   1   4   0   41.40    1.98
   1   4   0   38.10    2.03
  -1   4   0   40.00    2.00
   1   4   0   40.03    2.03
   1   4   0   38.76    2.01
  -1   4   0   40.53    1.97
   2  -4   0   21.91    1.63
   2  -4   0   19.62    0.99
   2  -4   0   19.78    0.98
   2   4   0   19.03    0.95
  -2   4   0   18.46    0.96
  -2   4   0   19.71    1.02
  -2   4   0   19.18    1.11
   2   4   0   19.24    0.96
  -2   4   0   17.73    0.96
   2   4   0   19.38    0.99
   2   4   0   17.68    1.06
  -2   4   0   18.01    0.95
   2   4   0   19.24    0.95
   2   4   0   19.96    1.12
   2   4   0   18.28    1.00
   2   4   0   18.70    0.95
   2   4   0   20.01    0.99
   2   4   0   18.62    0.96
   2   4   0   17.98    1.00
   2   4   0   17.61    0.99
  -2   4   0   17.33    1.01
   2   4   0   18.57    0.97
  -2   4   0   19.59    0.97
  -2   4   0   20.34    0.96
   2   4   0   18.66    0.95
   2   4   0   18.68    1.01
  -2   4   0   18.68    0.97
   3  -4   0   25.08    1.29
   3  -4   0   24.98    1.27
   3  -4   0   26.15    1.34
   3  -4   0   26.57    1.31
   3  -4   0   24.11    1.27
  -3   4   0   24.04    1.32
   3   4   0   26.26    1.24
   3   4   0   25.93    1.31
   3   4   0   24.16    1.36
   3   4   0   22.45    1.35
  -3   4   0   24.74    1.26
   3   4   0   26.53    1.29
  -3   4   0   27.02    1.27
   3   4   0   24.63    1.24
  -3   4   0   25.61    1.31
  -3   4   0   25.07    1.25
  -3   4   0   24.50    1.26
   3   4   0   23.32    1.29
  -3   4   0   26.46    1.41
   3   4   0   25.37    1.25
  -3   4   0   26.72    1.25
   3   4   0   24.81    1.34
   3   4   0   23.36    1.24
  -3   4   0   25.75    1.27
   3   4   0   25.95    1.30
   3   4   0   25.17    1.30
   3   4   0   23.39    1.29
   3   4   0   25.88    1.28
   4  -4   0   30.07    1.53
   4  -4   0   31.91    1.60
   4  -4   0   30.86    1.54
   4  -4   0   27.85    1.54
   4  -4   0   30.64    1.60
  -4   4   0   31.73    1.50
   4   4   0   29.61    1.52
   4   4   0   31.88    1.50
  -4   4   0   29.51    1.51
   4   4   0   30.59    1.55
  -4   4   0   29.77    1.51
  -4   4   0   30.20    1.64
   4   4   0   30.76    1.55
   4   4   0   30.33    1.50
   4   4   0   30.71    1.57
  -4   4   0   28.81    1.51
  -4   4   0   29.70    1.51
   4   4   0   31.55    1.50
  -4   4   0   30.50    1.55
   5  -4   0    2.73    0.25
   5  -4   0    2.60    0.26
   5  -4   0    2.75    0.23
   5  -4   0    2.75    0.23
  -5  -4   0    2.24    0.21
  -5  -4   0    2.29    0.20
   5  -4   0    2.38    0.29
   5   4   0    2.84    0.19
   5   4   0    2.64    0.21
   5   4   0    2.79    0.24
  -5   4   0    2.74    0.27
   5   4   0    3.00    0.19
  -5   4   0    2.68    0.19
  -5   4   0    2.81    0.23
   5   4   0    2.94    0.24
   5   4   0    2.78    0.23
  -5   4   0    2.73    0.20
   5   4   0    2.62    0.18
  -5   4   0    2.84    0.21
  -5   4   0    2.97    0.20
   5   4   0    2.76    0.23
  -6  -4   0    1.37    0.15
  -6  -4   0    1.24    0.15
   6  -4   0    1.61    0.17
  -6  -4   0    1.26    0.13
   6  -4   0    1.48    0.20
   6  -4   0    1.50    0.16
  -6  -4   0    1.52    0.14
   6  -4   0    1.43    0.16
   6  -4   0    1.47    0.18
  -6   4   0    1.65    0.14
   6   4   0    1.62    0.13
  -6   4   0    1.57    0.16
  -6   4   0    1.51    0.13
   6   4   0    1.47    0.14
  -6   4   0    1.54    0.16
   6   4   0    1.59    0.17
   6   4   0    1.57    0.17
  -6   4   0    1.53    0.13
   6   4   0    1.62    0.12
   6   4   0    1.64    0.17
   6   4   0    1.64    0.18
  -7  -4   0    2.10    0.19
  -7  -4   0    2.30    0.18
   7  -4   0    2.30    0.18
  -7  -4   0    2.10    0.17
  -7  -4   0    2.27    0.20
  -7  -4   0    2.06    0.17
   7  -4   0    2.23    0.18
   7  -4   0    2.12    0.19
   7   4   0    2.27    0.15
   7   4   0    2.20    0.17
  -7   4   0    2.53    0.18
  -7   4   0    1.81    0.13
   7   4   0    2.25    0.19
   7   4   0    2.23    0.16
   7   4   0    2.45    0.19
   7   4   0    2.16    0.18
   8  -4   0    3.21    0.20
  -8  -4   0    2.96    0.21
  -8  -4   0    2.71    0.21
   8   4   0    3.24    0.21
   8   4   0    3.20    0.21
  -8   4   0    3.11    0.18
   8   4   0    3.37    0.21
   8   4   0    3.27    0.18
   8   4   0    3.39    0.21
   8   4   0    3.00    0.20
  -8   4   0    3.23    0.19
   9   4   0    3.18    0.18
   0  -5   0   -0.04    0.05
   0   5   0    0.09    0.06
   0   5   0    0.06    0.07
   0   5   0    0.04    0.04
   0   5   0    0.01    0.04
   0   5   0    0.00    0.05
   0   5   0    0.07    0.07
   0   5   0    0.02    0.06
   0   5   0   -0.03    0.05
   0   5   0    0.05    0.07
   1  -5   0   12.38    0.69
  -1   5   0   12.97    0.79
   1   5   0   12.08    0.63
  -1   5   0   12.86    0.71
  -1   5   0   12.31    0.65
   1   5   0   12.26    0.65
  -1   5   0   12.23    0.65
  -1   5   0   11.93    0.63
  -1   5   0   12.30    0.65
  -1   5   0   12.19    0.65
   1   5   0   12.38    0.67
   1   5   0   12.45    0.64
   1   5   0   11.74    0.64
   1   5   0   11.52    0.65
   1   5   0   12.82    0.64
  -1   5   0   13.46    0.65
   1   5   0   12.35    0.64
   1   5   0   11.43    0.75
   1   5   0   11.96    0.69
   2  -5   0   13.82    0.76
  -2   5   0   13.69    0.84
   2   5   0   12.90    0.68
   2   5   0   12.69    0.72
  -2   5   0   14.48    0.76
  -2   5   0   13.48    0.70
   2   5   0   12.58    0.68
   2   5   0   13.37    0.72
  -2   5   0   13.35    0.68
   2   5   0   13.40    0.71
  -2   5   0   13.63    0.71
  -2   5   0   13.78    0.70
   2   5   0   13.01    0.69
   2   5   0   12.77    0.73
  -2   5   0   13.69    0.70
   2   5   0   12.45    0.79
  -2   5   0   14.08    0.69
   2   5   0   13.23    0.68
   2   5   0   13.75    0.73
   2   5   0   13.72    0.68
   2   5   0   13.33    0.72
   2   5   0   13.40    0.69
   3  -5   0    7.99    0.47
   3  -5   0    8.80    0.63
   3  -5   0    8.04    0.47
   3   5   0    8.00    0.47
   3   5   0    7.05    0.50
  -3   5   0    8.22    0.45
  -3   5   0    7.50    0.43
  -3   5   0    8.27    0.57
   3   5   0    7.24    0.42
   3   5   0    9.04    0.52
  -3   5   0    8.37    0.46
   3   5   0    9.30    0.53
  -3   5   0    7.98    0.45
   3   5   0    7.33    0.42
   3   5   0    7.36    0.46
  -3   5   0    8.33    0.46
  -3   5   0    8.15    0.46
   3   5   0    7.78    0.51
  -3   5   0    9.06    0.51
   3   5   0    7.64    0.42
   3   5   0    8.21    0.48
   4  -5   0    9.61    0.55
   4  -5   0    9.28    0.52
   4  -5   0    9.29    0.53
   4  -5   0    7.60    0.55
   4  -5   0    9.56    0.55
   4   5   0    9.71    0.52
  -4   5   0    9.09    0.50
  -4   5   0    9.17    0.49
  -4   5   0    9.27    0.48
   4   5   0    8.81    0.49
   4   5   0    9.44    0.47
   4   5   0    8.53    0.46
   4   5   0    9.18    0.53
  -4   5   0    9.22    0.53
  -4   5   0    8.75    0.49
  -4   5   0    8.86    0.48
  -4   5   0    9.50    0.60
  -4   5   0    9.07    0.49
   4   5   0    9.31    0.52
   4   5   0    9.01    0.51
   4   5   0    8.85    0.47
   5  -5   0   11.78    0.66
   5  -5   0   12.42    0.66
   5  -5   0   12.21    0.71
   5  -5   0   13.34    0.78
   5  -5   0   12.71    0.66
  -5   5   0   11.93    0.72
   5   5   0   11.46    0.65
  -5   5   0   12.42    0.64
   5   5   0   13.34    0.64
  -5   5   0   12.04    0.63
   5   5   0   12.05    0.66
  -5   5   0   12.09    0.63
  -5   5   0   12.21    0.66
   5   5   0   12.15    0.65
  -5   5   0   12.43    0.62
   5   5   0   12.19    0.66
  -5   5   0   11.17    0.62
   6  -5   0    1.89    0.16
   6  -5   0    2.24    0.18
   6  -5   0    2.29    0.18
   6   5   0    2.03    0.16
   6   5   0    2.15    0.15
   6   5   0    2.23    0.16
  -6   5   0    2.13    0.14
   6   5   0    1.90    0.20
  -6   5   0    2.27    0.14
   6   5   0    1.91    0.20
   6   5   0    2.37    0.14
  -6   5   0    2.29    0.16
  -6   5   0    2.11    0.14
   7  -5   0    0.88    0.09
   7   5   0    0.93    0.09
  -7   5   0    0.92    0.10
   7   5   0    1.04    0.10
   7   5   0    0.91    0.08
   7   5   0    0.87    0.08
   0   6   0   37.26    1.84
   0   6   0   37.31    1.82
   0   6   0   35.66    1.79
   0   6   0   35.31    1.81
   0   6   0   40.33    1.91
   1  -6   0   18.05    0.98
  -1   6   0   20.04    0.94
  -1   6   0   16.60    0.92
  -1   6   0   19.41    0.97
   1   6   0   18.21    0.96
  -1   6   0   20.16    0.94
   1   6   0   18.45    0.95
   1   6   0   17.94    0.94
   1   6   0   18.37    0.92
   1   6   0   20.71    1.05
  -1   6   0   19.52    1.03
   1   6   0   19.43    0.97
  -1   6   0   19.46    0.94
   1   6   0   16.79    0.92
  -1   6   0   19.38    0.96
   2  -6   0    2.98    0.19
   2  -6   0    2.67    0.18
  -2   6   0    3.07    0.20
  -2   6   0    2.54    0.17
   2   6   0    2.43    0.16
   2   6   0    2.43    0.17
   2   6   0    2.64    0.18
  -2   6   0    2.18    0.20
   2   6   0    2.75    0.21
   2   6   0    2.76    0.15
   3  -6   0    1.67    0.15
   3  -6   0    1.59    0.15
   3  -6   0    1.47    0.13
  -3   6   0    1.71    0.19
  -3   6   0    1.94    0.15
  -3   6   0    1.92    0.15
  -3   6   0    1.95    0.13
  -4   6   0    1.38    0.10
  -4   6   0    1.20    0.09
  -4   6   0    1.37    0.12
  -4   6   0    1.33    0.10
  -4   6   0    1.18    0.10
  -4   6   0    1.00    0.13
   5  -6   0    1.60    0.12
  -5   6   0    2.01    0.13
  -5   6   0    1.85    0.12
  -5   6   0    1.84    0.12
  -5   6   0    2.07    0.12
  11   0  -1   18.51    0.91
 -10   0   1    6.66    0.35
 -10   0   1    6.50    0.44
  -9   0   1    1.49    0.15
  -9   0   1    1.44    0.23
  -9   0   1    1.56    0.17
  -9   0   1    1.57    0.19
  -9   0   1    1.42    0.18
  -8   0   1   32.64    1.66
   8   0  -1   31.71    1.60
  -8   0   1   32.91    1.65
  -8   0   1   33.04    1.64
   8   0  -1   33.69    1.67
  -8   0   1   32.91    1.68
  -8   0   1   32.77    1.68
  -8   0   1   32.19    1.73
   7   0  -1    2.78    0.24
  -7   0   1    2.99    0.28
  -7   0   1    3.12    0.26
   7   0  -1    2.92    0.20
  -7   0   1    3.40    0.29
   7   0  -1    3.42    0.20
  -7   0   1    3.06    0.23
  -7   0   1    3.07    0.23
  -6   0   1    3.17    0.22
  -6   0   1    2.94    0.23
  -6   0   1    3.86    0.51
   6   0  -1    2.40    0.49
   6   0  -1    3.17    0.20
  -6   0   1    3.27    0.22
   6   0  -1    3.19    0.23
   6   0  -1    2.86    0.38
  -6   0   1    3.14    0.24
  -6   0   1    3.37    0.25
  -6   0   1    3.10    0.26
   5   0  -1   84.71    5.72
  -5   0   1   62.37    5.68
   5   0  -1   81.52    3.71
   5   0  -1   72.34    5.21
   5   0  -1   80.73    5.87
   5   0  -1   89.94    6.22
  -5   0   1   81.82    3.74
  -5   0   1   63.59    5.11
  -5   0   1   72.03    6.08
  -5   0   1   76.89    3.72
   5   0  -1   77.73    3.71
   5   0  -1   76.77    3.91
   5   0  -1   81.91    4.03
  -5   0   1   81.25    4.12
  -5   0   1   68.57    5.53
  -4   0   1    0.75    0.60
   4   0  -1    0.26    0.40
  -4   0   1   -0.08    0.53
  -4   0   1    0.13    0.21
  -4   0   1    0.24    0.13
  -4   0   1    0.12    0.40
  -3   0   1   10.28    1.07
  -3   0   1    9.81    0.65
   3   0  -1    9.64    0.62
  -3   0   1    9.21    0.49
   3   0  -1    8.23    0.55
   3   0  -1    7.19    1.32
  -3   0   1    9.72    1.11
   3   0  -1    8.19    1.22
  -3   0   1    9.24    0.48
   3   0  -1    8.39    0.99
  -3   0   1    7.73    0.63
   3   0  -1    8.75    0.46
   3   0  -1    8.88    0.57
  -3   0   1    9.46    0.63
  -3   0   1   10.23    1.24
   3   0  -1    9.22    1.16
  -3   0   1   10.30    1.21
  -2   0   1    5.09    0.60
  -2   0   1    4.93    0.37
  -2   0   1    5.15    0.64
   2   0  -1    4.78    0.31
   2   0  -1    3.97    0.35
  -2   0   1    4.10    0.24
   2   0  -1    5.44    0.67
   2   0  -1    5.86    0.72
   2   0  -1    4.58    0.25
   2   0  -1    4.35    0.31
   2   0  -1    4.71    0.35
   2   0  -1    5.03    0.59
  -2   0   1    4.52    0.35
  -2   0   1    4.64    0.71
  -2   0   1    4.93    0.68
  -1   0   1   45.24    2.49
  -1   0   1   47.92    2.62
   1   0  -1   45.80    2.20
  -1   0   1   47.84    2.29
  -1   0   1   48.85    2.56
   1   0  -1   46.57    2.26
  -1   0   1   45.17    2.58
   1   0  -1   45.57    2.58
   1   0  -1   47.52    2.52
  -1   0   1   44.49    2.27
   1   0  -1   49.41    2.50
  -1   0   1   43.51    2.21
   1   0  -1   45.65    2.28
   1   0  -1   45.03    2.57
   0   0  -1   46.10    2.38
   0   0   1   49.82    2.20
   0   0   1   42.59    2.16
   0   0   1   44.54    2.19
   0   0  -1   41.77    2.18
   0   0  -1   47.69    2.34
   0   0  -1   49.41    2.32
   0   0   1   44.34    2.36
   0   0   1   39.09    2.15
   0   0  -1   43.30    2.20
   0   0   1   47.44    2.31
   0   0  -1   43.60    2.19
   0   0  -1   46.70    2.37
   0   0   1   48.62    2.35
   0   0  -1   39.42    2.15
   0   0   1   45.98    2.18
   0   0   1   48.38    2.39
   0   0  -1   48.93    2.21
   1   0   1   95.70    4.81
  -1   0  -1   98.39    5.18
  -1   0  -1   92.55    4.80
   1   0   1  105.52    5.26
   1   0   1   97.13    5.06
  -1   0  -1   94.79    5.04
  -1   0  -1  101.97    5.12
   1   0   1  105.07    5.16
   1   0   1  102.62    5.21
  -1   0  -1  105.91    5.24
  -2   0  -1   17.92    1.35
  -2   0  -1   18.16    1.01
   2   0   1   18.04    1.00
  -2   0  -1   18.39    0.88
  -2   0  -1   17.45    0.89
  -2   0  -1   18.63    0.99
   2   0   1   16.63    0.94
  -2   0  -1   19.56    1.54
  -2   0  -1   17.62    1.00
  -2   0  -1   18.42    1.40
  -2   0  -1   18.81    1.53
   2   0   1   18.28    1.55
   2   0   1   17.87    1.52
   2   0   1   16.60    0.97
  -2   0  -1   18.93    0.99
   2   0   1   18.59    1.45
   2   0   1   17.01    0.88
   2   0   1   19.02    0.89
   2   0   1   18.77    0.98
  -2   0  -1   17.53    0.88
   2   0   1   17.61    1.35
   3   0   1    9.51    1.05
   3   0   1   10.39    1.18
  -3   0  -1    9.42    0.66
   3   0   1   10.22    1.34
  -3   0  -1    9.35    1.03
   3   0   1    9.52    0.49
  -3   0  -1    9.53    0.63
  -3   0  -1    9.08    0.50
  -3   0  -1    9.33    0.49
   3   0   1    9.86    0.62
  -3   0  -1    9.43    0.49
   3   0   1    9.15    1.19
   3   0   1    9.45    0.57
  -3   0  -1    8.43    0.46
  -3   0  -1    9.71    1.19
   4   0   1   17.76    0.92
   4   0   1   17.75    2.09
  -4   0  -1   18.30    1.80
   4   0   1   18.82    0.93
  -4   0  -1   18.52    1.13
  -4   0  -1   18.15    1.17
   4   0   1   17.79    1.03
  -4   0  -1   19.87    0.96
   4   0   1   19.29    1.11
   4   0   1   19.77    2.32
   4   0   1   19.42    2.10
  -4   0  -1   17.34    0.93
  -4   0  -1   18.21    0.92
  -4   0  -1   18.00    0.91
  -4   0  -1   14.75    1.82
  -4   0  -1   17.51    2.15
  -4   0  -1   15.47    2.10
   4   0   1   20.07    1.93
  -5   0  -1  129.61    6.08
   5   0   1  117.15    6.20
   5   0   1  136.58    8.91
   5   0   1  125.85    6.30
   5   0   1  111.36    7.75
   5   0   1  136.68    8.57
   5   0   1  131.43    6.08
  -5   0  -1  129.65    6.48
  -5   0  -1  133.27    6.42
   5   0   1  125.65    6.06
   5   0   1  131.41    8.32
  -5   0  -1  110.59    7.96
  -6   0  -1    0.52    0.23
  -6   0  -1    0.03    0.04
  -6   0  -1    0.13    0.05
   6   0   1    0.05    0.03
  -6   0  -1    0.07    0.04
  -7   0  -1   14.79    0.78
   7   0   1   14.91    0.75
   7   0   1   13.99    0.79
  -7   0  -1   14.57    0.83
  -7   0  -1   14.90    0.85
  -7   0  -1   14.40    0.79
  -7   0  -1   14.65    0.81
  -7   0  -1   15.00    0.82
  -7   0  -1   14.79    0.79
   7   0   1   14.25    0.79
   8   0   1    1.23    0.11
  -8   0  -1    1.11    0.17
  -8   0  -1    1.12    0.15
  -8   0  -1    1.04    0.13
  -8   0  -1    1.00    0.13
  -8   0  -1    0.97    0.15
   8   0   1    0.87    0.12
  -8   0  -1    1.26    0.19
  -9   0  -1   54.33    2.68
  -9   0  -1   58.51    2.65
  -9   0  -1   53.73    2.62
  -9   0  -1   52.33    2.68
  -9   0  -1   50.13    2.63
  10   0   1   23.88    1.36
 -10   0  -1   29.61    1.36
  11  -1  -1    4.41    0.24
 -10  -1   1    0.05    0.07
 -10   1   1    0.10    0.06
  10   1  -1    0.13    0.07
  10   1  -1    0.16    0.05
  -9  -1   1    9.00    0.51
  -9  -1   1    8.10    0.49
  -9  -1   1    8.22    0.49
  -9  -1   1    8.05    0.55
  -9  -1   1    8.44    0.52
   9   1  -1    8.13    0.49
   9   1  -1    7.91    0.44
  -9   1   1    9.53    0.56
  -8  -1   1    2.52    0.21
  -8  -1   1    2.43    0.23
  -8  -1   1    2.44    0.22
  -8  -1   1    2.52    0.26
   8   1  -1    2.51    0.17
  -8   1   1    2.18    0.21
  -8   1   1    2.38    0.18
   8   1  -1    2.71    0.23
   8   1  -1    2.57    0.18
  -8   1   1    2.48    0.19
   8   1  -1    2.10    0.20
   7  -1  -1    3.17    0.25
  -7  -1   1    3.10    0.23
  -7  -1   1    3.15    0.23
  -7  -1   1    3.06    0.28
  -7  -1   1    3.02    0.25
  -7  -1   1    3.03    0.25
  -7  -1   1    2.88    0.24
   7   1  -1    3.02    0.24
   7   1  -1    2.60    0.23
  -7   1   1    2.93    0.23
  -7   1   1    2.72    0.21
  -7   1   1    2.97    0.27
   7   1  -1    2.82    0.19
  -7   1   1    2.93    0.24
  -7   1   1    2.78    0.21
   7   1  -1    2.71    0.26
   7   1  -1    2.82    0.19
  -7   1   1    2.84    0.23
   6  -1  -1  166.06    7.20
   6  -1  -1  148.63    7.15
   6  -1  -1  160.59    7.20
  -6  -1   1  167.99    7.33
  -6  -1   1  155.98    7.85
   6  -1  -1  146.58    7.59
   6  -1  -1  150.74    7.22
   6  -1  -1  156.52    7.28
  -6  -1   1  152.58    7.19
   6  -1  -1  145.23    7.16
  -6   1   1  142.09    7.17
  -6   1   1  146.71    7.20
  -6   1   1  134.75    7.56
  -6   1   1  143.40    7.18
  -6   1   1  146.18    7.17
  -6   1   1  146.22    7.18
  -6   1   1  147.28    7.16
   6   1  -1  148.50    7.14
   6   1  -1  144.24    7.13
   6   1  -1  147.76    7.18
  -6   1   1  146.29    7.22
   5  -1  -1   15.31    2.55
  -5  -1   1   17.09    0.86
  -5  -1   1   15.03    0.81
  -5  -1   1   16.19    1.39
  -5  -1   1   15.27    0.78
  -5  -1   1   15.86    0.82
   5  -1  -1   13.59    1.97
   5  -1  -1   15.15    1.18
   5  -1  -1   14.46    0.81
  -5  -1   1   13.85    1.73
   5  -1  -1   13.87    2.48
  -5  -1   1   11.52    2.31
   5  -1  -1   14.82    0.79
   5  -1  -1   16.31    3.62
   5  -1  -1   14.74    1.05
   5  -1  -1   14.88    0.77
  -5  -1   1   15.18    2.32
  -5  -1   1   14.99    0.77
   5  -1  -1   14.21    0.78
  -5  -1   1   14.59    1.90
  -5   1   1   15.71    1.92
  -5   1   1   14.87    1.04
  -5   1   1   15.07    0.81
  -5   1   1   11.91    2.16
  -5   1   1   14.91    0.79
   5   1  -1   11.50    2.10
  -5   1   1   14.56    0.76
   5   1  -1   14.97    0.79
   5   1  -1   15.05    1.71
   5   1  -1   15.97    0.83
  -5   1   1   12.24    2.66
   5   1  -1   18.82    2.33
  -5   1   1   15.17    0.77
  -5   1   1   14.51    0.78
   5   1  -1   14.89    1.99
  -4  -1   1   21.45    1.07
  -4  -1   1   21.91    1.38
  -4  -1   1   25.86    2.33
   4  -1  -1   20.89    2.39
   4  -1  -1   21.00    1.14
  -4  -1   1   21.73    1.09
  -4  -1   1   21.79    1.06
  -4  -1   1   21.51    1.06
  -4  -1   1   22.51    1.23
  -4  -1   1   20.10    2.19
  -4  -1   1   20.84    1.89
   4  -1  -1   22.15    2.09
   4  -1  -1   21.52    2.26
   4  -1  -1   21.65    1.07
   4  -1  -1   20.95    1.41
  -4  -1   1   19.61    1.98
   4  -1  -1   20.71    1.31
  -4   1   1   21.37    2.46
   4   1  -1   19.45    2.05
  -4   1   1   20.43    1.06
  -4   1   1   20.44    1.09
  -4   1   1   21.78    1.11
   4   1  -1   22.74    1.11
   4   1  -1   20.66    1.82
   4   1  -1   20.29    1.06
  -4   1   1   22.17    2.14
  -4   1   1   21.23    1.07
  -4   1   1   16.45    2.30
  -4   1   1   20.44    1.27
   4   1  -1   23.58    2.20
   4   1  -1   23.38    2.00
   4   1  -1   22.19    1.04
   3  -1  -1   57.03    3.01
   3  -1  -1   62.86    3.15
   3  -1  -1   59.64    4.04
   3  -1  -1   58.53    4.09
  -3  -1   1   57.39    3.03
   3  -1  -1   55.03    2.78
  -3  -1   1   59.16    3.74
  -3  -1   1   61.18    3.62
  -3  -1   1   64.49    3.88
   3  -1  -1   60.74    3.91
   3  -1  -1   56.66    2.79
   3  -1  -1   57.51    3.73
  -3  -1   1   57.18    3.46
  -3  -1   1   56.78    2.78
  -3  -1   1   57.10    2.79
  -3  -1   1   58.23    2.85
   3   1  -1   57.93    2.82
   3   1  -1   61.01    3.55
  -3   1   1   54.63    3.83
  -3   1   1   54.09    2.93
   3   1  -1   60.34    3.44
   3   1  -1   56.69    3.62
  -3   1   1   61.33    2.78
   3   1  -1   49.21    2.84
   3   1  -1   59.30    3.69
  -3   1   1   58.39    4.11
  -3   1   1   61.34    3.79
   3   1  -1   58.52    2.77
  -3   1   1   52.54    2.80
   3   1  -1   58.04    2.78
  -3   1   1   59.15    4.09
  -3   1   1   55.51    2.78
   2  -1  -1  158.55    8.12
  -2  -1   1  140.65    7.76
   2  -1  -1  165.74    8.28
   2  -1  -1  154.35    7.58
  -2  -1   1  154.40    7.87
   2  -1  -1  163.94    8.46
   2  -1  -1  158.47    7.66
  -2  -1   1  149.77    7.42
   2  -1  -1  139.74    8.26
  -2  -1   1  151.81    7.56
  -2  -1   1  147.91    7.50
  -2  -1   1  165.59    8.05
  -2  -1   1  153.21    7.97
  -2   1   1  144.53    7.49
  -2   1   1  158.30    7.39
  -2   1   1  155.59    8.12
   2   1  -1  157.46    7.38
   2   1  -1  151.42    7.90
  -2   1   1  144.19    7.38
  -2   1   1  145.00    7.47
   2   1  -1  161.77    7.79
   2   1  -1  172.51    8.16
   2   1  -1  158.82    7.94
  -2   1   1  162.43    8.27
  -2   1   1  162.42    8.47
  -2   1   1  165.68    8.43
  -1  -1   1 1000.00   47.41
   1  -1  -1  997.98   47.80
  -1   1   1  990.39   47.84
   0  -1   1  149.23    7.64
   0  -1  -1  152.97    7.55
   0  -1   1  147.78    7.68
   0  -1   1  152.62    7.71
   0  -1   1  144.73    7.59
   0  -1   1  133.04    7.44
   0  -1  -1  172.52    7.55
   0   1  -1  162.72    7.80
   0   1  -1  159.50    7.67
   0   1   1  167.54    7.72
   0   1   1  166.47    7.63
   0   1   1  164.20    7.67
   0   1   1  147.91    7.51
   0   1   1  153.13    7.71
   0   1   1  165.29    7.66
   0   1   1  170.63    7.75
   0   1  -1  166.18    7.67
   0   1   1  154.10    7.71
   0   1   1  147.48    7.62
   0   1  -1  140.10    7.49
   0   1  -1  162.45    7.60
   0   1   1  160.03    7.56
  -1  -1  -1  180.03    8.63
   1  -1   1  180.98    9.25
  -1  -1  -1  191.76    8.91
  -1  -1  -1  181.84    8.67
   1  -1   1  177.45    8.73
  -1  -1  -1  186.10    9.06
   1  -1   1  183.17    9.23
   1  -1   1  182.36    9.12
  -1  -1  -1  192.12    8.81
  -1  -1  -1  192.86    8.95
  -1  -1  -1  180.04    8.61
   1  -1   1  175.26    8.93
   1  -1   1  191.29    9.06
   1  -1   1  151.77    8.68
  -1   1  -1  174.81    9.14
   1   1   1  186.38    8.82
  -1   1  -1  185.36    9.08
  -1   1  -1  172.41    8.97
   1   1   1  180.20    8.92
  -1   1  -1  167.77    8.66
   1   1   1  185.99    8.85
  -1   1  -1  181.38    8.58
  -1   1  -1  181.46    9.20
   1   1   1  173.40    8.89
   2  -1   1   13.66    0.95
  -2  -1  -1   13.54    0.72
   2  -1   1   14.08    0.74
  -2  -1  -1   14.72    0.71
  -2  -1  -1   15.31    1.09
   2  -1   1   14.69    0.90
   2  -1   1   14.47    0.72
   2  -1   1   14.95    0.85
   2  -1   1   14.82    1.36
   2  -1   1   15.27    1.45
  -2  -1  -1   16.25    1.28
   2  -1   1   13.92    1.26
   2  -1   1   14.83    1.50
  -2  -1  -1   15.20    1.16
  -2  -1  -1   15.09    0.83
  -2  -1  -1   15.78    1.23
  -2   1  -1   14.15    0.72
   2   1   1   15.20    0.74
  -2   1  -1   15.05    1.41
   2   1   1   14.78    1.16
  -2   1  -1   14.09    1.23
  -2   1  -1   14.15    0.79
   2   1   1   14.40    0.71
  -2   1  -1   14.47    1.30
  -2   1  -1   15.97    1.46
   2   1   1   14.63    0.75
   2   1   1   15.18    1.11
  -2   1  -1   14.36    0.72
   2   1   1   12.65    1.16
   2   1   1   14.34    1.24
  -2   1  -1   15.16    0.73
   2   1   1   12.73    0.82
   3  -1   1  205.71   11.16
   3  -1   1  207.76   11.01
  -3  -1  -1  224.01   10.80
   3  -1   1  206.35   11.43
  -3  -1  -1  200.18    9.96
  -3  -1  -1  231.49   11.11
  -3  -1  -1  223.17   10.99
   3  -1   1  207.81   10.03
  -3  -1  -1  205.67    9.89
   3  -1   1  194.53   10.07
  -3  -1  -1  219.26   10.66
   3  -1   1  214.30   11.57
  -3  -1  -1  211.63   10.14
   3  -1   1  197.68   10.17
   3   1   1  209.89   10.96
  -3   1  -1  194.52    9.97
   3   1   1  213.39   11.05
  -3   1  -1  208.93   11.31
   3   1   1  194.32   10.71
  -3   1  -1  190.47    9.83
  -3   1  -1  205.56    9.82
  -3   1  -1  212.77   10.93
   3   1   1  177.33   10.53
   4  -1   1    6.54    0.36
   4  -1   1    6.57    0.38
  -4  -1  -1    6.45    1.00
  -4  -1  -1    8.51    1.26
  -4  -1  -1    6.76    0.39
   4  -1   1    6.37    1.42
   4  -1   1    6.19    1.35
  -4  -1  -1    6.96    0.54
   4  -1   1    6.93    0.58
   4  -1   1    8.14    1.74
   4  -1   1    7.27    0.86
  -4  -1  -1    5.24    1.23
  -4  -1  -1    6.80    0.38
   4  -1   1    6.51    0.38
  -4  -1  -1    7.00    0.64
  -4  -1  -1    6.22    1.00
  -4  -1  -1    6.54    0.37
  -4  -1  -1    6.84    0.36
   4  -1   1    7.49    1.20
  -4  -1  -1    6.61    0.36
  -4   1  -1    6.74    1.31
  -4   1  -1    5.56    1.47
  -4   1  -1    7.01    0.37
   4   1   1    7.69    1.39
   4   1   1    5.72    1.00
  -4   1  -1    5.61    0.36
   4   1   1    6.29    0.35
  -4   1  -1    6.07    0.37
   4   1   1    6.74    0.41
  -4   1  -1    6.27    0.37
  -4   1  -1    6.03    0.38
   4   1   1    7.18    1.09
   4   1   1    5.09    1.17
  -5  -1  -1   32.69    1.58
  -5  -1  -1   25.72    3.21
  -5  -1  -1   31.26    1.56
  -5  -1  -1   33.44    1.84
   5  -1   1   31.39    1.60
   5  -1   1   33.04    1.56
  -5  -1  -1   33.17    1.57
   5  -1   1   30.10    2.00
  -5  -1  -1   33.06    1.61
   5  -1   1   37.66    4.21
   5  -1   1   31.57    1.57
  -5  -1  -1   33.29    1.56
   5  -1   1   30.84    1.87
   5  -1   1   35.83    3.76
   5  -1   1   33.06    3.60
   5  -1   1   29.85    3.23
   5  -1   1   30.91    1.55
   5  -1   1   31.74    1.58
  -5  -1  -1   32.82    1.58
  -5  -1  -1   33.86    2.04
  -5   1  -1   31.35    1.57
   5   1   1   30.93    3.29
   5   1   1   30.83    1.55
  -5   1  -1   28.25    3.40
   5   1   1   31.53    1.61
  -5   1  -1   31.27    1.55
  -5   1  -1   30.22    1.59
  -5   1  -1   31.35    1.58
  -5   1  -1   26.18    2.96
  -5   1  -1   30.05    1.57
  -5   1  -1   31.08    1.85
   5   1   1   29.17    2.89
  -5   1  -1   30.18    3.66
  -6  -1  -1    1.61    0.18
   6  -1   1    1.69    0.16
   6  -1   1    1.47    0.19
   6  -1   1    1.43    0.23
   6  -1   1    1.47    0.36
   6  -1   1    1.47    0.13
  -6  -1  -1    1.71    0.15
  -6  -1  -1    2.23    0.54
  -6  -1  -1    1.54    0.16
  -6  -1  -1    1.57    0.16
  -6  -1  -1    1.69    0.15
  -6  -1  -1    1.69    0.17
   6   1   1    1.58    0.23
   6   1   1    1.57    0.14
  -6   1  -1    1.52    0.14
   6   1   1    1.44    0.16
  -6   1  -1    1.64    0.42
  -6   1  -1    1.59    0.14
  -6   1  -1    1.51    0.17
   6   1   1    1.72    0.13
  -6   1  -1    1.43    0.15
   6   1   1    1.53    0.18
  -7  -1  -1   70.57    3.48
   7  -1   1   72.10    3.48
  -7  -1  -1   77.42    3.46
  -7  -1  -1   74.55    3.49
  -7  -1  -1   73.60    3.48
  -7  -1  -1   72.49    3.45
  -7   1  -1   66.47    3.42
  -7   1  -1   67.13    3.41
   7   1   1   68.51    3.40
  -7   1  -1   69.95    3.46
  -7   1  -1   69.92    3.43
  -7   1  -1   65.17    3.50
   7   1   1   70.81    3.46
  -8  -1  -1   35.01    1.75
  -8  -1  -1   36.70    1.77
  -8  -1  -1   35.35    1.81
  -8  -1  -1   34.98    1.84
  -8  -1  -1   35.11    1.77
  -8  -1  -1   35.71    1.79
  -8   1  -1   32.70    1.72
   8   1   1   35.11    1.71
   8   1   1   34.34    1.76
  -8   1  -1   34.55    1.78
  -9  -1  -1    8.85    0.52
  -9  -1  -1    9.33    0.55
  -9  -1  -1    9.82    0.55
  -9  -1  -1    8.78    0.52
  -9  -1  -1    9.06    0.53
   9   1   1    8.86    0.48
   9   1   1    9.22    0.52
   9   1   1    9.41    0.52
   9   1   1    9.16    0.52
 -10  -1  -1   28.58    1.52
 -10  -1  -1   34.00    1.53
 -10  -1  -1   30.25    1.50
 -10   1  -1   28.52    1.52
  10   1   1   31.27    1.50
 -10  -2   1    1.66    0.13
 -10  -2   1    1.73    0.13
  10   2  -1    1.49    0.13
  10   2  -1    1.58    0.13
  10   2  -1    1.24    0.11
  -9  -2   1   10.64    0.64
  -9  -2   1   10.56    0.58
  -9  -2   1   10.43    0.57
  -9  -2   1   10.07    0.59
  -9  -2   1   10.27    0.58
   9   2  -1   10.49    0.53
   9   2  -1   10.03    0.56
   9   2  -1    9.96    0.58
  -8  -2   1    7.79    0.54
  -8  -2   1    8.05    0.58
  -8  -2   1    7.37    0.44
  -8  -2   1    7.45    0.45
  -8  -2   1    7.34    0.47
   8  -2  -1    6.96    0.40
   8   2  -1    6.76    0.46
   8   2  -1    6.69    0.45
   8   2  -1    7.11    0.40
   8   2  -1    8.18    0.43
  -8   2   1    6.31    0.43
   7  -2  -1   70.08    3.60
   7  -2  -1   70.21    3.75
  -7  -2   1   74.35    3.61
   7  -2  -1   69.46    3.57
  -7  -2   1   77.16    3.63
  -7  -2   1   77.48    3.60
  -7  -2   1   76.65    3.62
  -7  -2   1   85.24    3.84
   7  -2  -1   71.91    3.58
   7  -2  -1   77.66    3.59
   7   2  -1   72.65    3.55
  -7   2   1   68.95    3.58
   7   2  -1   73.27    3.59
   7   2  -1   73.20    3.55
   7   2  -1   71.75    3.62
   7   2  -1   71.46    3.61
   7   2  -1   71.89    3.60
  -6  -2   1    0.89    0.11
  -6  -2   1    0.83    0.13
  -6  -2   1    0.78    0.11
  -6  -2   1    0.92    0.13
   6  -2  -1    0.66    0.32
   6  -2  -1    0.80    0.14
  -6  -2   1    0.72    0.11
   6  -2  -1    0.87    0.12
   6  -2  -1    0.59    0.12
   6  -2  -1    0.84    0.13
  -6   2   1    0.73    0.13
  -6   2   1    0.65    0.11
   6   2  -1    0.67    0.12
   6   2  -1    0.68    0.12
   6   2  -1    0.58    0.12
   6   2  -1    0.70    0.10
   6   2  -1    0.76    0.10
   5  -2  -1    9.26    0.50
  -5  -2   1    9.17    0.51
  -5  -2   1    9.72    0.54
   5  -2  -1    9.22    0.53
  -5  -2   1    9.07    0.50
  -5  -2   1    7.79    1.46
  -5  -2   1    9.76    0.91
  -5  -2   1    9.54    0.50
  -5  -2   1    7.79    0.49
   5  -2  -1    8.92    0.50
  -5  -2   1    6.06    2.22
   5  -2  -1    8.53    0.84
   5  -2  -1    8.73    0.55
   5  -2  -1    9.27    0.56
  -5   2   1    8.64    0.74
   5   2  -1    9.14    0.51
   5   2  -1    8.65    0.52
   5   2  -1    9.28    0.57
   5   2  -1    9.24    0.49
  -5   2   1    9.94    0.54
  -5   2   1    8.64    0.51
  -4  -2   1   35.45    3.55
   4  -2  -1   32.06    3.38
   4  -2  -1   29.82    2.85
   4  -2  -1   32.46    1.63
  -4  -2   1   29.22    2.33
  -4  -2   1   33.85    2.28
   4  -2  -1   33.44    1.61
   4  -2  -1   30.51    1.61
  -4  -2   1   27.95    1.69
  -4  -2   1   33.21    2.01
   4  -2  -1   37.09    2.39
   4  -2  -1   33.04    2.02
  -4  -2   1   34.53    1.63
  -4  -2   1   37.57    2.65
  -4  -2   1   32.80    1.59
   4  -2  -1   31.43    1.65
  -4  -2   1   33.57    1.60
   4   2  -1   32.58    1.62
  -4   2   1   30.75    1.61
  -4   2   1   34.02    1.62
   4   2  -1   33.14    1.60
   4   2  -1   32.74    1.67
  -4   2   1   32.14    1.83
  -3  -2   1   67.91    3.96
  -3  -2   1   79.79    4.17
   3  -2  -1   82.54    4.39
   3  -2  -1   78.44    3.84
  -3  -2   1   78.85    3.82
   3  -2  -1   82.83    5.54
   3  -2  -1   82.59    3.85
   3  -2  -1   85.02    4.25
  -3  -2   1   66.16    4.03
  -3  -2   1   83.87    4.33
  -3  -2   1   81.05    3.83
  -3  -2   1   89.14    4.35
   3  -2  -1   81.27    3.86
  -3  -2   1   87.89    4.47
   3  -2  -1   79.29    3.88
  -3  -2   1   81.84    4.13
   3  -2  -1   75.60    5.00
  -3  -2   1   86.34    4.22
  -3  -2   1   78.96    4.26
  -3   2   1   74.30    5.31
   3   2  -1   81.34    3.90
  -3   2   1   80.05    3.85
   3   2  -1   78.93    3.87
   3   2  -1   79.21    3.85
   3   2  -1   82.50    3.83
  -3   2   1   77.04    5.00
   3   2  -1   80.02    3.84
  -3   2   1   77.52    4.02
  -3   2   1   81.93    3.85
   2  -2  -1   14.53    0.77
   2  -2  -1   16.67    1.18
   2  -2  -1   15.41    0.78
  -2  -2   1   16.89    1.01
  -2  -2   1   14.97    0.96
   2  -2  -1   14.16    0.82
   2  -2  -1   14.94    1.42
  -2  -2   1   14.97    0.84
   2  -2  -1   15.03    0.75
  -2  -2   1   14.85    0.72
   2  -2  -1   15.83    1.63
   2  -2  -1   15.38    1.02
   2  -2  -1   15.63    1.63
   2  -2  -1   15.38    1.50
   2   2  -1   15.01    0.76
  -2   2   1   15.09    0.77
  -2   2   1   13.08    0.81
   2   2  -1   14.89    0.79
   2   2  -1   15.43    0.76
   2   2  -1   15.36    0.76
  -2   2   1   14.50    0.72
   2   2  -1   15.06    0.77
  -2   2   1   13.16    1.32
  -2   2   1   14.98    0.76
   1  -2  -1   32.10    1.53
  -1  -2   1   31.03    1.68
  -1  -2   1   30.72    1.49
  -1  -2   1   32.42    1.67
   1  -2  -1   33.01    1.78
  -1  -2   1   33.65    1.84
   1  -2  -1   32.17    1.87
   1  -2  -1   31.68    1.52
   1  -2  -1   30.85    1.57
  -1   2   1   29.45    2.05
  -1   2   1   33.99    1.56
   1   2  -1   32.19    1.54
   1   2  -1   32.07    1.54
  -1   2   1   32.87    1.55
   1   2  -1   32.09    1.54
  -1   2   1   31.73    1.53
  -1   2   1   31.85    1.54
   1   2  -1   29.48    1.55
   1   2  -1   31.72    1.54
  -1   2   1   27.90    1.96
  -1   2   1   29.69    2.15
  -1   2   1   29.38    2.16
  -1   2   1   30.93    1.87
   0  -2   1   23.14    1.25
   0  -2   1   22.37    1.28
   0  -2   1   20.48    1.03
   0  -2  -1   22.23    1.24
   0  -2   1   20.49    1.20
   0  -2  -1   20.47    1.03
   0  -2  -1   20.70    1.09
   0  -2  -1   22.01    1.31
   0  -2   1   23.12    1.30
   0  -2   1   23.98    1.40
   0  -2   1   22.07    1.17
   0   2  -1   21.26    1.32
   0   2  -1   22.35    1.07
   0   2   1   19.54    1.21
   0   2   1   18.98    1.29
   0   2   1   21.37    1.23
   0   2   1   21.64    1.06
   0   2   1   20.37    1.07
   0   2   1   20.52    1.29
   0   2  -1   21.04    1.06
   0   2   1   20.97    1.25
   0   2  -1   21.20    1.24
   0   2  -1   22.63    1.19
   0   2  -1   21.03    1.07
   0   2   1   22.90    1.07
   0   2  -1   21.06    1.08
   0   2   1   19.27    1.23
   0   2   1   20.41    1.06
   0   2   1   21.39    1.30
   0   2  -1   23.28    1.26
   0   2   1   21.18    1.31
   0   2   1   21.83    1.09
   1  -2   1   21.54    1.16
   1  -2   1   21.24    1.04
  -1  -2  -1   20.17    1.20
  -1  -2  -1   19.55    1.01
  -1  -2  -1   21.25    1.24
   1  -2   1   19.95    1.03
   1  -2   1   23.44    1.77
   1  -2   1   23.25    1.51
  -1  -2  -1   20.32    1.01
  -1  -2  -1   21.28    1.18
   1  -2   1   21.54    1.40
   1  -2   1   23.58    1.88
   1  -2   1   23.45    1.66
  -1   2  -1   21.95    1.07
  -1   2  -1   20.54    1.06
  -1   2  -1   21.54    1.04
   1   2   1   22.59    1.07
  -1   2  -1   18.02    1.55
  -1   2  -1   21.50    1.06
  -1   2  -1   21.84    1.61
  -1   2  -1   19.46    1.49
  -1   2  -1   20.88    1.46
   1   2   1   21.05    1.05
   1   2   1   20.42    1.08
   1   2   1   21.34    1.04
   1   2   1   21.10    1.05
  -2  -2  -1  315.92   14.89
   2  -2   1  294.41   14.71
   2  -2   1  329.31   15.87
   2  -2   1  307.52   15.28
   2  -2   1  326.77   15.97
  -2  -2  -1  282.72   14.77
  -2  -2  -1  308.44   15.01
   2  -2   1  321.39   16.24
   2  -2   1  315.52   15.07
   2  -2   1  318.48   16.15
  -2  -2  -1  330.39   14.81
   2  -2   1  319.43   14.89
   2   2   1  302.97   14.70
  -2   2  -1  263.39   15.61
   3  -2   1   49.68    3.73
  -3  -2  -1   47.30    2.84
  -3  -2  -1   46.22    2.58
  -3  -2  -1   43.85    2.30
  -3  -2  -1   42.26    2.49
  -3  -2  -1   47.36    2.71
   3  -2   1   41.80    2.12
   3  -2   1   44.08    2.34
  -3  -2  -1   39.28    2.09
   3  -2   1   42.20    2.49
   3  -2   1   43.52    2.15
   3  -2   1   42.02    2.13
   3  -2   1   45.56    3.50
   3  -2   1   42.95    2.65
  -3  -2  -1   43.14    2.10
   3  -2   1   45.78    3.37
   3  -2   1   44.92    3.78
  -3  -2  -1   46.58    2.79
  -3   2  -1   40.57    2.18
  -3   2  -1   41.91    2.10
   3   2   1   44.21    2.18
  -3   2  -1   37.11    3.03
   3   2   1   40.18    2.58
  -3   2  -1   43.32    2.13
   3   2   1   41.69    2.70
   3   2   1   46.37    2.71
   3   2   1   43.12    2.11
   3   2   1   45.89    2.16
   4  -2   1   37.40    1.86
   4  -2   1   37.38    2.13
   4  -2   1   38.53    1.89
  -4  -2  -1   38.81    1.86
   4  -2   1   41.12    3.85
  -4  -2  -1   32.40    2.66
   4  -2   1   38.39    1.84
   4  -2   1   42.83    4.49
   4  -2   1   36.67    1.84
  -4  -2  -1   37.93    1.84
  -4  -2  -1   35.31    1.82
  -4  -2  -1   37.70    1.83
   4  -2   1   38.35    2.30
  -4  -2  -1   33.48    2.86
  -4   2  -1   38.63    1.85
  -4   2  -1   36.90    1.82
  -4   2  -1   36.35    1.97
   4   2   1   36.47    1.83
   4   2   1   37.51    1.91
   4   2   1   39.19    1.89
   4   2   1   36.76    2.86
   4   2   1   42.30    3.93
   4   2   1   35.04    2.64
   5  -2   1    4.86    0.60
   5  -2   1    4.53    0.30
   5  -2   1    4.51    0.31
  -5  -2  -1    4.10    0.27
  -5  -2  -1    4.32    0.28
   5  -2   1    4.24    0.29
  -5  -2  -1    4.87    0.32
   5  -2   1    4.64    0.33
  -5  -2  -1    4.50    0.28
  -5  -2  -1    4.13    0.42
   5  -2   1    4.65    0.29
  -5  -2  -1    4.58    0.30
   5   2   1    4.11    0.34
  -5   2  -1    4.21    0.28
   5   2   1    4.31    0.29
  -5   2  -1    4.67    0.26
   5   2   1    4.14    0.26
   5   2   1    4.27    0.30
   5   2   1    4.09    0.30
   5   2   1    4.15    0.30
  -5   2  -1    4.51    0.28
  -6  -2  -1    8.24    0.51
   6  -2   1    7.51    0.45
   6  -2   1    9.15    1.08
   6  -2   1    7.76    0.46
   6  -2   1    7.70    0.48
   6  -2   1    7.88    0.51
   6  -2   1    8.64    0.54
  -6  -2  -1    8.19    0.52
  -6  -2  -1    7.98    0.46
  -6  -2  -1    7.86    0.47
   6  -2   1    7.98    0.45
  -6  -2  -1    7.88    0.46
   6   2   1    7.63    0.47
   6   2   1    7.58    0.48
   6   2   1    7.86    0.47
  -6   2  -1    8.26    0.43
   6   2   1    7.62    0.42
   6   2   1    7.57    0.42
   6   2   1    7.55    0.54
  -6   2  -1    7.24    0.46
   6   2   1    7.80    0.48
  -7  -2  -1    4.90    0.37
  -7  -2  -1    5.09    0.38
  -7  -2  -1    4.79    0.33
   7  -2   1    4.66    0.32
  -7  -2  -1    4.69    0.34
  -7  -2  -1    4.95    0.32
   7  -2   1    4.75    0.31
   7  -2   1    4.44    0.33
  -7  -2  -1    4.77    0.35
   7   2   1    4.83    0.34
   7   2   1    4.94    0.45
   7   2   1    4.82    0.28
   7   2   1    4.96    0.32
   7   2   1    4.89    0.29
   7   2   1    4.86    0.33
   7   2   1    4.47    0.28
   7   2   1    4.73    0.34
  -7   2  -1    4.70    0.33
  -8  -2  -1    4.98    0.35
  -8  -2  -1    4.80    0.33
  -8  -2  -1    4.95    0.32
  -8  -2  -1    5.11    0.33
  -8  -2  -1    4.99    0.38
   8   2   1    4.68    0.33
   8   2   1    4.63    0.31
   8   2   1    5.24    0.29
   8   2   1    4.30    0.27
   8   2   1    4.19    0.33
  -8   2  -1    4.76    0.34
   8   2   1    4.52    0.32
  -9  -2  -1    3.87    0.25
  -9  -2  -1    3.84    0.26
  -9  -2  -1    3.70    0.25
  -9  -2  -1    3.88    0.27
  -9  -2  -1    3.95    0.28
   9   2   1    3.72    0.22
  -9   2  -1    3.32    0.24
   9   2   1    3.86    0.26
   9   2   1    3.79    0.25
   9   2   1    3.24    0.26
 -10  -2  -1    5.25    0.32
 -10  -2  -1    4.52    0.27
 -10  -2  -1    4.11    0.28
  10   2   1    5.03    0.29
  10   2   1    4.70    0.28
 -10  -3   1    3.36    0.20
  10   3  -1    2.75    0.17
  -9  -3   1    3.31    0.21
  -9  -3   1    2.59    0.20
  -9  -3   1    2.67    0.22
   9   3  -1    2.99    0.20
   9   3  -1    2.86    0.20
  -9   3   1    3.04    0.19
   9   3  -1    3.02    0.19
   9   3  -1    2.92    0.19
   8  -3  -1    8.78    0.50
  -8  -3   1    7.82    0.55
  -8  -3   1    8.26    0.49
   8  -3  -1    8.16    0.45
  -8  -3   1    8.82    0.51
   8   3  -1    8.28    0.48
   8   3  -1    8.25    0.44
   8   3  -1    8.51    0.52
   8   3  -1    7.72    0.46
   8   3  -1    8.01    0.43
   8   3  -1    8.00    0.48
   8   3  -1    7.65    0.48
   7  -3  -1   10.29    0.57
  -7  -3   1   10.47    0.57
   7  -3  -1    8.99    0.56
  -7  -3   1   10.76    0.60
   7  -3  -1    9.46    0.55
   7  -3  -1    9.13    0.58
  -7  -3   1   10.83    0.63
   7   3  -1   10.03    0.58
   7   3  -1    9.77    0.52
   7   3  -1   10.09    0.59
   7   3  -1    9.63    0.58
   7   3  -1    9.90    0.53
   7   3  -1    9.41    0.55
   7   3  -1    9.45    0.57
  -6  -3   1    0.49    0.09
  -6  -3   1    0.39    0.08
  -6  -3   1    0.55    0.11
  -6  -3   1    0.59    0.13
   6  -3  -1    0.30    0.09
  -6  -3   1    0.54    0.09
   6  -3  -1    0.40    0.11
   6  -3  -1    0.33    0.14
   6  -3  -1    0.45    0.13
   6  -3  -1    0.52    0.12
   6   3  -1    0.58    0.12
  -6   3   1    0.66    0.08
   6   3  -1    0.47    0.10
   6   3  -1    0.49    0.12
   6   3  -1    0.57    0.09
   6   3  -1    0.48    0.13
   6   3  -1    0.60    0.10
   6   3  -1    0.48    0.11
  -6   3   1    0.59    0.10
  -5  -3   1    9.42    0.49
  -5  -3   1    9.19    0.51
   5  -3  -1    8.98    0.53
   5  -3  -1    8.49    0.53
   5  -3  -1    9.18    0.52
   5  -3  -1    8.79    0.57
  -5  -3   1    8.47    0.51
  -5  -3   1    9.66    0.54
   5  -3  -1    9.55    0.52
   5   3  -1    8.99    0.48
   5   3  -1    9.22    0.49
  -5   3   1    8.26    0.49
   5   3  -1    9.04    0.54
  -5   3   1    8.46    0.59
   5   3  -1    8.82    0.51
  -5   3   1    9.57    0.51
   5   3  -1    8.47    0.48
  -5   3   1    9.17    0.48
   5   3  -1    9.05    0.55
   5   3  -1    8.82    0.53
   5   3  -1    8.58    0.59
   5   3  -1    8.94    0.53
  -5   3   1    8.23    0.49
   4  -3  -1   26.58    1.37
  -4  -3   1   24.97    1.77
   4  -3  -1   26.31    1.34
   4  -3  -1   25.45    1.33
   4  -3  -1   26.74    1.31
   4  -3  -1   27.49    1.34
   4  -3  -1   26.35    1.86
  -4  -3   1   27.98    1.32
  -4  -3   1   25.58    1.27
   4   3  -1   27.13    1.29
   4   3  -1   26.02    1.39
   4   3  -1   25.20    1.31
   4   3  -1   25.99    1.29
   4   3  -1   25.52    1.33
   4   3  -1   22.43    1.40
  -4   3   1   27.61    1.33
  -4   3   1   24.52    1.29
  -4   3   1   23.94    1.29
  -4   3   1   24.85    1.33
   4   3  -1   28.93    1.36
  -4   3   1   27.56    1.32
  -4   3   1   24.69    1.33
  -4   3   1   25.23    1.33
   3  -3  -1   39.37    1.93
   3  -3  -1   39.31    1.92
  -3  -3   1   41.35    2.27
   3  -3  -1   40.47    2.45
  -3  -3   1   40.15    2.32
   3  -3  -1   38.42    1.92
   3  -3  -1   38.59    1.94
  -3  -3   1   38.97    1.88
   3   3  -1   39.67    1.94
  -3   3   1   39.27    1.93
   3   3  -1   37.74    1.92
  -3   3   1   38.75    1.95
   3   3  -1   39.25    1.93
   3   3  -1   35.52    2.03
   3   3  -1   39.71    1.96
   3   3  -1   39.24    1.99
   2  -3  -1    8.20    0.78
  -2  -3   1    7.47    0.61
  -2  -3   1    6.84    0.59
   2  -3  -1    7.20    0.42
   2  -3  -1    6.99    0.39
   2  -3  -1    6.71    0.40
  -2  -3   1    6.69    0.73
   2   3  -1    6.93    0.44
  -2   3   1    7.78    1.58
  -2   3   1    7.15    0.40
  -2   3   1    7.80    0.97
   2   3  -1    7.14    0.42
  -2   3   1    6.95    0.42
  -2   3   1    7.65    1.01
  -2   3   1    8.26    1.29
  -2   3   1    6.74    1.29
  -2   3   1    7.18    0.42
   2   3  -1    7.28    0.47
   2   3  -1    6.50    0.40
   2   3  -1    7.04    0.41
   1  -3  -1    6.63    0.72
  -1  -3   1    6.33    0.52
  -1  -3   1    6.49    0.60
  -1  -3   1    6.23    0.50
  -1  -3   1    5.85    0.30
  -1  -3   1    6.79    0.68
   1  -3  -1    6.12    0.35
  -1  -3   1    4.80    0.45
   1  -3  -1    5.71    0.60
   1   3  -1    6.56    0.37
   1   3  -1    6.19    0.38
   1   3  -1    6.47    0.37
  -1   3   1    4.90    0.79
   1   3  -1    6.52    0.37
  -1   3   1    6.20    0.36
  -1   3   1    6.33    0.37
  -1   3   1    6.39    0.37
  -1   3   1    4.99    0.61
   1   3  -1    6.27    0.38
   1   3  -1    6.30    0.35
   0  -3   1   87.95    4.14
   0  -3  -1   78.25    4.14
   0  -3  -1   88.41    4.14
   0  -3   1   87.57    4.58
   0  -3  -1   91.57    4.53
   0  -3  -1   88.53    4.66
   0  -3   1   90.57    4.79
   0  -3   1   84.46    4.14
   0  -3   1   76.31    4.32
   0   3   1   92.71    4.18
   0   3   1   85.53    4.20
   0   3  -1   80.82    4.18
   0   3  -1   87.03    4.18
   0   3  -1   89.80    4.20
   0   3   1   86.24    4.20
   0   3  -1   91.37    4.18
   0   3   1   89.76    4.20
   1  -3   1   60.00    2.87
  -1  -3  -1   55.99    2.82
   1  -3   1   61.23    3.52
   1  -3   1   60.45    3.32
  -1  -3  -1   62.71    3.26
   1  -3   1   58.87    2.87
  -1  -3  -1   60.22    3.13
  -1  -3  -1   59.77    3.17
   1   3   1   63.30    2.90
   1   3   1   61.09    2.89
  -1   3  -1   59.46    2.86
   1   3   1   57.13    2.87
  -1   3  -1   54.47    3.20
  -1   3  -1   59.62    2.86
   1   3   1   63.08    2.91
   1   3   1   57.77    2.88
  -1   3  -1   51.49    3.35
   1   3   1   59.78    2.91
  -1   3  -1   57.54    2.90
  -1   3  -1   59.93    2.90
   2  -3   1  109.12    5.61
  -2  -3  -1  105.94    5.33
  -2  -3  -1  102.74    4.99
  -2  -3  -1  112.07    5.51
   2  -3   1  104.78    5.03
   2  -3   1  111.26    5.84
   2  -3   1  104.20    5.04
   2  -3   1  104.39    5.02
  -2  -3  -1   86.09    5.23
  -2   3  -1  105.02    5.02
  -2   3  -1  107.33    5.07
   2   3   1  108.95    5.09
   2   3   1  102.86    5.04
   2   3   1  101.47    5.03
   2   3   1  103.95    5.10
   2   3   1  109.83    5.05
   3  -3   1    5.72    0.37
  -3  -3  -1    5.76    0.30
  -3  -3  -1    5.64    0.31
   3  -3   1    5.41    0.33
   3  -3   1    5.79    0.35
  -3  -3  -1    5.34    0.31
   3  -3   1    5.82    0.36
  -3  -3  -1    6.46    0.66
  -3  -3  -1    4.69    0.48
   3  -3   1    4.99    0.47
   3  -3   1    5.94    0.67
   3   3   1    5.75    0.40
  -3   3  -1    5.94    0.37
   3   3   1    5.45    0.33
   3   3   1    5.85    0.39
   3   3   1    5.94    0.35
   4  -3   1   10.66    0.58
   4  -3   1   10.95    0.63
   4  -3   1    9.89    0.59
   4  -3   1    8.24    1.16
  -4  -3  -1   12.47    1.08
  -4  -3  -1   10.61    0.55
   4  -3   1   10.49    0.58
   4  -3   1   10.80    0.60
  -4  -3  -1   11.05    0.58
   4   3   1   10.50    0.61
   4   3   1   11.19    0.60
   4   3   1   10.24    0.60
  -4   3  -1    9.98    0.56
  -4   3  -1   10.73    0.55
   4   3   1   10.21    0.55
   4   3   1   10.61    0.67
   4   3   1    9.63    0.57
   4   3   1   10.00    0.67
   4   3   1   10.61    0.64
  -4   3  -1   10.53    0.60
   4   3   1   10.67    0.60
  -4   3  -1   10.28    0.66
  -4   3  -1   10.03    0.56
  -4   3  -1   10.13    0.56
   4   3   1   11.92    0.60
   5  -3   1   18.87    1.01
   5  -3   1   18.33    1.03
   5  -3   1   18.81    1.00
   5  -3   1   19.20    1.06
  -5  -3  -1   19.29    0.98
  -5  -3  -1   20.49    1.03
   5  -3   1   19.12    1.00
   5  -3   1   19.43    1.03
  -5  -3  -1   19.95    0.99
   5   3   1   19.04    1.02
   5   3   1   19.03    1.02
   5   3   1   19.45    1.00
  -5   3  -1   18.92    1.01
   5   3   1   19.22    1.01
  -5   3  -1   19.81    0.96
   5   3   1   17.62    0.96
   5   3   1   19.02    0.96
   5   3   1   18.42    1.10
   5   3   1   19.20    1.03
   5   3   1   19.04    0.95
   6  -3   1   11.17    0.64
  -6  -3  -1   12.11    0.66
  -6  -3  -1   12.86    0.71
   6  -3   1   11.58    0.75
   6  -3   1   11.70    0.64
   6  -3   1   11.28    0.65
  -6  -3  -1   11.13    0.68
   6  -3   1   10.93    0.70
  -6  -3  -1   11.83    0.66
   6  -3   1   11.41    0.67
  -6  -3  -1   11.95    0.64
  -6   3  -1   11.59    0.60
   6   3   1   10.43    0.60
   6   3   1   12.99    0.80
   6   3   1   11.57    0.66
   6   3   1   11.22    0.60
   6   3   1   11.75    0.68
   6   3   1   11.32    0.66
   6   3   1   11.10    0.59
   6   3   1   11.35    0.66
   6   3   1   11.45    0.64
   7  -3   1    0.60    0.15
  -7  -3  -1    0.64    0.11
  -7  -3  -1    0.64    0.13
   7  -3   1    0.62    0.11
  -7  -3  -1    0.62    0.20
   7  -3   1    0.51    0.11
  -7  -3  -1    0.68    0.11
   7  -3   1    0.69    0.14
  -7  -3  -1    0.47    0.10
   7   3   1    0.59    0.08
   7   3   1    0.61    0.14
   7   3   1    0.68    0.12
   7   3   1    0.74    0.10
   7   3   1    0.75    0.12
   7   3   1    0.52    0.14
   7   3   1    0.74    0.09
  -8  -3  -1   10.46    0.63
  -8  -3  -1   10.17    0.54
   8  -3   1    9.55    0.52
  -8  -3  -1    9.85    0.56
  -8  -3  -1    9.74    0.54
   8   3   1    9.61    0.54
  -8   3  -1    9.03    0.51
   8   3   1    9.38    0.54
   8   3   1    9.57    0.54
   8   3   1    9.46    0.50
   8   3   1    9.34    0.53
   8   3   1    9.18    0.54
  -9  -3  -1   12.04    0.63
   9   3   1   13.72    0.63
   9   3   1   10.48    0.62
  -9   3  -1   10.57    0.59
   9   3   1   14.15    0.64
   9   3   1   11.43    0.61
   9   4  -1    4.84    0.28
   9   4  -1    4.99    0.26
  -8  -4   1    3.30    0.23
   8  -4  -1    3.69    0.22
  -8  -4   1    3.21    0.23
  -8   4   1    3.88    0.23
   8   4  -1    3.43    0.21
  -8   4   1    3.86    0.22
   8   4  -1    3.82    0.24
   8   4  -1    3.88    0.24
   8   4  -1    3.50    0.23
   8   4  -1    4.04    0.21
   8   4  -1    4.06    0.25
  -7  -4   1    0.31    0.08
   7  -4  -1    0.31    0.08
  -7  -4   1    0.36    0.08
   7  -4  -1    0.34    0.10
   7  -4  -1    0.38    0.09
  -7  -4   1    0.31    0.08
  -7   4   1    0.41    0.08
   7   4  -1    0.48    0.11
  -7   4   1    0.30    0.08
   7   4  -1    0.40    0.10
   7   4  -1    0.48    0.10
   7   4  -1    0.48    0.07
  -7   4   1    0.41    0.10
   7   4  -1    0.42    0.09
   7   4  -1    0.47    0.07
   7   4  -1    0.43    0.09
  -6  -4   1    1.24    0.14
   6  -4  -1    1.42    0.20
  -6  -4   1    1.31    0.15
   6  -4  -1    1.37    0.19
  -6  -4   1    1.30    0.13
  -6  -4   1    1.26    0.15
   6  -4  -1    1.52    0.16
   6  -4  -1    1.35    0.16
   6   4  -1    1.57    0.13
   6   4  -1    1.53    0.16
   6   4  -1    1.44    0.16
  -6   4   1    1.43    0.15
   6   4  -1    1.23    0.13
   6   4  -1    1.29    0.15
  -6   4   1    1.38    0.12
   6   4  -1    1.35    0.16
  -6   4   1    1.40    0.12
   6   4  -1    1.47    0.12
   5  -4  -1    7.82    0.57
   5  -4  -1    7.52    0.46
   5  -4  -1    7.44    0.44
   5  -4  -1    7.78    0.52
  -5  -4   1    6.51    0.43
   5  -4  -1    7.53    0.47
  -5  -4   1    6.39    0.43
   5   4  -1    7.68    0.46
   5   4  -1    7.35    0.47
  -5   4   1    7.36    0.45
  -5   4   1    7.72    0.43
   5   4  -1    7.11    0.42
  -5   4   1    7.27    0.42
   5   4  -1    7.70    0.41
  -5   4   1    6.98    0.50
  -5   4   1    7.13    0.42
  -5   4   1    7.12    0.42
   5   4  -1    7.29    0.46
   5   4  -1    7.45    0.40
   5   4  -1    7.16    0.44
  -5   4   1    7.51    0.41
   4  -4  -1   12.23    0.65
   4  -4  -1   11.67    0.67
   4  -4  -1   11.39    0.68
   4  -4  -1   12.38    0.72
  -4   4   1   10.93    0.63
   4   4  -1   11.80    0.68
   4   4  -1   12.04    0.62
   4   4  -1   11.87    0.61
  -4   4   1   11.53    0.63
   4   4  -1   10.50    0.66
  -4   4   1   12.13    0.62
   4   4  -1   12.46    0.68
   4   4  -1   11.45    0.64
  -4   4   1   11.49    0.63
   4   4  -1   12.02    0.67
  -4   4   1   12.56    0.64
  -4   4   1   11.70    0.76
  -4   4   1   12.11    0.67
  -4   4   1   11.58    0.63
   4   4  -1   11.72    0.68
   3  -4  -1   13.89    0.73
   3  -4  -1   13.07    0.72
   3  -4  -1   13.30    0.71
   3  -4  -1   13.27    0.71
   3  -4  -1   13.73    0.77
   3   4  -1   13.36    0.74
   3   4  -1   13.21    0.70
   3   4  -1   13.59    0.72
   3   4  -1   13.84    0.68
   3   4  -1   12.21    0.67
  -3   4   1   14.34    0.71
   3   4  -1   11.97    0.72
  -3   4   1   12.79    0.68
  -3   4   1   14.23    0.76
  -3   4   1   12.96    0.70
  -3   4   1   13.16    0.75
   3   4  -1   12.78    0.68
   3   4  -1   12.14    0.67
   3   4  -1   13.27    0.80
  -3   4   1   13.97    0.69
  -3   4   1   13.30    0.70
   3   4  -1   13.36    0.68
   3   4  -1   12.39    0.72
   3   4  -1   12.67    0.73
  -3   4   1   13.37    0.83
   3   4  -1   13.84    0.68
   3   4  -1   13.37    0.73
  -3   4   1   12.91    0.70
   3   4  -1   11.28    0.76
   3   4  -1   13.39    0.74
   2  -4  -1    3.85    0.26
   2  -4  -1    4.06    0.29
   2  -4  -1    3.86    0.28
   2  -4  -1    4.64    0.69
   2   4  -1    4.06    0.25
  -2   4   1    4.05    0.26
  -2   4   1    4.00    0.26
  -2   4   1    4.04    0.29
   2   4  -1    3.81    0.28
   2   4  -1    3.97    0.28
  -2   4   1    4.31    0.31
   2   4  -1    3.61    0.28
   2   4  -1    4.04    0.25
   2   4  -1    3.64    0.26
   2   4  -1    4.12    0.29
   2   4  -1    3.83    0.24
  -2   4   1    3.90    0.30
   2   4  -1    4.05    0.28
  -2   4   1    3.98    0.26
  -2   4   1    4.01    0.26
  -2   4   1    4.08    0.25
   2   4  -1    3.65    0.33
   2   4  -1    4.17    0.38
   2   4  -1    4.53    0.36
  -2   4   1    3.75    0.36
   2   4  -1    3.80    0.25
   2   4  -1    3.95    0.25
   2   4  -1    3.78    0.24
   1  -4  -1   12.30    0.65
  -1  -4   1   12.72    1.03
   1  -4  -1   11.09    0.61
   1  -4  -1   11.42    1.03
  -1  -4   1   12.75    0.96
   1  -4  -1   11.86    0.69
  -1   4   1   11.10    0.62
  -1   4   1   12.05    0.68
  -1   4   1   12.21    0.64
  -1   4   1   11.69    0.67
   1   4  -1   12.13    0.63
   1   4  -1   12.70    0.71
   1   4  -1   11.86    0.62
   1   4  -1   11.90    0.67
   1   4  -1   13.03    0.70
  -1   4   1   11.93    0.63
  -1   4   1   11.67    0.68
  -1   4   1   11.61    0.63
   1   4  -1   11.35    0.62
  -1   4   1   10.89    0.63
   1   4  -1   12.39    0.63
  -1   4   1   11.23    0.74
   1   4  -1   12.53    0.65
  -1   4   1   11.02    0.62
   1   4  -1   10.87    0.64
   1   4  -1   11.61    0.61
   1   4  -1   11.86    0.67
   1   4  -1   11.51    0.73
  -1   4   1   12.20    0.62
  -1   4   1   12.10    0.63
   1   4  -1   11.52    0.66
   0  -4   1    8.85    0.45
   0  -4   1    8.50    0.87
   0  -4   1    9.92    0.93
   0  -4  -1    7.94    0.87
   0  -4  -1    9.58    0.84
   0  -4  -1    9.09    0.45
   0  -4  -1    8.87    0.47
   0   4  -1    8.72    0.59
   0   4   1    8.68    0.48
   0   4  -1    8.83    0.48
   0   4   1    9.35    0.47
   0   4   1    8.26    0.58
   0   4  -1    8.64    0.51
   0   4   1    8.34    0.49
   0   4   1    8.21    0.51
   0   4   1    8.85    0.47
   0   4  -1    7.38    0.55
   0   4  -1    8.98    0.53
   0   4  -1    8.36    0.47
   0   4   1    8.76    0.47
   0   4  -1    8.49    0.47
   0   4   1    9.00    0.50
   0   4  -1    8.28    0.50
   0   4   1    7.36    0.57
   0   4  -1    8.75    0.49
   0   4   1    8.72    0.53
   0   4  -1    8.64    0.48
   0   4  -1    8.77    0.48
   0   4   1    8.88    0.53
   1  -4   1   34.38    3.12
   1  -4   1   40.00    1.91
   1  -4   1   36.52    1.87
  -1   4  -1   38.64    2.02
   1   4   1   39.58    1.91
   1   4   1   37.62    1.93
   1   4   1   38.96    1.89
   1   4   1   35.35    1.99
  -1   4  -1   37.97    1.88
  -1   4  -1   34.05    1.94
   1   4   1   39.92    1.87
  -1   4  -1   37.13    1.94
  -1   4  -1   37.51    1.88
   1   4   1   36.83    1.87
  -1   4  -1   38.87    1.93
  -1   4  -1   37.35    1.88
  -1   4  -1   38.63    1.89
   1   4   1   39.72    1.95
  -1   4  -1   39.65    1.87
   1   4   1   40.71    1.99
  -1   4  -1   42.51    1.93
   1   4   1   37.93    1.96
  -1   4  -1   40.93    1.90
   1   4   1   37.51    1.91
   2  -4   1   74.50    3.60
   2  -4   1   69.45    3.59
   2  -4   1   73.50    5.13
   2  -4   1   74.11    3.60
   2  -4   1   77.46    3.64
   2   4   1   69.89    3.60
   2   4   1   79.72    3.60
   2   4   1   73.52    3.62
  -2   4  -1   70.92    3.64
   2   4   1   71.73    3.57
  -2   4  -1   77.07    3.74
   2   4   1   76.10    3.66
  -2   4  -1   72.14    3.58
   2   4   1   76.97    3.61
   2   4   1   76.58    3.60
  -2   4  -1   80.67    3.57
   2   4   1   78.16    3.61
  -2   4  -1   79.05    3.58
  -2   4  -1   74.40    3.58
   2   4   1   74.74    3.57
   2   4   1   70.91    3.57
  -2   4  -1   70.32    3.56
  -2   4  -1   75.14    3.63
   2   4   1   69.63    3.69
   2   4   1   75.39    3.69
   2   4   1   69.61    3.62
  -2   4  -1   70.43    3.57
   3  -4   1    7.65    0.45
   3  -4   1    8.09    0.50
   3  -4   1    7.59    0.47
   3   4   1    7.73    0.47
   3   4   1    7.66    0.52
  -3   4  -1    7.32    0.43
   3   4   1    6.86    0.59
   3   4   1    7.22    0.47
  -3   4  -1    7.53    0.44
  -3   4  -1    8.44    0.45
  -3   4  -1    7.38    0.49
   3   4   1    8.23    0.47
   3   4   1    7.79    0.43
   3   4   1    7.92    0.42
   3   4   1    7.85    0.42
  -3   4  -1    7.70    0.44
  -3   4  -1    8.20    0.43
   3   4   1    7.88    0.48
   3   4   1    7.62    0.54
   3   4   1    8.14    0.46
  -3   4  -1    7.90    0.45
  -3   4  -1    8.15    0.49
  -3   4  -1    7.96    0.56
   3   4   1    7.87    0.47
   4  -4   1   29.77    1.50
   4  -4   1   30.29    1.49
   4  -4   1   28.95    1.60
   4  -4   1   30.63    1.59
   4  -4   1   28.24    1.51
   4  -4   1   30.25    1.52
  -4  -4  -1   24.56    1.46
  -4   4  -1   31.46    1.56
  -4   4  -1   29.13    1.58
   4   4   1   28.74    1.45
   4   4   1   30.74    1.51
  -4   4  -1   28.27    1.50
  -4   4  -1   31.40    1.45
   4   4   1   28.47    1.50
   4   4   1   29.75    1.48
  -4   4  -1   29.12    1.46
   4   4   1   30.53    1.52
  -4   4  -1   29.50    1.47
  -4   4  -1   29.60    1.46
   4   4   1   30.09    1.45
  -4   4  -1   29.36    1.46
   4   4   1   29.06    1.60
   4   4   1   29.02    1.44
   5  -4   1    5.32    0.34
  -5  -4  -1    4.26    0.32
  -5  -4  -1    4.73    0.30
   5  -4   1    5.34    0.37
   5  -4   1    5.12    0.39
   5  -4   1    5.07    0.34
   5   4   1    4.87    0.29
  -5   4  -1    5.28    0.35
  -5   4  -1    5.25    0.32
  -5   4  -1    4.28    0.37
   5   4   1    5.16    0.30
   5   4   1    5.22    0.35
  -5   4  -1    5.04    0.30
   5   4   1    5.37    0.35
   5   4   1    5.16    0.35
   5   4   1    4.95    0.29
   5   4   1    5.73    0.37
   5   4   1    5.18    0.33
  -5   4  -1    5.54    0.31
  -5   4  -1    4.93    0.30
   6  -4   1    1.80    0.21
  -6  -4  -1    1.58    0.17
   6  -4   1    1.78    0.19
  -6  -4  -1    1.59    0.15
  -6  -4  -1    1.73    0.17
   6  -4   1    1.90    0.19
   6  -4   1    1.66    0.17
   6  -4   1    1.85    0.18
  -6  -4  -1    1.60    0.15
  -6   4  -1    1.97    0.17
  -6   4  -1    1.93    0.14
   6   4   1    1.89    0.18
   6   4   1    1.89    0.19
   6   4   1    1.82    0.13
   6   4   1    1.87    0.14
   6   4   1    1.78    0.18
   6   4   1    1.75    0.12
   6   4   1    1.83    0.18
  -6   4  -1    1.83    0.17
   6   4   1    1.87    0.16
   7  -4   1    3.56    0.23
  -7  -4  -1    3.08    0.24
   7  -4   1    3.30    0.25
  -7  -4  -1    3.08    0.23
   7  -4   1    3.08    0.23
  -7  -4  -1    3.15    0.23
  -7  -4  -1    3.08    0.23
   7   4   1    3.70    0.25
   7   4   1    3.29    0.22
   7   4   1    3.56    0.25
  -7   4  -1    3.77    0.22
   7   4   1    3.41    0.24
   7   4   1    3.62    0.20
   7   4   1    3.56    0.24
  -7   4  -1    3.51    0.21
   8  -4   1    1.91    0.13
  -8  -4  -1    1.63    0.14
   8   4   1    1.95    0.15
   8   4   1    1.88    0.12
  -8   4  -1    1.90    0.12
   8   4   1    2.02    0.14
   8   4   1    1.75    0.14
   8   4   1    1.81    0.14
   8   4   1    1.77    0.13
   7  -5  -1    0.72    0.11
   7   5  -1    0.59    0.09
  -7   5   1    0.66    0.08
   7   5  -1    0.73    0.10
   7   5  -1    0.57    0.06
   7   5  -1    0.56    0.07
   6  -5  -1    0.41    0.10
  -6   5   1    0.27    0.07
  -6   5   1    0.38    0.08
   6   5  -1    0.38    0.07
  -6   5   1    0.35    0.06
  -6   5   1    0.37    0.06
   6   5  -1    0.34    0.06
   6   5  -1    0.31    0.06
   6   5  -1    0.40    0.12
   5  -5  -1    4.70    0.31
   5  -5  -1    4.70    0.33
   5  -5  -1    5.00    0.31
  -5   5   1    4.86    0.31
  -5   5   1    4.74    0.28
  -5   5   1    5.05    0.29
   5   5  -1    4.49    0.29
   5   5  -1    4.81    0.27
   5   5  -1    4.48    0.29
  -5   5   1    4.74    0.35
  -5   5   1    5.10    0.28
   5   5  -1    5.05    0.28
   5   5  -1    4.76    0.31
  -5   5   1    4.91    0.29
   5   5  -1    4.19    0.29
   5   5  -1    4.83    0.31
  -5   5   1    4.74    0.28
   4  -5  -1    5.89    0.38
   4  -5  -1    6.06    0.37
   4  -5  -1    5.98    0.36
   4  -5  -1    4.87    0.39
   4  -5  -1    6.18    0.37
   4   5  -1    5.77    0.36
   4   5  -1    5.80    0.36
   4   5  -1    5.47    0.32
   4   5  -1    5.61    0.35
  -4   5   1    5.75    0.37
  -4   5   1    5.70    0.34
  -4   5   1    5.79    0.33
   4   5  -1    5.51    0.31
  -4   5   1    5.62    0.31
   4   5  -1    5.63    0.35
  -4   5   1    5.92    0.43
   4   5  -1    5.70    0.32
  -4   5   1    5.74    0.34
  -4   5   1    5.71    0.34
  -4   5   1    5.93    0.34
   3  -5  -1    0.19    0.09
   3   5  -1    0.28    0.07
   3   5  -1    0.31    0.10
   3   5  -1    0.45    0.09
   3   5  -1    0.38    0.10
   3   5  -1    0.28    0.09
   3   5  -1    0.29    0.07
   3   5  -1    0.35    0.07
   3   5  -1    0.31    0.10
  -3   5   1    0.44    0.09
  -3   5   1    0.24    0.07
  -3   5   1    0.44    0.09
   3   5  -1    0.36    0.10
   3   5  -1    0.34    0.13
   3   5  -1    0.23    0.06
  -3   5   1    0.33    0.08
  -3   5   1    0.34    0.09
   2  -5  -1   12.62    0.70
   2  -5  -1   13.80    0.76
   2   5  -1   12.74    0.70
   2   5  -1   12.91    0.67
   2   5  -1   12.45    0.71
   2   5  -1   13.16    0.70
  -2   5   1   13.91    0.84
   2   5  -1   12.29    0.78
   2   5  -1   12.23    0.70
  -2   5   1   13.43    0.70
  -2   5   1   13.29    0.69
  -2   5   1   13.81    0.75
   2   5  -1   12.91    0.67
   2   5  -1   12.88    0.70
   2   5  -1   12.79    0.67
  -2   5   1   13.34    0.69
   2   5  -1   13.05    0.67
   2   5  -1   12.76    0.68
  -2   5   1   13.72    0.68
   2   5  -1   13.48    0.67
   2   5  -1   13.01    0.68
  -2   5   1   12.66    0.69
  -2   5   1   13.48    0.69
   1  -5  -1   22.33    1.15
  -1   5   1   21.19    1.10
  -1   5   1   22.26    1.09
   1   5  -1   21.61    1.09
   1   5  -1   21.42    1.11
   1   5  -1   21.13    1.21
  -1   5   1   23.45    1.27
   1   5  -1   21.90    1.10
   1   5  -1   21.78    1.09
   1   5  -1   22.19    1.09
   1   5  -1   21.38    1.14
   1   5  -1   21.52    1.10
  -1   5   1   22.47    1.11
  -1   5   1   22.81    1.17
   1   5  -1   21.37    1.10
  -1   5   1   21.10    1.10
  -1   5   1   21.94    1.10
   1   5  -1   21.25    1.09
   0   5  -1    7.08    0.51
   0   5   1    7.26    0.40
   0   5   1    6.74    0.40
   0   5  -1    7.01    0.40
   0   5  -1    7.05    0.39
   0   5   1    7.20    0.43
   0   5  -1    6.78    0.40
   0   5   1    7.22    0.52
   0   5  -1    7.13    0.39
   0   5  -1    6.63    0.39
   0   5   1    7.33    0.46
   0   5  -1    7.11    0.44
   0   5  -1    6.96    0.40
   0   5   1    7.10    0.41
   0   5   1    7.14    0.40
   0   5   1    7.37    0.40
   0   5   1    6.39    0.41
   1  -5   1    3.34    0.25
   1   5   1    3.23    0.26
  -1   5  -1    2.91    0.22
  -1   5  -1    3.15    0.21
   1   5   1    2.83    0.21
  -1   5  -1    3.13    0.22
   1   5   1    2.92    0.21
   1   5   1    3.28    0.21
   1   5   1    3.24    0.32
  -1   5  -1    3.46    0.21
  -1   5  -1    3.08    0.22
   1   5   1    3.25    0.25
   1   5   1    2.90    0.23
  -1   5  -1    3.28    0.26
   1   5   1    3.12    0.21
   1   5   1    3.40    0.24
  -1   5  -1    3.32    0.32
  -1   5  -1    3.20    0.23
   2  -5   1   20.00    1.06
   2  -5   1   20.06    1.01
  -2   5  -1   19.99    0.99
  -2   5  -1   20.36    1.13
   2   5   1   19.85    1.03
   2   5   1   19.90    1.00
  -2   5  -1   20.63    1.00
   2   5   1   17.86    1.01
   2   5   1   18.55    1.02
   2   5   1   18.57    0.98
  -2   5  -1   20.66    0.99
   2   5   1   18.55    0.98
  -2   5  -1   19.99    1.05
   2   5   1   18.63    1.09
   2   5   1   19.13    1.04
   2   5   1   18.71    0.98
   2   5   1   19.78    1.02
  -2   5  -1   20.53    1.00
  -2   5  -1   19.84    0.98
  -2   5  -1   20.68    1.00
   3  -5   1   22.29    1.11
   3  -5   1   22.26    1.11
   3  -5   1   24.08    1.21
   3   5   1   20.52    1.06
   3   5   1   20.81    1.11
  -3   5  -1   22.97    1.17
  -3   5  -1   20.91    1.07
  -3   5  -1   20.37    1.07
   3   5   1   20.29    1.12
   3   5   1   20.43    1.05
   3   5   1   23.48    1.11
   3   5   1   22.46    1.12
  -3   5  -1   21.53    1.11
   3   5   1   22.94    1.13
   3   5   1   21.75    1.10
  -3   5  -1   18.20    1.11
  -3   5  -1   21.58    1.11
   3   5   1   19.76    1.14
   4  -5   1    1.77    0.17
   4  -5   1    1.70    0.17
   4  -5   1    1.86    0.18
   4   5   1    1.76    0.16
   4   5   1    1.66    0.16
  -4   5  -1    1.74    0.14
  -4   5  -1    1.84    0.14
   4   5   1    1.65    0.16
  -4   5  -1    1.93    0.22
  -4   5  -1    1.69    0.15
   4   5   1    1.83    0.17
   4   5   1    1.74    0.15
  -4   5  -1    1.93    0.18
  -4   5  -1    1.78    0.14
   4   5   1    1.58    0.12
  -4   5  -1    1.71    0.14
   4   5   1    1.53    0.12
   5  -5   1    6.79    0.39
   5  -5   1    6.38    0.37
   5  -5   1    5.82    0.41
   5  -5   1    5.89    0.37
   5   5   1    5.80    0.36
   5   5   1    6.31    0.36
   5   5   1    6.13    0.37
   5   5   1    6.39    0.37
  -5   5  -1    6.29    0.35
  -5   5  -1    6.37    0.34
   5   5   1    6.13    0.37
  -5   5  -1    5.69    0.48
   5   5   1    5.56    0.32
  -5   5  -1    6.53    0.37
   5   5   1    6.00    0.34
  -5   5  -1    6.38    0.34
  -5   5  -1    6.31    0.34
   6  -5   1    1.72    0.16
   6  -5   1    1.67    0.15
   6  -5   1    1.75    0.19
   6   5   1    1.81    0.14
  -6   5  -1    1.82    0.12
   6   5   1    1.63    0.14
   6   5   1    1.70    0.12
  -6   5  -1    1.63    0.13
   6   5   1    1.76    0.12
   6   5   1    1.79    0.14
   7  -5   1    0.33    0.06
   7   5   1    0.41    0.06
  -7   5  -1    0.36    0.05
   7   5   1    0.35    0.06
   7   5   1    0.36    0.06
  -5   6   1    6.26    0.34
  -5   6   1    6.77    0.37
  -5   6   1    7.73    0.34
  -5   6   1    6.24    0.34
   4  -6  -1    7.11    0.44
  -4   6   1    7.76    0.42
  -4   6   1    8.29    0.44
  -4   6   1    8.89    0.42
  -4   6   1    8.84    0.42
  -4   6   1    7.88    0.41
   3  -6  -1    0.96    0.12
   3  -6  -1    0.93    0.12
  -3   6   1    1.32    0.12
  -3   6   1    1.33    0.10
  -3   6   1    1.10    0.12
  -3   6   1    1.33    0.15
   2  -6  -1    5.43    0.32
   2   6  -1    5.07    0.29
   2   6  -1    5.13    0.29
  -2   6   1    6.24    0.39
   2   6  -1    5.37    0.34
   2   6  -1    5.60    0.31
  -2   6   1    5.02    0.29
  -2   6   1    5.88    0.31
   1  -6  -1    1.76    0.19
   1   6  -1    2.04    0.13
  -1   6   1    1.69    0.14
   1   6  -1    2.07    0.20
   1   6  -1    1.73    0.12
  -1   6   1    1.72    0.14
  -1   6   1    1.51    0.13
  -1   6   1    1.53    0.13
  -1   6   1    1.61    0.19
  -1   6   1    1.69    0.13
  -1   6   1    1.61    0.16
   1   6  -1    2.02    0.13
   1   6  -1    2.08    0.16
   0   6  -1   16.00    0.74
   0   6  -1   14.80    0.73
   0   6  -1   15.94    0.74
   0   6   1   13.63    0.77
   0   6  -1   14.07    0.72
   0   6   1   13.85    0.82
   0   6  -1   16.02    0.83
   0   6   1   13.69    0.75
   0   6   1   14.49    0.77
   0   6  -1   15.20    0.77
   0   6   1   15.80    0.75
   0   6   1   13.57    0.72
   0   6   1   12.77    0.77
   1  -6   1    5.19    0.36
   1   6   1    5.04    0.29
  -1   6  -1    5.58    0.30
  -1   6  -1    6.29    0.31
   1   6   1    5.28    0.37
   1   6   1    5.16    0.29
   1   6   1    6.04    0.36
   1   6   1    4.79    0.30
  -1   6  -1    6.22    0.31
   1   6   1    4.83    0.29
  -1   6  -1    6.04    0.40
   2  -6   1    1.97    0.18
   2  -6   1    1.48    0.13
  -2   6  -1    1.50    0.16
   2   6   1    1.80    0.18
  -2   6  -1    1.92    0.14
  -2   6  -1    1.89    0.14
  -2   6  -1    1.71    0.20
   2   6   1    1.61    0.12
  -2   6  -1    1.39    0.16
   2   6   1    1.71    0.12
   2   6   1    1.65    0.14
   3  -6   1    1.03    0.12
  -3   6  -1    0.97    0.08
   3   6   1    0.75    0.07
  -3   6  -1    0.91    0.09
  -3   6  -1    0.95    0.15
   3   6   1    0.89    0.08
  -3   6  -1    1.01    0.11
  -3   6  -1    0.98    0.11
   3   6   1    0.89    0.10
   4  -6   1    1.94    0.18
  -4   6  -1    2.32    0.16
  -4   6  -1    2.28    0.14
  -4   6  -1    2.41    0.14
  -4   6  -1    2.02    0.14
  -4   6  -1    2.45    0.14
   5  -6   1    2.29    0.16
  -5   6  -1    2.07    0.13
  -5   6  -1    2.35    0.14
  11   0  -2    1.54    0.11
 -10   0   2    1.27    0.11
 -10   0   2    1.35    0.16
  10   0  -2    1.51    0.13
  -9   0   2    2.55    0.23
  -9   0   2    2.88    0.29
  -9   0   2    2.71    0.25
  -9   0   2    2.89    0.25
   9   0  -2    2.86    0.22
  -9   0   2    2.76    0.21
  -8   0   2   42.19    2.19
   8   0  -2   41.59    2.05
  -8   0   2   42.62    2.11
  -8   0   2   41.51    2.13
  -8   0   2   41.82    2.11
  -8   0   2   43.64    2.10
  -7   0   2   20.08    1.08
  -7   0   2   20.74    1.07
  -7   0   2   21.02    1.08
   7   0  -2   21.32    1.09
  -7   0   2   20.34    1.10
   7   0  -2   20.19    1.03
  -7   0   2   20.25    1.14
   6   0  -2    0.03    0.03
  -6   0   2    0.15    0.13
   6   0  -2   -0.11    0.26
  -6   0   2    0.03    0.04
  -6   0   2    0.07    0.05
   6   0  -2    0.22    0.12
   5   0  -2   33.57    1.89
   5   0  -2   33.86    1.68
   5   0  -2   34.67    3.03
  -5   0   2   34.84    1.69
   5   0  -2   30.24    1.74
   5   0  -2   34.35    3.43
  -5   0   2   30.81    3.21
  -5   0   2   36.17    2.06
   5   0  -2   35.29    2.02
   5   0  -2   37.77    3.24
   5   0  -2   40.49    3.66
  -5   0   2   28.86    3.47
  -5   0   2   35.03    1.70
  -5   0   2   29.58    3.00
  -5   0   2   35.92    1.73
  -4   0   2  202.49   11.76
  -4   0   2  198.02   11.11
  -4   0   2  203.78    9.84
  -4   0   2  167.52   10.83
   4   0  -2  201.98    9.80
   4   0  -2  207.44   10.83
   4   0  -2  209.30   11.32
   4   0  -2  211.65   11.02
   4   0  -2  194.65    9.53
   4   0  -2  210.77   11.30
   4   0  -2  196.60    9.71
  -3   0   2  434.98   21.81
   3   0  -2  432.33   21.58
   3   0  -2  407.00   20.47
   3   0  -2  442.98   23.30
   3   0  -2  440.51   21.26
  -3   0   2  396.55   21.60
  -3   0   2  434.75   21.32
  -3   0   2  439.39   21.49
   2   0  -2  649.58   30.89
  -2   0   2  633.12   30.89
  -2   0   2  617.81   30.94
  -1   0   2    1.54    0.28
  -1   0   2    1.47    0.26
  -1   0   2    1.58    0.30
  -1   0   2    1.69    0.32
   1   0  -2    1.58    0.09
  -1   0   2    2.01    0.34
   1   0  -2    1.44    0.14
  -1   0   2    1.30    0.30
  -1   0   2    1.74    0.30
  -1   0   2    1.76    0.29
  -1   0   2    1.79    0.15
  -1   0   2    1.62    0.17
  -1   0   2    1.46    0.09
   1   0  -2    1.52    0.16
   0   0  -2  113.23    5.67
   0   0  -2  131.30    6.01
   0   0   2  101.42    5.61
   0   0   2  121.54    6.05
   0   0   2  120.57    5.92
   0   0  -2  121.45    6.04
   0   0   2  122.99    6.08
   0   0  -2  115.31    5.69
   0   0   2  128.45    6.01
   0   0  -2  123.58    5.93
   0   0  -2   98.50    5.67
   0   0  -2  127.17    6.09
   0   0  -2  115.36    5.68
   1   0   2  792.70   43.98
  -1   0  -2  776.44   43.22
  -2   0  -2    2.34    0.15
   2   0   2    2.63    0.15
   2   0   2    2.50    0.24
   2   0   2    2.74    0.16
   2   0   2    2.44    0.46
  -2   0  -2    2.40    0.16
   2   0   2    2.95    0.26
   2   0   2    3.16    0.55
   2   0   2    2.64    0.17
  -2   0  -2    2.40    0.23
  -2   0  -2    3.37    0.53
  -2   0  -2    2.91    0.58
  -2   0  -2    2.57    0.15
  -2   0  -2    2.48    0.46
  -2   0  -2    2.89    0.56
   2   0   2    3.29    0.88
   3   0   2  100.38    5.19
   3   0   2  106.09    5.25
   3   0   2  120.88    6.76
  -3   0  -2  103.01    5.32
   3   0   2  107.55    6.27
  -3   0  -2  107.72    6.03
  -3   0  -2  107.87    6.18
  -3   0  -2  102.75    5.09
   3   0   2   94.90    5.09
  -3   0  -2  110.70    6.41
   3   0   2  105.26    7.12
  -3   0  -2  110.07    5.30
  -3   0  -2  107.25    6.46
   3   0   2  106.66    5.11
   3   0   2  110.00    6.56
  -3   0  -2  106.60    5.07
  -4   0  -2   28.37    1.46
   4   0   2   30.21    1.63
  -4   0  -2   32.69    2.58
   4   0   2   30.27    2.62
   4   0   2   30.67    2.82
  -4   0  -2   23.05    2.65
  -4   0  -2   29.37    1.48
  -4   0  -2   29.12    2.84
   4   0   2   27.69    3.18
   4   0   2   33.50    3.05
  -4   0  -2   29.11    1.44
   4   0   2   30.17    1.47
  -4   0  -2   30.50    1.72
   4   0   2   28.93    1.45
   4   0   2   26.65    1.55
  -4   0  -2   28.66    1.45
  -4   0  -2   30.45    1.45
  -4   0  -2   28.99    1.73
  -5   0  -2  164.56    7.56
   5   0   2  132.68    7.07
   5   0   2  142.95    7.18
  -5   0  -2  131.95    9.55
   5   0   2  136.39    7.16
   5   0   2  164.81    9.75
   5   0   2  161.65    9.38
  -5   0  -2  124.27    8.69
   5   0   2  163.83   10.30
   5   0   2  156.40    9.99
  -5   0  -2  126.09    9.34
  -5   0  -2  162.91    7.08
   5   0   2  150.12    7.25
  -6   0  -2    6.67    0.40
  -6   0  -2    6.28    0.37
  -6   0  -2    6.14    0.39
  -6   0  -2    6.01    0.41
   6   0   2    5.05    0.37
   6   0   2    5.85    0.36
  -6   0  -2    6.16    0.37
  -6   0  -2    6.26    0.39
  -6   0  -2    7.00    0.76
  -6   0  -2    5.51    0.43
  -7   0  -2   58.07    2.89
  -7   0  -2   57.51    2.95
  -7   0  -2   59.34    2.90
   7   0   2   59.27    2.86
  -7   0  -2   60.65    2.98
  -7   0  -2   60.17    2.93
  -7   0  -2   60.35    2.93
  -7   0  -2   58.16    2.93
  -8   0  -2   17.14    0.91
  -8   0  -2   16.68    0.88
  -8   0  -2   16.53    0.87
  -8   0  -2   16.34    0.95
  -8   0  -2   15.89    0.89
  -9   0  -2   16.92    0.91
  -9   0  -2   18.64    1.05
  -9   0  -2   18.02    0.92
  -9   0  -2   18.26    0.97
 -10   0  -2    3.53    0.24
  10   0   2    3.75    0.23
  11  -1  -2   13.53    0.68
 -10  -1   2    4.20    0.25
  10  -1  -2    3.45    0.23
 -10  -1   2    4.36    0.27
 -10   1   2    3.78    0.27
   9  -1  -2    0.58    0.10
  -9  -1   2    0.72    0.11
  -9  -1   2    0.83    0.15
  -9  -1   2    0.78    0.13
  -9  -1   2    0.79    0.12
  -9  -1   2    0.66    0.18
   9   1  -2    0.84    0.12
   9   1  -2    0.86    0.09
  -8  -1   2    3.81    0.31
  -8  -1   2    3.79    0.29
  -8  -1   2    3.85    0.34
  -8   1   2    3.84    0.29
  -8   1   2    3.76    0.25
   8   1  -2    3.92    0.24
   8   1  -2    4.03    0.30
   8   1  -2    4.14    0.24
  -8   1   2    3.67    0.25
  -7  -1   2    6.98    0.44
  -7  -1   2    7.59    0.44
   7  -1  -2    7.02    0.45
  -7  -1   2    7.23    0.46
  -7  -1   2    7.23    0.49
  -7  -1   2    7.22    0.43
  -7  -1   2    6.75    0.44
  -7   1   2    6.70    0.40
  -7   1   2    6.92    0.42
   7   1  -2    6.70    0.44
  -7   1   2    7.05    0.43
  -7   1   2    6.80    0.47
   7   1  -2    7.48    0.46
   7   1  -2    6.90    0.39
   7   1  -2    7.14    0.39
  -7   1   2    6.90    0.43
  -7   1   2    6.94    0.44
   6  -1  -2   80.33    4.28
  -6  -1   2   93.39    4.22
   6  -1  -2   85.69    4.18
  -6  -1   2   90.95    4.24
  -6  -1   2   90.59    4.27
   6  -1  -2   82.07    4.18
  -6  -1   2   92.03    4.21
   6  -1  -2   84.94    4.61
  -6  -1   2   86.46    4.22
  -6  -1   2   97.77    4.88
   6  -1  -2   90.42    4.22
   6   1  -2   85.78    4.17
   6   1  -2   85.32    4.16
  -6   1   2   86.24    4.20
  -6   1   2   82.82    4.20
   6   1  -2   85.21    4.24
  -6   1   2   86.65    4.26
  -6   1   2   82.69    4.21
  -6   1   2   90.72    4.23
   6   1  -2   84.75    4.21
  -6   1   2   81.50    4.61
  -6   1   2   87.01    4.19
   5  -1  -2   19.63    1.27
   5  -1  -2   18.85    0.97
  -5  -1   2   21.34    1.44
   5  -1  -2   18.26    1.01
   5  -1  -2   19.70    0.97
  -5  -1   2   20.19    1.02
  -5  -1   2   19.17    0.98
   5  -1  -2   19.53    0.99
   5  -1  -2   19.01    0.98
  -5  -1   2   21.45    1.07
   5  -1  -2   16.29    2.96
   5  -1  -2   19.24    2.62
   5  -1  -2   19.13    2.72
   5  -1  -2   18.94    1.39
   5  -1  -2   21.83    2.37
  -5  -1   2   18.92    2.85
  -5  -1   2   19.57    2.34
  -5  -1   2   15.55    2.43
  -5  -1   2   15.53    1.95
  -5  -1   2   20.52    0.98
  -5  -1   2   22.03    1.01
   5   1  -2   18.72    0.98
  -5   1   2   18.48    1.24
  -5   1   2   18.70    0.99
  -5   1   2   17.75    2.95
  -5   1   2   18.54    0.96
  -5   1   2   18.85    0.98
  -5   1   2   19.19    0.97
  -5   1   2   14.71    2.48
  -5   1   2   18.12    2.50
   5   1  -2   19.43    2.20
   5   1  -2   18.86    2.41
  -5   1   2   18.24    1.01
   5   1  -2   18.21    2.34
   5   1  -2   18.34    1.95
  -4  -1   2  126.23    7.79
  -4  -1   2  113.60    7.43
   4  -1  -2  139.40    6.68
   4  -1  -2  129.85    6.51
  -4  -1   2  143.42    7.52
  -4  -1   2  127.91    6.22
   4  -1  -2  137.48    7.71
   4  -1  -2  136.70    8.21
   4  -1  -2  137.24    7.90
   4  -1  -2  117.45    6.23
   4  -1  -2  135.63    8.22
  -4  -1   2  136.08    6.59
  -4  -1   2  113.74    7.74
   4  -1  -2  131.51    6.23
  -4   1   2  124.02    6.22
   4   1  -2  142.16    7.48
   4   1  -2  135.27    6.27
   4   1  -2  132.07    7.63
  -4   1   2  127.15    6.46
  -4   1   2  144.64    8.45
   4   1  -2  136.57    7.28
  -4   1   2  123.73    6.24
  -4   1   2  145.99    7.87
  -4   1   2  128.61    6.23
   4   1  -2  129.96    6.21
  -4   1   2  124.15    6.25
   4   1  -2  118.27    6.20
   4   1  -2  115.40    6.26
  -3  -1   2  185.01    9.26
  -3  -1   2  184.54    8.89
   3  -1  -2  163.36    9.02
  -3  -1   2  183.41    9.01
   3  -1  -2  155.98    8.30
   3  -1  -2  171.13    9.45
   3  -1  -2  164.07    9.42
  -3  -1   2  180.53    9.18
   3  -1  -2  167.84    7.99
   3  -1  -2  175.09    8.34
  -3  -1   2  178.87    8.31
   3  -1  -2  167.97    9.18
  -3   1   2  151.53    8.01
  -3   1   2  169.96    9.51
  -3   1   2  158.50    7.99
   3   1  -2  175.02    8.84
  -3   1   2  140.23    9.32
  -3   1   2  141.52    9.08
  -3   1   2  159.78    8.16
   3   1  -2  175.62    9.04
   3   1  -2  181.83    8.79
  -3   1   2  172.31    9.13
   3   1  -2  177.42    9.03
   3   1  -2  148.56    7.96
   3   1  -2  168.32    7.98
  -2  -1   2  805.73   36.46
   2  -1  -2  710.49   35.43
  -2  -1   2  743.28   35.12
   2  -1  -2  708.15   35.62
  -2  -1   2  696.23   35.18
  -2  -1   2  767.18   35.35
  -2  -1   2  694.89   35.22
   2  -1  -2  725.86   35.64
  -2  -1   2  748.68   35.74
  -2   1   2  752.61   35.56
  -2   1   2  704.69   35.69
  -2   1   2  736.79   35.44
  -2   1   2  671.18   34.63
  -2   1   2  748.24   35.80
  -1  -1   2  647.38   29.58
  -1   1   2  621.62   30.17
  -1   1   2  640.79   29.98
  -1   1   2  654.46   29.85
   1   1  -2  527.99   29.25
  -1   1   2  601.40   29.33
   0  -1   2  543.26   24.99
   0  -1  -2  477.97   25.09
   0  -1  -2  499.20   25.00
   0  -1   2  527.75   25.09
   0  -1   2  513.80   25.05
   0  -1  -2  504.75   25.09
   0   1   2  535.26   25.11
   0   1  -2  547.61   25.08
   0   1   2  491.35   24.68
   0   1  -2  552.24   25.07
   0   1   2  513.54   25.05
   1  -1   2    1.15    0.20
   1  -1   2    1.08    0.15
  -1  -1  -2    0.95    0.08
   1  -1   2    1.46    0.51
   1  -1   2    1.47    0.34
   1  -1   2    1.10    0.28
  -1  -1  -2    1.39    0.30
  -1  -1  -2    1.13    0.15
  -1  -1  -2    1.02    0.09
  -1  -1  -2    1.32    0.29
  -1  -1  -2    1.29    0.24
   1  -1   2    0.95    0.14
  -1  -1  -2    1.39    0.31
   1  -1   2    1.25    0.31
   1  -1   2    1.17    0.09
  -1   1  -2    1.19    0.08
   1   1   2    1.23    0.27
   1   1   2    1.10    0.23
  -1   1  -2    1.24    0.09
  -1   1  -2    1.00    0.07
   1   1   2    1.62    0.34
  -1   1  -2    1.07    0.27
  -1   1  -2    1.21    0.40
  -1   1  -2    1.10    0.10
  -1   1  -2    1.24    0.31
  -1   1  -2    1.38    0.36
  -1   1  -2    1.02    0.07
  -1   1  -2    0.98    0.15
  -1   1  -2    1.13    0.08
  -1   1  -2    0.98    0.14
   1   1   2    1.31    0.32
   1   1   2    1.12    0.07
   1   1   2    0.90    0.15
   1   1   2    0.99    0.10
   2  -1   2    9.44    1.09
  -2  -1  -2    8.32    0.46
   2  -1   2   10.06    1.27
  -2  -1  -2    9.10    0.91
   2  -1   2    8.97    0.60
  -2  -1  -2    9.37    0.86
   2  -1   2    8.44    1.13
   2  -1   2    9.06    1.00
  -2  -1  -2    9.36    0.99
   2  -1   2    9.07    0.48
  -2  -1  -2    8.20    0.43
   2  -1   2    8.34    0.69
   2  -1   2    8.26    0.47
  -2  -1  -2    9.12    0.45
   2  -1   2    8.17    0.62
  -2  -1  -2   10.57    1.06
  -2  -1  -2    8.88    0.58
   2   1   2    8.88    0.44
   2   1   2    8.15    0.83
   2   1   2    9.63    1.07
  -2   1  -2    9.11    0.46
  -2   1  -2    8.57    0.95
   2   1   2    9.87    0.50
   2   1   2    9.57    0.48
  -2   1  -2    9.28    1.02
  -2   1  -2    8.66    0.46
  -2   1  -2    8.74    1.11
  -2   1  -2    8.85    0.61
   2   1   2    8.39    0.97
  -2   1  -2    8.81    1.16
   2   1   2    9.59    0.94
  -2   1  -2    8.64    0.45
   3  -1   2  200.63    9.52
  -3  -1  -2  194.97   10.53
   3  -1   2  211.23   10.89
  -3  -1  -2  205.53   10.34
   3  -1   2  185.46    9.28
   3  -1   2  191.89    9.55
  -3  -1  -2  197.54    9.47
  -3  -1  -2  190.54    9.59
   3  -1   2  215.91   11.33
   3  -1   2  188.48   10.90
   3  -1   2  191.61    9.67
  -3  -1  -2  205.84   10.19
   3  -1   2  205.69    9.34
   3  -1   2  190.71   10.50
  -3  -1  -2  198.43   10.52
  -3   1  -2  191.58   10.38
   3   1   2  185.81   10.31
  -3   1  -2  184.97   11.93
   3   1   2  189.26   10.19
  -3   1  -2  195.78    9.28
  -3   1  -2  190.64   10.81
   3   1   2  205.27   10.69
  -3   1  -2  190.03    9.53
   3   1   2  200.03   10.58
  -3   1  -2  177.47    9.27
  -3   1  -2  184.67    9.41
  -4  -1  -2   36.60    3.09
  -4  -1  -2   33.68    1.83
   4  -1   2   32.44    1.60
   4  -1   2   31.15    1.87
  -4  -1  -2   32.19    1.58
   4  -1   2   30.41    1.98
  -4  -1  -2   32.41    1.61
  -4  -1  -2   33.45    1.59
  -4  -1  -2   31.93    1.60
  -4  -1  -2   33.97    1.99
   4  -1   2   32.39    1.60
   4  -1   2   31.79    1.58
  -4  -1  -2   36.32    2.67
   4  -1   2   34.38    3.21
   4  -1   2   31.30    1.88
   4   1   2   34.28    1.65
  -4   1  -2   32.86    1.58
   4   1   2   30.21    2.79
  -4   1  -2   32.89    1.59
   4   1   2   35.93    2.74
   4   1   2   33.40    3.02
  -4   1  -2   25.76    2.87
  -4   1  -2   29.84    1.61
   4   1   2   30.12    1.56
   4   1   2   29.71    3.13
  -4   1  -2   31.49    1.59
  -4   1  -2   30.76    1.59
  -5  -1  -2   33.26    1.58
  -5  -1  -2   31.99    1.56
  -5  -1  -2   33.44    1.59
   5  -1   2   31.06    1.55
   5  -1   2   31.60    1.59
   5  -1   2   39.49    5.07
  -5  -1  -2   29.47    3.54
   5  -1   2   33.06    1.56
   5  -1   2   31.35    1.59
   5  -1   2   35.36    4.09
   5  -1   2   35.78    3.97
  -5  -1  -2   31.98    2.06
   5  -1   2   29.99    1.87
   5  -1   2   34.79    3.53
  -5  -1  -2   25.61    2.80
  -5  -1  -2   33.45    1.56
   5  -1   2   31.42    1.57
   5  -1   2   32.33    2.07
  -5  -1  -2   32.18    1.57
  -5  -1  -2   34.59    1.91
  -5   1  -2   31.41    1.87
   5   1   2   30.60    1.54
  -5   1  -2   30.62    1.59
  -5   1  -2   30.37    1.55
  -5   1  -2   28.12    1.54
  -5   1  -2   24.96    4.50
  -5   1  -2   25.43    2.92
  -5   1  -2   28.20    3.47
  -5   1  -2   31.19    4.02
  -5   1  -2   30.39    1.57
  -5   1  -2   30.29    1.54
  -5   1  -2   30.90    1.57
   5   1   2   35.30    3.62
   5   1   2   33.83    1.64
   5   1   2   28.47    3.02
  -5   1  -2   32.33    1.59
   6  -1   2    9.65    0.53
  -6  -1  -2   10.42    1.09
  -6  -1  -2    9.92    0.58
  -6  -1  -2   10.12    0.56
  -6  -1  -2   10.56    0.59
  -6  -1  -2   10.41    0.61
   6  -1   2    9.63    0.63
  -6  -1  -2   10.68    0.59
   6  -1   2   10.34    0.61
  -6  -1  -2    8.59    0.86
  -6   1  -2    9.93    0.93
  -6   1  -2    9.89    0.57
   6   1   2   10.40    0.53
   6   1   2   10.58    0.63
  -6   1  -2    9.84    0.57
  -6   1  -2    9.55    0.55
  -6   1  -2    9.80    0.55
   6   1   2    9.94    0.52
   6   1   2    9.84    0.58
   6   1   2    9.76    0.55
  -6   1  -2   10.15    0.54
   6   1   2    9.77    0.57
  -6   1  -2   10.12    0.59
  -7  -1  -2   43.45    2.13
   7  -1   2   39.59    2.07
  -7  -1  -2   43.03    2.10
  -7  -1  -2   43.22    2.10
  -7  -1  -2   44.75    2.15
  -7  -1  -2   39.62    2.09
  -7  -1  -2   42.46    2.07
  -7  -1  -2   43.33    2.07
  -7   1  -2   40.48    2.08
  -7   1  -2   39.08    2.03
  -7   1  -2   37.33    2.17
   7   1   2   41.31    2.02
  -8  -1  -2   23.78    1.25
  -8  -1  -2   24.95    1.29
  -8  -1  -2   24.70    1.33
  -8  -1  -2   24.80    1.25
  -8  -1  -2   24.13    1.29
   8   1   2   24.45    1.21
   8   1   2   24.97    1.26
  -8   1  -2   23.03    1.28
  -8   1  -2   24.17    1.27
  -9  -1  -2   31.26    1.59
  -9  -1  -2   31.03    1.65
  -9  -1  -2   27.99    1.50
  -9  -1  -2   29.96    1.50
  -9  -1  -2   30.18    1.58
  -9  -1  -2   28.74    1.49
   9   1   2   31.08    1.50
  -9   1  -2   29.95    1.52
 -10  -1  -2    2.02    0.14
  10  -1   2    2.04    0.15
  10   1   2    1.90    0.14
 -10   1  -2    1.83    0.16
 -10  -2   2    0.84    0.09
 -10  -2   2    0.85    0.10
 -10   2   2    0.70    0.07
  10   2  -2    0.95    0.09
  10   2  -2    0.96    0.09
  -9  -2   2    5.64    0.34
  -9  -2   2    5.49    0.34
  -9  -2   2    5.40    0.41
  -9  -2   2    5.46    0.36
  -9  -2   2    5.47    0.35
   9   2  -2    5.21    0.34
   9   2  -2    5.05    0.32
   9   2  -2    5.69    0.31
   9   2  -2    5.08    0.34
   8  -2  -2    1.15    0.12
  -8  -2   2    1.27    0.17
  -8  -2   2    1.25    0.18
  -8  -2   2    1.27    0.15
  -8  -2   2    1.26    0.18
  -8  -2   2    1.27    0.15
   8   2  -2    0.90    0.19
   8   2  -2    1.48    0.22
   8   2  -2    1.26    0.15
   8   2  -2    1.06    0.17
   8   2  -2    1.24    0.12
  -7  -2   2   17.71    0.92
  -7  -2   2   17.72    0.91
   7  -2  -2   15.96    0.88
  -7  -2   2   16.58    1.06
   7  -2  -2   15.93    0.91
   7  -2  -2   16.95    0.89
   7  -2  -2   16.15    0.89
  -7  -2   2   16.88    0.92
  -7  -2   2   17.79    0.94
   7  -2  -2   18.45    1.04
  -7  -2   2   19.36    0.98
   7   2  -2   16.55    0.91
   7   2  -2   16.33    0.93
   7   2  -2   16.67    0.89
   7   2  -2   16.76    0.86
   7   2  -2   16.04    0.85
  -7   2   2   15.39    0.89
   7   2  -2   16.59    0.92
   7   2  -2   17.08    0.86
  -6  -2   2    8.81    0.55
   6  -2  -2    8.81    0.56
  -6  -2   2    8.88    0.49
  -6  -2   2    8.86    0.52
   6  -2  -2    9.37    0.89
   6  -2  -2    9.10    0.50
  -6  -2   2    8.67    0.49
  -6  -2   2    8.72    0.50
   6  -2  -2    8.47    0.51
   6  -2  -2    8.30    0.53
   6   2  -2    8.12    0.52
   6   2  -2    8.73    0.47
   6   2  -2    8.31    0.53
   6   2  -2    7.93    0.46
   6   2  -2    8.57    0.60
  -6   2   2    9.58    0.47
   6   2  -2    8.51    0.46
   6   2  -2    8.36    0.51
  -6   2   2    8.22    0.51
  -6   2   2    7.85    0.49
  -6   2   2    7.29    0.92
   5  -2  -2   10.11    0.62
  -5  -2   2   11.19    0.57
   5  -2  -2   10.31    0.57
  -5  -2   2   10.98    0.57
  -5  -2   2   11.17    0.58
  -5  -2   2   12.54    2.61
  -5  -2   2   10.88    0.97
   5  -2  -2   11.55    0.96
   5  -2  -2   10.90    0.60
  -5  -2   2   11.56    1.67
   5  -2  -2    8.94    0.59
   5  -2  -2   10.89    0.60
  -5  -2   2   10.58    0.60
   5   2  -2    9.91    0.58
  -5   2   2    9.40    0.58
   5   2  -2   10.97    0.65
  -5   2   2   11.30    0.58
   5   2  -2   11.38    0.64
   5   2  -2   10.27    0.72
  -5   2   2    9.47    0.82
   5   2  -2    9.01    0.60
   5   2  -2   10.52    0.56
  -4  -2   2   21.87    2.21
   4  -2  -2   29.00    3.08
   4  -2  -2   24.50    1.25
  -4  -2   2   25.89    1.86
  -4  -2   2   22.23    1.97
   4  -2  -2   24.08    1.62
   4  -2  -2   24.85    1.24
  -4  -2   2   23.95    1.20
  -4  -2   2   25.82    1.61
  -4  -2   2   23.23    1.20
  -4  -2   2   24.04    1.23
   4  -2  -2   24.06    1.22
  -4  -2   2   27.29    2.19
   4  -2  -2   26.68    2.60
   4  -2  -2   23.65    1.22
  -4   2   2   25.39    1.22
  -4   2   2   18.57    2.62
   4   2  -2   25.18    1.28
  -4   2   2   23.33    1.23
  -4   2   2   24.99    1.47
   4   2  -2   24.62    1.22
  -3  -2   2   33.49    2.12
   3  -2  -2   30.82    1.59
  -3  -2   2   36.62    2.27
   3  -2  -2   31.94    1.89
   3  -2  -2   31.46    1.55
  -3  -2   2   30.57    1.54
   3  -2  -2   32.45    2.05
  -3  -2   2   30.17    1.83
  -3  -2   2   31.90    1.97
  -3  -2   2   33.56    2.02
   3  -2  -2   30.56    1.57
  -3  -2   2   35.14    2.06
   3  -2  -2   31.69    1.56
   3  -2  -2   32.40    2.61
  -3  -2   2   31.84    1.53
   3  -2  -2   33.80    3.40
  -3  -2   2   34.63    1.96
   3  -2  -2   33.69    2.98
   3  -2  -2   29.51    2.98
  -3  -2   2   33.89    1.89
  -3   2   2   31.14    3.95
   3   2  -2   30.95    1.54
   3   2  -2   31.22    1.60
   3   2  -2   30.67    1.56
  -3   2   2   30.04    1.57
  -3   2   2   31.32    1.56
  -3   2   2   28.18    1.74
  -3   2   2   26.55    2.44
   3   2  -2   29.51    1.56
   2  -2  -2  190.57    8.40
   2  -2  -2  178.75    8.40
  -2  -2   2  180.48    8.62
   2  -2  -2  188.01    8.74
  -2  -2   2  187.13    8.37
   2   2  -2  180.32    8.41
  -2   2   2  147.90    9.52
  -2   2   2  189.28    8.41
   2   2  -2  177.45    8.41
  -2   2   2  186.00    8.39
   2   2  -2  183.39    8.44
  -2   2   2  147.26    9.22
  -2   2   2  144.20    9.33
   2   2  -2  185.04    8.40
  -1  -2   2   57.91    3.10
   1  -2  -2   62.31    2.98
   1  -2  -2   65.95    3.35
  -1  -2   2   56.97    2.96
  -1  -2   2   66.81    3.37
   1  -2  -2   61.00    2.99
   1  -2  -2   66.64    3.25
  -1  -2   2   63.88    3.16
   1   2  -2   63.36    3.00
   1   2  -2   61.83    3.00
  -1   2   2   57.70    3.76
   1   2  -2   64.31    3.00
  -1   2   2   58.56    3.73
   1   2  -2   61.10    2.99
  -1   2   2   62.25    3.64
  -1   2   2   64.21    3.00
  -1   2   2   61.85    3.80
  -1   2   2   66.13    3.01
  -1   2   2   61.42    3.37
   1   2  -2   59.35    3.01
   0  -2   2   62.15    3.37
   0  -2  -2   61.12    3.10
   0  -2   2   57.89    2.80
   0  -2   2   56.98    3.19
   0  -2   2   53.93    2.81
   0  -2   2   59.32    3.31
   0  -2   2   61.78    2.98
   0  -2   2   56.48    2.81
   0  -2   2   60.52    3.18
   0  -2  -2   58.67    2.80
   0  -2  -2   61.02    3.02
   0  -2   2   60.71    3.25
   0   2  -2   62.75    2.84
   0   2  -2   59.09    2.84
   0   2   2   58.27    3.10
   0   2   2   59.72    3.32
   0   2   2   57.96    2.83
   0   2   2   58.50    3.23
   0   2  -2   54.09    3.21
   0   2   2   57.77    3.34
   0   2   2   58.21    3.21
   0   2   2   58.02    3.32
   0   2  -2   57.07    2.83
   0   2  -2   57.64    3.16
   0   2   2   55.14    3.22
   0   2   2   62.45    2.85
   0   2  -2   58.81    3.11
   0   2  -2   57.64    2.81
   0   2   2   59.83    2.85
   0   2  -2   58.26    3.21
  -1  -2  -2  156.74    7.62
   1  -2   2  158.19    7.73
   1  -2   2  157.25    7.40
  -1  -2  -2  165.61    7.54
   1  -2   2  162.51    8.27
   1  -2   2  150.92    8.37
   1  -2   2  160.81    8.15
   1  -2   2  157.60    7.58
  -1  -2  -2  131.01    7.38
   1  -2   2  162.70    7.90
  -1  -2  -2  169.12    7.61
   1  -2   2  159.50    8.49
  -1   2  -2  153.39    7.39
   1   2   2  155.36    7.45
   1   2   2  166.03    7.80
   1   2   2  163.97    7.42
   1   2   2  143.67    7.73
   1   2   2  144.28    7.40
  -1   2  -2  158.17    7.43
   1   2   2  138.52    7.62
   1   2   2  151.65    7.66
   1   2   2  161.93    7.70
   1   2   2  142.66    7.74
  -1   2  -2  162.96    7.43
   2  -2   2   29.97    1.46
   2  -2   2   29.20    1.91
   2  -2   2   27.33    2.29
   2  -2   2   33.96    2.55
  -2  -2  -2   30.05    1.81
   2  -2   2   31.67    2.74
   2  -2   2   30.22    1.68
  -2  -2  -2   30.76    1.44
  -2  -2  -2   27.83    1.71
  -2  -2  -2   30.03    1.95
  -2  -2  -2   28.13    1.44
   2  -2   2   29.65    2.62
   2  -2   2   29.45    1.47
   2  -2   2   30.72    1.80
   2   2   2   31.08    1.50
   2   2   2   30.19    1.96
   2   2   2   28.58    1.78
   2   2   2   27.90    1.87
   2   2   2   28.69    1.51
   2   2   2   29.02    1.85
  -2   2  -2   30.91    1.48
   2   2   2   28.60    1.44
  -2   2  -2   31.91    1.48
  -2   2  -2   29.17    1.43
  -3  -2  -2   24.45    1.38
  -3  -2  -2   23.34    1.14
   3  -2   2   24.32    1.19
  -3  -2  -2   23.09    1.15
   3  -2   2   23.79    2.28
   3  -2   2   24.39    1.42
   3  -2   2   23.69    2.73
   3  -2   2   22.56    1.19
   3  -2   2   23.83    1.70
  -3  -2  -2   23.96    1.99
   3  -2   2   27.15    2.72
   3  -2   2   24.71    2.47
   3  -2   2   23.17    1.17
  -3  -2  -2   22.75    1.79
   3  -2   2   24.06    1.55
  -3  -2  -2   23.98    1.54
  -3  -2  -2   22.77    1.14
   3  -2   2   22.68    1.15
  -3   2  -2   20.56    2.37
  -3   2  -2   22.68    1.12
   3   2   2   24.47    1.20
  -3   2  -2   23.48    1.17
   3   2   2   20.16    2.06
   3   2   2   21.94    1.68
  -3   2  -2   25.15    1.18
   3   2   2   22.91    1.86
   3   2   2   20.62    1.97
  -3   2  -2   19.32    1.97
  -3   2  -2   21.18    2.19
   3   2   2   22.49    1.22
  -4  -2  -2   28.09    1.39
  -4  -2  -2   28.35    1.90
  -4  -2  -2   28.82    1.42
   4  -2   2   28.38    1.40
  -4  -2  -2   23.12    2.26
  -4  -2  -2   26.58    2.60
   4  -2   2   26.53    1.98
  -4  -2  -2   28.97    1.41
  -4  -2  -2   22.34    3.37
  -4  -2  -2   28.50    1.65
   4  -2   2   27.71    1.42
   4  -2   2   28.82    1.42
  -4  -2  -2   28.78    1.40
   4  -2   2   28.49    3.38
   4  -2   2   29.48    1.74
   4  -2   2   32.60    2.13
   4  -2   2   29.00    1.45
   4  -2   2   29.47    3.03
   4  -2   2   27.16    1.40
   4   2   2   28.44    1.49
   4   2   2   28.80    1.45
  -4   2  -2   28.49    1.45
   4   2   2   30.31    2.87
   4   2   2   31.66    2.51
  -4   2  -2   27.61    1.42
  -4   2  -2   23.94    2.58
   4   2   2   28.89    2.72
   4   2   2   27.93    1.38
  -4   2  -2   27.31    1.48
  -5  -2  -2   38.19    1.91
   5  -2   2   38.10    2.43
  -5  -2  -2   39.40    1.93
   5  -2   2   39.58    1.91
  -5  -2  -2   37.73    1.90
  -5  -2  -2   33.68    2.40
   5  -2   2   40.19    2.01
  -5  -2  -2   39.98    2.56
   5  -2   2   37.42    1.94
  -5  -2  -2   39.53    1.91
  -5  -2  -2   40.24    1.95
   5  -2   2   39.61    1.94
   5  -2   2   40.02    1.97
   5   2   2   39.18    2.01
   5   2   2   39.90    1.95
   5   2   2   34.67    1.93
  -5   2  -2   36.97    1.92
  -5   2  -2   36.80    1.92
   5   2   2   42.16    1.90
   6  -2   2   21.47    1.17
  -6  -2  -2   22.18    1.10
   6  -2   2   21.05    1.16
  -6  -2  -2   22.66    1.13
   6  -2   2   20.18    1.10
   6  -2   2   20.81    1.09
  -6  -2  -2   22.08    1.16
  -6  -2  -2   21.56    1.13
  -6  -2  -2   21.30    1.10
   6  -2   2   21.21    1.16
   6  -2   2   20.56    1.09
  -6   2  -2   20.66    1.11
   6   2   2   21.51    1.12
   6   2   2   20.60    1.06
   6   2   2   20.29    1.05
   6   2   2   21.63    1.10
   6   2   2   21.96    1.12
   6   2   2   21.44    1.13
   6   2   2   21.62    1.21
  -7  -2  -2   19.33    1.03
   7  -2   2   18.94    0.98
  -7  -2  -2   19.23    1.02
  -7  -2  -2   19.88    1.07
  -7  -2  -2   19.59    1.00
  -7  -2  -2   19.35    1.00
   7  -2   2   18.83    0.97
  -7  -2  -2   18.98    1.03
   7  -2   2   19.18    1.05
   7   2   2   19.32    0.96
   7   2   2   18.87    1.00
   7   2   2   18.49    0.96
   7   2   2   18.33    0.95
   7   2   2   18.76    1.01
  -7   2  -2   18.41    1.01
   7   2   2   18.79    1.00
   7   2   2   18.22    1.01
  -8  -2  -2   12.49    0.67
  -8  -2  -2   12.33    0.70
  -8  -2  -2   12.89    0.70
  -8  -2  -2   12.43    0.67
  -8  -2  -2   11.90    0.67
  -8  -2  -2   12.47    0.74
   8   2   2   12.33    0.68
   8   2   2   11.58    0.66
   8   2   2   12.19    0.67
   8   2   2   11.11    0.62
  -8   2  -2   12.26    0.72
   8   2   2   11.55    0.66
   8   2   2   12.14    0.63
  -9  -2  -2    1.73    0.15
  -9  -2  -2    1.82    0.17
  -9  -2  -2    1.82    0.17
  -9  -2  -2    1.84    0.15
  -9  -2  -2    2.07    0.18
   9   2   2    1.84    0.17
   9   2   2    1.96    0.13
   9   2   2    1.41    0.18
   9   2   2    1.87    0.17
   9   2   2    1.81    0.15
  -9   2  -2    1.61    0.15
  10  -2   2    0.84    0.08
 -10  -2  -2    1.06    0.09
  10   2   2    0.94    0.08
 -10  -3   2    7.82    0.37
  10   3  -2    6.00    0.37
  -9  -3   2    0.66    0.10
  -9  -3   2    0.50    0.09
  -9  -3   2    0.59    0.14
  -9  -3   2    0.57    0.09
  -9  -3   2    0.57    0.09
   9   3  -2    0.64    0.08
  -9   3   2    0.51    0.08
   9   3  -2    0.50    0.10
   9   3  -2    0.67    0.08
   9   3  -2    0.59    0.08
   9   3  -2    0.58    0.09
  -8  -3   2    7.52    0.55
   8  -3  -2    9.60    0.52
  -8  -3   2    9.76    0.55
  -8  -3   2    8.29    0.51
   8   3  -2    8.72    0.52
   8   3  -2    8.96    0.47
   8   3  -2    9.18    0.53
   8   3  -2    9.54    0.52
   8   3  -2    8.60    0.49
   8   3  -2    8.93    0.52
   8   3  -2    9.02    0.47
  -7  -3   2   16.50    0.90
   7  -3  -2   15.34    0.84
   7  -3  -2   14.85    0.86
  -7  -3   2   17.04    0.88
   7  -3  -2   15.77    0.83
  -7  -3   2   16.33    0.83
   7  -3  -2   15.22    0.82
   7   3  -2   14.98    0.82
   7   3  -2   15.75    0.79
   7   3  -2   15.07    0.79
   7   3  -2   15.35    0.85
   7   3  -2   15.07    0.85
  -7   3   2   15.12    0.79
   7   3  -2   14.85    0.83
   7   3  -2   15.55    0.87
  -6  -3   2   10.33    0.62
   6  -3  -2    8.89    0.63
  -6  -3   2   10.17    0.54
  -6  -3   2   10.21    0.57
  -6  -3   2    9.89    0.54
   6  -3  -2    8.16    0.59
   6  -3  -2    9.32    0.56
   6  -3  -2    9.46    0.58
  -6   3   2    9.78    0.51
   6   3  -2    9.29    0.56
   6   3  -2   10.06    0.52
  -6   3   2    8.91    0.51
  -6   3   2    8.94    0.52
   6   3  -2    9.15    0.51
   6   3  -2    9.51    0.58
   6   3  -2    9.41    0.58
   6   3  -2    9.70    0.52
   6   3  -2    9.71    0.54
   5  -3  -2   20.35    1.05
  -5  -3   2   20.68    1.02
  -5  -3   2   18.75    1.04
   5  -3  -2   19.70    1.08
   5  -3  -2   19.58    1.07
  -5  -3   2   22.03    1.08
   5  -3  -2   21.08    1.07
   5  -3  -2   21.22    1.13
  -5  -3   2   21.31    1.04
  -5   3   2   20.53    1.02
   5   3  -2   19.58    1.01
   5   3  -2   20.07    1.02
  -5   3   2   19.52    1.07
   5   3  -2   20.85    1.02
   5   3  -2   21.01    1.06
   5   3  -2   20.43    1.07
   5   3  -2   19.79    1.07
  -5   3   2   19.44    1.03
   5   3  -2   19.74    1.08
   5   3  -2   19.52    1.04
   5   3  -2   19.88    1.09
  -5   3   2   19.41    1.03
  -5   3   2   21.08    1.04
  -4  -3   2  107.67    5.04
   4  -3  -2  107.50    5.05
   4  -3  -2  104.78    5.07
  -4  -3   2   90.84    5.50
  -4  -3   2  103.87    5.00
   4  -3  -2  102.52    5.06
   4  -3  -2  101.88    5.65
   4  -3  -2  103.50    5.06
  -4  -3   2  109.74    5.56
   4   3  -2  106.52    5.13
  -4   3   2  107.32    5.06
  -4   3   2  117.86    5.07
   4   3  -2  102.47    5.05
   4   3  -2  108.78    5.02
  -4   3   2  108.84    5.07
  -4   3   2  101.68    5.06
   4   3  -2  103.68    5.07
  -4   3   2   97.13    5.06
   4   3  -2  106.13    5.07
  -4   3   2  103.71    5.06
  -4   3   2  102.79    5.18
  -3  -3   2   23.25    1.08
   3  -3  -2   21.85    1.12
   3  -3  -2   23.41    1.17
  -3  -3   2   19.15    1.48
   3  -3  -2   22.90    1.14
   3  -3  -2   23.25    1.12
  -3  -3   2   18.97    1.35
   3  -3  -2   22.96    1.13
  -3  -3   2   23.32    1.47
   3  -3  -2   22.64    1.57
   3   3  -2   21.71    1.12
   3   3  -2   22.26    1.14
  -3   3   2   18.28    2.43
  -3   3   2   22.85    1.15
  -3   3   2   20.31    3.12
   3   3  -2   24.10    1.13
  -3   3   2   21.97    1.14
   3   3  -2   21.89    1.14
   3   3  -2   22.73    1.19
   2  -3  -2    3.71    0.25
  -2  -3   2    4.07    0.42
   2  -3  -2    3.67    0.24
  -2  -3   2    4.25    0.53
  -2  -3   2    3.98    0.47
   2  -3  -2    4.56    0.72
  -2  -3   2    3.28    0.38
  -2  -3   2    3.47    0.31
  -2  -3   2    3.74    0.20
   2  -3  -2    3.54    0.23
   2  -3  -2    4.65    0.73
   2  -3  -2    4.03    0.27
  -2   3   2    4.20    0.25
   2   3  -2    3.86    0.26
  -2   3   2    4.00    0.24
   2   3  -2    3.77    0.25
   2   3  -2    3.89    0.26
  -2   3   2    2.26    1.11
  -2   3   2    2.86    0.74
  -2   3   2    4.00    0.27
  -2   3   2    3.73    0.26
   2   3  -2    3.67    0.28
   2   3  -2    3.65    0.26
   1  -3  -2    2.89    0.17
   1  -3  -2    2.78    0.44
   1  -3  -2    2.56    0.16
  -1  -3   2    2.40    0.28
  -1  -3   2    3.17    0.41
  -1  -3   2    2.67    0.14
   1  -3  -2    2.53    0.18
  -1  -3   2    2.62    0.33
   1  -3  -2    2.65    0.38
  -1  -3   2    3.28    0.47
  -1  -3   2    2.29    0.24
  -1   3   2    2.80    0.69
   1   3  -2    2.64    0.20
   1   3  -2    2.44    0.20
  -1   3   2    2.59    0.20
   1   3  -2    2.90    0.24
   1   3  -2    2.33    0.18
  -1   3   2    1.80    0.54
   1   3  -2    2.36    0.18
  -1   3   2    2.57    0.19
  -1   3   2    2.51    0.19
   1   3  -2    2.57    0.20
   0  -3  -2   29.36    1.76
   0  -3  -2   25.30    1.28
   0  -3  -2   27.52    1.60
   0  -3   2   25.60    1.49
   0  -3  -2   25.92    1.60
   0  -3   2   25.12    1.27
   0  -3   2   27.76    1.88
   0  -3   2   26.39    1.69
   0  -3   2   22.48    1.27
   0  -3  -2   25.48    1.27
   0   3   2   26.75    1.32
   0   3   2   27.46    1.34
   0   3   2   26.46    1.31
   0   3  -2   25.24    1.29
   0   3  -2   26.53    1.32
   0   3  -2   25.67    1.32
   0   3  -2   26.51    1.33
   0   3   2   25.61    1.33
  -1  -3  -2   25.37    1.70
   1  -3   2   30.70    1.65
   1  -3   2   30.94    1.89
   1  -3   2   29.93    1.42
   1  -3   2   30.07    2.08
   1  -3   2   29.18    1.44
  -1  -3  -2   24.57    1.71
  -1  -3  -2   29.28    1.75
  -1  -3  -2   30.93    1.40
   1  -3   2   28.45    1.41
  -1   3  -2   30.10    1.47
  -1   3  -2   29.06    1.47
  -1   3  -2   27.55    1.85
   1   3   2   29.88    1.45
   1   3   2   29.37    1.45
  -1   3  -2   28.73    1.43
   1   3   2   29.56    1.49
  -1   3  -2   26.47    2.05
  -1   3  -2   28.25    1.43
   1   3   2   30.56    1.48
   2  -3   2   22.02    1.09
   2  -3   2   22.14    1.74
   2  -3   2   21.11    1.53
   2  -3   2   20.79    1.09
  -2  -3  -2   22.07    1.50
  -2  -3  -2   21.81    1.05
   2  -3   2   19.66    1.07
   2  -3   2   21.43    1.11
  -2  -3  -2   21.90    1.37
  -2   3  -2   21.66    1.12
   2   3   2   20.28    1.07
  -2   3  -2   21.85    1.12
   2   3   2   21.93    1.16
   2   3   2   22.31    1.10
   2   3   2   21.84    1.14
   3  -3   2   25.24    1.31
  -3  -3  -2   27.32    1.29
   3  -3   2   26.81    1.36
  -3  -3  -2   28.05    1.89
  -3  -3  -2   25.28    1.31
   3  -3   2   27.12    1.32
   3  -3   2   26.05    1.33
   3  -3   2   25.20    1.83
   3   3   2   23.76    1.30
  -3   3  -2   25.17    1.41
   3   3   2   26.38    1.38
   3   3   2   28.68    1.41
  -3   3  -2   26.07    1.36
  -3   3  -2   26.49    1.36
   3   3   2   26.83    1.34
   3   3   2   26.83    1.41
   4  -3   2    0.09    0.05
   4  -3   2    0.05    0.05
  -4  -3  -2    0.04    0.03
  -4  -3  -2    0.06    0.03
   4  -3   2    0.06    0.05
  -4  -3  -2    0.06    0.04
   4  -3   2    0.05    0.05
   4  -3   2    0.04    0.05
   4   3   2    0.08    0.05
  -4   3  -2    0.10    0.04
   4   3   2    0.05    0.04
  -4   3  -2    0.02    0.05
   4   3   2    0.03    0.06
  -4   3  -2    0.07    0.06
   4   3   2    0.00    0.05
  -4   3  -2    0.04    0.06
  -4   3  -2    0.03    0.06
   4   3   2    0.09    0.05
   4   3   2   -0.01    0.04
   4   3   2    0.05    0.04
   4   3   2    0.09    0.06
   4   3   2    0.08    0.08
  -5  -3  -2    6.43    0.39
   5  -3   2    6.30    0.39
  -5  -3  -2    6.55    0.37
   5  -3   2    6.19    0.44
   5  -3   2    6.14    0.42
  -5  -3  -2    6.37    0.40
   5  -3   2    6.20    0.41
  -5  -3  -2    6.70    0.38
   5  -3   2    6.00    0.39
   5   3   2    6.11    0.34
   5   3   2    6.42    0.40
  -5   3  -2    6.31    0.39
  -5   3  -2    6.38    0.35
   5   3   2    6.47    0.40
   5   3   2    6.16    0.47
  -5   3  -2    4.96    0.38
   5   3   2    5.78    0.34
   5   3   2    6.38    0.39
   5   3   2    6.17    0.41
  -5   3  -2    5.52    0.38
   5   3   2    5.89    0.35
   5   3   2    5.79    0.39
  -6  -3  -2   11.74    0.67
  -6  -3  -2   11.76    0.65
  -6  -3  -2   12.04    0.62
  -6  -3  -2   11.62    0.62
   6  -3   2   11.23    0.62
   6  -3   2   11.01    0.69
   6  -3   2   11.17    0.63
   6  -3   2   11.27    0.64
   6  -3   2   11.21    0.65
   6   3   2   10.67    0.57
   6   3   2   11.19    0.64
  -6   3  -2   10.34    0.62
  -6   3  -2   11.66    0.59
  -6   3  -2   11.04    0.62
   6   3   2   10.26    0.59
   6   3   2   11.09    0.65
   6   3   2   10.82    0.58
  -6   3  -2   10.68    0.60
   6   3   2   11.38    0.63
   6   3   2   11.16    0.64
   6   3   2   11.47    0.65
  -7  -3  -2    2.88    0.28
  -7  -3  -2    3.23    0.23
   7  -3   2    2.90    0.24
   7  -3   2    2.96    0.24
  -7  -3  -2    3.28    0.25
   7  -3   2    2.72    0.28
  -7  -3  -2    2.51    0.25
   7  -3   2    2.85    0.23
   7  -3   2    2.99    0.22
  -7  -3  -2    3.22    0.24
   7   3   2    2.89    0.24
  -7   3  -2    2.93    0.22
   7   3   2    3.36    0.25
   7   3   2    2.89    0.19
   7   3   2    3.15    0.25
   7   3   2    2.83    0.18
   7   3   2    3.07    0.24
   7   3   2    3.15    0.24
   7   3   2    3.30    0.21
   8  -3   2    2.20    0.18
  -8  -3  -2    2.21    0.18
  -8  -3  -2    2.29    0.21
  -8  -3  -2    2.05    0.21
  -8  -3  -2    1.78    0.17
   8   3   2    2.13    0.17
   8   3   2    2.06    0.18
   8   3   2    2.20    0.18
  -8   3  -2    2.35    0.16
   8   3   2    2.16    0.18
   8   3   2    2.12    0.15
   8   3   2    2.01    0.13
   8   3   2    2.19    0.18
  -9  -3  -2    1.51    0.12
  -9  -3  -2    1.61    0.13
   9   3   2    1.55    0.12
   9   3   2    1.34    0.12
   9   3   2    1.29    0.10
   9   3   2    1.44    0.11
   9   3   2    1.64    0.10
  -9   4   2    1.40    0.09
   9   4  -2    1.27    0.09
   9   4  -2    1.19    0.08
   9   4  -2    1.42    0.11
   9   4  -2    1.31    0.10
  -8  -4   2    0.35    0.07
  -8  -4   2    0.43    0.07
  -8  -4   2    0.35    0.10
   8  -4  -2    0.39    0.07
   8   4  -2    0.34    0.07
   8   4  -2    0.39    0.05
   8   4  -2    0.45    0.08
   8   4  -2    0.30    0.06
   8   4  -2    0.47    0.08
  -8   4   2    0.40    0.06
   8   4  -2    0.46    0.07
  -8   4   2    0.44    0.08
  -7  -4   2    8.16    0.52
  -7  -4   2    6.06    0.42
   7  -4  -2    6.54    0.41
   7  -4  -2    7.84    0.43
   7  -4  -2    6.71    0.43
   7  -4  -2    7.14    0.41
  -7  -4   2    6.44    0.41
  -7  -4   2    6.24    0.41
  -7   4   2    7.84    0.40
   7   4  -2    6.87    0.41
   7   4  -2    7.07    0.38
   7   4  -2    7.39    0.38
   7   4  -2    6.76    0.39
   7   4  -2    7.27    0.42
   7   4  -2    7.66    0.43
  -7   4   2    7.30    0.40
   7   4  -2    7.64    0.44
  -6  -4   2   24.92    1.42
  -6  -4   2   25.19    1.40
   6  -4  -2   30.11    1.49
  -6  -4   2   25.29    1.42
   6  -4  -2   28.96    1.44
   6  -4  -2   28.52    1.50
   6  -4  -2   29.19    1.43
  -6  -4   2   25.39    1.44
   6   4  -2   30.08    1.45
  -6   4   2   28.84    1.38
   6   4  -2   29.62    1.38
  -6   4   2   28.00    1.39
   6   4  -2   28.39    1.43
  -6   4   2   28.22    1.39
   6   4  -2   29.21    1.38
   6   4  -2   28.58    1.41
   6   4  -2   27.16    1.39
   5  -4  -2    5.72    0.43
   5  -4  -2    5.79    0.38
   5  -4  -2    5.92    0.37
  -5  -4   2    4.97    0.36
  -5  -4   2    4.83    0.35
  -5   4   2    6.10    0.35
   5   4  -2    6.10    0.33
   5   4  -2    5.71    0.35
  -5   4   2    6.16    0.36
   5   4  -2    5.78    0.39
   5   4  -2    5.78    0.33
  -5   4   2    5.91    0.34
  -5   4   2    5.95    0.35
   5   4  -2    5.58    0.36
   5   4  -2    6.11    0.34
   5   4  -2    6.07    0.40
  -5   4   2    5.60    0.37
   5   4  -2    6.16    0.38
  -5   4   2    5.67    0.44
   4  -4  -2   13.47    0.77
   4  -4  -2   13.47    0.73
   4  -4  -2   12.80    0.69
   4  -4  -2   12.42    0.82
   4  -4  -2   12.02    0.70
   4  -4  -2   12.84    0.70
   4   4  -2   12.16    0.69
   4   4  -2   12.43    0.72
  -4   4   2   12.22    0.80
   4   4  -2   12.06    0.72
  -4   4   2   12.30    0.71
   4   4  -2   12.82    0.72
  -4   4   2   12.71    0.66
  -4   4   2   12.15    0.67
  -4   4   2   12.47    0.67
  -4   4   2   13.62    0.69
   4   4  -2   12.82    0.66
  -4   4   2   12.52    0.67
   4   4  -2   13.08    0.66
   4   4  -2   12.66    0.67
   4   4  -2   11.58    0.69
   4   4  -2   12.68    0.70
   3  -4  -2    5.16    0.33
   3  -4  -2    5.27    0.32
   3  -4  -2    4.94    0.32
   3  -4  -2    5.19    0.34
   3   4  -2    5.09    0.35
   3   4  -2    5.08    0.35
   3   4  -2    4.94    0.31
   3   4  -2    5.10    0.30
   3   4  -2    5.40    0.30
   3   4  -2    4.19    0.31
   3   4  -2    4.74    0.34
  -3   4   2    4.61    0.35
  -3   4   2    4.73    0.29
  -3   4   2    5.09    0.31
  -3   4   2    5.49    0.33
  -3   4   2    5.29    0.36
  -3   4   2    5.07    0.42
   3   4  -2    4.11    0.32
   3   4  -2    5.13    0.32
   3   4  -2    4.87    0.29
  -3   4   2    4.97    0.45
  -3   4   2    4.79    0.32
   3   4  -2    4.79    0.34
   3   4  -2    4.71    0.29
   3   4  -2    4.17    0.36
   3   4  -2    5.25    0.33
  -3   4   2    5.01    0.31
   3   4  -2    5.19    0.30
  -3   4   2    5.25    0.32
   2  -4  -2   27.22    1.33
   2  -4  -2   26.25    1.29
   2  -4  -2   25.43    1.29
   2  -4  -2   25.84    1.28
   2  -4  -2   27.61    1.85
   2   4  -2   24.96    1.25
   2   4  -2   25.15    1.36
  -2   4   2   24.31    1.32
   2   4  -2   24.85    1.30
  -2   4   2   25.35    1.27
   2   4  -2   26.02    1.26
   2   4  -2   22.57    1.35
  -2   4   2   24.38    1.27
   2   4  -2   23.92    1.32
   2   4  -2   24.99    1.26
   2   4  -2   24.79    1.31
  -2   4   2   25.40    1.27
  -2   4   2   25.90    1.26
   2   4  -2   25.83    1.28
   2   4  -2   25.10    1.25
   2   4  -2   25.09    1.27
   2   4  -2   25.26    1.25
   2   4  -2   24.26    1.30
  -2   4   2   26.40    1.33
   2   4  -2   24.63    1.30
  -2   4   2   26.19    1.27
   2   4  -2   24.41    1.29
  -2   4   2   25.31    1.32
  -2   4   2   25.32    1.42
  -2   4   2   25.29    1.27
  -1  -4   2   39.25    2.54
   1  -4  -2   41.46    1.97
   1  -4  -2   42.46    2.60
   1  -4  -2   38.25    2.47
   1  -4  -2   43.04    2.01
   1   4  -2   40.91    2.07
   1   4  -2   39.30    1.97
   1   4  -2   40.04    2.09
  -1   4   2   41.97    2.04
   1   4  -2   39.59    1.97
   1   4  -2   41.07    1.97
  -1   4   2   39.01    1.98
   1   4  -2   33.50    2.06
   1   4  -2   41.91    1.97
  -1   4   2   39.98    1.98
   1   4  -2   41.38    2.02
   1   4  -2   38.57    2.01
  -1   4   2   40.20    2.04
  -1   4   2   40.22    1.97
  -1   4   2   38.72    2.12
  -1   4   2   39.64    1.98
  -1   4   2   42.25    1.99
  -1   4   2   41.49    1.99
   1   4  -2   42.81    1.99
   1   4  -2   40.58    1.98
   0  -4  -2    0.45    0.07
   0  -4   2    0.63    0.09
   0  -4   2    0.56    0.07
   0  -4  -2    0.52    0.07
   0  -4  -2    0.60    0.09
   0   4  -2    0.46    0.09
   0   4   2    0.68    0.16
   0   4  -2    0.65    0.13
   0   4   2    0.43    0.10
   0   4  -2    0.57    0.11
   0   4   2    0.52    0.14
   0   4  -2    0.64    0.15
   0   4   2    0.55    0.09
   0   4   2    0.66    0.10
   0   4   2    0.60    0.09
   0   4  -2    0.64    0.12
   0   4   2    0.79    0.12
   0   4   2    0.74    0.12
   0   4  -2    0.58    0.09
   0   4  -2    0.76    0.13
   0   4  -2    0.67    0.12
   0   4   2    0.54    0.10
   0   4   2    0.61    0.12
   0   4  -2    0.57    0.11
   0   4   2    0.43    0.10
  -1  -4  -2   22.33    1.03
  -1  -4  -2   20.19    1.55
   1  -4   2   24.39    1.73
   1  -4   2   22.49    1.08
   1  -4   2   22.40    1.11
   1   4   2   20.12    1.20
   1   4   2   20.72    1.15
   1   4   2   22.47    1.14
  -1   4  -2   20.45    1.07
  -1   4  -2   18.78    1.07
  -1   4  -2   19.96    1.14
   1   4   2   21.90    1.09
  -1   4  -2   22.50    1.06
  -1   4  -2   20.79    1.07
   1   4   2   22.17    1.07
   1   4   2   20.31    1.08
   1   4   2   22.14    1.10
  -1   4  -2   21.78    1.12
   1   4   2   20.65    1.13
  -1   4  -2   21.15    1.07
  -1   4  -2   21.91    1.21
   1   4   2   21.87    1.10
  -1   4  -2   21.14    1.08
  -1   4  -2   20.69    1.14
  -1   4  -2   20.31    1.07
   1   4   2   20.65    1.08
   2  -4   2    0.46    0.11
  -2  -4  -2    0.35    0.06
   2  -4   2    0.31    0.08
   2  -4   2    0.34    0.07
   2   4   2    0.38    0.10
   2   4   2    0.58    0.12
  -2   4  -2    0.49    0.09
   2   4   2    0.45    0.11
  -2   4  -2    0.47    0.09
  -2   4  -2    0.48    0.09
   2   4   2    0.54    0.11
   2   4   2    0.39    0.08
   2   4   2    0.38    0.13
  -2   4  -2    0.51    0.16
  -2   4  -2    0.46    0.10
   2   4   2    0.54    0.11
  -2   4  -2    0.28    0.08
   2   4   2    0.56    0.09
   2   4   2    0.33    0.09
   2   4   2    0.31    0.10
   3  -4   2   26.82    1.38
   3  -4   2   25.58    1.28
   3  -4   2   25.14    1.30
   3  -4   2   25.97    1.31
   3  -4   2   25.23    1.28
   3   4   2   25.80    1.37
  -3   4  -2   25.18    1.27
   3   4   2   22.06    1.45
  -3   4  -2   23.73    1.34
  -3   4  -2   25.65    1.40
   3   4   2   25.32    1.26
   3   4   2   26.31    1.31
   3   4   2   23.66    1.31
  -3   4  -2   24.96    1.26
  -3   4  -2   24.97    1.26
   3   4   2   24.27    1.39
   3   4   2   26.78    1.31
  -3   4  -2   24.83    1.28
   3   4   2   26.59    1.30
  -3   4  -2   26.81    1.26
  -3   4  -2   23.23    1.25
  -3   4  -2   26.83    1.32
   3   4   2   26.11    1.32
   3   4   2   25.10    1.25
   3   4   2   25.02    1.30
   4  -4   2   18.36    1.05
   4  -4   2   20.93    1.03
   4  -4   2   20.40    1.14
   4  -4   2   20.71    1.05
   4  -4   2   19.52    1.03
  -4  -4  -2   16.66    0.98
  -4  -4  -2   16.75    1.00
   4   4   2   19.36    0.97
   4   4   2   20.37    1.04
   4   4   2   20.61    1.04
  -4   4  -2   19.24    0.99
   4   4   2   19.56    1.03
   4   4   2   18.00    1.02
  -4   4  -2   21.07    1.13
  -4   4  -2   19.54    1.07
  -4   4  -2   19.65    0.99
   4   4   2   20.24    1.02
   4   4   2   19.06    0.99
   4   4   2   19.22    1.13
  -4   4  -2   20.17    1.04
  -4   4  -2   19.69    1.00
  -4   4  -2   19.21    0.99
   4   4   2   20.23    1.05
  -4   4  -2   20.56    0.98
   5  -4   2    0.03    0.07
  -5  -4  -2    0.04    0.04
  -5  -4  -2    0.06    0.03
   5  -4   2    0.14    0.07
   5  -4   2    0.18    0.12
   5  -4   2    0.09    0.06
  -5  -4  -2    0.11    0.06
   5   4   2    0.07    0.05
  -5   4  -2    0.06    0.05
   5   4   2    0.12    0.05
   5   4   2    0.09    0.06
   5   4   2    0.08    0.07
  -5   4  -2    0.11    0.05
  -5   4  -2    0.14    0.05
   5   4   2    0.13    0.04
  -5   4  -2    0.03    0.06
   5   4   2    0.07    0.06
  -5   4  -2    0.09    0.06
   5   4   2    0.11    0.09
  -6  -4  -2    6.28    0.45
  -6  -4  -2    6.59    0.44
   6  -4   2    7.72    0.45
   6  -4   2    7.42    0.44
   6  -4   2    7.33    0.45
   6  -4   2    7.68    0.47
   6  -4   2    7.24    0.50
  -6  -4  -2    7.01    0.43
   6   4   2    7.74    0.45
   6   4   2    7.47    0.40
   6   4   2    7.93    0.45
   6   4   2    7.96    0.47
  -6   4  -2    7.78    0.44
  -6   4  -2    7.87    0.43
   6   4   2    7.44    0.40
   6   4   2    8.44    0.54
  -6   4  -2    7.70    0.41
   6   4   2    7.82    0.44
   7  -4   2    8.24    0.44
   7  -4   2    7.82    0.43
  -7  -4  -2    7.47    0.44
  -7  -4  -2    6.76    0.45
   7  -4   2    7.45    0.45
   7  -4   2    7.44    0.49
  -7  -4  -2    6.55    0.43
   7   4   2    8.06    0.45
   7   4   2    8.35    0.45
   7   4   2    7.76    0.42
   7   4   2    7.77    0.44
   7   4   2    7.80    0.44
   7   4   2    8.35    0.44
  -7   4  -2    8.66    0.42
  -8  -4  -2    4.49    0.26
  -8  -4  -2    3.80    0.25
   8   4   2    4.57    0.26
   8   4   2    4.80    0.26
   8   4   2    4.05    0.24
   8   4   2    4.23    0.25
   8   4   2    3.58    0.25
  -8   4  -2    4.78    0.24
   8   4   2    4.71    0.26
   7   5  -2    7.33    0.41
  -7   5   2    9.01    0.43
   7   5  -2    8.09    0.41
   6  -5  -2    1.71    0.17
   6  -5  -2    1.81    0.15
   6  -5  -2    2.08    0.17
   6  -5  -2    1.82    0.19
   6   5  -2    1.77    0.14
  -6   5   2    1.95    0.13
   6   5  -2    1.93    0.13
   6   5  -2    2.13    0.19
  -6   5   2    1.82    0.15
  -6   5   2    1.92    0.13
   6   5  -2    1.72    0.14
  -6   5   2    1.95    0.13
   6   5  -2    1.84    0.13
   5  -5  -2    5.91    0.35
   5  -5  -2    5.68    0.35
   5  -5  -2    5.09    0.37
   5  -5  -2    5.38    0.34
   5   5  -2    5.46    0.35
   5   5  -2    5.61    0.35
  -5   5   2    5.41    0.34
  -5   5   2    5.55    0.31
  -5   5   2    5.56    0.39
  -5   5   2    5.68    0.32
   5   5  -2    5.45    0.30
   5   5  -2    5.41    0.32
  -5   5   2    5.73    0.32
  -5   5   2    5.50    0.32
   5   5  -2    5.57    0.34
   5   5  -2    5.54    0.33
   4  -5  -2    1.52    0.19
   4  -5  -2    1.77    0.17
   4  -5  -2    2.07    0.19
   4  -5  -2    1.73    0.17
  -4   5   2    1.92    0.15
  -4   5   2    1.78    0.16
  -4   5   2    1.93    0.15
   4   5  -2    1.88    0.14
   4   5  -2    1.81    0.14
   4   5  -2    1.73    0.17
   4   5  -2    1.79    0.17
  -4   5   2    1.77    0.16
   4   5  -2    1.62    0.13
  -4   5   2    1.94    0.15
   4   5  -2    1.74    0.15
   4   5  -2    1.64    0.17
  -4   5   2    1.89    0.23
  -4   5   2    1.81    0.18
   3  -5  -2    7.39    0.42
   3  -5  -2    7.25    0.47
  -3   5   2    7.68    0.40
  -3   5   2    7.89    0.42
   3   5  -2    6.66    0.40
   3   5  -2    6.93    0.41
   3   5  -2    6.04    0.37
   3   5  -2    6.05    0.37
   3   5  -2    6.88    0.39
   3   5  -2    5.93    0.39
   3   5  -2    6.98    0.42
   3   5  -2    6.68    0.39
  -3   5   2    8.04    0.42
   3   5  -2    7.19    0.39
   3   5  -2    6.94    0.42
   2  -5  -2   16.40    0.89
   2  -5  -2   16.25    0.83
   2   5  -2   13.19    0.85
   2   5  -2   15.05    0.90
   2   5  -2   15.34    0.83
   2   5  -2   15.97    0.81
   2   5  -2   15.60    0.81
   2   5  -2   16.05    0.81
   2   5  -2   15.96    0.80
  -2   5   2   17.07    0.82
  -2   5   2   15.89    0.82
  -2   5   2   16.86    0.98
   2   5  -2   15.62    0.82
   2   5  -2   15.96    0.80
   2   5  -2   15.05    0.79
  -2   5   2   15.70    0.82
  -2   5   2   16.56    0.83
  -2   5   2   17.20    0.88
   2   5  -2   14.91    0.83
  -2   5   2   15.62    0.81
  -1  -5   2   91.55    4.90
   1  -5  -2   83.29    4.86
  -1   5   2   99.90    4.84
   1   5  -2  102.23    4.83
  -1   5   2  100.39    4.85
  -1   5   2  107.84    4.92
   1   5  -2   98.76    4.88
  -1   5   2  102.93    5.01
   1   5  -2  100.74    4.97
   1   5  -2  101.62    4.82
  -1   5   2  100.26    4.85
   1   5  -2  106.66    4.84
   1   5  -2  100.95    4.83
  -1   5   2  102.93    4.85
  -1   5   2  102.99    4.85
   1   5  -2  102.52    4.84
   1   5  -2  107.01    4.84
   1   5  -2   99.03    4.85
  -1   5   2  105.96    4.84
   0  -5  -2   16.98    1.03
   0  -5   2   16.91    1.01
   0  -5   2   16.88    1.02
   0  -5  -2   17.44    1.02
   0   5  -2   20.43    1.02
   0   5  -2   21.10    1.02
   0   5   2   21.71    1.03
   0   5   2   21.27    1.05
   0   5   2   19.82    1.00
   0   5   2   21.84    1.01
   0   5  -2   21.08    1.01
   0   5   2   19.81    1.03
   0   5  -2   20.43    1.06
   0   5  -2   21.20    1.02
   0   5  -2   17.22    1.03
   0   5  -2   21.26    1.00
   0   5   2   20.76    1.01
   0   5   2   21.00    1.17
   0   5   2   21.32    1.08
   0   5  -2   20.22    1.00
   0   5   2   20.51    1.01
   0   5  -2   21.42    1.15
   1  -5   2    1.33    0.15
   1  -5   2    0.99    0.11
  -1  -5  -2    0.94    0.11
   1  -5   2    0.95    0.13
   1   5   2    1.14    0.20
   1   5   2    1.13    0.12
  -1   5  -2    1.01    0.20
  -1   5  -2    1.05    0.12
   1   5   2    1.05    0.15
  -1   5  -2    1.15    0.14
  -1   5  -2    1.15    0.12
  -1   5  -2    1.23    0.16
   1   5   2    1.05    0.15
   1   5   2    1.31    0.12
  -1   5  -2    1.23    0.12
   1   5   2    1.35    0.12
   1   5   2    1.11    0.15
  -1   5  -2    1.08    0.12
   1   5   2    1.14    0.14
   2  -5   2   14.98    0.82
   2   5   2   13.76    0.79
  -2   5  -2   14.14    0.75
   2   5   2   14.81    0.77
   2   5   2   14.36    0.78
  -2   5  -2   14.32    0.75
   2   5   2   14.95    0.79
  -2   5  -2   15.53    0.89
   2   5   2   14.56    0.75
  -2   5  -2   14.77    0.80
  -2   5  -2   14.24    0.75
   2   5   2   13.75    0.78
  -2   5  -2   14.67    0.76
   2   5   2   13.97    0.88
  -2   5  -2   15.21    0.74
   3  -5   2    9.13    0.52
   3  -5   2    8.53    0.56
   3  -5   2    8.92    0.61
   3   5   2    9.42    0.53
  -3   5  -2   10.09    0.51
   3   5   2    8.54    0.52
   3   5   2    8.85    0.49
   3   5   2    8.95    0.51
   3   5   2    8.84    0.52
  -3   5  -2    9.98    0.51
  -3   5  -2    9.35    0.49
   3   5   2    9.42    0.53
   3   5   2    8.04    0.57
  -3   5  -2   10.05    0.52
  -3   5  -2   10.02    0.57
  -3   5  -2    8.73    0.49
   3   5   2    9.04    0.51
   4  -5   2    7.68    0.44
   4  -5   2    7.67    0.46
   4  -5   2    7.48    0.44
   4  -5   2    7.35    0.45
  -4   5  -2    7.63    0.41
   4   5   2    7.39    0.44
   4   5   2    7.73    0.44
  -4   5  -2    7.91    0.46
  -4   5  -2    7.48    0.42
  -4   5  -2    7.56    0.41
  -4   5  -2    7.72    0.41
   4   5   2    7.35    0.44
   4   5   2    7.59    0.44
  -4   5  -2    7.23    0.41
  -4   5  -2    8.03    0.51
   4   5   2    7.16    0.40
   4   5   2    7.41    0.43
   5  -5   2    4.30    0.30
   5  -5   2    4.58    0.30
   5  -5   2    4.58    0.28
  -5   5  -2    4.59    0.32
   5   5   2    4.75    0.28
  -5   5  -2    3.82    0.29
   5   5   2    4.66    0.24
   5   5   2    4.33    0.29
   5   5   2    4.45    0.29
  -5   5  -2    3.75    0.27
  -5   5  -2    4.71    0.29
   5   5   2    4.82    0.30
  -5   5  -2    4.72    0.27
  -5   5  -2    4.78    0.26
   5   5   2    4.73    0.29
   5   5   2    4.24    0.25
   6  -5   2    3.56    0.23
   6  -5   2    3.43    0.24
   6  -5   2    3.88    0.24
   6   5   2    3.68    0.23
   6   5   2    3.71    0.23
   6   5   2    3.43    0.21
  -6   5  -2    3.58    0.22
  -6   5  -2    4.00    0.22
  -6   5  -2    3.73    0.21
   6   5   2    3.41    0.19
   6   5   2    3.64    0.23
   6   5   2    3.44    0.23
   7  -5   2    2.44    0.14
  -7   5  -2    1.82    0.12
   7   5   2    2.30    0.14
   7   5   2    1.88    0.14
   7   5   2    2.39    0.14
  -5   6   2    2.60    0.14
  -5   6   2    2.24    0.13
  -5   6   2    2.27    0.13
  -5   6   2    2.24    0.13
   4  -6  -2    2.87    0.19
   4  -6  -2    2.52    0.19
  -4   6   2    3.47    0.18
  -4   6   2    2.71    0.19
  -4   6   2    2.59    0.22
  -4   6   2    3.48    0.18
  -4   6   2    3.02    0.17
  -4   6   2    3.43    0.18
   3  -6  -2   16.84    0.78
  -3   6   2   13.60    0.78
  -3   6   2   17.63    0.75
  -3   6   2   17.02    0.75
  -3   6   2   13.29    0.89
  -3   6   2   13.53    0.80
  -3   6   2   13.91    0.76
  -3   6   2   13.68    0.78
   2  -6  -2    6.59    0.39
   2  -6  -2    7.81    0.43
  -2   6   2    7.22    0.37
   2   6  -2    7.02    0.37
   2   6  -2    7.24    0.37
   2   6  -2    6.50    0.37
  -2   6   2    7.11    0.38
   2   6  -2    7.44    0.37
   2   6  -2    6.80    0.39
   2   6  -2    7.09    0.42
   1  -6  -2    2.17    0.18
  -1   6   2    2.51    0.23
   1   6  -2    2.52    0.22
  -1   6   2    1.99    0.19
   1   6  -2    2.44    0.15
  -1   6   2    1.95    0.18
   1   6  -2    2.05    0.19
   1   6  -2    2.05    0.20
   1   6  -2    2.13    0.14
  -1   6   2    2.62    0.17
  -1   6   2    2.26    0.18
  -1   6   2    2.60    0.20
   1   6  -2    2.43    0.15
  -1   6   2    2.18    0.15
   0   6   2   14.61    0.73
   0   6   2   13.99    0.77
   0   6  -2   12.67    0.71
   0   6  -2   12.95    0.71
   0   6   2   13.23    0.74
   0   6   2   16.48    0.75
   0   6   2   14.70    0.73
   0   6  -2   14.83    0.74
   0   6  -2   14.32    0.83
   0   6  -2   17.21    0.75
   0   6  -2   14.58    0.82
   1  -6   2    1.01    0.18
   1   6   2    0.98    0.09
   1   6   2    1.06    0.09
  -1   6  -2    1.21    0.18
   1   6   2    1.07    0.14
  -1   6  -2    1.39    0.13
   1   6   2    1.05    0.12
  -1   6  -2    1.32    0.17
   1   6   2    1.18    0.10
  -1   6  -2    1.04    0.09
  -1   6  -2    1.27    0.10
  -2   6  -2    0.90    0.08
   2   6   2    0.85    0.09
  -2   6  -2    1.07    0.16
   2   6   2    0.77    0.10
   2   6   2    0.80    0.08
  -2   6  -2    0.96    0.12
   2   6   2    0.89    0.10
   2   6   2    0.72    0.16
  -2   6  -2    0.95    0.10
  -2   6  -2    0.79    0.10
   3  -6   2    0.27    0.06
   3  -6   2    0.24    0.07
   3   6   2    0.30    0.07
  -3   6  -2    0.38    0.10
  -3   6  -2    0.38    0.06
   3   6   2    0.27    0.05
  -3   6  -2    0.19    0.04
   3   6   2    0.29    0.07
   3   6   2    0.25    0.06
  -3   6  -2    0.34    0.07
   4  -6   2    0.84    0.09
   4  -6   2    0.93    0.09
  -4   6  -2    0.86    0.10
   4   6   2    1.01    0.09
   5  -6   2    8.55    0.42
  -5   6  -2    7.71    0.41
  11   0  -3    0.69    0.08
 -10   0   3    3.75    0.26
 -10   0   3    3.73    0.22
   9   0  -3   11.60    0.67
  -9   0   3   13.37    0.73
  -9   0   3   11.14    0.67
  -9   0   3   12.15    0.73
  -9   0   3   10.60    0.73
  -9   0   3   11.41    0.65
  -9   0   3   12.98    0.74
  -8   0   3   10.45    0.59
  -8   0   3   10.33    0.62
  -8   0   3   10.40    0.60
  -8   0   3   10.24    0.58
  -8   0   3   10.28    0.66
  -7   0   3   15.20    0.85
  -7   0   3   15.52    0.84
  -7   0   3   15.32    0.81
   7   0  -3   14.47    0.83
  -7   0   3   15.06    0.82
  -7   0   3   15.18    0.81
   7   0  -3   15.10    0.77
  -7   0   3   14.94    0.88
  -6   0   3   72.73    3.46
   6   0  -3   70.69    3.43
   6   0  -3   73.09    3.47
   6   0  -3   70.09    3.42
  -6   0   3   66.37    3.47
   6   0  -3   74.51    3.93
  -6   0   3   69.85    3.94
  -6   0   3   71.00    3.52
  -6   0   3   73.35    3.49
  -6   0   3   73.60    3.48
  -6   0   3   68.56    3.45
   5   0  -3   30.40    1.84
   5   0  -3   29.69    2.97
   5   0  -3   31.40    2.88
   5   0  -3   30.65    1.47
   5   0  -3   33.96    3.35
   5   0  -3   28.59    1.69
  -5   0   3   24.37    2.72
  -5   0   3   29.14    1.49
  -5   0   3   29.41    1.47
  -5   0   3   28.89    1.46
  -5   0   3   28.77    1.46
  -5   0   3   30.42    1.82
   5   0  -3   28.35    1.46
  -5   0   3   31.17    1.52
  -5   0   3   28.39    3.48
   4   0  -3    9.93    0.69
   4   0  -3   10.67    1.28
   4   0  -3   10.23    0.78
   4   0  -3   11.43    1.49
   4   0  -3    9.71    0.53
  -4   0   3   10.23    0.55
  -4   0   3    8.63    1.30
  -4   0   3    9.70    0.53
   4   0  -3   10.12    0.53
   4   0  -3   10.94    1.57
  -4   0   3   10.28    0.77
  -4   0   3   10.18    0.86
  -4   0   3   13.82    2.49
  -4   0   3    9.58    0.53
   4   0  -3   10.71    1.42
   3   0  -3  695.33   31.79
  -3   0   3  650.17   32.11
   3   0  -3  584.13   30.65
   3   0  -3  637.72   31.96
  -3   0   3  653.41   31.74
   3   0  -3  647.77   31.98
  -2   0   3  606.63   29.89
  -2   0   3  627.35   29.83
  -2   0   3  644.55   29.82
  -2   0   3  631.71   30.00
  -2   0   3  627.42   29.90
  -2   0   3  514.40   29.04
   1   0  -3   76.26    4.20
   1   0  -3   75.13    3.75
   1   0  -3   73.02    3.70
  -1   0   3   82.47    4.19
  -1   0   3   76.52    4.29
   1   0  -3   74.30    3.59
   1   0  -3   77.34    4.35
  -1   0   3   76.66    3.71
   1   0  -3   77.71    4.36
  -1   0   3   73.58    3.67
  -1   0   3   75.46    4.24
   1   0  -3   78.91    4.15
   1   0  -3   71.88    3.65
   1   0  -3   72.26    3.72
  -1   0   3   72.73    4.05
  -1   0   3   74.13    3.76
   0   0  -3    8.99    0.87
   0   0   3    8.35    0.52
   0   0   3    8.88    0.44
   0   0   3    9.15    0.83
   0   0   3    8.60    0.77
   0   0  -3    9.02    0.93
   0   0  -3    8.95    0.44
   0   0  -3    9.26    0.55
   0   0   3    9.53    0.89
   0   0  -3    8.80    0.78
   0   0   3    8.48    0.85
   0   0   3    9.19    0.52
   0   0   3    8.23    0.55
   0   0  -3    9.87    0.89
   0   0  -3    8.60    0.51
   1   0   3  655.05   31.56
  -1   0  -3  708.23   31.69
  -1   0  -3  658.26   31.44
   1   0   3  575.92   30.72
   1   0   3  633.89   31.49
  -2   0  -3   50.15    3.43
   2   0   3   54.25    3.43
  -2   0  -3   49.45    2.51
   2   0   3   52.63    2.67
   2   0   3   50.73    2.50
  -2   0  -3   50.28    2.50
   2   0   3   53.58    2.67
  -2   0  -3   50.15    2.65
  -2   0  -3   54.15    3.34
   2   0   3   54.65    3.65
  -2   0  -3   54.17    3.53
   2   0   3   51.21    2.50
  -2   0  -3   50.60    2.50
  -2   0  -3   54.31    3.23
  -3   0  -3   90.64    5.64
   3   0   3   89.99    5.92
   3   0   3   86.29    4.56
   3   0   3   88.03    4.27
  -3   0  -3   92.82    4.50
  -3   0  -3   90.29    4.25
  -3   0  -3   82.87    4.26
  -3   0  -3   85.67    4.23
   3   0   3   82.99    4.25
   3   0   3   83.55    4.36
   3   0   3   92.38    5.62
  -3   0  -3   94.22    5.89
  -3   0  -3   83.60    4.24
  -3   0  -3   97.72    6.26
   3   0   3   93.43    5.88
  -3   0  -3   87.10    4.50
   3   0   3   86.53    4.48
  -3   0  -3   88.94    5.25
   3   0   3   92.20    5.44
   4   0   3   29.79    2.83
  -4   0  -3   25.82    1.36
   4   0   3   27.10    1.40
  -4   0  -3   23.75    2.57
   4   0   3   26.09    1.46
  -4   0  -3   27.47    1.39
   4   0   3   29.06    2.64
  -4   0  -3   26.80    1.35
  -4   0  -3   28.04    1.68
   4   0   3   27.76    1.39
  -4   0  -3   22.72    2.79
  -4   0  -3   27.38    1.37
  -4   0  -3   30.35    1.37
  -4   0  -3   26.99    1.36
   4   0   3   27.99    1.54
   4   0   3   27.71    3.11
   4   0   3   26.49    1.45
  -4   0  -3   27.52    1.35
  -4   0  -3   29.73    1.67
  -5   0  -3    8.44    0.49
  -5   0  -3    8.48    0.49
  -5   0  -3    8.13    0.47
   5   0   3    7.88    0.45
  -5   0  -3    8.64    0.50
  -5   0  -3    9.31    0.52
   5   0   3    9.54    2.87
   5   0   3    9.70    2.06
  -5   0  -3    6.66    1.41
  -5   0  -3    8.40    0.47
  -5   0  -3    8.83    0.49
  -5   0  -3    9.12    0.78
  -6   0  -3    0.36    0.22
  -7   0  -3    0.28    0.07
  -7   0  -3    0.19    0.09
  -7   0  -3    0.22    0.09
  -7   0  -3    0.23    0.10
   7   0   3    0.27    0.07
  -7   0  -3    0.08    0.08
  -8   0  -3  116.69    5.32
  -8   0  -3  113.06    5.27
  -8   0  -3   97.94    5.32
  -8   0  -3  107.81    5.27
  -8   0  -3  111.10    5.26
  -9   0  -3    5.63    0.36
  -9   0  -3    4.73    0.32
  -9   0  -3    5.35    0.31
 -10   0  -3   12.11    0.65
  10   0   3   12.24    0.61
  10   0   3   12.75    0.63
  11  -1  -3    0.51    0.05
 -10  -1   3   12.32    0.63
 -10  -1   3   12.87    0.71
 -10  -1   3   12.39    0.67
  10   1  -3   10.93    0.67
  10   1  -3   12.26    0.63
  -9  -1   3   15.61    0.83
  -9  -1   3   14.28    0.89
  -9  -1   3   15.37    0.85
  -9  -1   3   15.11    0.89
  -9  -1   3   15.22    0.83
  -9   1   3   16.59    0.87
   9   1  -3   15.14    0.77
   9   1  -3   15.55    0.83
  -8  -1   3   16.36    0.94
  -8  -1   3   16.45    0.86
  -8  -1   3   16.25    0.87
  -8  -1   3   16.34    0.90
   8   1  -3   15.87    0.80
   8   1  -3   15.85    0.81
  -8   1   3   14.85    0.82
  -8   1   3   15.24    0.86
   8   1  -3   15.83    0.87
   8   1  -3   15.90    0.87
  -8   1   3   15.78    0.83
  -7  -1   3   11.46    0.66
  -7  -1   3   10.97    0.62
  -7  -1   3   11.39    0.65
  -7  -1   3   11.70    0.63
   7  -1  -3   10.63    0.64
  -7  -1   3   11.64    0.70
  -7  -1   3   11.29    0.64
  -7   1   3   13.24    0.85
   7   1  -3   10.70    0.64
   7   1  -3   10.72    0.57
  -7   1   3   10.89    0.61
  -7   1   3   10.49    0.61
   7   1  -3   10.52    0.64
  -7   1   3   10.29    0.67
   7   1  -3   10.94    0.58
  -7   1   3   10.74    0.60
  -7   1   3   10.95    0.63
  -6  -1   3   11.39    0.66
  -6  -1   3   12.22    1.06
  -6  -1   3   11.73    0.63
   6  -1  -3   11.03    0.92
  -6  -1   3   11.91    0.66
  -6  -1   3   11.85    0.65
   6  -1  -3   10.64    0.61
   6  -1  -3   12.21    0.63
  -6  -1   3   12.16    0.70
   6  -1  -3   10.41    0.69
   6  -1  -3   11.16    0.67
  -6   1   3   11.60    0.65
   6   1  -3   11.71    0.61
  -6   1   3   11.62    0.68
   6   1  -3   11.76    0.67
  -6   1   3   12.25    1.01
   6   1  -3   11.58    0.60
  -6   1   3   11.21    0.63
  -6   1   3   11.89    0.63
  -6   1   3   11.77    0.62
  -6   1   3   11.26    0.65
   6   1  -3   12.04    0.65
   5  -1  -3   92.50    4.81
   5  -1  -3   95.99    6.38
   5  -1  -3   89.96    4.49
  -5  -1   3   92.47    4.45
  -5  -1   3   90.10    4.45
  -5  -1   3   96.59    4.46
  -5  -1   3   95.35    7.17
   5  -1  -3   92.66    4.46
  -5  -1   3   99.50    7.81
  -5  -1   3   78.26    6.43
   5  -1  -3   97.96    7.11
   5  -1  -3   92.02    6.62
   5  -1  -3   97.89    5.18
   5  -1  -3  101.12    6.99
  -5  -1   3   98.57    4.94
  -5  -1   3   97.89    4.50
  -5   1   3   88.45    4.46
   5   1  -3   93.44    4.46
  -5   1   3   97.03    4.46
  -5   1   3   91.91    4.50
   5   1  -3   92.22    4.44
  -5   1   3   88.60    4.44
  -5   1   3   92.53    4.81
  -5   1   3   74.34    6.71
  -5   1   3   86.43    4.46
  -4  -1   3   39.26    3.29
   4  -1  -3   41.04    3.35
   4  -1  -3   39.66    2.21
   4  -1  -3   41.08    3.52
  -4  -1   3   38.15    1.94
  -4  -1   3   39.62    3.01
   4  -1  -3   42.41    3.19
  -4  -1   3   33.18    2.95
   4  -1  -3   39.79    1.94
  -4  -1   3   39.14    1.93
  -4  -1   3   41.96    2.91
  -4  -1   3   39.95    1.93
  -4  -1   3   42.09    3.09
  -4  -1   3   39.37    3.25
   4  -1  -3   41.56    2.35
  -4  -1   3   41.46    1.96
  -4  -1   3   41.10    2.27
   4  -1  -3   37.98    1.93
   4  -1  -3   40.17    3.59
   4  -1  -3   35.67    1.94
  -4  -1   3   40.79    3.20
   4   1  -3   38.78    1.93
  -4   1   3   43.94    2.01
  -4   1   3   37.10    1.95
  -4   1   3   38.74    2.19
  -4   1   3   39.62    1.97
  -4   1   3   39.96    1.94
   4   1  -3   39.74    1.94
   3  -1  -3   60.76    3.99
  -3  -1   3   60.60    3.13
  -3  -1   3   57.70    3.91
  -3  -1   3   59.55    2.79
  -3  -1   3   61.66    3.80
  -3  -1   3   54.91    2.77
  -3  -1   3   58.92    3.97
  -3  -1   3   53.99    2.77
  -3  -1   3   62.98    3.69
  -3  -1   3   61.75    3.53
   3  -1  -3   61.17    4.21
   3  -1  -3   57.66    3.02
  -3  -1   3   59.63    3.81
  -3  -1   3   62.79    3.91
   3  -1  -3   55.99    2.78
   3  -1  -3   56.78    2.81
   3  -1  -3   60.16    3.14
   3  -1  -3   55.92    2.78
   3  -1  -3   60.69    4.19
   3  -1  -3   52.05    2.79
   3  -1  -3   60.12    3.85
  -3  -1   3   63.08    3.70
  -3   1   3   57.09    4.20
  -3   1   3   55.31    2.78
  -3   1   3   57.74    3.22
   3   1  -3   57.65    2.78
  -3   1   3   53.45    2.80
  -3   1   3   49.67    3.05
   3   1  -3   59.67    2.75
   3   1  -3   55.37    2.77
  -3   1   3   48.40    4.06
  -3   1   3   58.43    3.89
  -2  -1   3  268.36   12.74
  -2  -1   3  276.08   12.87
  -2  -1   3  225.79   12.11
  -2  -1   3  255.81   12.85
   2  -1  -3  247.05   12.08
  -2  -1   3  258.65   12.07
  -2  -1   3  272.18   12.70
   2  -1  -3  258.11   12.18
  -2  -1   3  271.98   12.47
  -2  -1   3  245.06   12.52
  -2  -1   3  256.64   12.54
  -2  -1   3  263.47   12.70
  -2   1   3  238.18   12.93
  -2   1   3  240.97   12.75
  -2   1   3  236.89   12.06
  -2   1   3  229.23   13.00
  -2   1   3  245.27   12.66
  -2   1   3  226.27   11.95
  -2   1   3  249.69   12.85
  -2   1   3  270.62   13.04
  -2   1   3  254.01   13.18
  -2   1   3  247.58   13.09
   2   1  -3  221.76   11.87
   1  -1  -3  124.78    6.06
  -1  -1   3  129.46    6.44
  -1  -1   3  123.49    6.50
  -1  -1   3  129.52    6.35
  -1  -1   3  122.67    6.05
   1  -1  -3  131.55    6.13
   1  -1  -3  127.69    5.91
  -1  -1   3  125.80    6.00
  -1  -1   3  134.46    6.59
  -1  -1   3  108.39    5.90
  -1   1   3  127.68    6.61
  -1   1   3  123.08    6.54
   1   1  -3  127.91    6.58
  -1   1   3  127.86    6.63
  -1   1   3  106.32    5.90
  -1   1   3  119.93    6.75
   1   1  -3  117.70    5.91
  -1   1   3  118.69    6.14
  -1   1   3  128.77    6.75
   1   1  -3  131.06    6.49
  -1   1   3  125.16    6.75
  -1   1   3  129.17    6.10
  -1   1   3  120.50    6.22
   1   1  -3  117.52    5.91
   1   1  -3  122.58    6.59
   1   1  -3  108.98    6.01
   1   1  -3  134.85    6.40
  -1   1   3  127.51    6.79
  -1   1   3  130.01    6.51
   0  -1  -3  367.45   18.39
   0  -1  -3  364.26   18.33
   0  -1  -3  378.45   18.25
   0  -1   3  389.14   18.37
   0  -1   3  366.82   18.09
   0  -1  -3  371.59   18.12
   0  -1   3  369.81   18.30
   0  -1  -3  359.33   17.72
   0  -1  -3  352.32   17.68
   0  -1   3  394.04   18.23
   0   1   3  330.65   17.70
   0   1  -3  353.38   17.68
   0   1   3  378.59   18.35
   0   1   3  371.47   18.14
   0   1  -3  411.03   18.23
   0   1  -3  409.15   18.36
   0   1  -3  324.00   17.62
   0   1   3  370.08   18.37
   0   1   3  381.58   18.22
   0   1   3  348.54   17.75
   0   1  -3  401.55   18.38
   1  -1   3   11.58    1.21
   1  -1   3   11.05    0.61
   1  -1   3   13.04    1.30
  -1  -1  -3   12.21    1.06
   1  -1   3   12.72    0.74
   1  -1   3   11.85    1.16
  -1  -1  -3   12.00    0.64
  -1  -1  -3   12.49    0.74
  -1  -1  -3   12.45    1.16
   1  -1   3   12.37    0.60
  -1  -1  -3   12.64    0.59
  -1  -1  -3   11.72    0.99
  -1  -1  -3   11.96    1.10
   1  -1   3   12.45    1.10
  -1   1  -3   11.10    0.71
   1   1   3   10.80    0.67
   1   1   3   11.11    0.66
   1   1   3   11.78    1.19
   1   1   3   12.16    1.09
   1   1   3   10.70    0.64
   1   1   3   12.12    1.02
  -1   1  -3   14.07    1.18
   1   1   3   12.72    0.62
  -1   1  -3   12.50    1.25
  -1   1  -3   12.84    0.61
  -1   1  -3   11.89    0.61
  -1   1  -3   10.98    0.59
  -1   1  -3   12.52    0.61
  -1   1  -3   10.63    0.59
  -1   1  -3   11.50    0.62
  -1   1  -3   12.78    1.07
   1   1   3   12.03    0.63
  -1   1  -3   12.62    1.21
   1   1   3   13.10    1.19
   2  -1   3    5.08    0.86
   2  -1   3    3.75    0.22
  -2  -1  -3    3.90    0.21
   2  -1   3    3.98    0.22
  -2  -1  -3    4.43    0.36
  -2  -1  -3    5.05    0.81
   2  -1   3    4.18    0.79
   2  -1   3    4.00    0.45
  -2  -1  -3    4.66    0.73
   2  -1   3    3.86    0.24
  -2  -1  -3    4.21    0.64
   2  -1   3    3.45    0.64
   2  -1   3    3.87    0.23
   2  -1   3    3.74    0.38
   2  -1   3    5.21    0.97
  -2  -1  -3    3.69    0.23
  -2  -1  -3    3.72    0.57
  -2  -1  -3    4.06    0.22
   2  -1   3    4.20    0.37
   2   1   3    3.75    0.80
  -2   1  -3    3.78    0.23
   2   1   3    3.96    0.24
   2   1   3    3.81    0.23
  -2   1  -3    3.76    0.22
  -2   1  -3    2.82    0.67
   2   1   3    3.62    0.25
  -2   1  -3    4.03    0.23
  -2   1  -3    3.41    0.27
  -2   1  -3    3.00    0.60
   2   1   3    4.33    0.68
  -2   1  -3    5.04    0.83
   2   1   3    4.10    0.61
   2   1   3    3.81    0.19
   2   1   3    4.33    0.81
  -2   1  -3    3.54    0.22
  -2   1  -3    3.53    0.35
  -3  -1  -3  177.67    9.49
  -3  -1  -3  166.78    9.23
   3  -1   3  160.80    8.34
   3  -1   3  182.35    9.78
   3  -1   3  170.26    8.45
   3  -1   3  177.65    8.54
  -3  -1  -3  160.74    8.10
   3  -1   3  184.18   10.11
   3  -1   3  163.74    9.41
   3  -1   3  176.44   10.09
  -3  -1  -3  173.63    8.32
   3  -1   3  167.41    8.09
  -3  -1  -3  169.34    9.56
  -3  -1  -3  163.51    8.42
  -3  -1  -3  174.58    9.09
   3   1   3  155.00    9.51
  -3   1  -3  169.78    8.09
  -3   1  -3  169.93    9.77
   3   1   3  174.60    9.40
   3   1   3  170.72    8.13
  -3   1  -3  171.63    9.31
   3   1   3  162.05    9.62
  -3   1  -3  150.08    8.08
  -3   1  -3  185.42    8.08
   3   1   3  185.34    9.28
  -3   1  -3  173.02    8.38
  -3   1  -3  160.93    8.23
   3   1   3  154.61    8.05
   4  -1   3   21.47    1.06
  -4  -1  -3   20.87    1.05
   4  -1   3   20.51    3.17
   4  -1   3   22.44    1.39
   4  -1   3   20.39    1.34
   4  -1   3   23.45    2.67
   4  -1   3   21.58    1.04
  -4  -1  -3   21.85    1.07
  -4  -1  -3   21.84    1.33
   4  -1   3   22.06    1.08
   4  -1   3   21.31    2.88
   4  -1   3   21.34    1.08
  -4  -1  -3   21.52    1.06
   4  -1   3   20.66    1.45
  -4  -1  -3   19.33    2.22
  -4  -1  -3   17.35    1.85
  -4  -1  -3   21.46    1.08
   4  -1   3   21.86    2.35
   4  -1   3   21.56    1.05
  -4  -1  -3   21.72    1.47
  -4   1  -3   16.88    2.03
   4   1   3   24.13    2.32
   4   1   3   20.04    2.13
  -4   1  -3   22.86    1.06
  -4   1  -3   21.62    1.06
  -4   1  -3   16.53    2.53
   4   1   3   21.16    1.11
  -4   1  -3   18.84    2.27
   4   1   3   19.91    1.02
   4   1   3   21.66    1.08
  -4   1  -3   16.90    2.44
  -4   1  -3   19.97    1.06
   4   1   3   17.84    2.40
  -4   1  -3   20.37    1.06
  -4   1  -3   20.90    1.27
  -4   1  -3   19.67    1.07
   4   1   3   23.52    2.64
  -4   1  -3   21.60    1.39
   5  -1   3    3.83    0.26
   5  -1   3    3.86    0.25
  -5  -1  -3    4.05    0.26
   5  -1   3    4.00    0.29
   5  -1   3    8.53    3.97
  -5  -1  -3    3.96    0.27
  -5  -1  -3    4.04    0.28
   5  -1   3    3.89    0.27
   5  -1   3    3.37    0.60
  -5  -1  -3    3.91    0.29
  -5  -1  -3    4.66    0.62
   5  -1   3    2.78    2.99
  -5  -1  -3    4.73    1.39
  -5  -1  -3    2.28    1.91
   5  -1   3    3.91    0.29
  -5  -1  -3    4.25    0.26
  -5  -1  -3    4.00    0.28
   5  -1   3    3.85    0.49
  -5  -1  -3    5.03    0.52
  -5   1  -3    4.29    0.31
  -5   1  -3    3.78    0.24
  -5   1  -3    4.30    0.28
  -5   1  -3   10.16    4.62
   5   1   3    4.23    0.32
  -5   1  -3    3.97    0.26
  -5   1  -3    3.92    0.29
  -5   1  -3    4.36    2.19
   5   1   3    4.00    0.23
  -5   1  -3    4.36    0.48
  -5   1  -3    3.89    0.28
  -5   1  -3    2.60    1.04
  -6  -1  -3    2.21    0.20
  -6  -1  -3    2.17    0.21
  -6  -1  -3    2.31    0.55
  -6  -1  -3    2.03    0.19
  -6  -1  -3    2.13    0.18
   6  -1   3    1.92    0.16
   6  -1   3    1.93    0.16
  -6  -1  -3    1.85    0.19
  -6  -1  -3    2.04    0.17
  -6  -1  -3    2.22    0.21
  -6   1  -3    2.07    0.18
   6   1   3    2.16    0.22
  -6   1  -3    1.78    0.16
  -6   1  -3    1.87    0.15
  -6   1  -3    1.73    0.23
  -6   1  -3    1.95    0.20
   6   1   3    2.05    0.15
   6   1   3    1.90    0.17
  -6   1  -3    1.84    0.19
  -6   1  -3    1.90    0.16
  -6   1  -3    1.42    0.46
  -7  -1  -3   87.15    4.43
  -7  -1  -3   89.20    4.64
  -7  -1  -3   92.35    4.49
  -7  -1  -3   92.29    4.46
  -7  -1  -3   93.57    4.43
  -7  -1  -3  102.62    4.65
   7   1   3   86.93    4.41
  -7   1  -3   87.25    4.39
   7   1   3   94.06    4.43
  -7   1  -3   85.82    4.39
   7   1   3   93.15    4.38
  -8  -1  -3   31.59    1.64
  -8  -1  -3   30.34    1.53
  -8  -1  -3   30.48    1.55
  -8  -1  -3   30.00    1.52
  -8  -1  -3   30.63    1.55
   8   1   3   28.74    1.60
  -8   1  -3   30.99    1.55
   8   1   3   29.91    1.52
  -8   1  -3   27.87    1.47
   8   1   3   30.30    1.48
  -9  -1  -3    1.45    0.14
  -9  -1  -3    1.44    0.16
  -9  -1  -3    1.55    0.14
  -9  -1  -3    1.64    0.17
  -9  -1  -3    1.55    0.15
   9   1   3    1.75    0.14
   9   1   3    1.49    0.15
  -9   1  -3    1.51    0.15
 -10  -1  -3    0.10    0.03
 -10  -1  -3    0.04    0.05
  10   1   3    0.15    0.05
  10   1   3    0.06    0.03
 -10  -2   3   20.29    1.01
 -10  -2   3   20.33    1.01
  10   2  -3   20.23    1.02
  10   2  -3   21.94    1.03
  10   2  -3   18.22    0.99
  -9  -2   3    3.73    0.27
  -9  -2   3    3.72    0.32
  -9  -2   3    3.93    0.27
  -9  -2   3    4.09    0.35
  -9  -2   3    3.90    0.27
   9   2  -3    3.85    0.27
   9   2  -3    3.92    0.23
   9   2  -3    3.87    0.25
   9   2  -3    3.84    0.27
   9   2  -3    3.89    0.23
  -8  -2   3    8.16    0.49
  -8  -2   3    8.64    0.58
  -8  -2   3    8.00    0.49
  -8  -2   3    8.51    0.53
   8   2  -3    7.79    0.50
   8   2  -3    8.60    0.46
   8   2  -3    8.05    0.55
   7  -2  -3    0.27    0.08
  -7  -2   3    0.32    0.08
   7  -2  -3    0.37    0.09
  -7  -2   3    0.32    0.09
  -7  -2   3    0.35    0.13
  -7  -2   3    0.31    0.08
   7  -2  -3    0.38    0.13
   7  -2  -3    0.34    0.08
  -7  -2   3    0.24    0.14
  -7  -2   3    0.34    0.09
   7   2  -3    0.17    0.10
   7   2  -3    0.41    0.09
  -7   2   3    0.31    0.08
   7   2  -3    0.36    0.11
   7   2  -3    0.49    0.08
  -7   2   3    0.42    0.07
   7   2  -3    0.47    0.11
  -6  -2   3    7.61    0.47
   6  -2  -3    6.54    0.40
   6  -2  -3    6.80    0.43
   6  -2  -3    6.66    0.41
  -6  -2   3    7.14    0.45
  -6  -2   3    6.78    0.41
   6  -2  -3    6.32    0.46
  -6  -2   3    6.64    0.41
   6  -2  -3    6.40    0.45
  -6  -2   3    6.74    0.41
   6   2  -3    6.31    0.42
   6   2  -3    6.54    0.43
  -6   2   3    6.47    0.37
  -6   2   3    7.74    0.54
   6   2  -3    6.49    0.38
   6   2  -3    7.22    0.39
   6   2  -3    6.77    0.44
   6   2  -3    7.14    0.39
   6   2  -3    6.64    0.43
  -5  -2   3   19.60    1.41
  -5  -2   3   15.83    2.06
   5  -2  -3   19.44    1.01
   5  -2  -3   17.50    0.98
  -5  -2   3   20.25    1.02
  -5  -2   3   18.99    0.99
  -5  -2   3   18.53    0.97
   5  -2  -3   18.67    1.04
   5  -2  -3   19.34    0.98
   5  -2  -3   17.99    0.99
   5  -2  -3   18.68    0.97
   5  -2  -3   18.91    1.39
  -5  -2   3   19.42    0.97
  -5   2   3   20.63    0.98
   5   2  -3   18.67    0.95
  -5   2   3   18.67    1.00
  -5   2   3   19.16    1.31
   5   2  -3   18.90    1.00
   5   2  -3   18.76    0.95
   5   2  -3   18.73    1.00
   5   2  -3   19.19    1.02
   5   2  -3   19.40    0.97
   5   2  -3   19.26    1.01
   4  -2  -3   18.25    1.35
  -4  -2   3   17.05    0.85
  -4  -2   3   16.67    1.20
  -4  -2   3   15.96    1.27
   4  -2  -3   15.75    0.87
  -4  -2   3   16.79    0.86
  -4  -2   3   17.54    0.87
  -4  -2   3   18.49    1.69
  -4  -2   3   13.96    1.66
   4  -2  -3   17.60    1.38
  -4  -2   3   18.91    1.93
   4  -2  -3   16.69    0.87
   4  -2  -3   17.11    0.88
  -4  -2   3   17.83    0.89
  -4  -2   3   18.45    2.09
   4  -2  -3   17.49    0.93
  -4   2   3   17.70    1.01
   4   2  -3   16.47    0.88
  -4   2   3   16.39    1.14
   4   2  -3   17.06    0.89
   3  -2  -3  118.86    5.71
  -3  -2   3  124.22    6.62
  -3  -2   3  122.44    6.39
  -3  -2   3  120.34    5.67
  -3  -2   3  125.96    6.31
  -3  -2   3  129.61    6.58
   3  -2  -3  117.76    6.05
  -3  -2   3  123.39    6.44
   3  -2  -3  119.17    5.70
  -3  -2   3  129.29    6.44
   3  -2  -3  118.15    5.69
  -3  -2   3  129.92    6.23
   3  -2  -3  121.74    6.23
  -3  -2   3  117.21    5.99
   3   2  -3  114.35    5.70
   3   2  -3  123.39    5.75
  -3   2   3  114.33    7.31
  -3   2   3  111.87    6.86
  -3   2   3  117.44    5.68
  -3   2   3   96.35    7.22
  -3   2   3  115.33    5.70
   3   2  -3  120.84    5.71
  -3   2   3  116.87    5.72
  -3   2   3  107.20    5.95
  -2  -2   3  214.59   10.62
   2  -2  -3  222.77   10.60
  -2  -2   3  224.85   10.60
  -2  -2   3  210.46   10.37
  -2  -2   3  228.96   10.48
  -2  -2   3  222.34   10.49
   2  -2  -3  208.56   10.13
  -2  -2   3  205.19   10.54
  -2  -2   3  217.83   10.48
  -2  -2   3  209.18   10.11
   2  -2  -3  211.17   10.43
  -2  -2   3  207.73   10.34
  -2  -2   3  223.42   10.56
  -2  -2   3  223.17   10.69
  -2   2   3  215.48   10.15
  -2   2   3  200.81   11.51
  -2   2   3  216.49   11.54
  -2   2   3  206.24   11.07
   2   2  -3  206.68   10.14
   2   2  -3  203.89   10.15
  -2   2   3  205.54   11.27
  -2   2   3  200.92   10.14
  -1  -2   3  125.84    6.49
   1  -2  -3  130.68    6.24
  -1  -2   3  119.65    5.97
  -1  -2   3  118.90    6.42
  -1  -2   3  124.37    6.42
  -1  -2   3  137.55    6.36
  -1  -2   3  131.31    6.32
  -1  -2   3  125.66    5.96
   1  -2  -3  112.75    5.97
   1  -2  -3  138.13    6.38
   1  -2  -3  128.67    5.98
  -1  -2   3  122.77    6.34
  -1  -2   3  126.24    6.09
  -1  -2   3  122.13    6.38
  -1  -2   3  128.03    6.47
  -1   2   3  124.70    7.35
  -1   2   3  114.32    6.97
  -1   2   3  128.04    6.69
  -1   2   3  122.21    6.92
   1   2  -3  124.79    6.00
   1   2  -3  128.42    6.00
   0  -2   3  118.63    6.02
   0  -2   3  136.32    6.53
   0  -2  -3  123.55    6.01
   0  -2   3  119.26    6.54
   0  -2   3  128.60    6.01
   0  -2   3  134.38    6.84
   0  -2   3  135.80    6.90
   0  -2  -3  131.86    6.30
   0  -2   3  132.05    6.70
   0  -2   3  130.31    6.23
   0  -2  -3  128.99    6.21
   0   2   3  120.44    6.62
   0   2  -3  118.96    6.82
   0   2   3  124.38    6.75
   0   2   3  122.58    6.77
   0   2  -3  121.71    6.04
   0   2   3  121.94    6.53
   0   2   3  124.54    6.06
   0   2   3  126.49    6.35
   0   2  -3  126.94    6.69
   0   2  -3  125.86    6.05
   1  -2   3   36.33    2.61
  -1  -2  -3   36.08    1.85
   1  -2   3   35.45    2.79
   1  -2   3   37.88    2.52
   1  -2   3   36.06    2.75
  -1  -2  -3   38.10    1.75
   1  -2   3   37.43    1.76
   1  -2   3   34.07    1.77
  -1  -2  -3   36.95    2.00
  -1  -2  -3   35.91    1.90
  -1  -2  -3   31.28    1.75
  -1   2  -3   36.85    1.79
  -1   2  -3   37.81    1.79
   1   2   3   35.10    2.38
   1   2   3   36.20    1.81
   1   2   3   36.65    2.44
   1   2   3   38.54    1.80
   1   2   3   37.87    2.24
  -1   2  -3   36.68    1.79
   1   2   3   35.74    2.29
   2  -2   3    0.44    0.07
   2  -2   3    0.83    0.19
  -2  -2  -3    0.57    0.06
  -2  -2  -3    0.41    0.05
  -2  -2  -3    0.47    0.06
   2  -2   3    0.81    0.25
  -2  -2  -3    0.62    0.31
   2  -2   3    2.80    1.47
   2  -2   3    0.37    0.18
  -2  -2  -3    1.09    0.43
  -2  -2  -3    0.86    0.19
   2  -2   3    0.53    0.07
   2  -2   3    0.52    0.08
   2  -2   3    0.85    0.38
  -2  -2  -3    0.74    0.43
  -2   2  -3    0.78    0.71
   2   2   3    0.59    0.10
   2   2   3    0.67    0.11
  -2   2  -3    0.48    0.08
   2   2   3    0.51    0.23
   2   2   3    0.21    0.38
  -2   2  -3    0.50    0.08
  -2   2  -3    0.96    0.64
   2   2   3    0.53    0.05
  -3  -2  -3   66.44    3.49
   3  -2   3   80.75    5.16
  -3  -2  -3   69.87    3.48
  -3  -2  -3   67.08    3.75
  -3  -2  -3   71.44    3.51
  -3  -2  -3   82.21    4.42
   3  -2   3   72.30    3.53
  -3  -2  -3   78.71    4.71
  -3  -2  -3   75.70    3.49
   3  -2   3   65.93    3.49
   3  -2   3   73.14    4.17
   3  -2   3   72.56    3.51
   3  -2   3   77.02    5.62
   3  -2   3   73.30    3.81
  -3  -2  -3   71.82    3.97
   3  -2   3   77.61    3.54
   3  -2   3   69.42    3.94
  -3   2  -3   75.52    3.52
  -3   2  -3   72.88    3.52
   3   2   3   69.03    4.27
   3   2   3   74.90    3.55
   3   2   3   62.63    4.45
   3   2   3   72.37    3.57
   3   2   3   74.64    5.11
   3   2   3   69.61    3.46
   3   2   3   73.59    5.32
  -4  -2  -3   94.38    4.69
   4  -2   3  101.60    4.71
   4  -2   3   98.61    4.74
  -4  -2  -3  105.16    4.69
   4  -2   3   92.19    5.43
  -4  -2  -3  103.17    4.85
  -4  -2  -3   99.97    5.34
   4  -2   3   99.47    4.72
   4  -2   3   99.39    5.12
  -4  -2  -3   91.63    7.44
  -4  -2  -3   83.81    6.58
   4  -2   3   92.53    5.20
   4  -2   3  100.68    4.69
  -4  -2  -3   94.56    4.67
  -4  -2  -3   94.12    5.00
   4   2   3   98.02    4.74
   4   2   3   99.77    4.79
   4   2   3  102.84    6.77
  -4   2  -3  100.92    4.71
   4   2   3  100.53    6.31
  -4   2  -3   90.99    4.70
   5  -2   3   13.60    0.78
  -5  -2  -3   14.65    0.81
   5  -2   3   14.69    0.81
  -5  -2  -3   14.62    1.42
  -5  -2  -3   13.04    1.06
  -5  -2  -3   15.03    0.79
   5  -2   3   14.89    0.80
   5  -2   3   12.87    1.23
  -5  -2  -3   15.28    0.77
   5  -2   3   15.29    0.77
   5  -2   3   15.38    0.78
   5  -2   3   14.95    0.83
   5   2   3   14.09    0.79
  -5   2  -3   12.64    0.78
  -5   2  -3   15.76    0.80
   5   2   3   14.43    0.85
   5   2   3   14.08    0.79
   5   2   3   14.15    0.74
  -5   2  -3   15.12    0.74
   5   2   3   14.98    0.78
   5   2   3   15.96    0.89
   6  -2   3    3.09    0.32
  -6  -2  -3    3.94    0.29
   6  -2   3    3.62    0.26
  -6  -2  -3    3.86    0.33
   6  -2   3    3.78    0.31
  -6  -2  -3    3.96    0.29
  -6  -2  -3    3.63    0.29
  -6  -2  -3    3.77    0.27
   6  -2   3    3.60    0.28
  -6  -2  -3    3.76    0.28
  -6  -2  -3    3.69    0.27
   6  -2   3    3.66    0.26
  -6   2  -3    3.14    0.26
  -6   2  -3    3.95    0.29
   6   2   3    3.92    0.28
   6   2   3    3.67    0.22
   6   2   3    4.02    0.29
   6   2   3    4.00    0.28
   6   2   3    3.88    0.35
   6   2   3    3.88    0.28
   6   2   3    3.97    0.24
   7  -2   3   32.55    1.65
  -7  -2  -3   34.61    1.71
  -7  -2  -3   34.16    1.68
  -7  -2  -3   33.58    1.69
  -7  -2  -3   34.72    1.76
  -7  -2  -3   34.64    1.72
   7  -2   3   32.76    1.66
   7   2   3   34.17    1.68
   7   2   3   33.56    1.64
  -7   2  -3   32.19    1.69
   7   2   3   32.53    1.69
   7   2   3   32.55    1.68
   7   2   3   31.29    1.64
   7   2   3   34.17    1.70
  -8  -2  -3   10.10    0.59
  -8  -2  -3   10.30    0.56
  -8  -2  -3   10.04    0.56
  -8  -2  -3   10.35    0.62
   8   2   3    9.04    0.51
   8   2   3    9.58    0.54
   8   2   3    9.98    0.51
  -8   2  -3    8.61    0.56
   8   2   3   10.18    0.56
   8   2   3    9.98    0.56
  -9  -2  -3    3.25    0.24
  -9  -2  -3    3.46    0.23
  -9  -2  -3    3.55    0.24
  -9  -2  -3    2.85    0.26
  -9  -2  -3    3.21    0.22
   9   2   3    3.11    0.20
   9   2   3    2.49    0.24
  -9   2  -3    3.23    0.22
   9   2   3    3.06    0.21
   9   2   3    2.58    0.19
 -10  -3   3    2.78    0.16
  10   3  -3    2.12    0.16
  -9  -3   3    1.93    0.16
  -9  -3   3    1.92    0.17
  -9  -3   3    2.13    0.17
  -9  -3   3    1.86    0.15
   9   3  -3    1.93    0.16
   9   3  -3    2.07    0.13
  -9   3   3    1.80    0.14
   9   3  -3    1.86    0.14
   9   3  -3    1.61    0.14
   9   3  -3    1.87    0.13
   9   3  -3    1.93    0.16
   9   3  -3    1.79    0.13
  -8  -3   3    5.53    0.43
   8  -3  -3    7.15    0.42
  -8  -3   3    6.30    0.39
  -8  -3   3    5.22    0.47
  -8  -3   3    6.92    0.43
   8   3  -3    6.50    0.35
   8   3  -3    6.45    0.40
   8   3  -3    6.20    0.38
   8   3  -3    6.15    0.36
   8   3  -3    6.44    0.39
   8   3  -3    6.39    0.39
   8   3  -3    6.16    0.35
  -7  -3   3    2.40    0.24
   7  -3  -3    2.40    0.20
   7  -3  -3    1.97    0.22
  -7  -3   3    1.85    0.25
  -7  -3   3    2.58    0.23
   7  -3  -3    2.37    0.20
  -7  -3   3    2.47    0.20
   7   3  -3    2.35    0.18
   7   3  -3    2.33    0.17
  -7   3   3    2.20    0.17
   7   3  -3    2.08    0.20
   7   3  -3    2.15    0.21
   7   3  -3    2.32    0.22
   7   3  -3    2.26    0.22
   7   3  -3    2.42    0.20
   6  -3  -3    7.20    0.45
   6  -3  -3    8.47    0.66
  -6  -3   3    7.47    0.46
   6  -3  -3    6.00    0.46
  -6  -3   3    7.31    0.43
  -6  -3   3    7.63    0.43
   6  -3  -3    6.75    0.44
   6   3  -3    7.51    0.47
   6   3  -3    6.91    0.42
  -6   3   3    6.89    0.41
  -6   3   3    7.24    0.40
  -6   3   3    6.89    0.41
   6   3  -3    6.35    0.46
   6   3  -3    7.21    0.47
   6   3  -3    7.33    0.46
   6   3  -3    7.57    0.41
   6   3  -3    7.14    0.47
   6   3  -3    7.40    0.41
   6   3  -3    7.21    0.40
   5  -3  -3   22.88    1.19
   5  -3  -3   21.38    1.20
   5  -3  -3   23.97    1.27
  -5  -3   3   24.26    1.16
  -5  -3   3   24.12    1.19
   5  -3  -3   22.89    1.19
   5  -3  -3   22.08    1.20
  -5  -3   3   24.03    1.17
   5  -3  -3   22.79    1.22
   5   3  -3   22.69    1.17
   5   3  -3   22.30    1.15
  -5   3   3   23.08    1.15
   5   3  -3   23.78    1.16
  -5   3   3   22.91    1.17
   5   3  -3   21.78    1.21
  -5   3   3   22.85    1.23
   5   3  -3   22.79    1.19
   5   3  -3   23.17    1.16
  -5   3   3   24.36    1.18
   5   3  -3   22.72    1.22
  -5   3   3   23.24    1.17
   5   3  -3   23.39    1.23
   5   3  -3   23.34    1.21
   4  -3  -3    6.21    0.41
   4  -3  -3    6.12    0.40
   4  -3  -3    6.43    0.39
  -4  -3   3    7.74    0.76
  -4  -3   3    6.10    0.66
   4  -3  -3    6.34    0.39
   4  -3  -3    6.70    0.40
  -4  -3   3    6.40    0.35
  -4  -3   3    6.89    0.39
  -4   3   3    6.36    0.42
   4   3  -3    6.18    0.41
  -4   3   3    6.86    0.39
  -4   3   3    6.02    0.48
   4   3  -3    6.39    0.38
   4   3  -3    6.16    0.36
  -4   3   3    6.17    0.41
   4   3  -3    6.41    0.39
   4   3  -3    6.47    0.37
  -4   3   3    7.19    0.39
   4   3  -3    5.99    0.39
   4   3  -3    6.72    0.41
   4   3  -3    6.65    0.43
   4   3  -3    6.90    0.51
   3  -3  -3   58.01    2.81
   3  -3  -3   58.86    3.26
  -3  -3   3   53.68    3.36
  -3  -3   3   56.45    3.13
   3  -3  -3   56.51    2.75
   3  -3  -3   59.08    2.76
   3  -3  -3   58.35    2.75
   3  -3  -3   58.52    2.78
  -3  -3   3   56.41    2.73
   3   3  -3   56.32    2.75
   3   3  -3   56.43    2.79
  -3   3   3   53.19    2.77
   3   3  -3   56.91    2.75
   3   3  -3   54.53    2.78
  -3   3   3   55.05    2.78
   2  -3  -3   70.06    3.23
  -2  -3   3   62.79    3.86
   2  -3  -3   68.03    3.26
   2  -3  -3   67.32    3.22
   2  -3  -3   65.32    3.23
   2  -3  -3   66.08    3.22
  -2  -3   3   70.13    3.19
  -2  -3   3   67.38    3.57
   2  -3  -3   72.00    3.92
   2  -3  -3   73.77    3.91
   2   3  -3   64.28    3.26
   2   3  -3   66.75    3.26
  -2   3   3   62.87    4.99
  -2   3   3   66.04    3.25
  -2   3   3   70.80    3.23
  -2   3   3   68.42    5.58
  -2   3   3   63.55    4.53
  -2   3   3   56.65    4.11
  -2   3   3   66.80    3.26
   2   3  -3   64.12    3.22
  -2   3   3   67.09    3.24
   1  -3  -3    8.47    0.71
  -1  -3   3    7.45    0.64
  -1  -3   3    8.25    0.42
   1  -3  -3    8.45    0.46
   1  -3  -3    7.68    0.42
   1  -3  -3    8.24    0.43
   1   3  -3    8.17    0.47
  -1   3   3    7.57    0.46
  -1   3   3    8.65    0.49
  -1   3   3    7.80    0.46
  -1   3   3    7.18    1.17
  -1   3   3    8.64    0.46
  -1   3   3    7.56    1.00
   1   3  -3    8.11    0.47
  -1   3   3    6.61    1.14
   1   3  -3    8.10    0.48
  -1   3   3    8.94    0.97
   0  -3  -3    5.72    0.30
   0  -3   3    6.24    0.65
   0  -3   3    6.61    0.53
   0  -3   3    5.34    0.31
   0  -3  -3    6.02    0.52
   0  -3   3    5.42    0.30
   0  -3  -3    5.39    0.32
   0  -3  -3    5.84    0.56
   0   3   3    5.59    0.34
   0   3  -3    5.63    0.36
   0   3  -3    5.74    0.35
   0   3   3    5.64    0.37
   0   3   3    4.53    0.63
   0   3   3    5.28    0.34
   0   3   3    5.58    0.63
   0   3   3    5.47    0.36
   0   3  -3    5.37    0.35
  -1  -3  -3  260.79   12.63
   1  -3   3  277.85   12.92
   1  -3   3  263.84   12.22
  -1  -3  -3  211.06   12.47
   1  -3   3  257.60   12.53
   1  -3   3  274.24   13.13
  -1  -3  -3  278.00   12.21
   1   3   3  261.36   12.30
  -1   3  -3  272.68   12.29
  -1   3  -3  239.76   12.90
  -1   3  -3  224.11   13.09
  -1   3  -3  262.41   12.27
   2  -3   3    4.55    0.58
  -2  -3  -3    3.81    0.39
  -2  -3  -3    4.95    0.26
   2  -3   3    5.44    0.50
   2  -3   3    4.97    0.28
  -2  -3  -3    4.61    0.27
   2  -3   3    4.77    0.29
   2   3   3    4.99    0.34
   2   3   3    4.55    0.35
  -2   3  -3    4.63    0.32
  -2   3  -3    4.87    0.32
  -2   3  -3    4.12    0.29
   3  -3   3    6.22    0.39
   3  -3   3    5.01    0.53
   3  -3   3    5.62    0.73
  -3  -3  -3    6.33    0.33
   3  -3   3    5.93    0.34
  -3  -3  -3    5.67    0.59
   3  -3   3    5.66    0.36
  -3  -3  -3    5.75    0.35
   3  -3   3    5.52    0.34
   3  -3   3    5.52    0.36
   3   3   3    5.66    0.37
  -3   3  -3    5.55    0.38
  -3   3  -3    5.40    0.33
   3   3   3    5.76    0.36
   3   3   3    5.87    0.35
   3   3   3    5.54    0.33
   3   3   3    5.82    0.40
   3   3   3    5.60    0.42
  -3   3  -3    5.49    0.36
  -3   3  -3    5.81    0.32
   3   3   3    6.01    0.36
  -3   3  -3    5.89    0.38
  -3   3  -3    5.92    0.52
  -3   3  -3    4.94    0.34
   4  -3   3    0.07    0.05
  -4  -3  -3    0.08    0.24
  -4   3  -3    0.02    0.08
   4   3   3    0.14    0.08
  -4   3  -3    0.08    0.05
  -4   3  -3    0.15    0.05
  -4   3  -3    0.20    0.05
  -5  -3  -3   19.09    0.97
   5  -3   3   18.91    1.01
   5  -3   3   18.20    1.02
  -5  -3  -3   19.15    0.99
  -5  -3  -3   20.08    0.99
  -5  -3  -3   16.41    0.98
   5  -3   3   19.35    0.98
   5  -3   3   18.66    0.98
   5   3   3   20.88    0.99
   5   3   3   17.89    1.09
   5   3   3   18.76    0.99
  -5   3  -3   16.91    0.98
   5   3   3   18.77    0.97
   6  -3   3    1.51    0.16
  -6  -3  -3    1.80    0.20
  -6  -3  -3    1.79    0.16
   6  -3   3    1.64    0.21
  -6  -3  -3    1.37    0.16
  -6  -3  -3    1.77    0.19
   6  -3   3    1.55    0.19
  -6   3  -3    1.56    0.16
   6   3   3    1.58    0.17
   6   3   3    1.65    0.19
   6   3   3    1.70    0.13
   6   3   3    1.81    0.18
  -6   3  -3    1.42    0.16
  -6   3  -3    1.78    0.18
   6   3   3    1.87    0.19
   6   3   3    1.69    0.17
   6   3   3    1.58    0.14
   6   3   3    1.57    0.13
  -7  -3  -3    5.22    0.34
  -7  -3  -3    5.31    0.34
   7  -3   3    5.17    0.39
  -7  -3  -3    5.54    0.36
   7  -3   3    4.75    0.34
   7  -3   3    5.40    0.40
   7  -3   3    5.00    0.46
   7  -3   3    4.94    0.33
  -7  -3  -3    5.47    0.34
   7   3   3    5.18    0.35
  -7   3  -3    5.81    0.43
   7   3   3    4.68    0.29
   7   3   3    5.07    0.34
   7   3   3    5.28    0.34
  -7   3  -3    4.85    0.31
   7   3   3    5.09    0.33
   7   3   3    4.97    0.29
   8  -3   3    2.56    0.16
  -8  -3  -3    2.03    0.19
  -8  -3  -3    2.58    0.20
  -8  -3  -3    1.87    0.17
  -8  -3  -3    2.45    0.18
  -8  -3  -3    1.89    0.18
   8   3   3    2.50    0.19
   8   3   3    2.64    0.19
   8   3   3    2.29    0.19
   8   3   3    2.45    0.20
   8   3   3    2.29    0.18
   8   3   3    2.26    0.15
   8   3   3    2.10    0.14
  -9  -3  -3    4.18    0.29
   9   3   3    4.20    0.25
   9   3   3    3.32    0.22
   9   3   3    4.09    0.24
  -9   4   3    0.41    0.05
   9   4  -3    0.52    0.06
   9   4  -3    0.44    0.05
   9   4  -3    0.42    0.06
  -8  -4   3    0.29    0.09
  -8  -4   3    0.25    0.07
  -8  -4   3    0.20    0.06
   8   4  -3    0.29    0.07
   8   4  -3    0.30    0.07
   8   4  -3    0.26    0.07
   8   4  -3    0.25    0.05
   8   4  -3    0.27    0.06
  -8   4   3    0.30    0.07
  -7  -4   3   12.81    0.78
  -7  -4   3   13.14    0.76
   7  -4  -3   13.93    0.79
   7  -4  -3   15.51    0.77
   7  -4  -3   15.92    0.78
  -7  -4   3   16.73    0.96
  -7  -4   3   12.77    0.76
   7  -4  -3   14.48    0.77
   7   4  -3   15.21    0.80
   7   4  -3   14.26    0.75
   7   4  -3   15.11    0.77
  -7   4   3   14.52    0.73
   7   4  -3   15.41    0.79
   7   4  -3   12.77    0.73
   7   4  -3   15.16    0.74
  -7   4   3   14.00    0.73
   7   4  -3   15.21    0.73
  -7   4   3   15.36    0.76
   6  -4  -3   14.87    0.74
   6  -4  -3   13.59    0.76
  -6  -4   3   12.12    0.75
   6  -4  -3   13.65    0.74
  -6  -4   3   12.22    0.71
  -6  -4   3   11.87    0.73
   6  -4  -3   13.12    0.80
  -6  -4   3   12.51    0.72
   6  -4  -3   14.24    0.75
   6   4  -3   14.85    0.70
  -6   4   3   13.77    0.71
  -6   4   3   13.52    0.72
  -6   4   3   13.79    0.69
   6   4  -3   13.75    0.76
   6   4  -3   13.90    0.69
   6   4  -3   14.13    0.76
   6   4  -3   12.82    0.69
  -6   4   3   13.34    0.68
   6   4  -3   13.33    0.73
  -6   4   3   13.83    0.71
   6   4  -3   14.13    0.70
  -5  -4   3    6.43    0.43
  -5  -4   3    6.49    0.44
   5  -4  -3    7.18    0.44
   5  -4  -3    6.43    0.45
   5  -4  -3    7.17    0.49
   5  -4  -3    7.67    0.43
  -5  -4   3    6.59    0.41
   5   4  -3    6.96    0.45
   5   4  -3    6.98    0.39
  -5   4   3    6.69    0.42
  -5   4   3    6.89    0.50
  -5   4   3    7.10    0.39
   5   4  -3    6.99    0.42
  -5   4   3    6.74    0.38
   5   4  -3    7.28    0.39
  -5   4   3    7.02    0.41
   5   4  -3    7.05    0.43
   5   4  -3    7.13    0.39
  -5   4   3    7.00    0.41
  -5   4   3    6.86    0.40
   5   4  -3    7.00    0.45
   5   4  -3    6.56    0.39
   4  -4  -3    5.00    0.34
   4  -4  -3    5.17    0.32
  -4  -4   3    4.08    0.27
   4  -4  -3    4.86    0.41
   4  -4  -3    5.22    0.35
   4  -4  -3    5.11    0.40
  -4  -4   3    4.77    0.31
   4  -4  -3    4.93    0.33
   4   4  -3    5.05    0.29
   4   4  -3    4.07    0.34
  -4   4   3    4.63    0.30
  -4   4   3    5.27    0.32
  -4   4   3    4.74    0.29
  -4   4   3    4.74    0.30
   4   4  -3    4.72    0.32
   4   4  -3    4.25    0.27
  -4   4   3    4.80    0.41
   4   4  -3    4.72    0.29
   4   4  -3    4.84    0.34
  -4   4   3    4.49    0.33
   4   4  -3    4.26    0.27
   4   4  -3    4.74    0.34
  -4   4   3    4.62    0.30
   4   4  -3    4.65    0.38
   4   4  -3    5.09    0.29
   3  -4  -3   32.92    1.60
   3  -4  -3   32.92    1.59
   3  -4  -3   33.15    1.62
   3  -4  -3   31.68    1.65
   3  -4  -3   31.94    1.58
   3   4  -3   29.33    1.54
   3   4  -3   31.98    1.56
   3   4  -3   31.44    1.63
   3   4  -3   30.64    1.63
  -3   4   3   31.54    1.57
  -3   4   3   31.59    1.63
  -3   4   3   31.87    1.58
   3   4  -3   32.98    1.58
   3   4  -3   31.80    1.62
   3   4  -3   33.03    1.56
  -3   4   3   34.49    1.59
   3   4  -3   28.84    1.54
   3   4  -3   31.00    1.59
  -3   4   3   32.46    1.63
   3   4  -3   29.40    1.60
  -3   4   3   32.84    1.74
   3   4  -3   27.27    1.63
   3   4  -3   32.71    1.62
   3   4  -3   31.73    1.56
  -3   4   3   30.69    1.57
  -3   4   3   30.77    1.57
   2  -4  -3   40.72    2.69
   2  -4  -3   35.59    1.77
   2  -4  -3   37.06    1.78
   2  -4  -3   35.11    1.77
   2  -4  -3   37.07    1.80
   2  -4  -3   38.67    1.84
  -2   4   3   35.77    1.76
   2   4  -3   33.59    1.78
  -2   4   3   36.70    1.78
   2   4  -3   35.59    1.80
  -2   4   3   36.27    1.93
   2   4  -3   35.40    1.81
   2   4  -3   34.49    1.81
   2   4  -3   35.20    1.75
  -2   4   3   35.50    1.77
   2   4  -3   36.14    1.76
  -2   4   3   35.28    1.77
   2   4  -3   35.79    1.77
  -2   4   3   35.88    1.83
  -2   4   3   36.21    1.83
   2   4  -3   34.48    1.83
   2   4  -3   36.71    1.76
   2   4  -3   34.27    1.82
   2   4  -3   34.95    1.75
   2   4  -3   34.27    1.86
   2   4  -3   36.20    1.76
  -2   4   3   35.01    1.78
  -2   4   3   35.50    1.76
   1  -4  -3   12.40    0.66
  -1  -4   3   13.20    0.60
   1  -4  -3   12.86    0.65
   1  -4  -3   12.61    0.68
   1  -4  -3   13.87    1.20
   1  -4  -3   14.09    1.22
   1  -4  -3   12.22    0.64
  -1   4   3   11.60    0.66
  -1   4   3   11.92    0.70
   1   4  -3   12.19    0.64
   1   4  -3   11.19    0.67
  -1   4   3   12.48    0.67
   1   4  -3   12.05    0.64
   1   4  -3   11.87    0.71
   1   4  -3   11.35    0.63
   1   4  -3   11.83    0.74
   1   4  -3   11.36    0.69
  -1   4   3   12.35    0.65
   1   4  -3   11.54    0.64
  -1   4   3   12.14    0.79
   1   4  -3   12.07    0.64
  -1   4   3   11.99    0.64
  -1   4   3   11.75    0.64
  -1   4   3   11.94    0.64
   1   4  -3   12.55    0.71
  -1   4   3   12.58    0.66
   1   4  -3   12.13    0.64
   0  -4  -3   14.93    1.23
   0  -4  -3   13.96    0.71
   0  -4  -3   13.73    0.72
   0  -4   3   14.04    0.72
   0   4  -3   13.39    0.77
   0   4  -3   13.14    0.81
   0   4   3   12.80    0.70
   0   4   3   13.40    0.73
   0   4  -3   13.83    0.69
   0   4   3   12.95    0.70
   0   4  -3   12.80    0.69
   0   4  -3   13.43    0.76
   0   4  -3   12.78    0.69
   0   4   3   13.14    0.84
   0   4   3   13.43    0.92
   0   4   3   13.61    0.77
   0   4   3   13.58    0.70
   0   4   3   13.17    0.77
   0   4   3   14.12    0.72
   0   4  -3   13.47    0.69
   0   4  -3   12.93    0.71
   0   4  -3   13.21    0.70
   0   4  -3   13.01    0.74
   0   4   3   14.10    0.73
   0   4  -3   13.71    0.71
  -1  -4  -3    0.43    0.37
   1  -4   3    0.88    0.12
  -1  -4  -3    0.84    0.09
   1  -4   3    0.88    0.10
  -1  -4  -3    0.96    0.09
  -1  -4  -3    0.79    0.09
   1   4   3    0.70    0.12
  -1   4  -3    0.83    0.10
   1   4   3    0.95    0.15
  -1   4  -3    0.90    0.12
  -1   4  -3    0.74    0.10
  -1   4  -3    0.77    0.10
  -1   4  -3    0.75    0.10
  -1   4  -3    0.99    0.18
  -1   4  -3    0.67    0.12
   1   4   3    0.67    0.12
   1   4   3    0.97    0.14
   1   4   3    0.72    0.10
   1   4   3    0.93    0.13
  -1   4  -3    0.70    0.13
  -1   4  -3    0.75    0.10
   1   4   3    0.66    0.09
   1   4   3    0.57    0.14
   1   4   3    0.80    0.16
   2  -4   3   19.34    1.09
  -2  -4  -3   20.66    1.05
  -2  -4  -3   20.24    1.89
   2  -4   3   20.88    1.11
   2  -4   3   22.09    1.15
   2  -4   3   22.28    1.10
  -2  -4  -3   20.40    2.15
   2  -4   3   22.93    1.14
  -2   4  -3   21.08    1.08
   2   4   3   20.34    1.11
   2   4   3   21.84    1.19
   2   4   3   21.73    1.20
  -2   4  -3   21.31    1.17
  -2   4  -3   21.05    1.09
  -2   4  -3   22.73    1.23
   2   4   3   21.63    1.15
   2   4   3   21.29    1.13
  -2   4  -3   22.37    1.14
  -2   4  -3   20.94    1.08
   2   4   3   22.60    1.12
   2   4   3   22.10    1.09
  -2   4  -3   21.78    1.18
   2   4   3   22.92    1.13
   2   4   3   23.28    1.13
  -2   4  -3   22.66    1.08
  -2   4  -3   21.91    1.09
  -2   4  -3   21.06    1.09
   2   4   3   20.15    1.20
   3  -4   3    2.20    0.20
   3  -4   3    2.00    0.19
   3  -4   3    2.12    0.18
  -3  -4  -3    1.80    0.13
   3  -4   3    2.17    0.22
  -3   4  -3    1.82    0.20
   3   4   3    1.75    0.24
   3   4   3    2.03    0.19
   3   4   3    2.01    0.19
  -3   4  -3    1.85    0.17
   3   4   3    2.08    0.19
   3   4   3    2.09    0.26
  -3   4  -3    1.79    0.15
  -3   4  -3    1.75    0.20
   3   4   3    1.70    0.14
  -3   4  -3    1.94    0.17
   3   4   3    1.89    0.23
   4  -4   3    0.99    0.17
   4  -4   3    1.04    0.16
  -4  -4  -3    0.94    0.12
   4  -4   3    1.13    0.14
   4  -4   3    1.08    0.14
  -4  -4  -3    0.83    0.11
   4  -4   3    0.90    0.14
   4   4   3    1.18    0.15
   4   4   3    1.06    0.15
  -4   4  -3    1.09    0.12
  -4   4  -3    1.01    0.11
   4   4   3    1.06    0.15
   4   4   3    0.94    0.14
   4   4   3    1.02    0.11
  -4   4  -3    1.02    0.11
  -4   4  -3    1.04    0.16
  -4   4  -3    1.13    0.12
  -4   4  -3    1.10    0.19
  -4   4  -3    0.89    0.13
   4   4   3    1.05    0.15
   4   4   3    1.15    0.14
   4   4   3    0.86    0.10
  -4   4  -3    1.19    0.13
   5  -4   3    5.43    0.34
  -5  -4  -3    4.44    0.31
   5  -4   3    5.23    0.36
   5  -4   3    5.19    0.35
  -5  -4  -3    4.58    0.31
   5  -4   3    5.19    0.40
  -5  -4  -3    4.34    0.36
  -5   4  -3    5.25    0.32
   5   4   3    5.59    0.34
  -5   4  -3    5.28    0.31
   5   4   3    5.40    0.32
  -5   4  -3    5.46    0.35
  -5   4  -3    5.22    0.30
   5   4   3    5.15    0.34
   5   4   3    5.28    0.35
   5   4   3    5.36    0.35
   5   4   3    5.58    0.35
   6  -4   3    8.83    0.53
  -6  -4  -3    7.90    0.52
  -6  -4  -3    7.57    0.48
   6  -4   3    9.06    0.52
   6  -4   3    9.30    0.51
  -6  -4  -3    7.77    0.51
   6  -4   3    8.90    0.57
   6   4   3    9.13    0.50
   6   4   3    8.87    0.47
  -6   4  -3    9.26    0.48
   6   4   3    9.72    0.52
   6   4   3    8.88    0.51
   6   4   3    9.37    0.52
  -6   4  -3    8.98    0.50
   6   4   3    9.19    0.46
  -6   4  -3    9.31    0.49
   6   4   3    9.28    0.51
  -7  -4  -3    5.91    0.39
   7  -4   3    7.24    0.41
   7  -4   3    6.39    0.40
  -7  -4  -3    6.26    0.38
  -7  -4  -3    5.91    0.36
   7   4   3    6.03    0.37
   7   4   3    6.50    0.34
   7   4   3    6.33    0.40
   7   4   3    6.02    0.43
   7   4   3    6.74    0.38
  -7   4  -3    7.10    0.38
  -8  -4  -3    3.88    0.29
   8   4   3    4.32    0.25
  -8   4  -3    4.57    0.23
   8   4   3    4.19    0.25
   8   4   3    4.34    0.24
  -7   5   3    1.12    0.11
   7   5  -3    1.32    0.10
  -7   5   3    1.01    0.09
  -7   5   3    1.10    0.09
   6  -5  -3   10.43    0.59
   6  -5  -3   10.83    0.59
   6  -5  -3   11.46    0.58
   6  -5  -3    8.95    0.57
   6   5  -3    9.96    0.55
  -6   5   3   11.75    0.56
  -6   5   3   11.04    0.57
   6   5  -3   10.28    0.54
   6   5  -3   11.15    0.55
   6   5  -3   10.50    0.58
  -6   5   3   11.60    0.56
   5  -5  -3    6.93    0.40
   5  -5  -3    7.01    0.39
   5  -5  -3    6.48    0.46
   5  -5  -3    6.44    0.39
   5  -5  -3    7.25    0.49
   5   5  -3    5.87    0.34
   5   5  -3    6.71    0.35
  -5   5   3    6.44    0.36
  -5   5   3    6.40    0.44
  -5   5   3    6.38    0.35
  -5   5   3    6.10    0.36
   5   5  -3    6.31    0.38
  -5   5   3    6.53    0.36
   5   5  -3    5.77    0.36
  -5   5   3    6.31    0.37
   5   5  -3    6.40    0.35
   5   5  -3    6.15    0.38
   5   5  -3    6.29    0.38
  -5   5   3    6.44    0.38
   4  -5  -3    1.10    0.16
   4  -5  -3    1.49    0.16
  -4   5   3    1.38    0.13
  -4   5   3    1.42    0.16
   4   5  -3    1.40    0.12
  -4   5   3    1.37    0.14
   4   5  -3    1.46    0.15
   4   5  -3    1.35    0.12
   4   5  -3    1.42    0.14
   4   5  -3    1.42    0.12
  -4   5   3    1.33    0.15
  -4   5   3    1.36    0.13
  -4   5   3    1.60    0.21
   4   5  -3    1.25    0.12
   4   5  -3    1.28    0.13
   4   5  -3    1.23    0.14
  -4   5   3    1.31    0.13
   4   5  -3    1.43    0.14
   3  -5  -3    8.02    0.45
   3  -5  -3    8.35    0.46
   3   5  -3    8.09    0.42
   3   5  -3    7.88    0.43
   3   5  -3    6.92    0.47
   3   5  -3    7.00    0.41
   3   5  -3    8.02    0.46
  -3   5   3    7.91    0.43
   3   5  -3    7.93    0.42
   3   5  -3    7.12    0.41
   3   5  -3    7.79    0.45
   2  -5  -3   34.01    1.61
  -2   5   3   32.36    1.55
  -2   5   3   32.45    1.57
   2   5  -3   33.59    1.65
   2   5  -3   29.81    1.64
  -2   5   3   31.30    1.55
   2   5  -3   29.63    1.54
   2   5  -3   31.07    1.54
   2   5  -3   30.00    1.54
   2   5  -3   32.24    1.54
   2   5  -3   29.88    1.55
  -2   5   3   29.77    1.61
  -2   5   3   30.97    1.55
  -2   5   3   33.26    1.72
   2   5  -3   31.03    1.54
  -2   5   3   30.56    1.55
   1  -5  -3    7.65    0.47
   1  -5  -3    7.45    0.43
  -1   5   3    7.51    0.48
  -1   5   3    7.54    0.44
   1   5  -3    8.06    0.43
   1   5  -3    7.51    0.52
   1   5  -3    7.24    0.44
  -1   5   3    7.13    0.42
  -1   5   3    7.43    0.41
  -1   5   3    7.57    0.42
  -1   5   3    7.31    0.42
   1   5  -3    7.38    0.41
   1   5  -3    7.78    0.42
  -1   5   3    7.19    0.54
   1   5  -3    7.38    0.41
  -1   5   3    6.98    0.43
   1   5  -3    7.73    0.42
   1   5  -3    7.23    0.39
   0  -5   3    3.43    0.24
   0  -5  -3    3.32    0.25
   0  -5  -3    3.44    0.27
   0   5   3    3.61    0.25
   0   5  -3    4.09    0.26
   0   5  -3    4.45    0.37
   0   5   3    4.29    0.28
   0   5   3    4.05    0.28
   0   5   3    4.02    0.25
   0   5  -3    4.30    0.26
   0   5  -3    4.18    0.27
   0   5  -3    3.80    0.24
   0   5   3    4.03    0.37
   0   5   3    3.96    0.25
   0   5  -3    4.15    0.29
   0   5  -3    4.20    0.26
   0   5   3    4.18    0.31
   0   5  -3    3.98    0.24
   0   5   3    4.30    0.26
   0   5   3    4.15    0.29
   1  -5   3    6.75    0.39
   1  -5   3    6.61    0.41
  -1  -5  -3    5.37    0.37
  -1   5  -3    6.45    0.40
   1   5   3    5.91    0.38
  -1   5  -3    6.47    0.35
  -1   5  -3    6.66    0.38
  -1   5  -3    6.55    0.37
  -1   5  -3    6.48    0.37
   1   5   3    6.20    0.39
   1   5   3    6.49    0.40
  -1   5  -3    6.10    0.36
   1   5   3    6.00    0.35
   1   5   3    6.77    0.39
   1   5   3    6.09    0.35
  -1   5  -3    6.55    0.37
   1   5   3    6.40    0.48
  -1   5  -3    6.91    0.49
   1   5   3    6.40    0.36
   1   5   3    6.09    0.41
   2  -5   3    5.22    0.42
   2  -5   3    6.42    0.41
   2  -5   3    6.25    0.38
   2   5   3    6.47    0.37
   2   5   3    6.17    0.38
  -2   5  -3    6.74    0.48
   2   5   3    5.82    0.56
  -2   5  -3    6.75    0.41
  -2   5  -3    6.66    0.37
   2   5   3    5.71    0.37
  -2   5  -3    6.44    0.38
  -2   5  -3    6.96    0.37
   2   5   3    6.16    0.40
  -2   5  -3    6.62    0.37
  -2   5  -3    6.44    0.38
   2   5   3    6.74    0.41
   2   5   3    6.71    0.44
   3  -5   3    3.34    0.24
   3  -5   3    3.37    0.26
   3  -5   3    3.31    0.24
  -3   5  -3    3.53    0.22
  -3   5  -3    3.44    0.26
  -3   5  -3    3.71    0.32
  -3   5  -3    3.34    0.23
   3   5   3    3.31    0.26
   3   5   3    3.06    0.24
  -3   5  -3    3.28    0.21
   3   5   3    3.24    0.21
   3   5   3    3.22    0.24
   3   5   3    3.21    0.23
   3   5   3    3.24    0.25
  -3   5  -3    3.43    0.22
   3   5   3    3.55    0.24
  -3   5  -3    3.25    0.22
   4  -5   3    4.07    0.28
   4  -5   3    4.09    0.30
   4  -5   3    3.85    0.28
   4  -5   3    4.29    0.30
   4   5   3    4.10    0.28
   4   5   3    4.08    0.29
   4   5   3    3.90    0.24
  -4   5  -3    4.20    0.25
  -4   5  -3    4.15    0.24
  -4   5  -3    4.27    0.25
  -4   5  -3    4.15    0.26
   4   5   3    4.01    0.27
  -4   5  -3    4.07    0.28
   4   5   3    4.17    0.28
  -4   5  -3    4.34    0.33
  -4   5  -3    3.96    0.25
   4   5   3    3.95    0.26
   5  -5   3    0.26    0.08
   5  -5   3    0.28    0.09
   5   5   3    0.21    0.07
   5   5   3    0.25    0.06
   5   5   3    0.37    0.09
   5   5   3    0.36    0.10
   5   5   3    0.39    0.08
  -5   5  -3    0.41    0.08
  -5   5  -3    0.42    0.08
  -5   5  -3    0.31    0.09
  -5   5  -3    0.36    0.09
  -5   5  -3    0.34    0.12
   5   5   3    0.31    0.09
   6  -5   3    6.89    0.38
   6   5   3    6.68    0.37
  -6   5  -3    6.72    0.36
  -6   5  -3    6.75    0.35
   6   5   3    6.54    0.36
   6   5   3    7.19    0.38
   6   5   3    6.39    0.36
   7   5   3    4.29    0.25
   7   5   3    5.01    0.26
   5  -6  -3    2.23    0.14
  -5   6   3    2.08    0.12
  -5   6   3    2.13    0.12
  -5   6   3    1.91    0.12
   4  -6  -3    3.48    0.23
  -4   6   3    3.63    0.20
  -4   6   3    4.15    0.21
  -4   6   3    3.69    0.26
  -4   6   3    3.45    0.27
  -4   6   3    4.05    0.21
  -4   6   3    3.92    0.21
   3  -6  -3    2.11    0.21
   3  -6  -3    1.64    0.15
   3  -6  -3    1.63    0.14
  -3   6   3    2.19    0.14
  -3   6   3    1.78    0.12
  -3   6   3    1.86    0.14
   3   6  -3    1.89    0.12
  -3   6   3    2.01    0.13
  -3   6   3    2.26    0.21
  -3   6   3    1.97    0.13
  -3   6   3    2.09    0.16
   2  -6  -3   11.19    0.63
   2  -6  -3   10.62    0.62
   2   6  -3   11.78    0.60
  -2   6   3   12.13    0.61
  -2   6   3   13.41    0.62
   2   6  -3   11.78    0.60
  -2   6   3   12.64    0.62
  -2   6   3   10.85    0.60
  -2   6   3   13.18    0.62
  -2   6   3   12.86    0.71
  -2   6   3   13.54    0.66
   2   6  -3   10.86    0.64
   2   6  -3   11.96    0.60
   2   6  -3   11.07    0.59
   1  -6  -3    6.14    0.41
   1   6  -3    6.11    0.34
  -1   6   3    7.11    0.36
  -1   6   3    7.23    0.36
  -1   6   3    6.04    0.55
   1   6  -3    6.34    0.36
   1   6  -3    6.22    0.34
   1   6  -3    6.15    0.34
  -1   6   3    6.03    0.36
   1   6  -3    7.67    0.39
   0   6   3    2.69    0.17
   0   6  -3    2.63    0.17
   0   6   3    2.38    0.20
   0   6  -3    2.79    0.17
   0   6  -3    3.23    0.19
   0   6   3    2.69    0.17
   0   6   3    2.86    0.19
  -1   6  -3    0.07    0.06
   1   6   3    0.03    0.04
   1   6   3    0.06    0.06
   1   6   3    0.07    0.05
  -1   6  -3    0.06    0.07
  -1   6  -3    0.07    0.03
  -1   6  -3    0.09    0.06
  -1   6  -3    0.04    0.04
   1   6   3    0.10    0.05
  -1   6  -3    0.08    0.06
  -1   6  -3    0.09    0.05
   2  -6   3    0.68    0.16
  -2   6  -3    1.01    0.15
  -2   6  -3    0.83    0.07
   2   6   3    0.76    0.09
   2   6   3    0.97    0.08
   2   6   3    0.97    0.10
  -2   6  -3    0.87    0.08
   2   6   3    0.91    0.09
  -2   6  -3    0.96    0.12
   2   6   3    0.92    0.10
   2   6   3    0.80    0.11
  -3   6  -3    2.31    0.15
   3   6   3    1.95    0.14
  -3   6  -3    2.06    0.14
  -3   6  -3    2.00    0.13
   3   6   3    2.28    0.17
   3   6   3    2.11    0.13
  -3   6  -3    2.34    0.19
   3   6   3    2.07    0.15
  -3   6  -3    2.38    0.14
  -3   6  -3    2.24    0.16
   4  -6   3    2.69    0.18
   4   6   3    3.19    0.18
  -4   6  -3    2.76    0.16
  -4   6  -3    3.08    0.18
  -4   6  -3    2.64    0.19
  -4   6  -3    2.69    0.16
   4   6   3    2.90    0.17
  10   0  -4    1.18    0.15
 -10   0   4    1.14    0.12
 -10   0   4    1.12    0.10
  -9   0   4    9.91    0.63
  -9   0   4   12.30    0.89
  -9   0   4   11.70    0.70
  -9   0   4   12.54    0.75
  -9   0   4    9.98    0.60
  -9   0   4   10.64    0.61
  -8   0   4    1.02    0.16
  -8   0   4    1.03    0.13
  -8   0   4    1.08    0.14
  -8   0   4    1.10    0.13
  -8   0   4    1.02    0.14
  -7   0   4   51.57    2.60
  -7   0   4   50.90    2.55
  -7   0   4   52.15    2.52
   7   0  -4   50.06    2.49
  -7   0   4   50.79    2.53
   7   0  -4   53.84    2.55
   7   0  -4   44.90    2.53
  -7   0   4   52.62    2.53
  -7   0   4   53.01    2.56
   6   0  -4   76.51    3.67
  -6   0   4   74.15    4.16
   6   0  -4   76.91    3.65
  -6   0   4   72.97    3.69
   6   0  -4   72.96    4.03
  -6   0   4   75.04    3.69
   6   0  -4   78.41    3.70
  -6   0   4   75.47    3.68
  -6   0   4   76.61    3.71
  -6   0   4   75.38    3.75
  -6   0   4   80.16    3.72
   5   0  -4   59.18    3.23
   5   0  -4   60.33    2.79
   5   0  -4   56.79    3.06
  -5   0   4   57.37    2.83
  -5   0   4   58.54    2.78
  -5   0   4   59.27    4.34
   5   0  -4   55.71    2.77
  -5   0   4   55.55    2.82
  -5   0   4   62.39    4.88
  -5   0   4   53.48    6.46
  -5   0   4   49.40    5.31
  -5   0   4   55.70    2.77
  -4   0   4    6.27    1.33
  -4   0   4    6.99    1.05
  -4   0   4    6.96    0.38
  -4   0   4    6.53    0.37
   4   0  -4    6.59    0.37
  -4   0   4    5.72    1.16
  -4   0   4    7.04    0.59
  -4   0   4    7.39    1.41
   4   0  -4    6.96    0.55
  -4   0   4    7.16    1.30
   4   0  -4    6.76    0.37
  -4   0   4    6.37    0.38
   4   0  -4    6.92    0.62
  -4   0   4    6.45    1.08
  -4   0   4    6.62    0.41
  -3   0   4  692.82   31.49
  -3   0   4  599.09   30.79
  -3   0   4  559.92   31.08
  -3   0   4  656.89   31.01
  -3   0   4  617.83   30.65
  -3   0   4  611.29   31.02
  -3   0   4  627.72   31.37
  -3   0   4  625.92   31.11
   2   0  -4   77.21    3.86
  -2   0   4   74.46    4.72
  -2   0   4   73.50    5.26
  -2   0   4   80.64    4.65
   2   0  -4   74.24    3.61
  -2   0   4   74.35    3.78
  -2   0   4   69.14    3.63
  -2   0   4   77.70    4.68
   2   0  -4   77.91    3.61
  -2   0   4   77.70    4.46
  -2   0   4   75.73    3.61
  -2   0   4   79.27    4.36
   2   0  -4   76.36    3.77
  -2   0   4   69.03    4.62
   2   0  -4   72.89    3.68
  -2   0   4   79.14    4.49
   1   0  -4  247.52   12.00
   1   0  -4  237.64   11.58
   1   0  -4  218.49   11.81
   1   0  -4  229.91   11.00
  -1   0   4  222.19   11.07
  -1   0   4  232.19   11.78
  -1   0   4  230.74   11.62
  -1   0   4  231.16   11.01
   1   0  -4  224.00   10.94
  -1   0   4  233.70   11.82
   1   0  -4  235.67   11.73
   1   0  -4  198.74   11.05
  -1   0   4  231.86   11.52
   0   0  -4   14.96    1.23
   0   0  -4   12.68    0.73
   0   0   4   12.26    0.79
   0   0   4   12.89    0.63
   0   0  -4   12.16    0.63
   0   0   4   10.50    0.73
   0   0   4   12.52    0.63
   0   0   4   12.86    0.73
   0   0   4   13.77    1.31
   0   0   4   12.97    1.10
   0   0   4   11.26    0.74
   0   0  -4   13.54    1.30
   0   0  -4   15.00    1.35
   0   0  -4   14.13    1.34
   0   0   4   14.07    1.22
   0   0  -4   12.46    0.77
   0   0  -4   11.84    0.74
   0   0   4   12.98    1.24
   1   0   4    5.93    0.75
   1   0   4    5.64    0.32
  -1   0  -4    5.86    0.31
  -1   0  -4    5.56    0.30
   1   0   4    5.89    0.31
  -1   0  -4    5.37    0.30
   1   0   4    5.97    0.31
  -1   0  -4    5.63    0.42
   1   0   4    5.73    0.84
  -1   0  -4    5.83    0.32
  -1   0  -4    6.60    0.81
   1   0   4    6.05    0.43
   1   0   4    4.98    0.41
  -1   0  -4    4.89    1.24
   1   0   4    6.62    0.83
  -1   0  -4    7.29    0.91
   1   0   4    6.05    0.85
  -2   0  -4    3.19    0.21
  -2   0  -4    3.21    0.19
   2   0   4    3.87    0.66
   2   0   4    3.15    0.20
   2   0   4    3.24    0.20
   2   0   4    4.44    0.88
  -2   0  -4    2.95    0.20
   2   0   4    3.41    0.20
  -2   0  -4    3.70    0.21
   2   0   4    3.22    0.33
   2   0   4    4.42    0.77
   2   0   4    2.30    0.70
  -2   0  -4    2.76    0.69
  -2   0  -4    3.40    0.32
   2   0   4    3.02    0.41
  -2   0  -4    3.99    0.64
   3   0   4  393.24   18.47
  -3   0  -4  420.67   20.23
   3   0   4  395.44   20.06
   3   0   4  369.44   19.73
  -3   0  -4  373.52   18.59
   3   0   4  382.56   20.33
  -3   0  -4  409.84   18.61
  -3   0  -4  328.00   19.61
   3   0   4  393.40   18.55
  -3   0  -4  406.91   19.65
   3   0   4  399.84   20.56
  -3   0  -4  324.99   19.95
   3   0   4  394.27   18.33
   3   0   4  404.46   18.61
  -4   0  -4   52.64    4.57
   4   0   4   57.36    2.64
  -4   0  -4   52.40    2.70
   4   0   4   54.28    2.82
  -4   0  -4   55.60    2.98
  -4   0  -4   55.01    2.63
  -4   0  -4   53.39    2.99
  -4   0  -4   53.09    2.63
  -4   0  -4   53.64    2.63
   4   0   4   51.35    4.18
   4   0   4   56.45    4.57
   4   0   4   54.89    3.00
  -4   0  -4   53.56    4.28
   4   0   4   52.81    5.05
   4   0   4   57.39    4.90
   4   0   4   48.30    2.73
  -4   0  -4   53.89    2.66
  -4   0  -4   56.62    2.64
   4   0   4   53.55    2.66
  -5   0  -4    5.02    2.39
  -5   0  -4    2.59    0.21
   5   0   4    2.59    1.43
  -5   0  -4    2.73    0.46
  -5   0  -4    2.21    0.17
  -5   0  -4    2.69    0.19
  -5   0  -4    2.05    1.04
  -5   0  -4    2.77    0.21
   5   0   4    2.50    0.17
  -5   0  -4    2.75    0.21
  -5   0  -4    2.64    0.19
  -5   0  -4    2.85    0.21
  -6   0  -4    1.34    0.14
  -6   0  -4    1.42    0.17
  -6   0  -4    2.14    0.56
  -6   0  -4    1.37    0.16
  -6   0  -4    1.43    0.14
  -6   0  -4    1.45    0.17
  -6   0  -4    1.45    0.14
  -6   0  -4    1.45    0.16
   6   0   4    1.40    0.12
  -6   0  -4    1.06    0.21
  -7   0  -4   70.61    3.53
  -7   0  -4   66.62    3.44
  -7   0  -4   74.85    3.48
  -7   0  -4   67.70    3.44
  -7   0  -4   68.83    3.47
  -7   0  -4   76.22    3.52
  -8   0  -4    0.74    0.11
  -8   0  -4    0.71    0.17
  -8   0  -4    0.75    0.13
  -8   0  -4    0.82    0.13
  -8   0  -4    0.58    0.12
  -8   0  -4    0.83    0.14
  -9   0  -4    8.32    0.47
   9   0   4    9.03    0.49
  -9   0  -4    8.97    0.52
  10   0   4   13.66    0.64
  10   0   4   10.93    0.63
 -10   0  -4   13.57    0.67
  10  -1  -4    0.41    0.07
 -10  -1   4    0.63    0.14
 -10  -1   4    0.54    0.09
 -10  -1   4    0.50    0.08
  10   1  -4    0.40    0.11
  10   1  -4    0.60    0.08
  -9  -1   4   16.11    0.82
  -9  -1   4   14.33    0.87
  -9  -1   4   14.28    0.82
  -9  -1   4   15.16    0.80
  -9  -1   4   14.12    0.80
   9   1  -4   15.17    0.81
  -9   1   4   14.15    0.78
  -8  -1   4   26.06    1.36
  -8  -1   4   25.36    1.40
  -8  -1   4   25.54    1.31
  -8  -1   4   26.63    1.33
   8   1  -4   26.00    1.27
   8   1  -4   25.38    1.26
   8   1  -4   27.29    1.35
  -8   1   4   24.54    1.28
  -8   1   4   24.98    1.31
  -8   1   4   23.21    1.35
  -7  -1   4   27.75    1.42
  -7  -1   4   27.88    1.42
  -7  -1   4   28.13    1.41
   7  -1  -4   26.27    1.42
  -7  -1   4   28.24    1.49
  -7  -1   4   28.85    1.45
  -7  -1   4   28.94    1.41
   7  -1  -4   26.33    1.42
   7   1  -4   28.00    1.43
  -7   1   4   27.32    1.38
  -7   1   4   26.86    1.39
   7   1  -4   26.27    1.35
   7   1  -4   25.94    1.36
  -7   1   4   26.91    1.39
   7   1  -4   26.73    1.35
   7   1  -4   28.15    1.44
  -6  -1   4    9.48    0.57
  -6  -1   4   10.88    1.20
  -6  -1   4    9.17    0.51
   6  -1  -4    9.01    0.82
  -6  -1   4    9.19    0.53
  -6  -1   4    9.46    0.54
   6  -1  -4    8.71    0.49
   6  -1  -4    8.86    0.62
   6  -1  -4    8.87    0.53
   6  -1  -4    7.84    0.51
  -6  -1   4    9.50    0.52
  -6  -1   4    8.82    0.52
  -6   1   4    9.54    0.86
  -6   1   4    8.85    0.55
   6   1  -4    8.76    0.47
   6   1  -4    8.53    0.48
  -6   1   4    8.49    0.52
  -6   1   4    8.55    0.50
   6   1  -4    9.44    0.53
  -6   1   4    8.64    0.49
  -6   1   4    8.52    0.52
   6   1  -4    8.55    0.53
   5  -1  -4    5.72    0.34
   5  -1  -4    6.57    0.58
  -5  -1   4    6.01    0.37
  -5  -1   4    5.48    0.34
   5  -1  -4    5.85    0.66
  -5  -1   4    5.62    0.59
   5  -1  -4    5.30    0.32
  -5  -1   4    3.89    1.11
  -5  -1   4    5.27    0.32
  -5  -1   4    4.68    1.60
  -5  -1   4    5.37    0.32
   5  -1  -4    5.23    0.36
  -5  -1   4    5.57    0.33
   5  -1  -4    5.10    0.33
   5   1  -4    5.12    0.32
  -5   1   4    5.53    0.32
  -5   1   4    5.19    0.36
   5   1  -4    5.83    0.34
  -5   1   4    4.88    0.33
  -5   1   4    5.89    1.37
  -5   1   4    3.69    1.79
  -5   1   4    5.13    0.32
  -5   1   4    5.63    2.46
  -5   1   4    5.22    0.34
  -5   1   4    5.56    0.57
  -4  -1   4  248.31   13.02
  -4  -1   4  261.07   12.83
  -4  -1   4  248.25   11.87
  -4  -1   4  235.75   13.48
   4  -1  -4  247.12   11.98
  -4  -1   4  261.52   13.12
  -4  -1   4  253.79   13.46
   4  -1  -4  249.08   11.84
   4  -1  -4  247.55   11.52
  -4  -1   4  229.15   13.17
  -4   1   4  233.68   11.55
   4   1  -4  236.46   11.51
  -4   1   4  223.85   11.81
  -4   1   4  222.64   11.57
  -4   1   4  232.89   11.52
  -3  -1   4  465.50   24.74
   3  -1  -4  514.06   24.05
  -3  -1   4  505.56   24.97
  -3  -1   4  521.15   24.59
  -3  -1   4  496.26   25.25
  -3  -1   4  485.51   24.94
  -3  -1   4  508.10   23.91
  -3  -1   4  447.73   24.81
  -3  -1   4  524.49   25.22
   3  -1  -4  501.43   23.92
  -3  -1   4  480.13   24.69
  -3   1   4  513.54   25.17
  -3   1   4  501.65   24.90
  -3   1   4  488.71   25.52
  -3   1   4  517.10   25.56
  -3   1   4  504.25   25.15
  -3   1   4  497.66   25.37
   2  -1  -4   62.41    3.25
  -2  -1   4   61.74    3.14
  -2  -1   4   63.92    4.00
  -2  -1   4   63.11    2.98
   2  -1  -4   63.97    2.97
  -2  -1   4   62.87    2.97
  -2  -1   4   60.13    3.95
  -2  -1   4   66.27    3.77
  -2  -1   4   64.36    3.90
  -2  -1   4   64.15    3.72
  -2  -1   4   63.86    3.84
  -2  -1   4   57.62    3.14
  -2  -1   4   61.08    3.80
  -2  -1   4   61.56    3.60
   2  -1  -4   59.03    2.97
   2  -1  -4   61.53    3.18
  -2   1   4   66.89    4.18
  -2   1   4   56.27    3.02
  -2   1   4   60.61    3.18
  -2   1   4   59.53    4.15
  -2   1   4   64.37    3.99
   2   1  -4   60.02    2.98
   2   1  -4   55.67    2.95
  -2   1   4   58.26    3.32
  -2   1   4   61.82    3.79
   2   1  -4   63.03    2.98
  -2   1   4   67.57    3.96
  -2   1   4   65.31    4.21
   1  -1  -4   20.45    1.16
   1  -1  -4   21.93    1.04
  -1  -1   4   20.22    1.64
  -1  -1   4   19.86    1.02
  -1  -1   4   21.06    1.50
  -1  -1   4   22.47    1.19
  -1  -1   4   20.23    1.01
  -1  -1   4   21.32    1.13
   1  -1  -4   20.48    1.16
   1  -1  -4   21.10    1.23
  -1  -1   4   24.46    2.16
  -1   1   4   22.09    1.62
  -1   1   4   20.05    1.27
  -1   1   4   21.72    1.24
  -1   1   4   21.54    1.85
   1   1  -4   20.26    1.02
  -1   1   4   22.33    1.72
  -1   1   4   21.32    1.76
   1   1  -4   19.71    1.03
   1   1  -4   19.90    1.06
   1   1  -4   17.91    1.01
  -1   1   4   19.34    1.04
  -1   1   4   22.00    1.88
   1   1  -4   21.33    1.64
   1   1  -4   19.12    1.68
  -1   1   4   21.88    1.04
  -1   1   4   21.45    1.75
   1   1  -4   21.57    1.77
   1   1  -4   18.31    1.13
   1   1  -4   22.53    1.56
  -1   1   4   19.81    1.02
  -1   1   4   21.57    1.88
  -1   1   4   20.97    1.68
   0  -1   4   13.48    0.79
   0  -1   4   13.77    1.22
   0  -1   4   13.95    1.32
   0  -1  -4   12.94    0.78
   0  -1  -4   12.49    1.19
   0  -1  -4   12.80    0.73
   0  -1  -4   13.12    1.30
   0  -1  -4   13.12    0.64
   0  -1  -4   14.24    0.63
   0  -1   4   12.04    0.63
   0  -1  -4   12.98    1.33
   0  -1   4   12.63    1.27
   0  -1  -4   12.77    0.78
   0  -1   4   12.87    1.12
   0  -1   4   14.02    0.63
   0  -1  -4   12.99    1.14
   0   1  -4   13.29    1.26
   0   1   4   12.03    0.80
   0   1   4   11.31    0.75
   0   1  -4   10.42    0.62
   0   1  -4   11.30    0.72
   0   1  -4   13.84    1.14
   0   1   4   11.15    1.13
   0   1  -4   11.64    0.62
   0   1  -4   11.21    0.69
   0   1   4   12.64    1.24
   0   1   4   12.59    1.11
   0   1  -4   12.79    0.64
   0   1  -4   11.42    1.12
   0   1  -4   11.28    1.19
   0   1   4   11.98    0.62
   0   1  -4   13.73    0.64
   0   1   4   13.65    1.31
   1  -1   4    4.03    0.72
  -1  -1  -4    4.79    0.75
  -1  -1  -4    3.79    0.22
  -1  -1  -4    3.73    0.33
   1  -1   4    4.13    0.22
   1  -1   4    3.45    0.61
  -1  -1  -4    3.81    0.68
   1  -1   4    3.69    0.74
   1  -1   4    3.29    0.22
  -1  -1  -4    3.52    0.29
  -1  -1  -4    3.70    0.63
  -1  -1  -4    4.06    0.58
  -1  -1  -4    3.85    0.21
   1  -1   4    3.77    0.34
   1   1   4    3.52    0.29
  -1   1  -4    3.67    0.21
  -1   1  -4    3.88    0.23
  -1   1  -4    3.39    0.57
  -1   1  -4    3.83    0.65
   1   1   4    3.56    0.24
   1   1   4    4.19    0.24
  -1   1  -4    3.09    0.31
  -1   1  -4    4.15    0.72
   1   1   4    3.15    0.29
  -1   1  -4    3.41    0.25
  -1   1  -4    4.57    0.76
  -1   1  -4    3.58    0.22
  -2  -1  -4   16.67    0.82
   2  -1   4   16.33    0.84
  -2  -1  -4   17.00    1.47
  -2  -1  -4   17.09    0.82
   2  -1   4   17.45    0.84
  -2  -1  -4   16.77    1.68
   2  -1   4   15.59    0.87
  -2  -1  -4   14.31    0.86
   2  -1   4   18.87    2.10
   2  -1   4   18.20    1.83
  -2  -1  -4   17.41    1.58
  -2  -1  -4   18.34    1.69
   2  -1   4   16.07    0.83
   2  -1   4   17.08    0.83
   2  -1   4   18.47    1.67
  -2  -1  -4   17.66    1.04
   2  -1   4   14.75    1.83
   2  -1   4   15.66    1.02
   2  -1   4   16.81    1.17
   2   1   4   15.34    0.98
   2   1   4   16.82    0.87
  -2   1  -4   15.00    1.58
  -2   1  -4   17.18    1.04
  -2   1  -4   15.46    1.50
   2   1   4   17.42    0.85
  -2   1  -4   15.99    0.82
  -2   1  -4   15.07    0.82
  -2   1  -4   15.73    1.73
  -2   1  -4   16.11    0.83
  -2   1  -4   15.83    1.77
  -2   1  -4   15.24    0.91
  -2   1  -4   17.93    0.85
   3  -1   4  131.52    6.67
   3  -1   4  129.28    6.33
   3  -1   4  129.32    6.36
   3  -1   4  142.10    8.25
  -3  -1  -4  106.36   11.42
  -3  -1  -4  127.09    6.35
   3  -1   4  133.51    6.66
  -3  -1  -4  131.31    6.34
   3  -1   4  139.03    8.64
   3  -1   4  135.69    6.85
   3  -1   4  128.81    6.35
  -3  -1  -4  132.68    6.34
  -3  -1  -4  147.36    7.62
  -3  -1  -4  136.08    6.63
  -3  -1  -4  140.37    8.01
  -3   1  -4  138.39    6.68
  -3   1  -4  128.64    6.51
  -3   1  -4  140.38    6.37
  -3   1  -4  127.88    6.35
   3   1   4  138.21    6.37
  -3   1  -4  109.06    7.70
  -3   1  -4  126.14    6.36
   3   1   4  143.40    6.42
  -3   1  -4  139.89    6.36
   4  -1   4  251.64   14.23
   4  -1   4  234.43   10.63
   4  -1   4  236.61   10.61
   4  -1   4  245.87   10.62
   4  -1   4  212.01   10.96
  -4  -1  -4  183.65   12.70
   4  -1   4  240.83   12.99
  -4  -1  -4  221.28   11.49
   4  -1   4  245.68   13.53
   4  -1   4  238.04   10.64
   4  -1   4  228.57   10.58
  -4  -1  -4  230.74   10.96
   4  -1   4  223.85   11.16
   4  -1   4  239.11   13.70
   4   1   4  202.58   10.74
  -4   1  -4  209.57   10.58
  -4   1  -4  221.73   10.61
  -4   1  -4  180.10   12.80
  -4   1  -4  204.00   11.43
   4   1   4  238.74   10.68
  -4   1  -4  237.19   10.61
  -4   1  -4  217.08   10.58
  -4   1  -4  219.68   10.86
  -4   1  -4  186.40   12.52
  -4   1  -4  207.65   10.59
   5  -1   4   46.21    2.27
  -5  -1  -4   49.85    2.32
   5  -1   4   46.36    2.28
  -5  -1  -4   47.48    2.29
  -5  -1  -4   50.83    2.33
   5  -1   4   42.85    2.86
   5  -1   4   46.92    2.33
  -5  -1  -4   50.04    2.32
   5  -1   4   50.79    5.47
   5  -1   4   46.96    2.33
  -5  -1  -4   48.47    2.90
  -5  -1  -4   47.39    2.35
   5  -1   4   41.78    2.64
  -5  -1  -4   49.12    2.32
   5  -1   4   48.83    2.31
  -5  -1  -4   49.78    2.30
   5  -1   4   46.17    2.28
   5  -1   4   47.26    2.79
  -5  -1  -4   48.38    2.74
   5  -1   4   47.40    7.18
   5   1   4   47.01    2.26
  -5   1  -4   44.57    2.63
  -5   1  -4   43.04    2.26
  -5   1  -4   45.02    2.33
   5   1   4   47.26    2.33
  -5   1  -4   43.88    2.27
  -5   1  -4   47.41    2.31
  -5   1  -4   44.34    2.28
   5   1   4   47.81    2.38
  -5   1  -4   38.96    2.42
  -6  -1  -4    5.00    0.37
  -6  -1  -4    4.77    0.34
  -6  -1  -4    5.07    0.35
  -6  -1  -4    5.85    0.98
  -6  -1  -4    5.23    0.34
  -6  -1  -4    4.98    0.32
  -6  -1  -4    4.54    0.32
  -6  -1  -4    4.93    0.32
  -6  -1  -4    4.83    0.34
   6  -1   4    4.66    0.29
  -6   1  -4    4.82    0.31
  -6   1  -4    4.25    0.31
  -6   1  -4    4.64    0.30
   6   1   4    4.67    0.31
  -6   1  -4    4.73    0.33
   6   1   4    4.74    0.28
  -6   1  -4    4.48    0.29
  -7  -1  -4   31.34    1.58
  -7  -1  -4   31.30    1.65
  -7  -1  -4   30.92    1.59
  -7  -1  -4   32.12    1.58
  -7  -1  -4   32.66    1.62
  -7  -1  -4   32.29    1.61
   7   1   4   29.55    1.56
  -7   1  -4   30.87    1.61
   7   1   4   32.74    1.58
   7   1   4   30.93    1.53
  -7   1  -4   28.68    1.54
  -8  -1  -4    2.85    0.23
  -8  -1  -4    2.79    0.27
  -8  -1  -4    2.80    0.24
  -8  -1  -4    2.71    0.22
  -8  -1  -4    3.06    0.25
  -8  -1  -4    2.85    0.22
   8   1   4    2.96    0.23
  -8   1  -4    3.03    0.25
  -9  -1  -4    2.32    0.19
  -9  -1  -4    2.20    0.20
  -9  -1  -4    2.24    0.21
  -9  -1  -4    2.56    0.20
  -9  -1  -4    2.37    0.19
  -9   1  -4    2.09    0.18
   9   1   4    2.57    0.18
   9   1   4    2.38    0.19
  10  -1   4    2.15    0.15
  10   1   4    2.76    0.15
 -10  -2   4    5.17    0.29
 -10  -2   4    5.28    0.30
  10   2  -4    5.41    0.30
  10   2  -4    4.20    0.30
  -9  -2   4    3.70    0.26
  -9  -2   4    3.52    0.30
  -9  -2   4    3.60    0.25
  -9  -2   4    3.82    0.36
  -9  -2   4    3.70    0.25
   9   2  -4    3.52    0.26
   9   2  -4    3.44    0.23
   9   2  -4    3.44    0.21
   9   2  -4    3.45    0.21
   9   2  -4    3.39    0.25
   9   2  -4    3.06    0.28
  -8  -2   4    3.60    0.39
  -8  -2   4    3.25    0.25
  -8  -2   4    3.15    0.28
  -8  -2   4    3.19    0.25
   8   2  -4    2.98    0.26
   8   2  -4    3.03    0.22
   8   2  -4    3.20    0.23
   8   2  -4    3.37    0.29
  -7  -2   4    0.21    0.07
   7  -2  -4    0.21    0.07
   7  -2  -4    0.24    0.07
  -7  -2   4    0.22    0.08
  -7  -2   4    0.19    0.09
  -7  -2   4    0.28    0.08
  -7  -2   4    0.26    0.07
   7  -2  -4    0.29    0.09
  -7  -2   4    0.15    0.06
   7   2  -4    0.30    0.07
   7   2  -4    0.41    0.08
   7   2  -4    0.31    0.10
   7   2  -4    0.37    0.11
   7   2  -4    0.08    0.10
   7   2  -4    0.29    0.07
   7   2  -4    0.29    0.08
   6  -2  -4   12.88    0.74
  -6  -2   4   13.67    0.74
  -6  -2   4   14.42    0.80
  -6  -2   4   14.58    0.90
   6  -2  -4   13.41    0.74
   6  -2  -4   13.57    0.73
  -6  -2   4   14.07    0.74
  -6  -2   4   14.65    0.74
   6  -2  -4   12.98    0.80
   6   2  -4   13.41    0.72
   6   2  -4   13.99    0.78
   6   2  -4   13.96    0.71
   6   2  -4   13.59    0.77
   6   2  -4   14.21    0.71
   6   2  -4   12.68    0.76
  -6   2   4   11.71    1.15
   6   2  -4   13.95    0.71
   6   2  -4   13.34    0.76
  -6   2   4   13.69    0.78
  -5  -2   4   28.64    1.39
   5  -2  -4   27.72    1.42
   5  -2  -4   27.65    1.40
  -5  -2   4   29.08    1.87
  -5  -2   4   27.26    1.39
  -5  -2   4   30.16    1.45
   5  -2  -4   28.29    1.40
  -5  -2   4   27.13    1.39
   5  -2  -4   28.49    1.87
  -5  -2   4   28.03    1.41
   5  -2  -4   28.24    1.43
   5   2  -4   27.34    1.37
  -5   2   4   25.42    1.77
   5   2  -4   28.08    1.37
  -5   2   4   29.85    1.40
   5   2  -4   27.49    1.44
   5   2  -4   27.83    1.43
   5   2  -4   26.00    1.37
  -5   2   4   27.20    1.43
   5   2  -4   27.49    1.45
   5   2  -4   27.19    1.40
  -4  -2   4  191.69    8.73
   4  -2  -4  195.80    9.48
  -4  -2   4  189.59   10.42
  -4  -2   4  187.92    8.75
  -4  -2   4  160.02   10.64
  -4  -2   4  186.92    8.73
  -4  -2   4  189.86    9.17
   4  -2  -4  187.44    8.76
  -4  -2   4  162.97   10.03
  -4  -2   4  156.85   10.32
   4  -2  -4  181.91    9.19
   4   2  -4  184.35    8.76
  -4   2   4  180.15    9.13
   4   2  -4  191.67    8.78
  -4   2   4  192.94    8.80
  -4   2   4  179.41    8.77
  -4   2   4  185.82   10.66
  -4   2   4  188.69   11.41
  -3  -2   4   55.70    3.41
   3  -2  -4   53.57    2.54
   3  -2  -4   54.02    2.56
   3  -2  -4   54.73    3.08
   3  -2  -4   50.68    2.53
  -3  -2   4   54.21    2.82
  -3  -2   4   55.73    3.61
  -3  -2   4   53.65    2.51
  -3  -2   4   52.06    2.54
  -3  -2   4   48.71    3.52
   3  -2  -4   53.14    2.58
  -3  -2   4   52.95    2.52
   3  -2  -4   53.63    2.53
  -3  -2   4   51.90    2.83
  -3  -2   4   54.87    3.16
   3  -2  -4   54.96    2.91
  -3   2   4   47.31    3.63
  -3   2   4   53.26    2.56
  -3   2   4   50.28    2.86
  -3   2   4   48.56    4.01
  -3   2   4   48.95    4.37
   3   2  -4   52.17    2.57
  -3   2   4   48.07    4.05
  -3   2   4   51.01    2.56
  -3   2   4   50.70    3.92
   3   2  -4   50.68    2.55
  -3   2   4   52.17    4.24
   3   2  -4   51.64    2.52
  -2  -2   4   47.02    2.33
  -2  -2   4   44.67    2.37
  -2  -2   4   53.95    3.21
  -2  -2   4   50.85    3.59
   2  -2  -4   50.43    2.67
  -2  -2   4   49.06    2.62
  -2  -2   4   46.67    3.20
   2  -2  -4   48.95    2.37
  -2  -2   4   52.91    2.90
  -2  -2   4   53.16    3.00
   2  -2  -4   50.46    2.36
  -2  -2   4   50.81    3.25
  -2  -2   4   50.31    3.05
   2  -2  -4   49.56    2.36
  -2  -2   4   48.64    2.54
   2  -2  -4   53.20    2.83
  -2  -2   4   49.91    3.07
  -2   2   4   44.42    2.35
  -2   2   4   50.49    3.69
  -2   2   4   44.30    3.22
  -2   2   4   39.56    3.28
  -2   2   4   48.19    2.37
  -2   2   4   43.09    3.35
  -2   2   4   45.47    3.53
   2   2  -4   50.02    2.37
   2   2  -4   50.26    2.38
  -2   2   4   50.71    2.39
   2   2  -4   48.00    2.38
   1  -2  -4   85.87    4.23
  -1  -2   4   86.89    4.85
  -1  -2   4   84.86    3.96
   1  -2  -4   74.40    3.97
  -1  -2   4   85.73    4.65
   1  -2  -4   91.32    4.37
  -1  -2   4   81.32    4.06
  -1  -2   4   81.96    3.97
   1  -2  -4   82.55    3.97
   1  -2  -4   86.03    4.25
  -1  -2   4   85.90    4.23
  -1  -2   4   85.13    4.78
  -1  -2   4   85.30    4.55
   1  -2  -4   76.19    3.96
  -1   2   4   82.69    4.78
  -1   2   4   77.39    5.00
  -1   2   4   81.20    5.10
  -1   2   4   80.20    4.40
  -1   2   4   78.53    4.87
   1   2  -4   82.96    3.99
  -1   2   4   91.58    4.02
   1   2  -4   81.30    4.00
  -1   2   4   80.43    4.00
   1   2  -4   82.22    4.00
   0  -2   4   94.31    5.17
   0  -2   4   87.97    4.64
   0  -2   4   93.49    5.44
   0  -2  -4   88.28    4.41
   0  -2   4   91.39    4.41
   0  -2   4   93.30    5.51
   0  -2  -4   91.84    4.59
   0  -2   4   96.85    5.33
   0  -2  -4   93.87    4.69
   0  -2  -4   97.28    4.69
   0  -2   4   84.90    4.40
   0  -2   4   88.20    4.42
   0  -2  -4   87.33    4.40
   0   2   4   93.17    4.76
   0   2   4   90.55    5.44
   0   2  -4   90.76    4.44
   0   2   4  106.51    6.29
   0   2   4   89.67    4.46
   0   2   4   90.43    5.23
   0   2  -4   97.56    4.44
   0   2   4   94.85    4.45
   0   2  -4   92.24    4.44
  -1  -2  -4   68.01    3.99
   1  -2   4   70.22    3.81
  -1  -2  -4   64.54    3.26
   1  -2   4   67.22    3.48
  -1  -2  -4   62.98    4.25
  -1  -2  -4   69.31    3.52
  -1  -2  -4   71.70    3.22
   1  -2   4   65.50    3.25
   1  -2   4   68.43    4.22
   1  -2   4   71.08    4.59
   1  -2   4   67.58    3.23
   1  -2   4   66.30    3.22
  -1  -2  -4   57.67    4.00
  -1  -2  -4   68.07    4.28
  -1  -2  -4   70.59    3.48
   1   2   4   68.25    3.29
  -1   2  -4   70.07    3.26
   1   2   4   64.54    4.21
   1   2   4   67.78    3.44
   1   2   4   63.89    4.00
  -1   2  -4   71.36    3.26
   1   2   4   70.28    3.28
  -1   2  -4   69.98    3.27
   1   2   4   62.86    3.99
   1   2   4   61.70    4.28
  -2  -2  -4   -0.04    0.33
   2  -2   4   -0.05    0.31
  -2  -2  -4    0.20    0.10
  -2  -2  -4    0.42    0.52
   2  -2   4    0.16    0.17
   2  -2   4    0.27    0.15
   2  -2   4    0.11    0.70
   2  -2   4    1.51    1.03
   2  -2   4    0.67    0.28
   2  -2   4   -0.46    0.73
  -2  -2  -4    0.12    0.25
   2   2   4    0.32    0.29
   2   2   4   -0.87    0.77
  -2   2  -4    1.14    0.74
   2   2   4    0.41    0.09
   2   2   4    0.91    0.57
  -2   2  -4    0.51    0.28
  -2   2  -4   -0.16    0.49
   2   2   4    0.79    0.64
  -2   2  -4    0.33    0.07
   3  -2   4   42.62    2.62
  -3  -2  -4   48.09    2.16
  -3  -2  -4   37.32    3.37
   3  -2   4   46.88    2.17
   3  -2   4   46.38    2.16
  -3  -2  -4   43.51    2.47
   3  -2   4   46.20    2.19
   3  -2   4   45.47    2.53
   3  -2   4   46.50    3.75
   3  -2   4   44.17    4.16
   3  -2   4   47.09    3.01
   3  -2   4   47.28    2.21
  -3  -2  -4   44.25    2.18
  -3  -2  -4   36.70    2.99
  -3  -2  -4   43.89    2.17
   3   2   4   43.56    3.30
   3   2   4   46.89    2.22
  -3   2  -4   47.87    2.19
   3   2   4   36.43    2.99
  -3   2  -4   46.48    2.20
   3   2   4   43.62    3.67
   3   2   4   36.65    3.39
   3   2   4   46.70    2.26
   4  -2   4   12.71    0.97
  -4  -2  -4   12.18    0.62
  -4  -2  -4   10.97    0.88
   4  -2   4   11.50    0.66
  -4  -2  -4   10.94    0.61
  -4  -2  -4   11.13    0.62
  -4  -2  -4   11.80    0.65
   4  -2   4   11.54    0.62
  -4  -2  -4   11.34    1.07
   4  -2   4   10.16    0.99
  -4  -2  -4   11.09    0.60
   4  -2   4   11.51    0.63
   4  -2   4   11.70    0.61
   4  -2   4   11.77    0.65
  -4   2  -4   10.77    0.63
   4   2   4   11.60    0.67
  -4   2  -4   11.35    0.64
   4   2   4   12.27    0.68
   4   2   4   11.65    0.71
   4   2   4   12.36    2.44
   4   2   4   10.74    0.64
  -5  -2  -4    2.03    0.58
  -5  -2  -4    1.36    0.15
   5  -2   4    1.33    0.17
  -5  -2  -4    1.40    0.16
   5  -2   4    1.33    0.14
  -5  -2  -4    1.36    0.15
  -5  -2  -4    1.44    0.14
  -5  -2  -4    0.99    0.32
  -5  -2  -4    1.38    0.15
   5  -2   4    1.20    0.17
  -5  -2  -4    1.35    0.14
   5  -2   4    1.39    0.16
   5   2   4    1.36    0.12
  -5   2  -4    1.33    0.15
   5   2   4    1.40    0.16
   5   2   4    1.33    0.15
   5   2   4    1.43    0.15
   5   2   4    1.35    0.15
  -5   2  -4    1.62    0.16
   5   2   4    1.08    0.19
  -6  -2  -4   91.05    4.99
  -6  -2  -4  101.30    4.79
   6  -2   4   97.58    4.86
   6  -2   4   98.80    4.77
  -6  -2  -4   99.17    4.85
   6  -2   4   96.33    4.80
   6  -2   4   99.66    5.00
  -6  -2  -4  102.10    4.79
   6  -2   4   97.22    4.78
  -6  -2  -4   99.11    4.82
  -6  -2  -4  110.23    4.95
  -6  -2  -4  101.35    4.81
   6  -2   4   98.60    4.78
  -6   2  -4   94.55    4.81
  -6   2  -4   85.94    4.89
   6   2   4   94.18    4.80
   6   2   4   97.19    4.80
   6   2   4  111.28    5.01
   6   2   4   99.23    4.79
   6   2   4   96.46    4.74
   6   2   4  109.93    4.86
  -7  -2  -4   13.31    0.79
  -7  -2  -4   13.81    0.74
  -7  -2  -4   14.19    0.76
  -7  -2  -4   13.74    0.73
   7  -2   4   13.42    0.71
  -7  -2  -4   13.10    0.74
   7   2   4   13.19    0.73
   7   2   4   13.48    0.69
   7   2   4   13.30    0.73
   7   2   4   14.07    0.74
   7   2   4   13.17    0.70
   7   2   4   13.25    0.74
  -7   2  -4   13.02    0.75
  -8  -2  -4    7.62    0.48
  -8  -2  -4    8.02    0.46
  -8  -2  -4    8.41    0.51
  -8  -2  -4    8.44    0.52
  -8  -2  -4    7.98    0.45
   8   2   4    8.09    0.45
   8   2   4    7.48    0.42
   8   2   4    7.79    0.45
  -8   2  -4    7.20    0.46
   8   2   4    7.71    0.45
   8   2   4    7.28    0.42
   8   2   4    8.00    0.54
  -9  -2  -4    2.66    0.21
  -9  -2  -4    2.89    0.22
  -9  -2  -4    3.19    0.21
  -9  -2  -4    3.15    0.21
  -9   2  -4    3.37    0.25
   9   2   4    3.31    0.20
   9   2   4    3.18    0.20
   9   2   4    2.66    0.20
 -10  -3   4    7.63    0.39
  10   3  -4    7.06    0.37
  -9  -3   4    0.08    0.05
  -9  -3   4    0.06    0.05
  -9  -3   4    0.06    0.04
  -9  -3   4    0.07    0.04
   9   3  -4    0.09    0.04
   9   3  -4    0.12    0.04
   9   3  -4    0.09    0.05
   9   3  -4    0.07    0.04
   9   3  -4    0.09    0.07
   9   3  -4    0.03    0.03
  -8  -3   4    0.18    0.06
  -8  -3   4    0.22    0.07
  -8  -3   4    0.18    0.08
  -8  -3   4    0.18    0.07
  -8  -3   4    0.22    0.08
   8   3  -4    0.25    0.05
   8   3  -4    0.29    0.07
   8   3  -4    0.28    0.09
   8   3  -4    0.15    0.05
   8   3  -4    0.27    0.08
  -7  -3   4   12.29    0.73
   7  -3  -4   11.94    0.65
  -7  -3   4   12.51    0.69
  -7  -3   4   13.03    0.67
   7  -3  -4   11.49    0.65
  -7  -3   4   12.99    0.66
   7  -3  -4   11.06    0.72
   7   3  -4   10.87    0.67
   7   3  -4   11.67    0.67
   7   3  -4   10.41    0.61
   7   3  -4   10.47    0.63
   7   3  -4   11.65    0.68
   7   3  -4   11.42    0.61
   7   3  -4   11.90    0.62
   6  -3  -4    8.98    0.59
  -6  -3   4   10.55    0.56
  -6  -3   4    9.38    0.60
  -6  -3   4   10.31    0.66
   6  -3  -4   10.03    0.57
   6  -3  -4    9.95    0.67
   6  -3  -4    9.53    0.57
  -6  -3   4    9.81    0.55
  -6  -3   4   10.92    0.60
  -6   3   4   10.31    0.56
   6   3  -4   10.25    0.53
   6   3  -4    9.51    0.53
   6   3  -4    9.93    0.60
  -6   3   4    9.88    0.52
  -6   3   4    9.18    0.64
   6   3  -4    9.25    0.53
   6   3  -4    9.64    0.60
   6   3  -4    9.67    0.58
   6   3  -4    9.91    0.56
  -6   3   4    9.65    0.54
   6   3  -4    9.09    0.60
   6   3  -4    9.84    0.53
  -6   3   4    9.64    0.54
  -5  -3   4   30.48    1.43
   5  -3  -4   25.01    1.39
   5  -3  -4   26.51    1.38
  -5  -3   4   27.41    1.35
   5  -3  -4   26.18    1.37
  -5  -3   4   27.03    1.35
   5  -3  -4   29.69    1.48
   5  -3  -4   27.11    1.41
   5  -3  -4   27.31    1.46
   5   3  -4   26.57    1.41
   5   3  -4   26.54    1.42
   5   3  -4   26.61    1.37
   5   3  -4   26.65    1.35
   5   3  -4   25.75    1.38
  -5   3   4   25.65    1.42
   5   3  -4   26.91    1.34
  -5   3   4   26.53    1.34
  -5   3   4   29.17    1.37
   5   3  -4   27.53    1.34
   5   3  -4   26.09    1.41
  -4  -3   4   10.56    0.89
   4  -3  -4   12.04    1.06
   4  -3  -4   11.29    0.63
   4  -3  -4   11.93    0.71
  -4  -3   4   11.16    0.57
   4  -3  -4   11.46    0.60
  -4  -3   4   11.39    0.61
   4  -3  -4   11.80    0.67
   4   3  -4    9.92    0.61
   4   3  -4   10.68    0.63
   4   3  -4   10.36    0.57
  -4   3   4   10.54    0.63
  -4   3   4   11.47    0.59
  -4   3   4    9.51    0.56
   4   3  -4   11.34    0.58
  -4   3   4   10.11    0.62
   4   3  -4   10.65    0.63
   4   3  -4    9.62    0.56
   4   3  -4   10.75    0.57
   4   3  -4   10.78    0.59
   4   3  -4    9.67    0.56
   4   3  -4   10.72    0.66
   3  -3  -4   26.88    1.35
   3  -3  -4   27.44    1.38
   3  -3  -4   27.62    1.41
  -3  -3   4   26.96    1.35
   3  -3  -4   27.01    1.80
  -3  -3   4   30.87    2.38
   3  -3  -4   26.35    1.35
   3  -3  -4   27.08    1.36
  -3  -3   4   27.57    1.32
  -3  -3   4   26.53    1.73
   3   3  -4   26.06    1.38
   3   3  -4   26.45    1.33
  -3   3   4   25.48    1.39
   3   3  -4   26.93    1.34
  -3   3   4   27.85    1.35
   3   3  -4   25.78    1.33
   3   3  -4   26.57    1.35
   3   3  -4   27.55    1.39
   3   3  -4   25.59    1.39
  -2  -3   4    1.92    0.12
   2  -3  -4    1.75    0.14
   2  -3  -4    1.74    0.15
   2  -3  -4    2.33    0.37
  -2  -3   4    2.12    0.23
   2  -3  -4    1.69    0.16
  -2  -3   4    1.70    0.13
   2   3  -4    1.81    0.17
  -2   3   4    1.86    0.18
  -2   3   4    1.95    0.70
   2   3  -4    1.70    0.17
  -2   3   4    2.59    1.19
  -2   3   4    1.84    0.15
  -2   3   4    1.79    0.16
   2   3  -4    1.78    0.16
   2   3  -4    1.60    0.14
   1  -3  -4   69.82    3.46
   1  -3  -4   60.64    3.06
   1  -3  -4   60.92    3.07
   1  -3  -4   65.16    3.49
   1  -3  -4   60.00    3.57
  -1  -3   4   65.86    3.05
  -1  -3   4   68.14    4.70
  -1  -3   4   66.79    3.42
  -1  -3   4   62.09    3.06
   1  -3  -4   63.16    3.10
   1  -3  -4   67.53    3.07
  -1   3   4   64.85    3.08
   1   3  -4   65.62    3.12
  -1   3   4   66.15    3.13
  -1   3   4   53.75    4.20
   1   3  -4   63.54    3.11
  -1   3   4   56.26    4.01
   1   3  -4   63.40    3.12
  -1   3   4   58.43    5.47
  -1   3   4   66.50    3.13
   0  -3   4  145.63    6.94
   0  -3  -4  123.24    7.31
   0  -3  -4  131.60    6.92
   0  -3   4  143.69    6.96
   0  -3   4  159.92    7.92
   0  -3   4  162.77    7.49
   0  -3  -4  150.11    6.94
   0  -3  -4  147.34    7.38
   0  -3   4  149.44    7.55
   0  -3   4  140.63    7.27
   0  -3   4  141.46    6.93
   0  -3   4  158.82    7.66
   0   3   4  145.39    7.66
   0   3   4  146.58    7.01
   0   3  -4  145.88    6.99
   0   3  -4  149.71    7.00
   0   3   4  151.10    6.96
   0   3   4  131.73    7.76
   0   3   4  137.12    7.87
   0   3  -4  147.62    6.99
   1  -3   4   26.98    1.33
  -1  -3  -4   25.92    1.69
   1  -3   4   27.57    1.85
   1  -3   4   26.96    1.34
   1  -3   4   27.12    1.34
   1  -3   4   26.25    1.31
  -1  -3  -4   25.06    1.30
   1  -3   4   25.68    1.62
  -1  -3  -4   25.09    1.32
  -1  -3  -4   29.74    1.31
   1   3   4   25.20    1.39
  -1   3  -4   28.48    1.37
  -1   3  -4   28.45    1.38
  -1   3  -4   26.59    1.37
   1   3   4   27.36    1.34
   1   3   4   28.02    1.39
  -1   3  -4   22.34    1.44
  -2  -3  -4    6.22    0.59
   2  -3   4    5.30    0.34
   2  -3   4    5.71    0.68
  -2  -3  -4    5.24    0.33
   2  -3   4    6.40    0.58
   2  -3   4    5.46    0.36
   2  -3   4    5.44    0.34
  -2  -3  -4    5.17    0.30
  -2  -3  -4    5.68    0.31
   2  -3   4    5.39    0.32
   2   3   4    5.97    0.35
   2   3   4    5.77    0.41
  -2   3  -4    5.00    0.34
   2   3   4    5.78    0.39
  -2   3  -4    5.49    0.37
  -2   3  -4    5.51    0.37
   3  -3   4    3.67    0.51
   3  -3   4    3.86    0.27
  -3  -3  -4    3.62    0.25
  -3  -3  -4    4.89    0.69
   3  -3   4    3.75    0.27
  -3  -3  -4    3.36    0.51
   3  -3   4    3.81    0.29
  -3  -3  -4    3.62    0.23
   3  -3   4    4.56    0.70
   3  -3   4    3.81    0.25
  -3  -3  -4    3.57    0.24
  -3  -3  -4    4.02    0.24
  -3   3  -4    3.74    0.23
   3   3   4    3.59    0.28
   3   3   4    3.28    0.27
   3   3   4    3.44    0.30
   3   3   4    3.32    0.32
  -3   3  -4    3.51    0.26
  -3   3  -4    3.63    0.28
  -3   3  -4    3.90    0.23
  -3   3  -4    3.87    0.34
  -3   3  -4    3.85    0.28
   3   3   4    3.67    0.26
   3   3   4    3.84    0.27
  -3   3  -4    3.41    0.28
   3   3   4    3.75    0.26
   3   3   4    3.53    0.26
   4  -3   4   19.99    1.04
  -4  -3  -4   20.28    0.99
  -4  -3  -4   20.07    1.01
   4  -3   4   19.91    1.01
   4  -3   4   20.26    1.01
   4  -3   4   20.21    1.07
  -4  -3  -4   16.57    1.33
  -4  -3  -4   20.30    1.03
   4  -3   4   20.28    1.45
   4  -3   4   18.69    1.04
  -4  -3  -4   21.69    1.02
   4   3   4   19.06    1.08
  -4   3  -4   20.32    0.97
   4   3   4   19.65    1.01
   4   3   4   18.88    1.12
  -4   3  -4   19.16    0.99
  -4   3  -4   19.86    1.03
   4   3   4   19.26    1.02
  -4   3  -4   20.05    1.06
   4   3   4   17.87    0.98
   4   3   4   18.39    0.96
   4   3   4   20.15    1.03
   4   3   4   19.18    1.03
   4   3   4   17.69    1.03
  -4   3  -4   17.95    1.02
   4   3   4   19.01    1.02
   5  -3   4   19.27    1.05
  -5  -3  -4   19.70    0.98
   5  -3   4   18.57    0.98
  -5  -3  -4   19.15    0.98
  -5  -3  -4   20.01    1.03
  -5  -3  -4   19.74    1.00
   5  -3   4   18.68    1.01
   5  -3   4   19.37    0.99
   5   3   4   18.71    1.00
   5   3   4   18.64    0.99
  -5   3  -4   17.54    0.99
   5   3   4   18.55    0.94
   5   3   4   17.16    0.95
  -5   3  -4   18.63    0.96
   5   3   4   19.17    1.01
   5   3   4   19.95    1.16
  -5   3  -4   16.07    1.08
  -5   3  -4   19.32    0.95
   5   3   4   18.89    1.00
  -5   3  -4   18.95    1.00
   6  -3   4    0.76    0.14
  -6  -3  -4    0.86    0.13
  -6  -3  -4    0.90    0.19
   6  -3   4    0.88    0.16
   6  -3   4    0.81    0.14
  -6  -3  -4    0.68    0.12
   6  -3   4    0.87    0.13
  -6  -3  -4    0.64    0.11
  -6  -3  -4    0.88    0.15
  -6  -3  -4    0.86    0.13
   6   3   4    0.79    0.10
  -6   3  -4    0.77    0.12
   6   3   4    0.80    0.14
   6   3   4    0.82    0.14
   6   3   4    0.94    0.10
  -6   3  -4    0.97    0.15
   6   3   4    0.89    0.13
   6   3   4    0.78    0.14
  -6   3  -4    0.78    0.12
   7  -3   4    5.33    0.33
  -7  -3  -4    4.75    0.37
  -7  -3  -4    5.47    0.33
   7  -3   4    5.57    0.35
  -7  -3  -4    5.82    0.34
  -7  -3  -4    5.65    0.36
  -7  -3  -4    4.65    0.34
   7  -3   4    4.83    0.37
  -7  -3  -4    5.71    0.35
   7  -3   4    5.05    0.37
   7   3   4    5.29    0.30
  -7   3  -4    5.11    0.33
   7   3   4    5.24    0.34
   7   3   4    4.96    0.30
   7   3   4    5.19    0.33
   7   3   4    4.97    0.34
   7   3   4    5.20    0.34
  -8  -3  -4    3.66    0.27
  -8  -3  -4    3.72    0.28
  -8  -3  -4    3.79    0.27
  -8  -3  -4    4.42    0.36
   8   3   4    4.63    0.24
   8   3   4    4.39    0.29
   8   3   4    4.48    0.28
   8   3   4    4.77    0.27
   8   3   4    4.71    0.27
   8   3   4    4.09    0.28
   8   3   4    4.45    0.24
  -9  -3  -4    1.82    0.13
   9   3   4    1.74    0.12
  -9   3  -4    1.76    0.11
   9   3   4    1.63    0.12
   9   4  -4    1.40    0.10
   9   4  -4    1.58    0.09
  -8  -4   4    0.83    0.10
  -8  -4   4    0.86    0.10
   8   4  -4    1.18    0.12
   8   4  -4    0.96    0.10
  -8   4   4    1.01    0.10
   8   4  -4    1.06    0.09
   8   4  -4    1.06    0.08
   8   4  -4    1.02    0.11
  -7  -4   4   13.90    0.83
  -7  -4   4   14.77    0.86
   7  -4  -4   17.87    0.85
   7  -4  -4   15.34    0.85
  -7  -4   4   14.82    0.85
  -7  -4   4   14.55    0.84
   7  -4  -4   15.92    0.87
  -7   4   4   18.37    0.82
   7   4  -4   17.26    0.81
   7   4  -4   17.06    0.86
   7   4  -4   16.52    0.87
   7   4  -4   15.44    0.82
   7   4  -4   16.36    0.80
   7   4  -4   16.28    0.84
   7   4  -4   17.12    0.81
  -7   4   4   16.98    0.83
   6  -4  -4    0.14    0.08
   6  -4  -4    0.15    0.07
  -6  -4   4    0.09    0.05
  -6  -4   4    0.14    0.06
   6  -4  -4    0.18    0.07
   6  -4  -4    0.15    0.06
   6  -4  -4    0.16    0.06
  -6  -4   4    0.15    0.06
   6   4  -4    0.23    0.07
   6   4  -4    0.32    0.09
   6   4  -4    0.23    0.07
  -6   4   4    0.21    0.06
   6   4  -4    0.21    0.07
   6   4  -4    0.32    0.10
   6   4  -4    0.21    0.07
  -6   4   4    0.22    0.07
   6   4  -4    0.19    0.06
  -6   4   4    0.09    0.06
  -6   4   4    0.18    0.07
   5  -4  -4   14.42    0.75
   5  -4  -4   14.08    0.76
   5  -4  -4   13.75    0.79
  -5  -4   4   12.32    0.75
   5  -4  -4   14.59    0.83
  -5  -4   4   11.89    0.71
   5   4  -4   13.41    0.72
   5   4  -4   13.76    0.71
   5   4  -4   14.03    0.71
  -5   4   4   13.96    0.73
  -5   4   4   13.65    0.73
   5   4  -4   12.99    0.77
  -5   4   4   13.92    0.71
   5   4  -4   13.78    0.71
  -5   4   4   14.02    0.73
   5   4  -4   13.61    0.74
  -5   4   4   13.43    0.84
   5   4  -4   13.93    0.77
   4  -4  -4   17.79    1.00
   4  -4  -4   18.84    1.01
   4  -4  -4   19.47    1.00
   4  -4  -4   19.22    1.00
   4  -4  -4   19.52    1.03
  -4   4   4   18.96    0.95
  -4   4   4   18.55    0.97
   4   4  -4   18.51    1.17
   4   4  -4   17.56    1.03
   4   4  -4   19.05    1.02
  -4   4   4   18.50    1.01
  -4   4   4   18.53    0.97
   4   4  -4   21.35    1.02
   4   4  -4   17.51    0.94
   4   4  -4   18.97    0.99
  -4   4   4   19.73    0.98
   4   4  -4   18.64    0.96
  -4   4   4   18.48    1.11
  -4   4   4   18.04    1.12
  -4   4   4   18.56    0.97
   4   4  -4   19.11    1.02
   4   4  -4   20.20    0.96
   4   4  -4   17.47    0.94
   4   4  -4   19.38    0.96
   3  -4  -4   60.89    2.91
   3  -4  -4   61.56    2.93
   3  -4  -4   63.25    2.92
   3  -4  -4   62.91    2.95
   3   4  -4   56.36    2.88
   3   4  -4   61.20    2.95
  -3   4   4   60.49    2.98
   3   4  -4   62.17    2.98
   3   4  -4   55.89    2.88
   3   4  -4   59.61    2.97
   3   4  -4   59.35    2.91
  -3   4   4   58.55    2.89
   3   4  -4   55.98    2.97
   3   4  -4   50.65    2.96
   3   4  -4   59.84    2.91
  -3   4   4   58.71    2.91
  -3   4   4   60.63    2.92
   3   4  -4   61.24    2.90
  -3   4   4   64.61    2.99
  -2  -4   4   25.20    1.75
   2  -4  -4   24.18    1.19
  -2  -4   4   18.21    1.08
   2  -4  -4   22.83    1.12
   2  -4  -4   22.33    1.16
   2  -4  -4   21.79    1.11
   2  -4  -4   22.62    1.12
  -2   4   4   23.19    1.12
  -2   4   4   21.49    1.18
  -2   4   4   22.03    1.10
  -2   4   4   21.98    1.10
  -2   4   4   21.42    1.11
   2   4  -4   22.02    1.14
   2   4  -4   21.73    1.17
  -2   4   4   21.04    1.11
   2   4  -4   21.88    1.15
   2   4  -4   21.92    1.10
   2   4  -4   21.61    1.09
   2   4  -4   21.37    1.18
   2   4  -4   21.10    1.15
   2   4  -4   19.58    1.11
   2   4  -4   22.61    1.10
   2   4  -4   21.60    1.09
   2   4  -4   21.98    1.10
   2   4  -4   20.77    1.20
  -2   4   4   21.70    1.17
   2   4  -4   22.72    1.11
  -2   4   4   22.57    1.13
  -2   4   4   22.19    1.28
   1  -4  -4   13.38    1.22
   1  -4  -4   11.89    0.63
   1  -4  -4   11.80    0.65
   1  -4  -4   12.40    0.64
   1  -4  -4   12.17    0.68
  -1  -4   4   12.38    0.61
   1   4  -4   11.82    0.69
  -1   4   4   12.25    0.65
  -1   4   4   11.66    0.78
   1   4  -4   11.83    0.62
   1   4  -4   11.96    0.62
   1   4  -4   11.80    0.63
  -1   4   4   13.01    0.66
   1   4  -4   11.71    0.67
  -1   4   4   12.08    0.71
   1   4  -4   12.41    0.63
  -1   4   4   11.73    0.69
   1   4  -4   11.85    0.73
  -1   4   4   11.96    0.65
  -1   4   4   11.49    0.63
   1   4  -4   11.05    0.65
  -1   4   4   11.36    0.62
   1   4  -4   11.85    0.62
  -1   4   4   11.76    0.63
   1   4  -4   11.47    0.70
  -1   4   4   11.49    0.63
   1   4  -4   11.37    0.69
   1   4  -4   11.21    0.62
   0  -4  -4   32.11    1.52
   0  -4  -4   31.55    1.56
   0  -4   4   31.62    1.52
   0  -4   4   31.43    1.55
   0  -4  -4   29.78    1.59
   0  -4   4   28.68    1.55
   0   4   4   29.67    1.52
   0   4  -4   30.57    1.56
   0   4   4   31.88    1.54
   0   4  -4   29.87    1.50
   0   4   4   30.50    1.68
   0   4   4   30.48    1.61
   0   4   4   28.72    1.54
   0   4   4   29.65    1.52
   0   4  -4   29.63    1.60
   0   4   4   31.41    1.52
   0   4  -4   30.80    1.52
   0   4   4   30.92    1.55
   0   4   4   31.34    1.60
   0   4  -4   30.22    1.52
   0   4   4   31.25    1.62
   0   4  -4   31.14    1.65
   0   4   4   32.53    1.55
   0   4  -4   30.71    1.60
   0   4  -4   30.61    1.52
   0   4  -4   30.70    1.51
   0   4  -4   31.90    1.53
   1  -4   4    1.30    0.14
  -1  -4  -4    1.39    0.14
   1  -4   4    1.53    0.16
  -1  -4  -4    1.36    0.12
   1  -4   4    1.52    0.14
   1  -4   4    1.44    0.17
  -1   4  -4    1.66    0.14
   1   4   4    1.44    0.21
  -1   4  -4    1.47    0.14
   1   4   4    1.42    0.13
   1   4   4    1.60    0.17
  -1   4  -4    1.55    0.16
   1   4   4    1.59    0.14
   1   4   4    1.44    0.20
  -1   4  -4    1.50    0.15
  -1   4  -4    1.52    0.21
  -1   4  -4    1.44    0.12
   1   4   4    1.65    0.16
  -1   4  -4    1.19    0.16
   1   4   4    1.55    0.17
   1   4   4    1.47    0.18
  -1   4  -4    1.25    0.17
  -1   4  -4    1.41    0.13
   1   4   4    1.29    0.15
   1   4   4    1.37    0.19
   1   4   4    1.46    0.13
  -1   4  -4    1.61    0.14
   2  -4   4    5.88    0.37
   2  -4   4    6.19    0.36
   2  -4   4    6.23    0.38
  -2  -4  -4    5.88    0.36
   2  -4   4    6.28    0.40
  -2  -4  -4    5.80    0.33
   2   4   4    5.82    0.38
  -2   4  -4    5.84    0.38
   2   4   4    6.21    0.37
  -2   4  -4    5.66    0.34
   2   4   4    6.07    0.38
  -2   4  -4    5.58    0.34
   2   4   4    5.69    0.44
   2   4   4    6.19    0.38
  -2   4  -4    5.43    0.33
  -2   4  -4    5.74    0.41
  -2   4  -4    6.27    0.46
   2   4   4    5.50    0.39
   2   4   4    5.49    0.36
   2   4   4    5.56    0.44
  -2   4  -4    5.59    0.41
  -2   4  -4    5.66    0.35
  -2   4  -4    5.72    0.34
  -2   4  -4    5.81    0.33
   2   4   4    5.45    0.43
   2   4   4    5.88    0.35
   3  -4   4    2.85    0.24
   3  -4   4    2.95    0.25
   3  -4   4    3.37    0.25
   3  -4   4    3.23    0.28
   3  -4   4    3.22    0.26
   3  -4   4    3.03    0.23
  -3  -4  -4    3.13    0.23
  -3   4  -4    2.87    0.20
  -3   4  -4    3.03    0.21
  -3   4  -4    2.90    0.22
   3   4   4    2.92    0.23
   3   4   4    3.13    0.25
   3   4   4    2.81    0.25
   3   4   4    2.97    0.21
  -3   4  -4    3.12    0.29
  -3   4  -4    3.14    0.31
   3   4   4    3.03    0.24
   3   4   4    3.05    0.25
   3   4   4    3.13    0.31
  -3   4  -4    3.16    0.20
  -3   4  -4    2.97    0.21
  -3   4  -4    3.11    0.25
   3   4   4    2.75    0.29
   3   4   4    2.93    0.33
  -3   4  -4    3.02    0.21
  -4  -4  -4    7.31    0.49
   4  -4   4    8.75    0.56
   4  -4   4    9.09    0.51
  -4  -4  -4    9.35    0.52
   4  -4   4    8.30    0.52
   4  -4   4    8.35    0.57
   4  -4   4    9.26    0.54
  -4   4  -4    8.84    0.48
  -4   4  -4    9.10    0.58
  -4   4  -4    8.14    0.47
   4   4   4    8.80    0.53
  -4   4  -4    9.29    0.53
  -4   4  -4    9.05    0.49
   4   4   4    8.54    0.48
   4   4   4    9.15    0.51
  -4   4  -4    8.78    0.47
   4   4   4    8.35    0.52
  -4   4  -4    8.73    0.47
   4   4   4    8.90    0.52
  -4   4  -4    8.54    0.47
   4   4   4    9.14    0.52
   4   4   4    8.34    0.46
   5  -4   4   20.09    1.04
  -5  -4  -4   17.86    1.02
  -5  -4  -4   22.91    1.06
   5  -4   4   19.84    1.11
   5  -4   4   17.67    1.19
  -5  -4  -4   22.65    1.03
   5  -4   4   19.78    1.04
   5   4   4   20.55    1.05
  -5   4  -4   19.72    0.99
  -5   4  -4   21.28    1.04
   5   4   4   20.37    1.16
   5   4   4   18.87    1.12
   5   4   4   19.50    0.99
   5   4   4   19.19    1.04
   5   4   4   19.85    1.01
   6  -4   4   21.10    1.02
  -6  -4  -4   17.46    1.00
   6  -4   4   19.71    1.08
   6  -4   4   20.13    1.10
  -6  -4  -4   16.38    1.04
  -6  -4  -4   17.35    1.00
   6  -4   4   17.01    1.09
   6  -4   4   19.26    1.01
  -6   4  -4   21.02    0.99
   6   4   4   20.18    0.97
  -6   4  -4   21.81    1.02
   6   4   4   20.97    1.02
   6   4   4   20.35    1.02
  -6   4  -4   20.62    0.99
   6   4   4   21.62    1.03
   6   4   4   19.50    0.98
  -7  -4  -4    5.04    0.32
  -7  -4  -4    4.71    0.41
   7  -4   4    5.56    0.31
   7  -4   4    5.43    0.37
   7   4   4    6.06    0.33
   7   4   4    6.20    0.34
  -7   4  -4    6.21    0.31
   7   4   4    5.28    0.29
   7   4   4    5.29    0.29
   7   4   4    5.36    0.35
   8   4   4    3.97    0.20
   8   4   4    3.54    0.20
   8   4   4    3.33    0.20
   8   4   4    3.09    0.20
   7   5  -4    1.04    0.07
  -7   5   4    0.78    0.08
   7   5  -4    1.01    0.09
  -7   5   4    1.05    0.08
  -7   5   4    0.79    0.08
   7   5  -4    0.99    0.09
   7   5  -4    1.04    0.08
   6  -5  -4    7.04    0.47
   6  -5  -4    8.67    0.53
   6   5  -4    7.01    0.41
  -6   5   4    7.93    0.42
   6   5  -4    7.78    0.44
   6   5  -4    8.72    0.42
   6   5  -4    7.80    0.41
  -6   5   4    7.93    0.42
  -6   5   4    7.91    0.42
  -6   5   4    7.64    0.41
   6   5  -4    8.87    0.46
   5  -5  -4    0.90    0.15
   5  -5  -4    0.99    0.12
   5  -5  -4    1.03    0.13
   5  -5  -4    0.88    0.12
   5  -5  -4    0.84    0.13
  -5   5   4    0.91    0.11
  -5   5   4    0.99    0.11
   5   5  -4    1.03    0.10
  -5   5   4    1.17    0.23
   5   5  -4    1.02    0.10
  -5   5   4    0.94    0.10
  -5   5   4    1.00    0.12
   5   5  -4    1.06    0.13
  -5   5   4    1.00    0.11
  -5   5   4    0.96    0.15
   4  -5  -4    1.60    0.19
   4  -5  -4    1.70    0.17
   4  -5  -4    1.78    0.16
   4   5  -4    1.73    0.16
   4   5  -4    1.48    0.12
  -4   5   4    1.64    0.17
  -4   5   4    1.57    0.14
   4   5  -4    1.69    0.13
   4   5  -4    1.61    0.14
   4   5  -4    1.43    0.12
   4   5  -4    1.51    0.15
  -4   5   4    1.68    0.14
  -4   5   4    1.62    0.14
   4   5  -4    1.68    0.14
  -4   5   4    1.61    0.14
  -4   5   4    1.79    0.23
  -4   5   4    1.73    0.17
   3  -5  -4   16.96    0.83
   3  -5  -4   16.22    0.83
   3  -5  -4   12.97    0.87
   3  -5  -4   17.17    0.87
  -3   5   4   16.41    0.86
   3   5  -4   14.78    0.79
  -3   5   4   16.36    0.96
  -3   5   4   16.44    0.82
  -3   5   4   15.75    0.80
   3   5  -4   14.97    0.79
   3   5  -4   16.04    0.80
   3   5  -4   15.95    0.80
   3   5  -4   14.79    0.82
  -3   5   4   15.54    0.82
  -3   5   4   16.21    0.82
   3   5  -4   15.98    0.84
  -3   5   4   14.63    0.81
   3   5  -4   15.20    0.80
  -3   5   4   15.47    0.80
   2  -5  -4    3.02    0.23
   2  -5  -4    3.23    0.25
  -2   5   4    2.86    0.26
  -2   5   4    2.72    0.21
   2   5  -4    2.93    0.21
  -2   5   4    2.61    0.20
  -2   5   4    3.33    0.30
   2   5  -4    2.44    0.21
   2   5  -4    2.63    0.22
  -2   5   4    3.07    0.23
   2   5  -4    2.76    0.21
   2   5  -4    2.99    0.21
  -2   5   4    2.74    0.30
  -2   5   4    3.07    0.23
   2   5  -4    3.10    0.22
   2   5  -4    3.12    0.26
   1  -5  -4    4.65    0.33
  -1  -5   4    3.77    0.33
   1  -5  -4    4.88    0.32
   1  -5  -4    3.74    0.28
  -1  -5   4    4.21    0.27
   1   5  -4    4.65    0.28
  -1   5   4    4.22    0.27
   1   5  -4    4.67    0.29
   1   5  -4    4.31    0.29
   1   5  -4    4.74    0.28
  -1   5   4    4.24    0.39
   1   5  -4    4.40    0.27
  -1   5   4    4.82    0.28
   1   5  -4    4.56    0.37
  -1   5   4    4.29    0.28
  -1   5   4    4.43    0.30
   1   5  -4    4.41    0.27
  -1   5   4    4.60    0.30
  -1   5   4    4.65    0.34
   0  -5  -4    8.37    0.55
   0  -5   4    7.92    0.53
   0  -5   4    8.27    0.52
   0  -5  -4    7.93    0.51
   0  -5  -4    8.52    0.53
   0   5  -4   10.51    0.64
   0   5   4    9.81    0.54
   0   5   4   10.05    0.51
   0   5  -4    9.68    0.52
   0   5  -4    9.91    0.50
   0   5   4    9.53    0.51
   0   5  -4    9.95    0.51
   0   5  -4   10.08    0.51
   0   5   4    9.61    0.51
   0   5   4    9.97    0.58
   0   5  -4    9.48    0.54
   0   5  -4    9.97    0.51
   0   5   4    9.91    0.54
   0   5   4    8.89    0.63
   0   5  -4    8.81    0.51
   0   5   4   10.14    0.54
  -1  -5  -4   11.04    0.68
   1  -5   4   13.65    0.72
   1  -5   4   14.03    0.71
  -1   5  -4   12.61    0.69
  -1   5  -4   14.19    0.82
  -1   5  -4   12.83    0.68
  -1   5  -4   12.61    0.72
   1   5   4   12.12    0.80
   1   5   4   13.43    0.71
   1   5   4   13.08    0.72
   1   5   4   13.01    0.71
   1   5   4   13.29    0.69
  -1   5  -4   13.29    0.68
  -1   5  -4   13.40    0.68
   1   5   4   13.61    0.72
   1   5   4   12.50    0.74
   1   5   4   13.65    0.72
  -1   5  -4   13.67    0.73
   2  -5   4   13.95    0.76
   2  -5   4   12.69    0.66
  -2  -5  -4   10.58    0.63
  -2  -5  -4   10.96    0.66
   2  -5   4   13.43    0.66
  -2  -5  -4   10.43    0.65
   2  -5   4   11.54    0.70
   2   5   4   14.33    0.72
  -2   5  -4   12.69    0.65
   2   5   4   11.76    0.64
   2   5   4   13.04    0.70
   2   5   4   12.34    0.74
  -2   5  -4   12.09    0.62
  -2   5  -4   10.59    0.69
   2   5   4   12.26    0.69
   2   5   4   12.13    0.66
  -2   5  -4   12.15    0.62
  -2   5  -4   12.38    0.72
  -2   5  -4   12.81    0.72
   2   5   4   13.25    0.68
  -2   5  -4   10.65    0.91
   3  -5   4    2.76    0.26
   3  -5   4    3.71    0.30
   3  -5   4    3.41    0.24
   3  -5   4    3.49    0.26
   3   5   4    3.26    0.22
  -3   5  -4    3.53    0.31
  -3   5  -4    3.54    0.22
   3   5   4    2.93    0.27
  -3   5  -4    3.39    0.22
  -3   5  -4    3.43    0.23
   3   5   4    3.41    0.25
   3   5   4    3.28    0.22
   3   5   4    3.14    0.24
  -3   5  -4    3.48    0.22
  -3   5  -4    3.32    0.21
   3   5   4    3.20    0.24
  -3   5  -4    3.49    0.26
   3   5   4    3.46    0.24
   4  -5   4    0.00    0.04
   4  -5   4   -0.01    0.06
   4  -5   4    0.02    0.05
   4  -5   4    0.03    0.06
   4   5   4    0.01    0.04
  -4   5  -4    0.02    0.04
  -4   5  -4    0.03    0.04
  -4   5  -4    0.03    0.04
  -4   5  -4    0.07    0.04
   4   5   4    0.06    0.06
   4   5   4    0.02    0.04
   4   5   4    0.01    0.07
   4   5   4    0.06    0.04
  -4   5  -4    0.06    0.05
   4   5   4    0.00    0.05
   4   5   4    0.09    0.07
  -4   5  -4    0.08    0.06
   5  -5   4    0.50    0.10
   5  -5   4    0.74    0.11
   5  -5   4    0.62    0.10
   5  -5   4    0.75    0.10
  -5   5  -4    0.73    0.11
   5   5   4    0.74    0.10
   5   5   4    0.67    0.07
   5   5   4    0.76    0.11
   5   5   4    0.69    0.10
   5   5   4    0.82    0.11
   5   5   4    0.61    0.10
  -5   5  -4    0.81    0.09
  -5   5  -4    0.53    0.06
   6  -5   4    3.60    0.22
   6  -5   4    3.43    0.23
   6   5   4    3.48    0.21
   6   5   4    3.64    0.22
  -6   5  -4    3.61    0.21
   6   5   4    3.59    0.21
  -6   5  -4    2.88    0.20
   5  -6  -4    2.20    0.16
  -5   6   4    1.78    0.12
  -5   6   4    1.92    0.11
  -5   6   4    1.92    0.11
   4  -6  -4    0.57    0.07
  -4   6   4    0.61    0.10
  -4   6   4    0.63    0.06
  -4   6   4    0.70    0.07
  -4   6   4    0.64    0.06
   3  -6  -4    0.05    0.03
   3  -6  -4    0.00    0.03
  -3   6   4    0.02    0.04
   3   6  -4    0.03    0.02
  -3   6   4    0.03    0.03
  -3   6   4    0.04    0.06
  -3   6   4    0.02    0.06
  -3   6   4    0.04    0.04
   3   6  -4    0.02    0.03
   3   6  -4   -0.05    0.05
  -3   6   4    0.01    0.03
   2  -6  -4    4.76    0.31
   2  -6  -4    4.77    0.31
  -2   6   4    5.32    0.29
   2   6  -4    5.13    0.28
  -2   6   4    5.39    0.29
   2   6  -4    5.18    0.28
   2   6  -4    5.39    0.29
  -2   6   4    5.68    0.30
  -2   6   4    5.36    0.30
  -2   6   4    6.12    0.40
   2   6  -4    5.61    0.29
   2   6  -4    5.50    0.29
   1  -6  -4    2.08    0.22
   1   6  -4    2.30    0.20
  -1   6   4    2.24    0.15
   1   6  -4    1.87    0.17
  -1   6   4    2.18    0.14
  -1   6   4    2.21    0.22
  -1   6   4    2.20    0.14
  -1   6   4    2.37    0.21
   1   6  -4    2.19    0.16
  -1   6   4    2.48    0.19
   1   6  -4    2.16    0.14
   0   6   4    0.16    0.06
   0   6  -4    0.29    0.08
   0   6   4    0.18    0.05
   0   6   4    0.22    0.05
   0   6   4    0.24    0.08
   0   6  -4    0.18    0.05
   0   6  -4    0.19    0.05
   0   6   4    0.18    0.09
   0   6  -4    0.13    0.04
   0   6   4    0.19    0.05
   0   6   4    0.22    0.07
   0   6  -4    0.23    0.07
   0   6  -4    0.23    0.10
  -1   6  -4    3.99    0.22
   1   6   4    3.74    0.27
   1   6   4    3.28    0.27
   1   6   4    3.70    0.23
  -1   6  -4    3.87    0.29
  -1   6  -4    4.03    0.26
   1   6   4    4.47    0.26
  -1   6  -4    3.95    0.22
  -1   6  -4    4.30    0.24
   1   6   4    3.74    0.24
  -1   6  -4    3.67    0.22
   2  -6   4    5.63    0.37
   2   6   4    6.28    0.36
   2   6   4    6.92    0.38
   2   6   4    6.70    0.35
  -2   6  -4    7.20    0.36
  -2   6  -4    7.09    0.42
   2   6   4    6.57    0.36
  -2   6  -4    7.26    0.36
  -2   6  -4    7.24    0.36
  -2   6  -4    6.55    0.35
  -2   6  -4    6.74    0.37
   3   6   4    0.51    0.06
   3   6   4    0.41    0.06
  -3   6  -4    0.56    0.08
   3   6   4    0.43    0.07
  -3   6  -4    0.52    0.06
  -3   6  -4    0.48    0.06
  -3   6  -4    0.49    0.10
  -3   6  -4    0.40    0.05
  -3   6  -4    0.53    0.07
   3   6   4    0.44    0.07
   4  -6   4    1.93    0.17
   4   6   4    1.98    0.13
   4   6   4    2.13    0.13
  -4   6  -4    1.90    0.13
  -4   6  -4    2.02    0.12
  -4   6  -4    2.08    0.16
  -4   6  -4    2.00    0.12
  -4   6  -4    1.90    0.12
  10   0  -5    0.16    0.08
 -10   0   5    0.20    0.05
 -10   0   5    0.21    0.06
  -9   0   5   22.08    1.22
  -9   0   5   23.82    1.20
  -9   0   5   21.34    1.15
  -9   0   5   20.87    1.14
  -9   0   5   22.69    1.14
  -8   0   5   30.83    1.66
   8   0  -5   27.61    1.58
  -8   0   5   32.15    1.57
  -8   0   5   31.90    1.58
  -8   0   5   32.94    1.62
  -7   0   5    7.61    0.52
  -7   0   5    7.39    0.44
   7   0  -5    7.20    0.47
  -7   0   5    7.80    0.46
   7   0  -5    7.33    0.47
   7   0  -5    7.48    0.41
  -7   0   5    7.18    0.45
  -7   0   5    6.97    0.47
  -7   0   5    7.66    0.48
  -6   0   5    0.96    0.12
  -6   0   5    1.05    0.12
  -6   0   5    0.98    0.15
  -6   0   5    1.08    0.14
   6   0  -5    1.05    0.12
  -6   0   5    0.93    0.13
   6   0  -5    0.95    0.10
  -6   0   5    1.39    0.39
   6   0  -5    1.08    0.13
   6   0  -5    1.02    0.29
  -6   0   5    1.01    0.13
  -5   0   5    5.46    0.38
  -5   0   5    6.48    1.92
  -5   0   5    8.03    1.90
  -5   0   5    5.54    0.34
   5   0  -5    5.38    0.54
  -5   0   5    5.44    1.17
  -5   0   5    5.40    0.34
  -5   0   5    5.60    0.36
  -5   0   5    5.18    1.23
   5   0  -5    5.87    0.35
  -5   0   5    6.05    0.60
  -5   0   5    5.35    0.33
  -4   0   5   95.41    4.63
   4   0  -5   92.00    4.62
  -4   0   5   91.41    4.63
  -4   0   5   97.83    4.64
  -4   0   5  100.08    4.68
  -4   0   5  102.71    6.66
  -4   0   5   96.87    5.98
  -4   0   5  103.02    6.75
  -4   0   5  106.71    6.39
  -4   0   5   96.41    4.96
   4   0  -5   86.57    4.86
  -4   0   5   93.33    4.65
   4   0  -5   92.12    4.71
   4   0  -5   95.33    4.90
   4   0  -5   95.99    5.05
   4   0  -5  102.50    4.64
  -3   0   5  212.94   10.72
  -3   0   5  179.29   11.57
  -3   0   5  172.13   10.46
  -3   0   5  189.06   10.88
  -3   0   5  193.43    9.51
  -3   0   5  210.56   11.81
   3   0  -5  185.37    9.24
   3   0  -5  191.38    9.33
  -3   0   5  204.63   11.14
   3   0  -5  194.04    9.28
   3   0  -5  196.29    9.48
  -3   0   5  206.99   10.90
  -3   0   5  191.13   10.36
  -2   0   5  272.00   15.62
  -2   0   5  295.44   14.59
  -2   0   5  293.12   14.89
  -2   0   5  264.46   13.60
  -2   0   5  287.44   13.67
  -2   0   5  299.46   15.21
  -2   0   5  287.82   14.41
   2   0  -5  277.52   13.54
   2   0  -5  291.99   13.67
  -2   0   5  268.61   14.89
  -2   0   5  281.02   14.69
  -2   0   5  281.16   14.73
   1   0  -5    1.60    0.60
   1   0  -5    1.59    0.38
  -1   0   5    0.91    0.19
  -1   0   5    1.12    0.10
   1   0  -5    1.25    0.50
  -1   0   5    1.17    0.18
   1   0  -5    1.24    0.15
   1   0  -5    1.25    0.09
   1   0  -5    1.14    0.45
  -1   0   5    1.17    0.09
   1   0  -5    1.24    0.11
   0   0  -5  112.74    5.63
   0   0  -5  122.66    6.52
   0   0  -5  117.00    6.74
   0   0   5  114.75    6.69
   0   0  -5  110.81    5.49
   0   0  -5  127.52    6.74
   0   0   5  107.71    5.72
   0   0   5  114.43    6.58
   0   0  -5  124.07    6.38
   0   0   5  108.38    5.50
   0   0   5  108.93    5.63
   0   0   5  113.12    6.29
   0   0   5  118.62    6.50
  -1   0  -5    4.45    0.75
  -1   0  -5    3.86    0.22
   1   0   5    3.88    0.22
   1   0   5    3.63    0.24
   1   0   5    3.72    0.23
  -1   0  -5    3.82    0.68
  -1   0  -5    5.30    0.87
  -1   0  -5    3.85    0.24
   1   0   5    4.44    0.70
   1   0   5    4.09    0.79
   1   0   5    4.11    0.35
  -1   0  -5    3.74    0.34
   1   0   5    5.00    0.99
  -1   0  -5    3.92    0.83
   1   0   5    3.77    0.80
   1   0   5    3.71    0.35
  -2   0  -5   72.66    3.33
  -2   0  -5   72.17    4.79
   2   0   5   71.88    3.58
   2   0   5   68.19    3.37
   2   0   5   65.34    4.39
  -2   0  -5   71.31    3.35
   2   0   5   69.18    3.35
   2   0   5   62.60    4.69
  -2   0  -5   79.72    5.38
  -2   0  -5   74.37    4.56
   2   0   5   67.27    3.36
  -2   0  -5   68.86    3.34
  -2   0  -5   69.73    3.57
   2   0   5   72.59    4.68
  -2   0  -5   67.81    3.34
  -2   0  -5   76.66    4.82
  -2   0  -5   61.03    3.36
   2   0   5   69.82    4.93
  -2   0  -5   70.20    3.36
   2   0   5   63.66    3.37
   3   0   5  144.42    7.35
   3   0   5  148.54    7.45
   3   0   5  147.11    9.54
  -3   0  -5  153.62    7.51
  -3   0  -5  158.11    9.13
   3   0   5  160.70    8.86
   3   0   5  152.11    7.19
  -3   0  -5  149.24    7.19
   3   0   5  141.16    7.17
  -3   0  -5  162.37    8.66
   3   0   5  161.56    7.23
   3   0   5  152.47    9.08
  -3   0  -5  143.74    7.18
   3   0   5  142.25    7.20
   3   0   5  154.23    7.51
   3   0   5  134.81    9.13
  -4   0  -5  134.20    7.35
  -4   0  -5  133.31    9.88
   4   0   5  140.43    7.40
  -4   0  -5  127.49    9.41
   4   0   5  170.90   10.43
   4   0   5  163.83   11.33
   4   0   5  157.57    7.32
   4   0   5  156.35    7.72
  -4   0  -5  164.74    7.74
  -4   0  -5  141.79    9.41
   4   0   5  160.82    9.51
  -4   0  -5  159.68    7.27
   4   0   5  149.69    7.48
   4   0   5  171.42   10.72
  -4   0  -5  152.37    7.73
  -5   0  -5   29.75    2.01
  -5   0  -5   30.54    1.58
  -5   0  -5   31.72    2.03
  -5   0  -5   32.03    1.58
  -5   0  -5   30.31    1.54
  -5   0  -5   29.36    1.59
  -5   0  -5   30.43    1.56
  -5   0  -5   34.73    1.62
  -5   0  -5   29.33    1.57
  -6   0  -5   27.49    1.40
  -6   0  -5   26.87    1.37
  -6   0  -5   29.26    1.42
  -6   0  -5   26.86    1.38
  -6   0  -5   26.17    1.43
  -6   0  -5   25.70    1.42
  -6   0  -5   25.92    1.37
  -6   0  -5   28.54    1.41
  -7   0  -5   10.12    0.57
  -7   0  -5   10.43    0.58
  -7   0  -5   10.32    0.60
  -7   0  -5    9.09    0.58
  -7   0  -5   10.90    0.62
  -7   0  -5   10.44    0.65
  -8   0  -5    0.17    0.09
  -8   0  -5    0.14    0.09
   8   0   5    0.16    0.08
  -8   0  -5    0.15    0.05
   9   0   5    0.70    0.11
  -9   0  -5    0.48    0.08
  -9   0  -5    0.71    0.11
  10  -1  -5    6.00    0.33
 -10  -1   5    5.47    0.34
 -10  -1   5    5.30    0.33
 -10  -1   5    5.60    0.32
  10   1  -5    4.91    0.33
  10   1  -5    6.42    0.35
  -9  -1   5    6.09    0.40
  -9  -1   5    5.92    0.47
  -9  -1   5    5.78    0.46
  -9  -1   5    6.28    0.38
  -9  -1   5    6.25    0.38
  -9   1   5    5.95    0.37
   9   1  -5    6.43    0.39
  -8  -1   5    7.21    0.48
  -8  -1   5    7.09    0.45
  -8  -1   5    6.98    0.51
  -8  -1   5    7.23    0.44
  -8  -1   5    7.54    0.45
  -8   1   5    6.61    0.40
   8   1  -5    6.96    0.39
   8   1  -5    6.94    0.38
  -8   1   5    6.89    0.43
   8   1  -5    6.86    0.45
  -7  -1   5   17.07    0.89
  -7  -1   5   17.00    0.93
  -7  -1   5   17.59    0.91
  -7  -1   5   18.26    1.21
  -7  -1   5   16.74    0.89
   7  -1  -5   16.24    0.91
   7   1  -5   15.92    0.84
  -7   1   5   15.96    0.86
  -7   1   5   15.27    0.89
  -7   1   5   16.12    0.98
  -7   1   5   14.95    0.89
   7   1  -5   18.64    1.07
   7   1  -5   16.15    0.91
  -6  -1   5   12.52    1.04
  -6  -1   5   11.62    0.66
   6  -1  -5   12.39    0.66
   6  -1  -5   11.87    0.67
   6  -1  -5   10.04    1.19
  -6  -1   5   12.27    0.69
  -6  -1   5   11.72    0.63
   6  -1  -5   11.67    0.61
  -6  -1   5   11.97    0.70
  -6   1   5   10.54    0.62
   6   1  -5   11.62    0.67
  -6   1   5   10.37    0.64
   6   1  -5   12.76    0.66
  -6   1   5   10.52    1.27
   6   1  -5   11.06    0.62
   6   1  -5   11.23    0.60
   6   1  -5   11.67    0.60
  -6   1   5   10.44    0.64
  -6   1   5   10.51    0.62
  -6   1   5   10.81    0.63
   6   1  -5   11.29    0.65
  -5  -1   5   25.17    1.23
   5  -1  -5   25.16    1.58
   5  -1  -5   23.45    1.28
  -5  -1   5   26.70    1.30
  -5  -1   5   24.77    1.24
  -5  -1   5   26.32    1.65
   5  -1  -5   23.24    1.22
  -5  -1   5   24.65    1.23
   5  -1  -5   24.68    1.25
  -5  -1   5   19.74    2.53
  -5  -1   5   25.62    1.26
   5  -1  -5   25.66    1.31
   5  -1  -5   24.58    1.24
  -5   1   5   22.28    1.22
  -5   1   5   24.69    1.29
  -5   1   5   24.38    1.61
  -5   1   5   23.64    1.23
  -5   1   5   21.65    3.33
   5   1  -5   24.00    1.23
   5   1  -5   25.81    1.25
  -5   1   5   25.38    3.41
  -5   1   5   25.03    2.83
  -5   1   5   24.67    1.25
  -5   1   5   23.62    1.25
  -5   1   5   25.93    3.53
  -5   1   5   21.20    4.08
  -4  -1   5   14.12    2.04
  -4  -1   5   12.08    1.95
   4  -1  -5   13.23    0.66
   4  -1  -5   13.40    0.93
  -4  -1   5   12.83    0.70
  -4  -1   5   13.75    1.94
  -4  -1   5   13.33    0.68
  -4  -1   5   10.46    1.54
  -4  -1   5   13.95    0.96
   4  -1  -5   12.40    0.66
  -4  -1   5   13.49    1.72
  -4  -1   5   10.08    1.49
  -4  -1   5   12.28    0.66
   4  -1  -5   13.69    0.67
   4  -1  -5   12.97    1.03
  -4  -1   5   13.55    0.70
   4  -1  -5   12.84    0.68
   4  -1  -5   13.51    0.71
  -4   1   5    9.97    1.92
  -4   1   5   12.24    1.84
  -4   1   5   12.25    0.70
  -4   1   5   12.23    1.82
  -4   1   5   12.30    2.16
  -4   1   5   13.12    0.95
   4   1  -5   12.41    0.67
  -4   1   5   10.24    1.61
  -4   1   5   11.96    0.66
  -4   1   5   11.73    2.12
  -4   1   5   13.36    1.63
   4   1  -5   12.47    0.67
  -3  -1   5  132.79    6.97
  -3  -1   5  121.43    6.68
   3  -1  -5  123.25    5.67
   3  -1  -5  118.98    6.06
  -3  -1   5  118.44    5.65
  -3  -1   5  106.51    7.14
  -3  -1   5  119.80    5.67
  -3  -1   5  122.30    5.66
  -3  -1   5  116.94    5.92
  -3  -1   5  103.81    6.76
   3  -1  -5  120.12    5.94
  -3  -1   5  116.15    6.99
  -3  -1   5  121.74    5.93
   3   1  -5  122.17    5.65
   3   1  -5  107.93    5.67
  -3   1   5  116.62    5.66
  -3   1   5  109.76    7.44
  -3   1   5  125.67    7.43
  -3   1   5  112.47    5.77
   3   1  -5  121.60    5.67
  -3   1   5  121.80    5.98
  -3   1   5  127.92    7.61
  -3   1   5  122.18    6.93
  -3   1   5  109.77    5.69
  -3   1   5  117.07    7.09
   3   1  -5  118.56    5.67
  -3   1   5  124.14    7.22
  -2  -1   5   17.46    0.97
   2  -1  -5   18.80    0.94
  -2  -1   5   18.51    1.88
  -2  -1   5   18.84    1.55
   2  -1  -5   17.39    1.09
  -2  -1   5   18.49    1.78
  -2  -1   5   19.21    1.88
   2  -1  -5   18.51    1.19
   2  -1  -5   18.14    1.07
   2  -1  -5   17.16    0.93
   2  -1  -5   19.64    0.93
  -2  -1   5   18.74    1.66
  -2  -1   5   18.17    1.08
  -2  -1   5   17.59    1.09
   2  -1  -5   18.19    0.91
  -2  -1   5   17.68    1.64
  -2  -1   5   15.98    1.19
  -2  -1   5   17.59    1.71
  -2  -1   5   19.15    1.73
  -2   1   5   19.81    1.81
  -2   1   5   17.67    0.90
  -2   1   5   18.66    0.93
   2   1  -5   20.43    0.95
  -2   1   5   18.43    1.15
  -2   1   5   18.27    1.65
   2   1  -5   17.28    0.91
  -2   1   5   18.41    1.85
   2   1  -5   17.89    0.92
  -2   1   5   17.90    1.95
  -2   1   5   18.69    1.76
  -2   1   5   18.18    1.90
  -2   1   5   17.15    0.97
  -2   1   5   17.96    1.28
   2   1  -5   18.41    0.92
  -1  -1   5   29.90    1.44
  -1  -1   5   31.36    1.60
   1  -1  -5   29.75    1.47
   1  -1  -5   30.96    1.45
  -1  -1   5   28.70    2.33
  -1  -1   5   29.38    2.29
  -1  -1   5   28.54    2.06
   1  -1  -5   30.11    1.70
  -1  -1   5   32.29    1.74
   1  -1  -5   30.73    1.62
   1  -1  -5   31.61    1.64
  -1  -1   5   29.48    1.46
   1  -1  -5   29.10    1.45
  -1  -1   5   28.37    2.18
  -1  -1   5   27.55    1.43
   1   1  -5   29.45    1.46
   1   1  -5   30.91    2.41
  -1   1   5   29.61    1.44
  -1   1   5   29.71    1.46
  -1   1   5   28.68    2.56
   1   1  -5   27.04    1.50
  -1   1   5   28.80    2.36
  -1   1   5   28.66    1.76
   1   1  -5   29.01    2.12
   1   1  -5   29.37    1.45
  -1   1   5   30.49    2.40
  -1   1   5   30.96    2.19
   1   1  -5   30.91    1.45
  -1   1   5   28.77    1.50
   0  -1   5   63.96    3.91
   0  -1  -5   61.63    3.09
   0  -1  -5   64.13    2.95
   0  -1   5   61.37    3.76
   0  -1  -5   62.20    4.09
   0  -1   5   60.93    4.06
   0  -1   5   61.92    2.97
   0  -1  -5   62.35    3.79
   0  -1  -5   60.94    4.15
   0  -1  -5   62.07    2.95
   0  -1  -5   64.43    3.16
   0  -1   5   67.33    3.20
   0  -1   5   63.59    4.09
   0  -1   5   61.16    2.95
   0  -1  -5   62.54    3.94
   0  -1   5   59.02    2.94
   0   1  -5   65.42    4.06
   0   1  -5   55.54    2.94
   0   1   5   60.99    2.97
   0   1  -5   55.29    3.07
   0   1  -5   62.15    2.96
   0   1   5   60.57    2.98
   0   1  -5   62.26    2.96
   0   1   5   59.19    4.03
   0   1  -5   65.85    4.15
   0   1  -5   65.94    2.96
   0   1   5   61.49    3.74
   0   1  -5   56.98    3.14
   0   1   5   61.14    3.87
   0   1   5   59.06    3.03
   0   1   5   58.18    2.95
   0   1   5   58.63    3.20
   0   1  -5   65.07    3.90
   0   1  -5   57.90    2.94
   0   1   5   58.04    3.96
   0   1  -5   65.46    3.79
   1  -1   5   11.76    0.59
   1  -1   5   11.80    1.43
   1  -1   5   11.76    1.26
  -1  -1  -5    9.98    1.22
  -1  -1  -5   11.66    0.76
   1  -1   5   11.73    0.78
   1  -1   5   12.56    1.43
   1  -1   5   10.37    1.56
  -1  -1  -5   12.52    0.59
  -1  -1  -5   11.84    1.22
   1  -1   5   12.31    0.60
  -1  -1  -5   11.25    0.59
  -1  -1  -5   11.44    1.42
  -1   1  -5   10.67    0.73
   1   1   5   11.26    1.20
  -1   1  -5   10.81    1.17
  -1   1  -5   11.65    0.59
   1   1   5   10.57    1.37
   1   1   5   10.85    0.69
   1   1   5   11.24    1.41
   1   1   5   12.76    0.63
  -1   1  -5   10.74    1.37
   1   1   5    9.84    1.25
   1   1   5   10.62    0.73
   1   1   5   11.25    0.60
  -1   1  -5   11.44    0.59
   1   1   5   10.85    0.58
  -1   1  -5   10.77    0.58
  -1   1  -5   11.33    0.59
   2  -1   5    2.15    0.74
  -2  -1  -5    1.71    0.13
  -2  -1  -5    2.13    0.27
   2  -1   5    1.97    0.15
  -2  -1  -5    1.87    0.72
  -2  -1  -5    1.80    0.14
  -2  -1  -5    1.87    0.14
  -2  -1  -5    2.37    0.83
  -2  -1  -5    1.94    0.57
  -2  -1  -5    2.12    0.53
   2  -1   5    1.67    0.27
   2  -1   5    1.65    0.33
   2  -1   5    3.23    1.06
   2  -1   5    1.58    0.14
   2  -1   5    1.90    0.15
   2   1   5    1.90    0.86
  -2   1  -5    1.95    0.28
   2   1   5    1.80    0.21
   2   1   5    1.85    0.17
  -2   1  -5    2.05    0.15
   2   1   5    2.33    0.82
  -2   1  -5    2.02    0.21
  -2   1  -5    1.68    0.64
   2   1   5    1.85    0.26
  -2   1  -5    1.27    0.48
  -2   1  -5    1.89    0.71
   2   1   5    2.12    0.16
  -2   1  -5    2.25    0.15
   2   1   5    2.03    0.18
  -2   1  -5    2.01    0.14
  -2   1  -5    1.94    0.24
   2   1   5    2.98    0.95
  -2   1  -5    2.00    0.14
  -2   1  -5    1.85    0.15
  -3  -1  -5   12.98    0.69
   3  -1   5   14.85    2.12
   3  -1   5   13.02    1.85
  -3  -1  -5   10.83    1.85
   3  -1   5   14.20    0.72
   3  -1   5   13.44    0.69
   3  -1   5   13.14    0.68
  -3  -1  -5   13.63    0.70
   3  -1   5   13.46    0.70
   3  -1   5   13.14    0.99
  -3  -1  -5   13.10    0.69
   3  -1   5   12.18    2.22
  -3  -1  -5   14.05    0.96
  -3  -1  -5   10.39    1.66
   3  -1   5   13.56    0.72
   3  -1   5   13.79    1.11
   3  -1   5   17.49    2.77
  -3  -1  -5   13.56    0.72
   3  -1   5   13.98    0.99
  -3  -1  -5   13.35    0.70
  -3   1  -5   13.67    0.71
  -3   1  -5   12.45    1.72
  -3   1  -5   10.65    1.95
  -3   1  -5   13.11    0.86
  -3   1  -5   14.12    0.71
  -3   1  -5   14.31    0.70
  -3   1  -5   11.86    0.68
  -3   1  -5   11.55    0.69
   3   1   5   11.80    2.28
   3   1   5   14.54    0.73
  -3   1  -5   11.38    0.68
  -3   1  -5   13.30    0.70
   3   1   5   14.01    0.76
   3   1   5   16.23    1.72
   3   1   5   15.33    1.92
  -3   1  -5   12.08    1.82
  -3   1  -5   14.46    0.99
   3   1   5   16.31    2.05
  -3   1  -5   13.16    0.71
  -4  -1  -5   44.60    2.20
  -4  -1  -5   45.06    2.56
  -4  -1  -5   46.21    2.19
   4  -1   5   46.30    2.23
   4  -1   5   42.29    5.16
  -4  -1  -5   45.09    2.20
   4  -1   5   46.26    2.22
   4  -1   5   44.46    2.18
   4  -1   5   45.83    2.20
   4  -1   5   45.84    2.76
   4  -1   5   52.29    5.05
   4  -1   5   44.54    2.17
  -4  -1  -5   46.20    2.74
   4  -1   5   44.23    2.62
   4  -1   5   50.40    4.70
   4  -1   5   50.68    4.35
  -4  -1  -5   43.89    2.20
  -4  -1  -5   45.12    2.18
  -4  -1  -5   46.82    2.21
   4  -1   5   42.92    2.56
  -4   1  -5   43.26    2.22
  -4   1  -5   43.57    2.21
  -4   1  -5   47.47    2.67
   4   1   5   39.29    4.36
  -4   1  -5   41.89    4.63
   4   1   5   43.43    3.85
  -4   1  -5   47.12    2.23
   4   1   5   44.62    2.27
  -4   1  -5   40.16    2.17
  -4   1  -5   42.55    2.18
  -4   1  -5   45.35    4.30
   4   1   5   44.51    2.22
  -4   1  -5   44.31    2.45
  -4   1  -5   38.84    2.18
  -4   1  -5   47.37    2.21
  -4   1  -5   36.43    4.92
  -4   1  -5   43.64    2.21
   5  -1   5   11.92    0.72
   5  -1   5   12.48    0.66
  -5  -1  -5   12.74    0.72
  -5  -1  -5   12.55    0.67
  -5  -1  -5   13.37    1.24
  -5  -1  -5   13.45    0.71
  -5  -1  -5   13.89    0.72
   5  -1   5   14.37    1.55
  -5  -1  -5   13.62    1.11
  -5  -1  -5   13.43    0.70
   5  -1   5   12.46    0.66
   5  -1   5   12.41    0.68
   5  -1   5   12.74    0.72
  -5  -1  -5   13.43    0.68
  -5  -1  -5   12.95    0.70
  -5   1  -5   13.03    0.70
  -5   1  -5   11.55    0.65
   5   1   5   11.00    0.68
   5   1   5   12.44    0.64
  -5   1  -5   14.45    1.50
   5   1   5   12.89    0.77
  -5   1  -5   12.69    0.70
  -5   1  -5   11.79    0.71
  -5   1  -5   10.98    0.67
  -5   1  -5   12.02    0.71
  -5   1  -5   11.32    0.65
   5   1   5   11.69    0.73
  -6  -1  -5   79.47    3.73
  -6  -1  -5   81.17    3.78
   6  -1   5   73.68    3.69
  -6  -1  -5   78.04    3.76
  -6  -1  -5   77.08    3.75
  -6  -1  -5   73.91    3.73
  -6  -1  -5   72.31    3.76
  -6  -1  -5   77.52    3.72
  -6  -1  -5   75.26    3.79
   6   1   5   73.61    3.72
   6   1   5   82.27    3.73
   6   1   5   84.83    3.70
  -6   1  -5   70.95    3.69
  -6   1  -5   77.99    3.76
  -6   1  -5   71.85    3.70
  -7  -1  -5   35.29    1.76
  -7  -1  -5   33.60    1.73
  -7  -1  -5   34.76    1.75
  -7  -1  -5   33.38    1.79
  -7  -1  -5   34.52    1.72
   7   1   5   36.67    1.73
   7   1   5   34.26    1.68
   7   1   5   33.30    1.71
  -7   1  -5   32.10    1.68
  -7   1  -5   35.29    1.76
  -8  -1  -5    6.69    0.44
  -8  -1  -5    7.25    0.43
  -8  -1  -5    6.88    0.42
  -8  -1  -5    6.75    0.47
  -8  -1  -5    6.78    0.46
   8   1   5    7.04    0.42
  -8   1  -5    7.89    0.50
   9  -1   5    1.40    0.12
  -9  -1  -5    1.68    0.13
  -9  -1  -5    1.82    0.17
   9   1   5    1.81    0.12
   9   1   5    1.38    0.15
 -10  -2   5   15.47    0.80
 -10  -2   5   16.18    0.80
  10   2  -5   15.41    0.80
  -9  -2   5    3.36    0.39
  -9  -2   5    2.75    0.22
  -9  -2   5    2.96    0.22
  -9  -2   5    2.77    0.24
  -9  -2   5    2.67    0.21
   9   2  -5    2.95    0.20
   9   2  -5    2.72    0.22
   9   2  -5    2.74    0.18
   9   2  -5    2.81    0.22
   9   2  -5    2.78    0.18
  -8  -2   5   19.07    1.09
  -8  -2   5   19.78    1.03
  -8  -2   5   19.10    1.01
  -8  -2   5   19.40    1.03
   8   2  -5   18.63    1.05
   8   2  -5   18.59    1.01
   8   2  -5   18.38    0.98
   8   2  -5   21.35    0.99
   8   2  -5   19.62    1.04
   8   2  -5   18.57    0.96
   7  -2  -5   12.53    0.69
   7  -2  -5   11.77    0.72
  -7  -2   5   13.39    0.72
  -7  -2   5   13.28    0.75
  -7  -2   5   13.80    0.80
  -7  -2   5   12.45    0.73
  -7  -2   5   13.26    0.72
   7   2  -5   13.02    0.67
   7   2  -5   12.81    0.75
   7   2  -5   12.80    0.67
   7   2  -5   12.38    0.67
   7   2  -5   12.29    0.68
   7   2  -5   12.94    0.73
   7   2  -5   12.72    0.73
  -6  -2   5    8.02    0.46
  -6  -2   5    7.48    0.45
   6  -2  -5    7.26    0.44
   6  -2  -5    6.77    0.50
  -6  -2   5    8.15    0.48
   6  -2  -5    7.32    0.46
   6  -2  -5    7.19    0.48
  -6  -2   5    8.53    0.52
  -6  -2   5    7.53    0.45
   6   2  -5    7.65    0.42
   6   2  -5    7.42    0.44
  -6   2   5    7.61    0.49
   6   2  -5    7.73    0.42
   6   2  -5    7.88    0.50
   6   2  -5    7.36    0.48
   6   2  -5    7.27    0.48
   6   2  -5    7.50    0.42
   6   2  -5    7.59    0.47
  -5  -2   5   12.39    1.10
  -5  -2   5   11.44    0.65
  -5  -2   5   11.34    0.63
  -5  -2   5   11.24    0.62
   5  -2  -5   10.99    0.63
   5  -2  -5   11.50    0.64
   5  -2  -5   12.47    1.04
   5  -2  -5   10.86    0.67
  -5  -2   5   12.54    1.02
   5  -2  -5   10.93    0.65
  -5  -2   5   11.80    0.63
  -5  -2   5   11.87    0.68
   5  -2  -5   11.15    0.66
  -5   2   5   10.71    0.98
   5   2  -5   11.96    0.67
   5   2  -5   13.71    0.74
   5   2  -5   11.09    0.65
   5   2  -5   12.68    0.63
  -4  -2   5  149.99    7.69
   4  -2  -5  159.27    7.28
  -4  -2   5  141.19    8.95
  -4  -2   5  152.65    7.25
   4  -2  -5  151.25    7.27
  -4  -2   5  159.33    7.26
  -4  -2   5  147.45    7.29
   4  -2  -5  146.54    7.29
   4  -2  -5  153.42    7.74
  -4   2   5  151.40    7.31
  -4   2   5  137.84    7.69
   4   2  -5  158.24    7.30
  -4   2   5  152.35    7.27
  -4   2   5  157.69   10.06
  -4   2   5  153.58    9.24
   4   2  -5  152.88    7.29
  -4   2   5  159.24   12.35
  -4   2   5  152.83   11.15
   3  -2  -5   94.66    4.23
  -3  -2   5   88.79    4.22
  -3  -2   5   88.98    4.49
  -3  -2   5   75.57    5.26
   3  -2  -5   89.35    4.77
  -3  -2   5   81.98    5.63
  -3  -2   5   88.09    5.36
  -3  -2   5   85.21    4.54
  -3  -2   5   86.29    4.20
  -3  -2   5   96.37    5.40
   3  -2  -5   88.92    4.26
  -3  -2   5   87.44    4.18
  -3  -2   5   88.32    5.05
  -3  -2   5   91.52    5.73
   3  -2  -5   90.21    4.59
   3  -2  -5   87.27    4.23
   3  -2  -5   86.70    4.20
  -3   2   5   83.78    4.60
  -3   2   5   87.17    6.11
   3   2  -5   85.78    4.23
  -3   2   5   90.37    4.24
  -3   2   5   86.73    6.19
  -3   2   5   84.81    4.21
   3   2  -5   87.92    4.20
  -3   2   5   80.78    6.63
  -3   2   5   87.28    5.61
   2  -2  -5  178.66    8.46
  -2  -2   5  144.56    9.30
  -2  -2   5  178.56    8.95
   2  -2  -5  180.09    8.12
  -2  -2   5  165.04    8.09
  -2  -2   5  163.57    8.41
   2  -2  -5  171.29    8.43
   2  -2  -5  180.37    8.61
  -2  -2   5  171.77    8.10
  -2  -2   5  176.67    9.28
  -2  -2   5  170.03    8.30
  -2  -2   5  164.77    9.68
  -2  -2   5  182.71    9.54
  -2  -2   5  162.91   10.02
  -2   2   5  174.65    8.15
   2   2  -5  172.48    8.13
   2   2  -5  175.66    8.15
  -2   2   5  164.43    9.72
  -2   2   5  152.09    9.92
   1  -2  -5  142.80    7.08
   1  -2  -5  150.75    7.38
  -1  -2   5  154.43    8.35
  -1  -2   5  156.54    7.38
   1  -2  -5  158.76    7.08
  -1  -2   5  150.74    7.08
  -1  -2   5  156.72    7.07
  -1  -2   5  143.91    7.07
  -1  -2   5  155.53    7.95
  -1  -2   5  152.12    8.26
  -1  -2   5  146.11    7.06
  -1  -2   5  154.90    8.08
   1  -2  -5  157.61    7.35
   1   2  -5  161.84    7.11
   1   2  -5  153.64    7.10
  -1   2   5  133.47    8.40
  -1   2   5  131.51    8.31
  -1   2   5  151.32    7.12
   1   2  -5  117.24    7.84
   1   2  -5  156.35    7.11
  -1   2   5  141.97    8.06
  -1   2   5  132.65    8.14
   0  -2   5  172.28    9.63
   0  -2  -5  191.33    8.61
   0  -2  -5  184.81    8.26
   0  -2   5  185.54    9.34
   0  -2  -5  175.75    8.45
   0  -2  -5  171.10    8.29
   0  -2  -5  186.06    8.56
   0  -2   5  173.22    8.25
   0  -2   5  176.82    9.44
   0  -2   5  170.52    9.66
   0  -2   5  181.10    8.56
   0   2   5  180.88   10.26
   0   2  -5  175.01    8.29
   0   2   5  172.51    8.32
   0   2   5  174.68    9.60
   0   2  -5  173.20    9.33
   0   2  -5  147.92    9.03
   0   2   5  176.77    9.24
   0   2   5  158.41    9.35
   0   2  -5  150.81    9.46
   0   2   5  151.96    9.53
   0   2   5  172.99    8.65
   0   2  -5  183.16    8.30
   0   2   5  173.57    9.52
   1  -2   5   80.50    5.20
   1  -2   5   81.76    5.47
  -1  -2  -5   67.99    4.80
  -1  -2  -5   79.68    3.80
  -1  -2  -5   81.05    4.80
   1  -2   5   76.73    4.07
   1  -2   5   80.65    3.77
  -1  -2  -5   85.41    3.78
   1  -2   5   81.04    5.58
   1  -2   5   75.87    4.90
  -1  -2  -5   83.48    5.20
   1  -2   5   79.40    3.79
   1  -2   5   78.43    3.80
  -1  -2  -5   77.20    3.77
  -1  -2  -5   73.96    5.15
  -1  -2  -5   76.08    3.78
   1  -2   5   81.42    4.43
   1  -2   5   81.62    3.79
  -1  -2  -5   78.07    4.09
  -1   2  -5   84.62    3.82
   1   2   5   75.04    4.68
  -1   2  -5   84.30    3.81
  -1   2  -5   71.81    3.75
   1   2   5   88.36    5.81
   1   2   5   81.42    5.12
   1   2   5   72.03    4.09
  -1   2  -5   65.50    5.01
   1   2   5   81.26    3.86
   1   2   5   83.73    3.83
  -1   2  -5   68.10    4.81
  -1   2  -5   82.97    3.81
  -2  -2  -5    0.32    0.15
   2  -2   5    0.46    0.21
   2  -2   5    0.48    0.08
  -2  -2  -5    0.31    0.46
  -2  -2  -5    0.38    0.06
  -2  -2  -5    0.32    0.06
  -2  -2  -5    1.08    0.77
   2  -2   5    0.39    0.08
   2  -2   5    0.42    0.09
   2  -2   5    0.37    0.07
  -2  -2  -5    0.42    0.73
   2  -2   5    0.45    0.23
  -2  -2  -5    0.32    0.07
   2  -2   5    0.41    0.08
   2   2   5    1.10    0.72
  -2   2  -5    0.59    0.89
  -2   2  -5    0.36    0.08
  -2   2  -5    0.35    0.08
  -2   2  -5    0.30    0.08
  -2   2  -5   -0.05    0.42
  -2   2  -5    0.36    0.06
   2   2   5    0.31    0.08
   2   2   5    0.24    0.07
  -3  -2  -5   46.40    2.05
  -3  -2  -5   35.72    2.05
   3  -2   5   43.51    2.06
   3  -2   5   43.47    2.04
  -3  -2  -5   35.99    2.15
   3  -2   5   42.59    2.04
   3  -2   5   41.19    2.77
   3  -2   5   42.51    2.45
  -3  -2  -5   42.71    2.03
   3  -2   5   43.14    2.07
  -3  -2  -5   42.60    2.41
   3  -2   5   40.38    2.54
   3  -2   5   42.97    2.08
  -3  -2  -5   40.84    2.04
  -3  -2  -5   35.39    3.04
  -3  -2  -5   34.40    3.44
  -3  -2  -5   42.67    2.08
   3   2   5   41.66    2.10
   3   2   5   45.40    2.06
  -3   2  -5   42.14    2.06
   3   2   5   37.51    3.25
   3   2   5   45.39    3.94
   3   2   5   42.66    2.14
  -3   2  -5   44.53    2.08
  -4  -2  -5   12.52    0.68
  -4  -2  -5   12.60    0.68
   4  -2   5   12.86    0.69
   4  -2   5   12.97    1.14
  -4  -2  -5   12.62    0.70
   4  -2   5   12.49    0.67
  -4  -2  -5   12.98    1.22
  -4  -2  -5   12.75    0.67
  -4  -2  -5   12.69    0.69
   4  -2   5   12.63    0.71
  -4  -2  -5   12.63    1.01
   4  -2   5   13.07    0.73
   4  -2   5   13.21    0.70
   4  -2   5   12.28    1.07
  -4  -2  -5   12.58    0.67
   4   2   5   12.00    0.64
  -4   2  -5   13.05    0.71
   4   2   5   12.62    0.78
   4   2   5   12.93    0.69
  -4   2  -5   12.04    0.69
   4   2   5   11.52    0.68
   4   2   5   12.07    0.73
   4   2   5   12.03    0.69
  -4   2  -5   12.33    0.69
   5  -2   5   34.40    1.73
  -5  -2  -5   27.35    1.69
  -5  -2  -5   33.49    1.72
   5  -2   5   34.02    1.67
  -5  -2  -5   34.33    1.67
   5  -2   5   34.61    1.66
   5  -2   5   29.85    2.34
  -5  -2  -5   33.94    1.69
  -5  -2  -5   34.08    1.67
  -5  -2  -5   34.62    1.69
  -5  -2  -5   33.32    1.70
   5  -2   5   32.98    1.72
   5  -2   5   34.17    1.68
   5   2   5   32.24    1.68
   5   2   5   33.94    1.80
   5   2   5   32.54    1.68
   5   2   5   34.86    1.68
  -5   2  -5   31.75    1.69
   5   2   5   33.02    1.63
  -5   2  -5   35.71    1.70
   5   2   5   34.07    1.68
  -6  -2  -5    6.24    0.41
   6  -2   5    6.79    0.40
   6  -2   5    6.31    0.40
   6  -2   5    6.41    0.42
  -6  -2  -5    6.59    0.40
  -6  -2  -5    6.75    0.45
  -6  -2  -5    7.04    0.41
  -6  -2  -5    6.02    0.46
   6  -2   5    6.54    0.40
  -6  -2  -5    6.76    0.44
  -6  -2  -5    6.74    0.45
  -6   2  -5    6.22    0.43
   6   2   5    6.52    0.41
   6   2   5    7.08    0.55
   6   2   5    6.96    0.37
   6   2   5    6.46    0.41
   6   2   5    7.04    0.42
   6   2   5    6.86    0.42
  -7  -2  -5    1.77    0.18
  -7  -2  -5    1.71    0.30
   7  -2   5    1.61    0.14
  -7  -2  -5    1.66    0.16
  -7  -2  -5    1.70    0.16
  -7  -2  -5    1.56    0.19
   7   2   5    1.74    0.17
  -7   2  -5    1.56    0.18
   7   2   5    1.53    0.18
   7   2   5    1.68    0.17
   7   2   5    1.65    0.18
   7   2   5    2.08    0.27
   7   2   5    1.33    0.19
  -8  -2  -5    2.73    0.25
  -8  -2  -5    2.93    0.28
  -8  -2  -5    2.74    0.22
  -8  -2  -5    2.74    0.21
  -8  -2  -5    2.70    0.21
  -8  -2  -5    2.71    0.20
   8   2   5    2.51    0.21
   8   2   5    2.76    0.18
   8   2   5    2.91    0.21
  -8   2  -5    2.69    0.22
   8   2   5    2.79    0.22
   8   2   5    2.79    0.20
  -9  -2  -5    1.51    0.12
  -9  -2  -5    1.51    0.12
  -9  -2  -5    1.18    0.12
   9   2   5    1.34    0.09
   9   2   5    1.42    0.12
  -9  -3   5    0.20    0.07
  -9  -3   5    0.16    0.05
   9   3  -5    0.17    0.04
   9   3  -5    0.16    0.05
   9   3  -5    0.21    0.07
   9   3  -5    0.15    0.06
   9   3  -5    0.19    0.06
   8  -3  -5    3.85    0.25
  -8  -3   5    2.94    0.24
  -8  -3   5    3.90    0.26
  -8  -3   5    3.91    0.27
   8   3  -5    3.53    0.27
   8   3  -5    3.74    0.27
   8   3  -5    3.67    0.26
   8   3  -5    3.58    0.22
   8   3  -5    3.52    0.22
   8   3  -5    3.38    0.25
  -7  -3   5   15.94    0.83
   7  -3  -5   14.19    0.93
   7  -3  -5   14.90    0.83
  -7  -3   5   17.12    1.04
   7  -3  -5   14.63    0.90
   7  -3  -5   14.21    0.84
  -7  -3   5   16.84    0.84
  -7   3   5   14.77    0.80
   7   3  -5   15.92    0.83
   7   3  -5   15.63    0.89
   7   3  -5   15.64    0.79
  -7   3   5   14.69    0.80
  -6  -3   5   28.57    1.41
  -6  -3   5   25.83    1.32
  -6  -3   5   27.46    1.36
  -6  -3   5   26.96    1.33
   6  -3  -5   27.44    1.34
   6  -3  -5   24.68    1.41
   6  -3  -5   26.58    1.34
   6   3  -5   26.07    1.29
   6   3  -5   25.03    1.36
  -6   3   5   24.58    1.28
   6   3  -5   24.63    1.34
   6   3  -5   26.12    1.29
  -6   3   5   27.02    1.32
  -6   3   5   25.53    1.31
   6   3  -5   25.65    1.29
   6   3  -5   24.27    1.31
  -6   3   5   25.31    1.31
   6   3  -5   24.82    1.37
   5  -3  -5   80.07    3.86
  -5  -3   5   80.38    3.88
   5  -3  -5   79.68    3.87
   5  -3  -5   78.85    3.83
   5  -3  -5   81.27    3.84
  -5  -3   5   82.57    3.84
  -5  -3   5   83.63    3.82
   5  -3  -5   75.10    3.85
   5   3  -5   79.12    3.88
   5   3  -5   71.33    3.78
   5   3  -5   80.15    3.81
   5   3  -5   80.01    3.80
  -5   3   5   74.57    3.79
   5   3  -5   76.42    3.88
   5   3  -5   78.46    3.88
   5   3  -5   83.00    3.81
   5   3  -5   71.70    3.78
  -5   3   5   76.47    3.89
  -5   3   5   88.53    3.84
   5   3  -5   77.28    3.86
   5   3  -5   81.26    3.80
   5   3  -5   75.13    3.84
   4  -3  -5    6.86    0.44
   4  -3  -5    6.77    0.42
   4  -3  -5    6.69    0.41
   4  -3  -5    6.88    0.41
  -4  -3   5    7.10    0.38
  -4  -3   5    7.23    0.40
  -4  -3   5    6.83    0.42
  -4  -3   5    7.95    0.80
  -4  -3   5    7.09    0.38
   4  -3  -5    7.02    0.47
  -4  -3   5    6.01    0.66
   4   3  -5    6.77    0.38
   4   3  -5    6.77    0.44
   4   3  -5    6.03    0.44
  -4   3   5    6.58    0.52
   4   3  -5    6.53    0.44
   4   3  -5    6.39    0.44
  -4   3   5    7.35    0.41
   4   3  -5    6.50    0.39
   4   3  -5    6.59    0.38
  -4   3   5    6.58    0.51
   4   3  -5    6.87    0.38
   4   3  -5    6.01    0.37
  -4   3   5    6.69    0.38
   4   3  -5    6.40    0.43
  -4   3   5    6.74    0.41
   4   3  -5    6.00    0.37
  -3  -3   5   40.47    1.90
  -3  -3   5   39.27    1.94
   3  -3  -5   39.57    2.00
  -3  -3   5   40.55    1.90
   3  -3  -5   38.37    1.93
   3  -3  -5   41.18    2.42
   3  -3  -5   38.98    1.96
  -3  -3   5   43.13    2.43
   3  -3  -5   38.91    1.93
   3  -3  -5   39.65    1.94
  -3   3   5   38.75    2.08
  -3   3   5   35.16    1.90
  -3   3   5   40.80    1.94
   3   3  -5   39.79    1.98
   3   3  -5   38.52    1.98
   3   3  -5   35.74    1.90
   3   3  -5   37.87    1.91
   3   3  -5   37.93    1.97
   3   3  -5   38.46    1.94
  -3   3   5   37.95    1.98
   3   3  -5   41.31    1.93
  -3   3   5   36.33    1.96
   3   3  -5   37.28    1.97
   3   3  -5   35.72    1.90
   3   3  -5   44.24    1.94
  -3   3   5   41.78    2.00
   2  -3  -5   24.26    1.20
   2  -3  -5   24.17    1.57
   2  -3  -5   23.14    1.18
   2  -3  -5   23.84    1.18
   2  -3  -5   25.76    1.24
  -2  -3   5   23.40    1.16
  -2  -3   5   23.28    1.15
  -2  -3   5   23.26    1.18
  -2  -3   5   24.67    1.55
   2  -3  -5   25.54    1.19
   2  -3  -5   22.61    1.56
   2   3  -5   22.65    1.21
  -2   3   5   22.75    1.22
  -2   3   5   23.30    1.19
  -2   3   5   22.32    1.23
  -2   3   5   19.76    2.39
   2   3  -5   21.88    1.22
   2   3  -5   22.96    1.23
  -2   3   5   26.77    2.93
  -1  -3   5   52.37    2.50
   1  -3  -5   49.40    2.50
   1  -3  -5   53.59    2.86
  -1  -3   5   52.26    2.48
   1  -3  -5   49.27    2.48
  -1  -3   5   49.70    2.84
  -1  -3   5   50.82    2.48
   1  -3  -5   54.05    2.50
   1  -3  -5   54.06    2.96
   1  -3  -5   45.58    2.97
  -1  -3   5   46.81    2.48
  -1   3   5   54.06    2.58
  -1   3   5   42.95    4.79
  -1   3   5   52.87    2.56
   1   3  -5   53.82    2.56
  -1   3   5   53.92    2.51
   1   3  -5   51.70    2.54
   1   3  -5   53.28    2.54
   0  -3  -5   13.60    0.99
   0  -3  -5   17.52    1.21
   0  -3  -5   14.17    0.79
   0  -3  -5   16.50    0.80
   0  -3   5   15.56    0.80
   0  -3   5   16.23    0.79
   0  -3   5   15.42    1.11
   0  -3   5   14.43    0.81
   0  -3  -5   15.85    0.91
   0  -3   5   16.47    0.82
   0  -3  -5   13.94    1.08
   0  -3   5   15.36    0.83
   0  -3  -5   15.30    0.79
   0  -3  -5   16.58    0.83
   0   3   5   11.86    2.54
   0   3   5   15.86    0.88
   0   3  -5   15.85    0.86
   0   3   5   13.29    2.15
   0   3   5   16.94    0.88
   0   3  -5   15.94    0.85
   0   3   5   16.59    2.11
   0   3  -5   17.06    0.86
   0   3   5   16.91    0.82
   1  -3   5   58.74    2.84
  -1  -3  -5   56.13    3.24
   1  -3   5   58.20    2.82
   1  -3   5   55.69    3.41
   1  -3   5   58.42    2.80
  -1  -3  -5   63.13    2.81
   1  -3   5   55.03    3.18
   1  -3   5   58.46    2.82
  -1  -3  -5   56.28    2.79
  -1   3  -5   54.22    2.84
  -1   3  -5   57.67    2.86
   1   3   5   58.18    2.89
   1   3   5   57.30    2.90
   1   3   5   61.28    2.83
  -1   3  -5   59.51    2.87
  -1   3  -5   58.11    2.86
  -2  -3  -5   15.05    0.83
  -2  -3  -5   15.94    0.85
   2  -3   5   16.23    1.37
   2  -3   5   17.92    1.21
   2  -3   5   16.60    0.84
  -2  -3  -5   15.42    0.82
   2  -3   5   16.73    0.84
  -2  -3  -5   17.20    0.83
   2  -3   5   16.66    0.88
   2  -3   5   17.11    0.86
  -2  -3  -5   15.31    1.20
   2  -3   5   16.36    0.86
   2   3   5   16.81    0.84
   2   3   5   15.57    0.93
  -2   3  -5   16.60    0.90
   2   3   5   16.17    0.87
   2   3   5   15.47    0.85
  -2   3  -5   15.71    0.86
   2   3   5   15.99    0.89
   2   3   5   16.77    0.92
  -2   3  -5   16.50    0.90
   2   3   5   16.25    0.86
   2   3   5   17.04    0.86
  -2   3  -5   15.07    0.82
  -2   3  -5   15.96    0.83
  -2   3  -5   15.08    0.82
  -2   3  -5   15.81    0.82
  -2   3  -5   16.46    0.87
  -2   3  -5   16.12    0.93
   3  -3   5    2.78    0.24
  -3  -3  -5    3.00    0.20
   3  -3   5    3.14    0.22
   3  -3   5    3.86    0.59
  -3  -3  -5    3.33    0.22
  -3  -3  -5    3.22    0.24
   3  -3   5    3.18    0.26
   3  -3   5    3.19    0.24
  -3  -3  -5    2.96    0.22
   3  -3   5    3.21    0.23
   3  -3   5    3.10    0.59
   3   3   5    2.87    0.28
   3   3   5    3.07    0.30
   3   3   5    2.98    0.24
  -3   3  -5    3.02    0.24
   3   3   5    2.55    0.20
  -3   3  -5    2.90    0.21
  -3   3  -5    2.94    0.24
  -3   3  -5    2.98    0.20
  -3   3  -5    3.46    0.30
  -3   3  -5    2.81    0.26
  -3   3  -5    2.88    0.25
   3   3   5    3.32    0.22
   3   3   5    3.03    0.23
   3   3   5    3.08    0.23
   3   3   5    3.12    0.26
   3   3   5    3.02    0.23
   4  -3   5    3.28    0.25
   4  -3   5    3.06    0.27
   4  -3   5    3.21    0.27
  -4  -3  -5    3.35    0.23
  -4  -3  -5    3.52    0.26
  -4  -3  -5    3.43    0.25
   4  -3   5    3.49    0.29
  -4  -3  -5    3.53    0.23
  -4  -3  -5    3.38    0.25
   4  -3   5    3.39    0.24
   4   3   5    3.02    0.20
  -4   3  -5    3.50    0.26
  -4   3  -5    3.25    0.21
   4   3   5    3.18    0.22
   4   3   5    3.25    0.25
   4   3   5    3.15    0.30
   4   3   5    3.22    0.34
   4   3   5    3.33    0.25
   4   3   5    3.78    0.26
  -4   3  -5    3.35    0.26
  -4   3  -5    3.10    0.29
   4   3   5    3.41    0.26
   4   3   5    3.33    0.26
  -4   3  -5    3.00    0.27
   4   3   5    3.04    0.26
  -4   3  -5    3.32    0.23
   5  -3   5    3.59    0.32
  -5  -3  -5    3.67    0.26
   5  -3   5    4.53    0.43
   5  -3   5    3.59    0.29
  -5  -3  -5    4.01    0.29
  -5  -3  -5    3.66    0.29
   5  -3   5    3.58    0.26
   5  -3   5    3.38    0.26
  -5  -3  -5    4.08    0.26
  -5   3  -5    3.79    0.28
  -5   3  -5    3.66    0.24
   5   3   5    3.48    0.28
   5   3   5    3.36    0.24
   5   3   5    2.97    0.26
  -5   3  -5    3.59    0.28
   5   3   5    3.65    0.26
   5   3   5    3.40    0.27
   5   3   5    3.80    0.28
   5   3   5    3.33    0.41
   5   3   5    3.56    0.22
  -6  -3  -5   43.19    2.51
  -6  -3  -5   55.42    2.53
  -6  -3  -5   50.79    2.64
   6  -3   5   49.19    2.57
   6  -3   5   50.86    2.49
  -6  -3  -5   53.93    2.49
  -6  -3  -5   54.16    2.50
   6  -3   5   49.24    2.48
   6  -3   5   50.15    2.50
   6  -3   5   49.46    2.58
   6   3   5   52.32    2.49
   6   3   5   50.29    2.50
   6   3   5   49.65    2.50
   6   3   5   58.21    2.52
  -6   3  -5   48.62    2.51
   6   3   5   49.61    2.52
   6   3   5   53.49    2.53
  -6   3  -5   43.34    2.46
  -7  -3  -5    0.28    0.08
  -7  -3  -5    0.30    0.10
  -7  -3  -5    0.28    0.10
   7  -3   5    0.21    0.06
   7  -3   5    0.17    0.05
  -7  -3  -5    0.26    0.08
  -7  -3  -5    0.18    0.07
  -7  -3  -5    0.26    0.08
   7   3   5    0.24    0.07
  -7   3  -5    0.23    0.08
   7   3   5    0.24    0.08
   7   3   5    0.28    0.09
   7   3   5    0.25    0.06
   7   3   5    0.18    0.05
   7   3   5    0.12    0.08
   7   3   5    0.31    0.09
  -8  -3  -5    2.90    0.21
  -8  -3  -5    3.39    0.23
  -8  -3  -5    3.73    0.23
   8   3   5    3.47    0.21
   8   3   5    3.40    0.21
   8   3   5    2.92    0.21
   8   3   5    3.13    0.19
   8   3   5    3.62    0.23
  -9  -3  -5   11.72    0.57
  -9   3  -5   11.69    0.54
   9   3   5    9.68    0.55
  -8  -4   5    6.14    0.45
  -8  -4   5    6.65    0.40
   8   4  -5    6.26    0.40
   8   4  -5    7.75    0.40
  -8   4   5    7.40    0.38
   8   4  -5    7.52    0.36
   8   4  -5    7.16    0.36
  -7  -4   5    0.16    0.06
   7  -4  -5    0.31    0.09
   7  -4  -5    0.23    0.08
  -7  -4   5    0.22    0.08
   7   4  -5    0.26    0.08
   7   4  -5    0.27    0.07
  -7   4   5    0.13    0.08
  -7   4   5    0.31    0.08
  -7   4   5    0.19    0.08
   7   4  -5    0.27    0.09
  -6  -4   5    6.92    0.50
  -6  -4   5    7.26    0.46
   6  -4  -5    8.40    0.49
  -6  -4   5    6.93    0.48
   6  -4  -5    8.93    0.49
   6  -4  -5    8.63    0.49
   6  -4  -5    7.58    0.54
  -6   4   5    8.66    0.46
  -6   4   5    8.43    0.46
   6   4  -5    8.75    0.51
  -6   4   5    8.46    0.44
   6   4  -5    8.18    0.47
   6   4  -5    8.72    0.45
   6   4  -5    8.24    0.50
   6   4  -5    8.68    0.45
   6   4  -5    8.66    0.45
  -5  -4   5   14.98    0.88
  -5  -4   5   14.63    0.95
   5  -4  -5   17.24    0.92
   5  -4  -5   17.57    0.99
   5  -4  -5   18.26    0.91
  -5  -4   5   14.80    0.89
  -5  -4   5   15.99    0.93
   5  -4  -5   17.74    0.92
   5   4  -5   17.81    0.87
   5   4  -5   17.08    0.93
   5   4  -5   16.08    0.92
  -5   4   5   16.50    0.99
  -5   4   5   17.53    0.89
   5   4  -5   17.56    0.87
   5   4  -5   18.17    0.94
  -5   4   5   17.59    0.88
   5   4  -5   17.51    0.94
   5   4  -5   17.41    0.87
  -5   4   5   17.53    0.88
  -5   4   5   16.79    0.86
   4  -4  -5    4.20    0.28
   4  -4  -5    4.03    0.29
   4  -4  -5    4.25    0.31
  -4  -4   5    3.34    0.27
  -4  -4   5    3.53    0.25
   4  -4  -5    4.52    0.30
  -4  -4   5    3.54    0.27
  -4   4   5    3.81    0.30
   4   4  -5    4.18    0.26
   4   4  -5    3.55    0.24
   4   4  -5    3.96    0.31
   4   4  -5    3.96    0.30
  -4   4   5    4.00    0.28
   4   4  -5    3.64    0.24
  -4   4   5    3.94    0.25
   4   4  -5    3.85    0.25
  -4   4   5    3.83    0.27
  -4   4   5    3.89    0.27
  -4   4   5    4.22    0.28
  -4   4   5    4.15    0.38
   4   4  -5    4.16    0.26
   4   4  -5    3.81    0.27
   3  -4  -5   26.23    1.30
   3  -4  -5   25.58    1.33
   3  -4  -5   26.82    1.31
   3  -4  -5   26.57    1.37
  -3   4   5   25.92    1.46
  -3   4   5   26.87    1.30
  -3   4   5   24.99    1.33
   3   4  -5   23.08    1.51
  -3   4   5   24.94    1.37
   3   4  -5   26.05    1.27
   3   4  -5   24.03    1.26
   3   4  -5   24.69    1.36
   3   4  -5   25.03    1.33
   3   4  -5   26.06    1.27
  -3   4   5   25.22    1.27
   3   4  -5   24.04    1.26
  -3   4   5   25.53    1.29
  -3   4   5   24.97    1.30
  -3   4   5   25.63    1.29
   3   4  -5   25.69    1.27
   2  -4  -5   30.50    1.52
   2  -4  -5   29.78    1.48
  -2  -4   5   30.05    1.46
  -2  -4   5   26.75    1.40
   2  -4  -5   27.78    1.44
   2  -4  -5   29.93    1.45
   2  -4  -5   29.82    1.46
  -2   4   5   28.70    1.44
   2   4  -5   28.68    1.42
  -2   4   5   29.33    1.43
   2   4  -5   28.86    1.42
   2   4  -5   28.05    1.49
  -2   4   5   28.25    1.43
  -2   4   5   28.52    1.52
  -2   4   5   29.65    1.62
   2   4  -5   26.26    1.52
   2   4  -5   28.24    1.43
   2   4  -5   28.46    1.47
   2   4  -5   25.43    1.43
  -2   4   5   30.07    1.45
  -2   4   5   29.83    1.46
   2   4  -5   29.80    1.43
   2   4  -5   29.80    1.43
   2   4  -5   29.13    1.51
  -2   4   5   28.23    1.44
   2   4  -5   29.07    1.49
  -2   4   5   29.09    1.50
   2   4  -5   28.06    1.52
   1  -4  -5   29.00    1.40
   1  -4  -5   29.08    1.39
   1  -4  -5   27.34    1.43
  -1  -4   5   27.51    1.40
  -1  -4   5   29.64    1.38
   1  -4  -5   28.61    1.45
  -1   4   5   27.23    1.55
   1   4  -5   29.26    1.39
   1   4  -5   27.71    1.48
   1   4  -5   27.93    1.46
  -1   4   5   27.59    1.48
   1   4  -5   27.59    1.38
   1   4  -5   27.93    1.38
  -1   4   5   28.52    1.41
  -1   4   5   25.43    1.40
   1   4  -5   26.41    1.45
  -1   4   5   27.67    1.38
  -1   4   5   26.46    1.38
   1   4  -5   28.34    1.39
   1   4  -5   27.25    1.43
  -1   4   5   28.33    1.47
  -1   4   5   28.40    1.41
   1   4  -5   24.63    1.39
   1   4  -5   27.82    1.38
  -1   4   5   28.81    1.40
   1   4  -5   28.35    1.50
  -1   4   5   27.18    1.39
   0  -4  -5    1.99    0.15
   0  -4   5    1.54    0.14
   0  -4   5    1.81    0.17
   0  -4  -5    1.74    0.17
   0  -4   5    1.74    0.14
   0   4   5    1.73    0.17
   0   4   5    1.59    0.21
   0   4  -5    1.76    0.15
   0   4  -5    1.44    0.16
   0   4   5    1.63    0.20
   0   4  -5    1.37    0.13
   0   4  -5    1.64    0.15
   0   4  -5    1.50    0.15
   0   4   5    1.85    0.18
   0   4  -5    1.48    0.19
   0   4  -5    1.73    0.15
   0   4  -5    1.60    0.14
   0   4   5    1.42    0.16
   0   4   5    1.59    0.15
   0   4  -5    1.72    0.23
   0   4   5    1.51    0.14
   0   4   5    1.58    0.22
   0   4   5    1.59    0.24
   0   4   5    1.67    0.14
   0   4   5    1.74    0.17
   0   4  -5    1.41    0.18
   1  -4   5    0.20    0.06
   1  -4   5    0.20    0.06
  -1  -4  -5    0.13    0.05
   1  -4   5    0.28    0.10
  -1  -4  -5    0.18    0.06
   1  -4   5    0.27    0.09
   1  -4   5    0.12    0.06
  -1  -4  -5    0.15    0.05
  -1  -4  -5    0.24    0.08
   1   4   5    0.16    0.07
  -1   4  -5    0.36    0.10
  -1   4  -5    0.08    0.07
  -1   4  -5    0.18    0.05
  -1   4  -5    0.22    0.06
  -1   4  -5    0.26    0.07
   1   4   5    0.23    0.11
   1   4   5    0.31    0.07
   1   4   5    0.13    0.08
   1   4   5    0.14    0.07
   1   4   5    0.31    0.07
  -1   4  -5    0.18    0.06
   1   4   5    0.25    0.08
   1   4   5    0.20    0.09
  -1   4  -5    0.29    0.08
   1   4   5    0.34    0.09
   1   4   5    0.04    0.09
  -1   4  -5    0.22    0.06
  -1   4  -5    0.28    0.12
   2  -4   5    9.79    0.57
   2  -4   5    9.83    0.60
   2  -4   5    9.83    0.54
   2  -4   5    9.83    0.54
  -2  -4  -5    9.98    0.63
   2  -4   5    9.93    0.59
  -2  -4  -5    9.11    0.52
  -2  -4  -5   10.75    0.54
   2   4   5   10.11    0.55
   2   4   5    8.91    0.56
  -2   4  -5   10.10    0.65
   2   4   5   10.05    0.57
  -2   4  -5    9.31    0.58
  -2   4  -5    9.22    0.61
  -2   4  -5    9.24    0.52
   2   4   5   10.06    0.68
  -2   4  -5    9.67    0.53
   2   4   5    9.66    0.56
  -2   4  -5   10.02    0.63
   2   4   5    9.49    0.59
   2   4   5    9.69    0.53
  -2   4  -5    9.60    0.53
  -2   4  -5    9.70    0.57
  -2   4  -5    9.69    0.53
   2   4   5    9.30    0.65
  -3  -4  -5    0.26    0.07
   3  -4   5    0.48    0.12
   3  -4   5    0.37    0.10
  -3  -4  -5    0.37    0.08
  -3  -4  -5    0.41    0.09
  -3  -4  -5    0.28    0.08
   3  -4   5    0.48    0.11
   3  -4   5    0.44    0.12
   3  -4   5    0.43    0.11
   3   4   5    0.43    0.12
  -3   4  -5    0.34    0.09
   3   4   5    0.42    0.12
  -3   4  -5    0.36    0.09
   3   4   5    0.50    0.24
   3   4   5    0.41    0.12
  -3   4  -5    0.55    0.16
  -3   4  -5    0.50    0.15
   3   4   5    0.31    0.12
  -3   4  -5    0.40    0.11
  -3   4  -5    0.37    0.08
   3   4   5    0.40    0.11
   3   4   5    0.40    0.09
  -3   4  -5    0.31    0.08
   3   4   5    0.40    0.09
  -3   4  -5    0.36    0.08
  -3   4  -5    0.28    0.14
   3   4   5    0.32    0.11
  -4  -4  -5    2.77    0.22
   4  -4   5    2.19    0.20
   4  -4   5    2.33    0.24
   4  -4   5    2.91    0.36
  -4  -4  -5    2.56    0.22
  -4  -4  -5    2.57    0.26
   4  -4   5    2.28    0.20
   4   4   5    2.17    0.18
  -4   4  -5    2.35    0.18
   4   4   5    2.29    0.21
  -4   4  -5    2.42    0.17
  -4   4  -5    2.02    0.17
  -4   4  -5    2.52    0.17
   4   4   5    2.51    0.22
  -4   4  -5    2.32    0.25
   4   4   5    2.59    0.22
   4   4   5    2.24    0.21
  -4   4  -5    2.46    0.22
   4   4   5    2.25    0.18
   4   4   5    2.41    0.21
  -4   4  -5    2.54    0.17
  -4   4  -5    2.34    0.19
   4   4   5    2.40    0.20
   5  -4   5   18.41    1.04
   5  -4   5   18.77    0.99
  -5  -4  -5   16.11    0.96
   5  -4   5   18.33    0.98
  -5  -4  -5   17.17    1.01
  -5  -4  -5   17.62    1.01
   5  -4   5   18.68    1.01
  -5  -4  -5   20.65    1.00
  -5  -4  -5   20.97    0.98
   5  -4   5   19.69    0.98
   5   4   5   19.25    0.98
   5   4   5   18.42    0.93
   5   4   5   19.39    0.98
   5   4   5   18.32    0.95
   5   4   5   19.47    1.00
  -5   4  -5   19.14    0.95
  -5   4  -5   19.59    0.95
  -5   4  -5   18.61    0.94
  -5   4  -5   19.16    0.99
   5   4   5   19.23    0.99
   5   4   5   18.78    0.98
   6  -4   5   22.61    1.18
  -6  -4  -5   21.83    1.17
   6  -4   5   23.23    1.20
   6  -4   5   24.30    1.18
  -6  -4  -5   22.32    1.17
  -6  -4  -5   20.64    1.19
   6  -4   5   23.17    1.17
  -6  -4  -5   19.65    1.18
   6   4   5   22.73    1.15
   6   4   5   24.70    1.18
  -6   4  -5   24.09    1.18
  -6   4  -5   22.79    1.15
   6   4   5   25.66    1.19
  -6   4  -5   24.40    1.15
  -6   4  -5   25.09    1.17
   6   4   5   24.30    1.19
   6   4   5   24.09    1.18
  -7  -4  -5   11.04    0.63
   7  -4   5   12.86    0.62
  -7  -4  -5   10.65    0.63
   7   4   5   13.17    0.64
   7   4   5   12.46    0.63
   7   4   5   10.84    0.62
   7   4   5   13.41    0.64
   7   4   5   12.82    0.64
  -7   4  -5   12.94    0.62
   8   4   5    2.99    0.18
   8   4   5    2.93    0.17
  -8   4  -5    3.04    0.17
   7  -5  -5    2.65    0.16
   7   5  -5    2.41    0.14
   7   5  -5    2.70    0.14
  -7   5   5    2.59    0.15
   7   5  -5    2.62    0.16
   7   5  -5    2.45    0.15
  -7   5   5    2.11    0.14
   6  -5  -5    1.37    0.13
   6   5  -5    1.30    0.12
   6   5  -5    1.51    0.11
  -6   5   5    1.46    0.11
  -6   5   5    1.47    0.11
  -6   5   5    1.42    0.11
   6   5  -5    1.41    0.10
   6   5  -5    1.39    0.13
   6   5  -5    1.39    0.11
  -6   5   5    1.23    0.10
   5  -5  -5    0.86    0.12
   5  -5  -5    0.77    0.11
  -5   5   5    0.81    0.09
  -5   5   5    0.95    0.11
   5   5  -5    0.94    0.15
   5   5  -5    1.03    0.14
  -5   5   5    0.88    0.14
   5   5  -5    0.87    0.10
  -5   5   5    0.82    0.10
   5   5  -5    0.83    0.11
  -5   5   5    0.80    0.10
  -5   5   5    0.88    0.12
   5   5  -5    0.82    0.10
   4  -5  -5   11.12    0.61
   4  -5  -5   10.66    0.58
   4  -5  -5   11.05    0.58
   4  -5  -5   10.79    0.61
   4   5  -5    9.41    0.52
   4   5  -5    9.32    0.52
   4   5  -5   10.22    0.57
  -4   5   5    9.94    0.55
   4   5  -5    9.91    0.53
  -4   5   5    9.98    0.54
  -4   5   5   10.50    0.66
  -4   5   5    9.87    0.54
   4   5  -5    9.76    0.56
  -4   5   5    9.89    0.53
   4   5  -5   10.13    0.53
   4   5  -5   10.35    0.53
  -4   5   5    9.86    0.53
  -4   5   5   10.01    0.57
   3  -5  -5   12.33    0.63
   3  -5  -5   12.22    0.65
   3  -5  -5   12.34    0.62
  -3   5   5   11.56    0.72
  -3   5   5   10.90    0.58
  -3   5   5   10.43    0.59
  -3   5   5   10.84    0.60
  -3   5   5   10.42    0.59
   3   5  -5   10.89    0.58
   3   5  -5   11.16    0.62
   3   5  -5   10.42    0.57
  -3   5   5   11.13    0.63
   3   5  -5   11.40    0.58
  -3   5   5   10.18    0.59
  -3   5   5   10.91    0.57
   3   5  -5    9.28    0.62
   3   5  -5   11.25    0.58
   3   5  -5   10.35    0.57
  -2  -5   5   11.34    0.66
   2  -5  -5   13.79    0.70
   2  -5  -5   14.70    0.83
   2  -5  -5   12.97    0.69
  -2  -5   5   10.85    0.68
   2  -5  -5   12.79    0.75
   2   5  -5   12.16    0.69
   2   5  -5   13.55    0.67
  -2   5   5   12.34    0.65
  -2   5   5   13.81    0.69
  -2   5   5   10.64    0.75
   2   5  -5   14.53    0.68
   2   5  -5   12.68    0.66
   2   5  -5   10.58    0.72
   2   5  -5   13.47    0.67
  -2   5   5   12.23    0.68
   2   5  -5   11.01    0.66
  -2   5   5   14.33    0.74
  -2   5   5   14.37    0.70
   2   5  -5   12.45    0.67
   1  -5  -5    9.21    0.64
  -1  -5   5    7.42    0.48
   1  -5  -5    9.05    0.51
  -1   5   5    9.28    0.50
   1   5  -5    9.97    0.50
   1   5  -5    9.42    0.51
   1   5  -5    9.49    0.50
  -1   5   5    8.74    0.51
   1   5  -5    9.85    0.50
   1   5  -5    8.83    0.53
  -1   5   5    8.49    0.62
  -1   5   5    9.14    0.56
   0  -5  -5   18.40    1.12
   0  -5  -5   18.64    1.11
   0   5   5   22.35    1.13
   0   5   5   22.29    1.18
   0   5  -5   22.91    1.12
   0   5   5   23.14    1.20
   0   5   5   22.09    1.11
   0   5   5   24.23    1.12
   0   5  -5   23.01    1.24
   0   5  -5   22.94    1.11
   0   5   5   19.76    1.12
   0   5  -5   21.55    1.11
   0   5  -5   21.35    1.14
   0   5   5   23.11    1.29
   0   5   5   24.67    1.13
   0   5   5   22.65    1.14
   0   5  -5   23.56    1.11
  -1  -5  -5    7.50    0.47
  -1  -5  -5    7.44    0.49
   1  -5   5    7.75    0.51
   1  -5   5    9.70    0.53
  -1  -5  -5    7.16    0.45
   1  -5   5    7.05    0.45
   1   5   5    9.02    0.49
   1   5   5    8.34    0.43
  -1   5  -5    8.64    0.44
   1   5   5    8.50    0.43
   1   5   5    7.86    0.62
  -1   5  -5    8.05    0.43
   1   5   5    8.86    0.58
   1   5   5    9.24    0.52
   1   5   5    7.94    0.47
   2  -5   5    0.11    0.05
  -2  -5  -5    0.07    0.05
   2  -5   5    0.15    0.07
   2  -5   5    0.15    0.07
  -2  -5  -5    0.07    0.06
   2  -5   5    0.18    0.09
   2  -5   5    0.13    0.06
  -2   5  -5    0.11    0.06
   2   5   5    0.09    0.07
   2   5   5    0.10    0.08
  -2   5  -5    0.11    0.09
  -2   5  -5    0.13    0.05
   2   5   5    0.14    0.07
   2   5   5    0.09    0.07
  -2   5  -5    0.16    0.06
  -2   5  -5    0.11    0.07
   2   5   5    0.14    0.07
  -2   5  -5    0.09    0.05
   2   5   5    0.10    0.05
  -2   5  -5    0.12    0.06
  -2   5  -5    0.05    0.05
   2   5   5    0.10    0.05
  -3  -5  -5    0.83    0.13
  -3  -5  -5    0.82    0.11
   3  -5   5    1.09    0.15
   3  -5   5    0.85    0.14
  -3  -5  -5    0.89    0.10
   3  -5   5    0.94    0.13
   3  -5   5    0.97    0.12
   3  -5   5    1.03    0.13
   3   5   5    1.05    0.11
   3   5   5    1.01    0.13
  -3   5  -5    1.00    0.12
  -3   5  -5    1.09    0.11
   3   5   5    1.19    0.14
  -3   5  -5    1.12    0.11
   3   5   5    1.10    0.13
  -3   5  -5    1.14    0.12
  -3   5  -5    1.06    0.11
  -3   5  -5    1.17    0.17
   3   5   5    0.95    0.11
  -3   5  -5    1.06    0.10
   3   5   5    1.17    0.14
   3   5   5    1.05    0.13
  -3   5  -5    1.10    0.14
   4  -5   5    4.79    0.31
   4  -5   5    4.78    0.32
  -4  -5  -5    4.14    0.29
   4  -5   5    4.86    0.30
   4  -5   5    5.22    0.43
   4   5   5    5.01    0.31
   4   5   5    4.85    0.30
   4   5   5    5.05    0.31
  -4   5  -5    5.16    0.32
  -4   5  -5    4.78    0.31
   4   5   5    4.61    0.28
   4   5   5    5.09    0.30
  -4   5  -5    5.30    0.37
  -4   5  -5    4.92    0.29
  -4   5  -5    4.89    0.28
  -4   5  -5    5.21    0.32
   4   5   5    4.70    0.29
   4   5   5    4.66    0.31
   5  -5   5    1.39    0.14
   5  -5   5    1.33    0.15
   5  -5   5    1.30    0.12
   5  -5   5    1.68    0.23
  -5   5  -5    1.53    0.14
   5   5   5    1.43    0.10
   5   5   5    1.52    0.15
  -5   5  -5    1.52    0.12
   5   5   5    1.43    0.12
  -5   5  -5    1.47    0.11
   5   5   5    1.38    0.13
   5   5   5    1.52    0.13
  -5   5  -5    1.18    0.16
   6  -5   5    5.40    0.29
   6   5   5    5.06    0.28
   6   5   5    5.26    0.29
   6   5   5    5.46    0.29
   6   5   5    5.05    0.28
  -6   5  -5    5.45    0.28
  -5   6   5    2.47    0.14
  -5   6   5    2.84    0.15
   4  -6  -5    3.97    0.22
   4   6  -5    3.67    0.21
  -4   6   5    3.35    0.19
  -4   6   5    3.55    0.24
   3  -6  -5    3.22    0.26
   3  -6  -5    3.14    0.22
  -3   6   5    3.69    0.20
  -3   6   5    3.74    0.21
  -3   6   5    3.71    0.23
   3   6  -5    3.34    0.20
  -3   6   5    3.97    0.27
  -3   6   5    3.40    0.21
   3   6  -5    3.91    0.21
   3   6  -5    3.64    0.20
   3   6  -5    3.76    0.20
  -3   6   5    3.66    0.21
   3   6  -5    3.82    0.21
   2  -6  -5    0.63    0.09
   2  -6  -5    0.60    0.09
   2   6  -5    0.58    0.07
   2   6  -5    0.70    0.07
  -2   6   5    0.69    0.13
   2   6  -5    0.64    0.07
  -2   6   5    0.66    0.07
   2   6  -5    0.61    0.07
  -2   6   5    0.70    0.10
   2   6  -5    0.57    0.10
   2   6  -5    0.74    0.08
  -2   6   5    0.76    0.08
  -2   6   5    0.64    0.07
  -2   6   5    0.65    0.09
   1  -6  -5    1.17    0.15
  -1   6   5    1.23    0.09
  -1   6   5    1.23    0.09
  -1   6   5    1.24    0.13
   1   6  -5    1.27    0.10
   1   6  -5    1.20    0.14
   1   6  -5    1.19    0.10
  -1   6   5    1.02    0.22
   1   6  -5    1.27    0.10
  -1   6   5    1.22    0.16
   1   6  -5    1.33    0.11
   1   6  -5    0.99    0.10
  -1   6   5    1.10    0.10
  -1   6   5    1.47    0.14
   1   6  -5    1.21    0.10
   0   6   5    2.02    0.19
   0   6  -5    1.92    0.13
   0   6  -5    1.85    0.14
   0   6   5    1.83    0.14
   0   6   5    1.76    0.12
   0   6  -5    1.63    0.15
   0   6   5    1.94    0.15
   0   6   5    1.75    0.12
   1  -6   5    1.41    0.13
  -1   6  -5    1.54    0.17
  -1   6  -5    1.72    0.12
   1   6   5    1.49    0.12
  -1   6  -5    1.39    0.13
  -1   6  -5    1.60    0.12
   1   6   5    1.50    0.14
   1   6   5    1.35    0.17
  -1   6  -5    1.41    0.11
  -1   6  -5    1.65    0.11
   1   6   5    1.48    0.12
   1   6   5    1.54    0.11
  -2   6  -5    1.99    0.18
  -2   6  -5    2.07    0.14
   2   6   5    1.92    0.16
   2   6   5    1.93    0.13
  -2   6  -5    2.15    0.13
  -2   6  -5    1.92    0.15
  -2   6  -5    1.99    0.13
   2   6   5    1.95    0.17
  -2   6  -5    2.11    0.13
   2   6   5    1.86    0.14
   3  -6   5    4.28    0.29
  -3   6  -5    5.20    0.29
  -3   6  -5    4.25    0.27
   3   6   5    5.31    0.26
  -3   6  -5    5.31    0.26
   3   6   5    5.24    0.27
  -3   6  -5    4.60    0.26
   3   6   5    5.31    0.27
  -3   6  -5    4.70    0.26
  -3   6  -5    5.82    0.32
 -10   0   6    0.13    0.06
  10   0  -6    0.16    0.07
 -10   0   6    0.12    0.04
  -9   0   6    6.24    0.37
  -9   0   6    5.97    0.39
  -9   0   6    5.86    0.40
  -9   0   6    6.72    0.41
  -9   0   6    6.17    0.37
  -8   0   6    3.02    0.23
  -8   0   6    2.77    0.28
  -8   0   6    3.01    0.23
  -8   0   6    2.92    0.23
   7   0  -6    2.47    0.23
  -7   0   6    2.39    0.23
  -7   0   6    2.27    0.20
  -7   0   6    2.39    0.27
  -7   0   6    2.50    0.23
  -7   0   6    2.41    0.21
   7   0  -6    2.58    0.23
   7   0  -6    2.44    0.20
  -6   0   6    7.39    0.47
  -6   0   6    7.81    0.47
  -6   0   6    7.90    0.49
  -6   0   6    8.06    0.46
  -6   0   6    8.89    0.83
   6   0  -6    7.50    0.44
   6   0  -6    8.33    0.44
   6   0  -6    7.70    0.46
  -6   0   6    7.70    0.52
   6   0  -6    7.65    0.77
   6   0  -6    8.05    0.48
  -6   0   6    7.61    0.46
  -5   0   6   13.35    0.73
  -5   0   6   12.67    2.95
   5   0  -6   13.99    0.74
   5   0  -6   13.79    0.73
  -5   0   6   13.60    0.79
  -5   0   6   13.50    0.73
  -5   0   6   16.24    3.16
   5   0  -6   14.52    1.05
  -5   0   6   13.82    0.74
  -5   0   6   14.30    1.08
  -5   0   6   13.67    0.76
  -4   0   6  110.87    6.63
  -4   0   6  103.22    5.10
  -4   0   6  103.37    5.41
   4   0  -6  106.13    5.13
  -4   0   6  106.38    5.06
  -4   0   6  106.27    5.06
  -4   0   6  105.74    7.10
  -4   0   6  109.75    7.27
   4   0  -6  107.14    5.38
   4   0  -6  113.74    5.06
  -4   0   6  107.80    6.85
  -4   0   6  110.80    5.14
   4   0  -6   91.54    5.09
  -4   0   6   91.44    6.79
  -4   0   6  104.84    5.07
  -3   0   6   31.48    2.63
   3   0  -6   29.94    1.43
  -3   0   6   28.92    1.66
  -3   0   6   26.89    1.37
   3   0  -6   26.89    1.46
  -3   0   6   28.48    2.52
  -3   0   6   24.58    2.56
  -3   0   6   29.47    2.72
  -3   0   6   27.35    1.57
  -3   0   6   28.40    2.36
  -3   0   6   29.41    2.95
  -3   0   6   26.05    1.39
  -3   0   6   27.28    1.38
  -3   0   6   26.24    2.59
   3   0  -6   27.83    1.44
   3   0  -6   28.18    1.38
   3   0  -6   28.94    1.65
  -2   0   6    2.78    0.67
   2   0  -6    2.65    0.18
  -2   0   6    2.46    0.17
  -2   0   6    2.99    0.34
  -2   0   6    3.46    1.03
  -2   0   6    2.74    0.17
  -2   0   6    2.94    0.72
   2   0  -6    2.56    0.30
  -2   0   6    2.73    0.83
  -2   0   6    3.44    0.85
   2   0  -6    2.60    0.24
  -2   0   6    2.60    0.28
  -2   0   6    2.52    0.19
   2   0  -6    2.58    0.17
  -2   0   6    3.36    0.75
  -2   0   6    2.48    0.58
  -2   0   6    3.56    0.73
  -2   0   6    2.81    0.24
  -1   0   6    0.26    0.10
  -1   0   6    0.11    0.08
   1   0  -6    0.17    0.05
   1   0  -6    0.35    0.30
  -1   0   6    0.11    0.03
   1   0  -6    0.12    0.04
   1   0  -6    0.17    0.18
   1   0  -6   -0.18    0.27
  -1   0   6    0.47    0.27
   1   0  -6    0.05    0.38
  -1   0   6    0.09    0.13
  -1   0   6    0.80    0.46
   1   0  -6    0.16    0.04
   0   0   6  328.42   16.63
   0   0   6  345.28   17.54
   0   0  -6  324.92   17.99
   0   0   6  346.72   17.98
   0   0   6  367.73   18.20
   0   0  -6  346.14   16.63
   0   0   6  357.01   17.80
   0   0  -6  353.46   17.59
   0   0  -6  351.00   17.77
   0   0  -6  364.10   18.05
   0   0   6  329.18   16.74
  -1   0  -6  177.66    8.49
   1   0   6  172.37    9.67
  -1   0  -6  170.48    8.26
   1   0   6  168.03    9.88
   1   0   6  167.95    8.29
   1   0   6  182.24   10.09
  -1   0  -6  174.60    9.77
  -1   0  -6  160.19    8.26
  -1   0  -6  177.68    8.25
   1   0   6  162.24    9.38
   1   0   6  160.06    8.52
   1   0   6  169.60    8.26
  -1   0  -6  178.48    9.41
   1   0   6  167.25    8.27
  -1   0  -6  190.79   10.03
  -1   0  -6  191.99    9.72
   1   0   6  178.59    8.49
  -2   0  -6   88.47    4.24
   2   0   6   81.92    4.49
   2   0   6   88.52    4.27
  -2   0  -6   74.98    4.23
   2   0   6   93.63    5.94
   2   0   6   77.55    4.24
  -2   0  -6   90.19    4.26
   2   0   6   93.21    6.17
  -2   0  -6   88.64    4.26
   2   0   6   96.43    4.56
  -2   0  -6   90.13    5.95
   2   0   6   86.34    4.29
   2   0   6   90.64    4.25
   2   0   6   89.70    6.25
  -2   0  -6   96.07    5.56
   2   0   6   88.17    5.61
  -2   0  -6   94.55    4.54
  -2   0  -6   89.48    4.26
  -3   0  -6    0.65    0.10
   3   0   6    0.89    0.65
   3   0   6    0.58    0.10
  -3   0  -6    0.56    0.12
   3   0   6    0.33    0.22
   3   0   6    0.49    0.10
   3   0   6    0.79    0.26
  -3   0  -6    0.87    0.52
   3   0   6    0.98    0.25
  -3   0  -6    0.57    0.08
   3   0   6    0.77    0.20
   3   0   6    0.43    2.06
   3   0   6    0.57    1.14
   3   0   6    0.76    0.11
  -3   0  -6    1.11    1.23
  -3   0  -6    0.65    0.10
  -3   0  -6   -0.05    0.85
  -3   0  -6    0.66    0.09
   4   0   6  146.37    6.66
  -4   0  -6  138.33    6.62
  -4   0  -6  133.70    6.60
   4   0   6  143.32    9.88
  -4   0  -6  146.45    7.12
  -4   0  -6  134.52    6.60
  -4   0  -6  131.49    6.58
   4   0   6  136.39    7.08
  -4   0  -6  137.33    6.61
  -4   0  -6  140.99    6.61
  -4   0  -6  137.69    6.64
   4   0   6  131.27    6.62
  -4   0  -6  132.34    6.58
  -5   0  -6   10.08    0.58
  -5   0  -6    9.60    0.59
  -5   0  -6    9.76    0.55
  -5   0  -6    9.68    0.55
  -5   0  -6    9.89    0.56
  -5   0  -6    9.97    0.58
  -5   0  -6   10.03    0.61
  -5   0  -6   10.25    0.99
  -5   0  -6   10.50    0.59
  -5   0  -6   11.18    0.99
  -6   0  -6    7.51    0.51
  -6   0  -6    7.77    0.47
  -6   0  -6    7.16    0.52
  -6   0  -6    7.25    0.45
  -6   0  -6    7.46    0.46
  -6   0  -6    7.38    0.48
  -6   0  -6    7.02    0.43
  -6   0  -6    7.42    0.44
  -7   0  -6   14.38    0.86
  -7   0  -6   14.30    0.77
   7   0   6   15.46    0.78
  -7   0  -6   15.43    0.83
  -7   0  -6   13.73    0.84
  -7   0  -6   14.09    0.77
  -8   0  -6   15.11    0.79
   8   0   6   16.08    0.81
  -8   0  -6   16.38    0.85
  -8   0  -6   14.43    0.78
  -9   0  -6    7.26    0.40
   9   0   6    5.82    0.35
 -10  -1   6    1.84    0.15
 -10  -1   6    1.86    0.16
 -10  -1   6    1.98    0.15
  10  -1  -6    2.06    0.15
  10   1  -6    2.03    0.16
  -9  -1   6   17.63    0.96
  -9  -1   6   17.08    0.91
  -9  -1   6   17.72    0.91
  -9  -1   6   15.53    0.99
   9   1  -6   17.88    0.92
   9   1  -6   16.70    0.86
   9   1  -6   17.34    0.92
   9   1  -6   17.57    0.91
  -8  -1   6   31.99    1.63
  -8  -1   6   32.02    1.65
  -8  -1   6   31.39    1.73
  -8   1   6   33.30    1.62
   8   1  -6   33.19    1.59
   8   1  -6   33.56    1.67
  -8   1   6   30.87    1.62
  -7  -1   6    2.61    0.25
   7  -1  -6    2.28    0.25
  -7  -1   6    2.71    0.22
  -7  -1   6    2.57    0.23
  -7  -1   6    2.47    0.22
  -7  -1   6    2.75    0.28
   7   1  -6    2.80    0.25
   7   1  -6    2.95    0.23
  -7   1   6    2.57    0.20
  -7   1   6    2.66    0.20
   7   1  -6    2.42    0.20
   7   1  -6    2.68    0.19
  -6  -1   6   70.34    3.43
  -6  -1   6   72.39    3.37
  -6  -1   6   67.79    3.37
  -6  -1   6   70.56    3.36
   6  -1  -6   68.17    3.84
   6  -1  -6   70.93    3.37
   6  -1  -6   70.39    3.33
   6  -1  -6   66.93    3.33
  -6  -1   6   70.60    3.35
  -6  -1   6   71.45    3.39
  -6  -1   6   76.76    4.02
   6   1  -6   68.97    3.36
   6   1  -6   69.62    3.32
  -6   1   6   64.91    3.34
   6   1  -6   73.04    3.31
  -6   1   6   65.95    3.33
  -6   1   6   65.43    3.34
   6   1  -6   71.45    3.38
  -6   1   6   67.82    3.37
   6   1  -6   59.83    3.30
  -6   1   6   65.24    3.41
  -6   1   6   71.75    3.96
  -6   1   6   61.96    3.36
  -5  -1   6   12.15    0.64
  -5  -1   6   12.58    0.65
  -5  -1   6   12.47    0.65
  -5  -1   6   12.55    0.67
   5  -1  -6   12.79    0.66
  -5  -1   6   12.84    1.01
  -5  -1   6   12.66    0.71
   5  -1  -6   12.22    0.64
   5  -1  -6   12.72    0.98
   5  -1  -6   11.97    0.66
   5  -1  -6   11.54    0.63
   5  -1  -6   11.46    0.68
  -5   1   6    9.54    2.24
  -5   1   6   11.67    0.65
  -5   1   6   10.84    0.63
   5   1  -6   12.63    0.67
  -5   1   6   11.46    0.66
  -5   1   6   11.53    0.69
  -5   1   6   11.03    0.64
  -5   1   6    9.85    2.34
   5   1  -6   11.58    0.65
  -5   1   6   13.52    1.05
  -5   1   6    9.38    3.07
  -4  -1   6   22.30    2.54
  -4  -1   6   27.27    1.31
   4  -1  -6   28.47    1.81
  -4  -1   6   27.94    1.32
   4  -1  -6   26.70    1.31
  -4  -1   6   30.61    1.42
  -4  -1   6   29.80    1.81
   4  -1  -6   26.38    1.54
   4  -1  -6   27.66    1.37
   4  -1  -6   26.54    1.32
  -4  -1   6   22.77    2.63
  -4  -1   6   27.05    1.35
  -4  -1   6   27.16    1.65
  -4  -1   6   25.52    1.31
  -4  -1   6   22.07    2.79
   4  -1  -6   26.02    1.33
  -4  -1   6   28.97    2.50
  -4   1   6   26.06    2.89
  -4   1   6   23.98    1.32
  -4   1   6   28.33    2.99
  -4   1   6   23.14    3.13
  -4   1   6   22.77    2.73
   4   1  -6   26.43    1.32
   4   1  -6   28.31    1.29
  -4   1   6   22.81    2.06
  -4   1   6   23.18    1.30
  -4   1   6   24.17    1.30
  -4   1   6   25.39    1.31
  -4   1   6   26.68    3.14
  -4   1   6   24.67    3.15
  -4   1   6   27.25    1.49
   4   1  -6   27.77    1.33
  -4   1   6   25.38    3.31
   3  -1  -6   75.56    3.81
  -3  -1   6   81.11    4.98
   3  -1  -6   72.43    3.50
   3  -1  -6   72.78    3.52
  -3  -1   6   62.60    5.05
  -3  -1   6   70.89    4.56
   3  -1  -6   71.20    3.54
   3  -1  -6   70.80    3.71
  -3  -1   6   73.65    3.49
  -3  -1   6   76.70    3.54
  -3  -1   6   73.96    3.79
   3  -1  -6   76.14    3.97
  -3  -1   6   72.82    3.79
  -3  -1   6   70.61    4.76
   3  -1  -6   73.01    3.50
  -3  -1   6   74.25    3.51
  -3  -1   6   70.00    5.00
  -3  -1   6   75.06    4.98
  -3   1   6   73.00    5.07
   3   1  -6   72.72    3.51
  -3   1   6   75.24    3.87
  -3   1   6   67.62    3.53
  -3   1   6   68.82    3.62
   3   1  -6   72.39    3.49
  -3   1   6   78.86    5.35
  -3   1   6   75.00    5.37
   3   1  -6   72.50    3.51
  -3   1   6   65.43    3.49
  -3   1   6   73.79    4.82
  -2  -1   6  160.23    7.68
   2  -1  -6  165.93    7.84
  -2  -1   6  154.37    8.45
  -2  -1   6  149.42    8.82
  -2  -1   6  150.65    9.08
  -2  -1   6  152.02    8.92
   2  -1  -6  164.67    7.68
   2  -1  -6  161.06    7.41
  -2  -1   6  160.80    7.69
  -2  -1   6  143.30    7.40
  -2  -1   6  151.57    8.68
  -2  -1   6  156.57    7.42
  -2  -1   6  161.65    8.68
   2  -1  -6  160.81    7.64
   2   1  -6  161.38    7.43
  -2   1   6  156.03    8.85
  -2   1   6  155.22    7.77
  -2   1   6  146.83    7.50
   2   1  -6  153.99    7.41
  -2   1   6  166.29    9.30
  -2   1   6  140.50    7.41
  -2   1   6  154.41    9.06
  -2   1   6  146.40    7.44
  -2   1   6  157.53    8.65
   1  -1  -6  158.79    7.37
   1  -1  -6  166.38    7.61
  -1  -1   6  163.03    7.58
   1  -1  -6  163.73    7.59
   1  -1  -6  145.01    7.39
  -1  -1   6  169.03    8.69
  -1  -1   6  163.12    7.62
   1  -1  -6  166.87    7.73
  -1  -1   6  157.29    8.37
  -1  -1   6  158.96    8.76
  -1  -1   6  160.67    8.92
   1   1  -6  133.71    8.74
  -1   1   6  165.58    9.05
  -1   1   6  159.44    8.69
   1   1  -6  135.27    7.35
  -1   1   6  156.42    7.81
  -1   1   6  161.68    8.54
   1   1  -6  154.77    7.37
   1   1  -6  138.60    8.53
  -1   1   6  154.45    7.36
   1   1  -6  143.95    7.46
   1   1  -6  129.48    8.61
   1   1  -6  160.49    7.38
  -1   1   6  154.55    8.87
  -1   1   6  146.63    7.44
   1   1  -6  150.77    8.43
   0  -1  -6   22.71    1.29
   0  -1   6   21.51    2.19
   0  -1  -6   21.38    1.08
   0  -1   6   21.58    1.89
   0  -1   6   22.44    2.22
   0  -1   6   21.80    1.29
   0  -1  -6   21.67    1.25
   0  -1  -6   17.35    1.86
   0  -1  -6   22.15    2.21
   0  -1   6   21.71    1.08
   0  -1  -6   21.29    1.90
   0  -1  -6   22.51    1.06
   0  -1   6   21.17    2.04
   0   1   6   21.39    1.37
   0   1   6   21.86    1.12
   0   1   6   21.87    1.08
   0   1  -6   21.41    1.23
   0   1   6   23.33    2.15
   0   1   6   23.64    1.11
   0   1  -6   18.46    1.10
   0   1  -6   22.86    1.09
   0   1   6   22.13    1.89
   0   1  -6   22.62    1.10
   0   1  -6   23.87    1.09
   0   1   6   20.98    1.18
   0   1  -6   21.80    1.07
   1  -1   6  174.51    9.37
   1  -1   6  172.06    8.31
   1  -1   6  165.56    8.03
   1  -1   6  180.72    9.65
   1  -1   6  158.81    8.04
   1  -1   6  170.45    8.02
  -1  -1  -6  177.08    8.30
   1  -1   6  176.57   10.03
  -1  -1  -6  178.35    8.03
   1  -1   6  173.90    9.87
  -1  -1  -6  168.95    9.21
  -1  -1  -6  160.11    9.57
  -1   1  -6  148.85    8.28
  -1   1  -6  180.64    8.05
  -1   1  -6  176.65    8.05
  -1   1  -6  157.85    8.03
   1   1   6  157.38    9.60
   1   1   6  164.78    9.22
   1   1   6  166.44    9.44
  -1   1  -6  165.98    8.26
   1   1   6  159.50    9.69
   1   1   6  168.26    8.05
   1   1   6  167.17    8.20
   1   1   6  163.85    8.27
   1   1   6  176.86    8.09
   2  -1   6  139.45    6.74
   2  -1   6  135.42    7.26
   2  -1   6  140.77    6.76
   2  -1   6  146.46    6.75
   2  -1   6  145.70    8.35
   2  -1   6  148.00    9.02
  -2  -1  -6  140.04    6.73
  -2  -1  -6  142.94    6.74
   2  -1   6  146.19    6.72
   2  -1   6  139.28    6.75
  -2  -1  -6  148.95    7.06
   2  -1   6  131.12    7.04
   2  -1   6  135.86    6.72
   2  -1   6  144.31    8.66
   2  -1   6  142.16    9.08
   2   1   6  137.65    8.67
  -2   1  -6  125.66    6.73
  -2   1  -6  154.36    6.75
   2   1   6  144.31    6.76
   2   1   6  145.82    8.94
  -2   1  -6  143.10    6.75
  -2   1  -6  141.32    6.75
   2   1   6  131.61    6.73
   2   1   6  140.25    6.98
   2   1   6  138.42    8.15
   2   1   6  140.00    8.48
   2   1   6  146.23    6.81
   2   1   6  128.46    6.84
  -2   1  -6  145.41    7.07
   3  -1   6   61.09    4.65
  -3  -1  -6   57.73    2.71
   3  -1   6   50.02    5.44
  -3  -1  -6   45.82    3.92
   3  -1   6   52.44    3.25
  -3  -1  -6   56.64    2.70
   3  -1   6   61.36    5.17
  -3  -1  -6   48.14    4.25
  -3  -1  -6   53.93    2.68
  -3  -1  -6   52.44    3.32
   3  -1   6   53.55    3.07
   3  -1   6   56.66    2.70
  -3  -1  -6   56.25    4.78
   3  -1   6   59.84    4.88
   3  -1   6   54.14    2.68
   3  -1   6   54.76    2.72
   3  -1   6   57.24    3.13
   3  -1   6   46.74    2.71
  -3  -1  -6   55.59    2.69
  -3  -1  -6   63.15    2.78
  -3  -1  -6   57.47    2.73
  -3  -1  -6   57.71    2.71
   3  -1   6   57.54    2.73
   3   1   6   56.02    4.28
  -3   1  -6   57.35    3.51
   3   1   6   59.29    5.31
  -3   1  -6   53.79    2.71
   3   1   6   57.85    2.73
  -3   1  -6   55.60    2.72
   3   1   6   55.03    3.02
  -3   1  -6   58.14    2.72
  -3   1  -6   51.90    2.90
  -3   1  -6   47.16    4.59
  -3   1  -6   55.67    2.71
   3   1   6   59.31    2.79
  -3   1  -6   57.07    2.70
   3   1   6   55.06    4.87
   3   1   6   56.46    4.71
   4  -1   6   53.43    2.64
   4  -1   6   56.64    2.65
   4  -1   6   54.15    2.59
  -4  -1  -6   54.42    2.65
  -4  -1  -6   52.95    2.60
   4  -1   6   52.29    3.10
   4  -1   6   51.20    5.01
   4  -1   6   49.81    3.01
   4  -1   6   54.05    2.59
  -4  -1  -6   53.13    2.60
  -4  -1  -6   53.49    3.05
  -4  -1  -6   55.13    2.63
   4  -1   6   49.83    3.22
   4  -1   6   55.01    2.61
  -4  -1  -6   54.49    2.62
  -4  -1  -6   53.18    2.62
  -4  -1  -6   52.05    3.18
  -4  -1  -6   56.27    2.64
   4  -1   6   55.76    2.61
   4  -1   6   57.54    6.21
  -4   1  -6   57.26    3.17
   4   1   6   54.48    2.71
  -4   1  -6   52.79    2.63
  -4   1  -6   56.64    2.63
  -4   1  -6   47.67    4.36
  -4   1  -6   46.71    2.60
   4   1   6   54.01    2.64
   4   1   6   57.06    2.64
  -4   1  -6   55.42    2.63
  -4   1  -6   49.37    2.88
  -4   1  -6   50.81    2.59
  -4   1  -6   51.14    2.63
  -4   1  -6   49.87    2.58
  -4   1  -6   56.18    2.64
  -5  -1  -6   51.20    2.46
  -5  -1  -6   48.81    2.42
   5  -1   6   48.82    2.47
   5  -1   6   47.02    2.41
  -5  -1  -6   50.09    2.45
  -5  -1  -6   49.04    2.40
   5  -1   6   46.98    2.57
  -5  -1  -6   50.97    2.44
  -5  -1  -6   51.73    2.45
   5  -1   6   47.21    2.40
  -5  -1  -6   52.00    3.06
   5  -1   6   48.37    2.39
  -5  -1  -6   48.05    2.46
  -5  -1  -6   46.76    3.08
  -5  -1  -6   50.67    2.41
   5  -1   6   47.53    2.39
   5   1   6   47.81    2.37
  -5   1  -6   50.55    2.44
   5   1   6   51.39    2.41
  -5   1  -6   49.85    2.44
  -5   1  -6   45.05    2.38
   5   1   6   48.52    2.41
   6  -1   6   16.34    0.88
  -6  -1  -6   17.24    0.98
  -6  -1  -6   18.33    0.95
  -6  -1  -6   17.78    0.93
  -6  -1  -6   17.53    0.95
  -6  -1  -6   17.11    0.96
  -6  -1  -6   20.35    1.10
  -6  -1  -6   17.28    0.91
  -6  -1  -6   16.92    0.92
   6   1   6   15.36    1.15
  -6   1  -6   15.63    0.88
   6   1   6   17.62    0.91
   6   1   6   16.81    0.91
  -6   1  -6   18.68    0.97
   6   1   6   17.13    0.87
  -7  -1  -6    2.08    0.21
  -7  -1  -6    2.24    0.25
  -7  -1  -6    2.22    0.20
  -7  -1  -6    2.13    0.19
  -7  -1  -6    2.45    0.22
  -7  -1  -6    2.12    0.21
  -7   1  -6    2.07    0.22
   7   1   6    2.28    0.19
   7   1   6    2.12    0.19
  -8  -1  -6   17.77    0.96
  -8  -1  -6   18.83    0.95
  -8  -1  -6   17.73    0.99
  -8  -1  -6   18.75    0.96
   8   1   6   18.87    0.96
  -8   1  -6   20.53    1.06
   8   1   6   17.61    0.96
  -9  -1  -6    0.42    0.08
  -9  -1  -6    0.46    0.07
   9  -1   6    0.40    0.06
   9   1   6    0.50    0.06
  -9   1  -6    0.44    0.08
   9   1   6    0.49    0.07
 -10  -2   6    1.70    0.15
 -10  -2   6    1.54    0.12
 -10  -2   6    1.57    0.14
  10   2  -6    1.44    0.13
  -9  -2   6    0.69    0.10
  -9  -2   6    0.65    0.11
  -9  -2   6    0.60    0.11
  -9  -2   6    0.63    0.11
   9   2  -6    0.64    0.08
   9   2  -6    0.72    0.08
   9   2  -6    0.75    0.11
   9   2  -6    0.80    0.10
   9   2  -6    0.54    0.08
  -8  -2   6    2.71    0.23
  -8  -2   6    2.75    0.22
  -8  -2   6    2.64    0.27
  -8  -2   6    2.97    0.26
  -8  -2   6    3.02    0.24
   8   2  -6    2.56    0.23
   8   2  -6    2.78    0.24
   8   2  -6    2.70    0.18
   8   2  -6    2.72    0.23
   8   2  -6    2.64    0.23
  -7  -2   6   23.03    1.20
  -7  -2   6   23.87    1.24
  -7  -2   6   23.58    1.21
  -7  -2   6   22.90    1.22
  -7  -2   6   23.51    1.29
   7  -2  -6   22.32    1.17
   7   2  -6   22.67    1.21
   7   2  -6   22.89    1.15
   7   2  -6   22.19    1.23
   7   2  -6   22.60    1.16
   7   2  -6   22.69    1.22
   7   2  -6   23.65    1.15
  -6  -2   6   27.10    1.45
  -6  -2   6   28.30    1.42
   6  -2  -6   27.82    1.42
   6  -2  -6   26.74    1.45
  -6  -2   6   29.00    1.42
  -6  -2   6   28.52    1.54
  -6  -2   6   29.30    1.43
   6  -2  -6   29.53    1.46
   6  -2  -6   26.14    1.49
   6  -2  -6   27.84    1.41
   6   2  -6   26.97    1.46
   6   2  -6   28.05    1.48
   6   2  -6   26.63    1.37
   6   2  -6   26.48    1.37
   6   2  -6   28.27    1.38
  -6   2   6   28.35    1.48
   6   2  -6   28.56    1.46
   6   2  -6   28.15    1.38
   5  -2  -6   40.98    2.09
   5  -2  -6   41.53    2.10
  -5  -2   6   47.69    2.90
   5  -2  -6   43.25    2.12
  -5  -2   6   42.05    2.07
  -5  -2   6   36.68    2.17
  -5  -2   6   44.62    2.08
  -5  -2   6   37.26    2.11
  -5  -2   6   43.94    2.14
  -5  -2   6   43.72    2.61
   5  -2  -6   44.13    2.59
   5  -2  -6   40.68    2.07
  -5  -2   6   42.71    2.10
   5  -2  -6   43.75    2.09
   5   2  -6   37.84    2.04
  -5   2   6   48.05    2.08
   5   2  -6   41.83    2.12
   5   2  -6   43.53    2.13
   5   2  -6   40.82    2.10
   5   2  -6   42.75    2.13
   5   2  -6   43.09    2.05
   5   2  -6   41.15    2.05
   5   2  -6   41.45    2.05
   5   2  -6   37.84    2.04
  -5   2   6   40.71    2.25
   4  -2  -6   14.90    0.79
  -4  -2   6   12.37    0.76
   4  -2  -6   15.02    0.85
  -4  -2   6   14.66    1.08
  -4  -2   6   15.40    1.16
   4  -2  -6   14.41    0.78
   4  -2  -6   15.05    0.81
   4  -2  -6   14.24    0.79
  -4  -2   6   10.20    2.82
  -4  -2   6   14.93    0.79
  -4  -2   6   14.82    0.82
   4  -2  -6   15.62    1.14
  -4  -2   6   14.99    0.77
   4   2  -6   17.14    0.81
  -4   2   6   15.05    0.83
   4   2  -6   15.02    0.81
  -4   2   6   14.44    3.10
  -4   2   6   16.80    0.87
  -4   2   6   14.97    0.80
   4   2  -6   14.55    0.81
  -4   2   6   16.92    2.44
  -4   2   6   13.65    1.16
   3  -2  -6   84.25    3.93
   3  -2  -6   82.81    3.94
  -3  -2   6   83.66    3.93
  -3  -2   6   84.06    4.23
  -3  -2   6   85.24    3.92
  -3  -2   6   70.60    5.74
   3  -2  -6   87.26    4.55
  -3  -2   6   85.55    3.96
   3  -2  -6   78.50    3.93
   3  -2  -6   85.77    4.34
  -3  -2   6   78.82    3.91
   3  -2  -6   83.37    3.96
  -3  -2   6   81.11    4.30
   3  -2  -6   82.24    3.99
  -3  -2   6   79.65    3.91
   3   2  -6   80.77    3.96
  -3   2   6   91.44    7.78
  -3   2   6   78.87    3.95
  -3   2   6   66.06    6.08
   3   2  -6   85.63    3.96
  -3   2   6   82.22    3.97
   3   2  -6   80.59    3.93
  -3   2   6   72.22    5.68
  -2  -2   6   60.80    3.22
  -2  -2   6   63.43    3.88
   2  -2  -6   62.32    2.91
   2  -2  -6   57.87    2.88
  -2  -2   6   66.45    4.31
   2  -2  -6   55.84    2.86
   2  -2  -6   60.45    2.87
  -2  -2   6   56.70    2.86
   2  -2  -6   61.45    3.19
  -2  -2   6   61.50    2.88
  -2  -2   6   52.91    3.87
  -2  -2   6   50.00    3.95
  -2  -2   6   57.66    2.84
  -2  -2   6   57.54    2.85
   2  -2  -6   59.15    3.19
   2  -2  -6   59.06    2.86
  -2  -2   6   51.81    4.17
   2  -2  -6   63.80    3.37
   2   2  -6   58.99    2.88
   2   2  -6   59.51    2.90
  -2   2   6   60.95    2.91
  -2   2   6   65.33    2.87
  -2   2   6   58.29    4.10
  -2   2   6   59.29    2.90
  -2   2   6   57.63    4.29
  -2   2   6   55.45    4.57
   2   2  -6   60.75    2.89
  -2   2   6   59.03    4.52
  -1  -2   6   35.53    1.82
  -1  -2   6   37.29    1.81
  -1  -2   6   38.18    1.84
   1  -2  -6   42.33    1.85
  -1  -2   6   37.95    2.12
   1  -2  -6   36.96    1.84
  -1  -2   6   40.21    3.33
   1  -2  -6   36.83    2.13
   1  -2  -6   38.03    1.86
   1  -2  -6   38.93    2.09
   1  -2  -6   37.83    1.82
   1  -2  -6   39.35    2.21
  -1   2   6   36.79    1.87
   1   2  -6   37.79    1.85
   1   2  -6   38.61    1.85
  -1   2   6   34.55    3.09
  -1   2   6   32.88    2.89
  -1   2   6   33.29    3.13
  -1   2   6   32.77    2.76
   0  -2  -6   86.97    4.28
   0  -2   6   86.49    5.64
   0  -2   6   86.83    5.37
   0  -2  -6   78.44    3.94
   0  -2   6   84.70    3.96
   0  -2  -6   86.01    3.97
   0  -2  -6   83.67    4.28
   0  -2  -6   80.57    4.14
   0  -2   6   78.43    3.94
   0  -2  -6   79.00    3.92
   0  -2   6   85.34    4.27
   0  -2   6   81.43    3.93
   0   2   6   91.48    4.08
   0   2  -6   76.37    3.96
   0   2   6   79.49    5.55
   0   2   6   83.33    4.00
   0   2  -6   73.57    3.90
   0   2  -6   81.14    3.97
   0   2  -6   84.34    3.96
   0   2   6   79.12    5.21
   0   2   6   81.87    5.04
   0   2   6   74.20    4.34
   0   2  -6   86.25    3.98
   0   2   6   77.05    5.40
   1  -2   6   14.62    1.03
   1  -2   6   14.17    0.74
   1  -2   6   14.15    0.74
   1  -2   6   14.25    0.76
  -1  -2  -6   14.02    0.74
   1  -2   6   13.93    0.73
  -1  -2  -6   14.51    0.76
   1  -2   6   14.20    1.71
  -1  -2  -6   14.79    0.74
   1  -2   6   14.43    1.26
   1  -2   6   17.68    2.24
  -1  -2  -6   14.89    1.03
   1  -2   6   13.42    0.73
   1   2   6   14.64    1.61
   1   2   6   13.07    0.97
  -1   2  -6   13.44    0.71
  -1   2  -6   14.25    0.75
  -1   2  -6   14.34    0.82
   1   2   6   14.41    0.74
  -1   2  -6   13.68    0.76
   1   2   6   14.40    0.78
   1   2   6   14.74    0.81
  -2  -2  -6   25.37    2.87
  -2  -2  -6   30.79    1.90
   2  -2   6   31.61    1.57
  -2  -2  -6   31.41    1.55
   2  -2   6   32.35    1.60
   2  -2   6   32.41    1.56
   2  -2   6   32.39    1.58
   2  -2   6   29.84    2.23
   2  -2   6   30.96    1.55
  -2  -2  -6   33.82    1.57
   2  -2   6   30.76    1.93
  -2  -2  -6   31.53    1.58
   2   2   6   35.41    4.11
  -2   2  -6   27.99    3.53
   2   2   6   32.00    1.66
  -2   2  -6   31.15    1.59
   2   2   6   32.62    1.57
  -2   2  -6   36.18    3.71
   2   2   6   32.18    1.62
  -2   2  -6   29.29    1.54
  -2   2  -6   32.74    1.60
  -2   2  -6   31.12    1.59
   3  -2   6   27.87    1.89
  -3  -2  -6   28.84    1.48
  -3  -2  -6   29.56    1.87
   3  -2   6   30.54    1.47
   3  -2   6   30.32    1.49
   3  -2   6   29.28    1.47
   3  -2   6   30.07    1.52
  -3  -2  -6   28.04    1.46
   3  -2   6   28.94    1.50
  -3  -2  -6   31.85    1.49
  -3  -2  -6   29.81    1.51
  -3  -2  -6   29.33    1.46
   3  -2   6   27.99    1.98
  -3   2  -6   29.24    1.47
  -3   2  -6   30.21    1.50
   3   2   6   30.87    1.48
   3   2   6   30.31    1.54
   3   2   6   30.45    1.59
  -3   2  -6   31.17    1.53
  -3   2  -6   29.50    1.50
   3   2   6   28.39    1.49
  -3   2  -6   27.42    1.49
   4  -2   6   12.67    0.70
   4  -2   6   12.97    1.11
   4  -2   6   11.79    0.66
  -4  -2  -6   11.86    0.67
  -4  -2  -6   11.89    0.69
   4  -2   6   12.13    0.70
   4  -2   6   12.43    0.68
   4  -2   6   12.42    0.65
  -4  -2  -6   11.76    0.64
  -4  -2  -6   10.28    0.72
   4  -2   6   13.04    0.68
  -4  -2  -6   13.91    1.11
   4  -2   6   12.20    1.21
  -4  -2  -6   11.87    0.67
  -4  -2  -6   12.92    1.25
  -4   2  -6   12.35    0.70
   4   2   6   12.88    0.66
   4   2   6   11.43    0.62
  -4   2  -6   11.17    0.62
   4   2   6   12.41    0.77
  -4   2  -6   10.07    0.70
  -4   2  -6   12.45    0.67
  -4   2  -6   12.03    0.68
   4   2   6   11.61    0.66
   4   2   6   12.66    0.66
   4   2   6   12.28    0.67
   4   2   6   12.23    0.66
   4   2   6   10.35    0.81
   5  -2   6   44.37    2.28
   5  -2   6   43.82    2.21
  -5  -2  -6   43.94    2.24
  -5  -2  -6   43.93    2.21
   5  -2   6   44.57    2.24
  -5  -2  -6   44.28    2.23
  -5  -2  -6   43.10    2.23
  -5  -2  -6   45.25    2.22
   5  -2   6   44.27    2.25
   5  -2   6   43.46    2.20
   5  -2   6   44.73    2.29
  -5  -2  -6   45.04    2.26
   5   2   6   44.98    2.37
   5   2   6   47.28    2.23
  -5   2  -6   49.25    2.26
   5   2   6   44.70    2.24
   5   2   6   49.08    2.28
   5   2   6   48.43    2.24
   5   2   6   44.01    2.18
  -5   2  -6   43.96    2.25
   5   2   6   41.49    2.22
  -6  -2  -6    3.64    0.31
   6  -2   6    3.56    0.25
  -6  -2  -6    3.78    0.28
   6  -2   6    3.36    0.26
   6  -2   6    3.47    0.24
  -6  -2  -6    3.49    0.27
  -6  -2  -6    3.83    0.27
  -6  -2  -6    3.77    0.29
  -6  -2  -6    3.85    0.33
   6   2   6    3.65    0.22
   6   2   6    3.78    0.28
   6   2   6    3.57    0.27
   6   2   6    3.71    0.27
   6   2   6    3.49    0.26
   6   2   6    3.16    0.27
   6   2   6    3.54    0.24
  -6   2  -6    3.50    0.28
   6   2   6    3.80    0.27
  -7  -2  -6    2.37    0.22
  -7  -2  -6    2.31    0.19
  -7  -2  -6    2.25    0.20
  -7  -2  -6    2.23    0.19
  -7  -2  -6    2.26    0.23
   7  -2   6    2.25    0.16
   7   2   6    2.17    0.18
  -7   2  -6    2.29    0.21
   7   2   6    2.33    0.19
   7   2   6    2.18    0.19
   7   2   6    2.24    0.17
  -8  -2  -6   10.50    0.58
  -8  -2  -6   11.32    0.58
  -8  -2  -6   11.15    0.61
  -8  -2  -6   11.33    0.59
  -8   2  -6   10.52    0.60
   8   2   6    9.49    0.58
   8   2   6   10.74    0.58
   9   2   6    3.26    0.19
   9   2   6    3.68    0.18
  -9   2  -6    2.98    0.18
  -9  -3   6    2.98    0.21
  -9  -3   6    3.09    0.22
   9   3  -6    3.67    0.21
   9   3  -6    2.93    0.21
   9   3  -6    3.63    0.22
   9   3  -6    2.87    0.18
   9   3  -6    3.69    0.19
  -8  -3   6    3.97    0.30
  -8  -3   6    5.38    0.32
  -8  -3   6    4.88    0.37
  -8  -3   6    3.91    0.33
   8   3  -6    5.19    0.33
   8   3  -6    5.11    0.28
   8   3  -6    5.06    0.31
   8   3  -6    5.10    0.32
  -7  -3   6    0.25    0.09
  -7  -3   6    0.20    0.07
  -7  -3   6    0.14    0.07
  -7  -3   6    0.22    0.06
   7  -3  -6    0.27    0.08
   7  -3  -6    0.18    0.06
  -7  -3   6    0.22    0.08
   7  -3  -6    0.38    0.15
   7  -3  -6    0.20    0.08
   7   3  -6    0.20    0.07
  -7   3   6    0.24    0.07
   7   3  -6    0.25    0.07
   7   3  -6    0.16    0.06
   7   3  -6    0.15    0.06
   7   3  -6    0.18    0.05
   7   3  -6    0.24    0.09
  -7   3   6    0.25    0.07
   6  -3  -6    8.93    0.51
  -6  -3   6    9.24    0.54
  -6  -3   6    9.16    0.51
   6  -3  -6    8.47    0.59
   6  -3  -6    9.06    0.55
  -6  -3   6    9.09    0.58
   6  -3  -6    8.59    0.52
   6   3  -6    8.67    0.49
   6   3  -6    7.55    0.46
  -6   3   6    9.12    0.50
   6   3  -6    8.75    0.55
   6   3  -6    8.54    0.48
   6   3  -6    7.62    0.46
   6   3  -6    8.52    0.54
   6   3  -6    8.66    0.47
   6   3  -6    8.18    0.51
   6   3  -6    8.61    0.48
   5  -3  -6  134.94    6.57
  -5  -3   6  146.86    6.56
  -5  -3   6  145.94    6.54
  -5  -3   6  144.09    6.53
  -5  -3   6  140.20    6.60
   5  -3  -6  137.51    6.55
   5  -3  -6  133.67    6.54
   5   3  -6  137.75    6.51
   5   3  -6  132.65    6.59
   5   3  -6  141.80    6.51
   5   3  -6  139.30    6.51
   5   3  -6  122.29    6.55
   5   3  -6  124.13    6.55
  -5   3   6  135.63    6.53
  -5   3   6  144.05    6.53
   5   3  -6  131.54    6.59
  -5   3   6  131.61    6.80
   5   3  -6  133.81    6.60
  -5   3   6  132.13    6.61
   5   3  -6  131.22    6.58
   4  -3  -6   19.49    1.07
  -4  -3   6   20.46    1.02
   4  -3  -6   19.30    1.04
   4  -3  -6   19.92    1.11
   4  -3  -6   18.48    1.05
   4  -3  -6   19.78    1.05
   4  -3  -6   19.94    1.04
  -4  -3   6   20.19    1.04
  -4  -3   6   20.89    1.01
  -4  -3   6   20.89    1.07
   4   3  -6   20.26    1.01
   4   3  -6   19.83    1.08
   4   3  -6   21.03    1.01
   4   3  -6   20.04    1.04
  -4   3   6   19.52    1.17
   4   3  -6   19.61    1.08
   4   3  -6   18.97    1.07
   4   3  -6   18.92    0.99
  -4   3   6   21.00    1.03
   4   3  -6   18.95    1.00
   4   3  -6   19.53    1.07
  -4   3   6   21.16    1.05
  -4   3   6   19.64    1.09
   4   3  -6   19.85    1.01
   3  -3  -6   12.64    0.71
  -3  -3   6   13.58    0.68
   3  -3  -6   12.46    0.68
   3  -3  -6   12.77    1.41
   3  -3  -6   13.90    1.13
  -3  -3   6   14.67    1.59
  -3  -3   6   13.45    0.66
   3  -3  -6   12.74    0.71
  -3  -3   6   12.81    0.70
   3  -3  -6   11.12    0.71
  -3  -3   6   11.84    0.72
   3  -3  -6   12.29    0.74
   3   3  -6   12.50    0.69
  -3   3   6   12.73    0.76
  -3   3   6   13.12    0.70
  -3   3   6   12.58    0.82
  -3   3   6   12.93    0.78
   3   3  -6   11.87    0.72
   3   3  -6   12.67    0.66
   3   3  -6   12.36    0.65
   3   3  -6   12.20    0.65
   3   3  -6   13.21    0.66
   3   3  -6   12.17    0.72
  -3   3   6   13.22    0.68
   3   3  -6   12.63    0.66
   2  -3  -6   23.85    1.60
  -2  -3   6   23.39    1.14
  -2  -3   6   23.43    1.15
  -2  -3   6   22.42    1.15
   2  -3  -6   22.89    1.19
   2  -3  -6   23.37    1.17
   2  -3  -6   22.47    1.16
   2  -3  -6   23.33    1.16
   2  -3  -6   24.18    1.22
   2  -3  -6   26.04    1.59
  -2  -3   6   23.20    1.18
  -2  -3   6   21.36    1.52
   2   3  -6   22.26    1.15
   2   3  -6   22.55    1.14
   2   3  -6   22.69    1.22
   2   3  -6   22.86    1.19
   2   3  -6   22.42    1.14
  -2   3   6   23.78    1.21
  -2   3   6   23.71    1.16
  -2   3   6   21.90    1.21
  -2   3   6   22.55    1.32
  -2   3   6   22.90    1.21
   2   3  -6   21.62    1.19
  -2   3   6   24.16    1.18
  -2   3   6   22.81    1.22
   2   3  -6   23.01    1.21
   2   3  -6   22.46    1.14
  -2   3   6   21.50    1.14
   2   3  -6   22.61    1.15
   1  -3  -6    8.99    0.87
   1  -3  -6    9.15    0.52
   1  -3  -6    9.90    0.88
   1  -3  -6    9.95    0.53
  -1  -3   6   10.58    0.84
   1  -3  -6   10.61    0.81
   1  -3  -6    9.70    0.57
  -1  -3   6    9.72    0.52
  -1  -3   6    9.73    0.55
   1  -3  -6    9.43    0.52
  -1  -3   6    9.36    0.51
   1  -3  -6    9.33    0.54
  -1  -3   6    9.27    0.53
   1   3  -6    9.62    0.52
  -1   3   6    9.82    0.60
   1   3  -6    9.86    0.57
   1   3  -6    9.93    0.58
  -1   3   6   10.03    0.60
  -1   3   6    9.44    0.66
   1   3  -6    9.49    0.58
   1   3  -6    9.65    0.51
  -1   3   6   10.03    0.55
  -1   3   6   10.09    0.54
   1   3  -6    9.43    0.52
  -1   3   6    9.36    0.59
  -1   3   6    9.76    0.54
   1   3  -6   11.34    0.73
   1   3  -6    9.63    0.51
   1   3  -6    9.70    0.52
   0  -3  -6   23.75    1.16
   0  -3   6   23.45    1.16
   0  -3   6   23.70    1.14
   0  -3  -6   22.93    1.19
   0  -3   6   23.48    1.54
   0  -3   6   23.56    1.18
   0  -3  -6   24.78    1.62
   0  -3   6   22.53    1.15
   0  -3  -6   22.04    1.14
   0  -3  -6   22.33    1.16
   0   3   6   22.49    1.22
   0   3   6   22.57    1.16
   0   3  -6   23.33    1.22
   0   3  -6   22.72    1.15
   0   3  -6   22.74    1.20
   0   3  -6   22.47    1.20
   0   3   6   24.25    1.17
   0   3   6   23.08    1.17
   0   3  -6   21.96    1.13
   0   3   6   22.37    1.15
   0   3   6   24.89    3.17
   0   3   6   22.24    1.21
   0   3  -6   21.99    1.14
   0   3  -6   23.34    1.14
   0   3  -6   22.38    1.24
   0   3   6   22.87    1.24
   0   3  -6   21.75    1.13
  -1  -3  -6   21.54    1.12
  -1  -3  -6   21.13    1.54
   1  -3   6   22.35    1.11
   1  -3   6   22.36    1.13
   1  -3   6   23.03    1.15
   1  -3   6   21.38    1.68
  -1  -3  -6   24.86    1.12
   1  -3   6   23.47    1.13
   1  -3   6   22.55    1.11
   1  -3   6   20.07    1.47
  -1  -3  -6   22.26    1.14
  -1  -3  -6   22.07    1.10
   1   3   6   20.73    1.15
  -1   3  -6   22.21    1.18
   1   3   6   21.70    1.14
  -1   3  -6   21.30    1.13
   1   3   6   21.77    1.22
  -1   3  -6   21.18    1.15
  -1   3  -6   20.97    1.09
  -1   3  -6   21.86    1.10
   1   3   6   22.36    1.11
  -1   3  -6   21.67    1.17
   1   3   6   23.17    1.14
   1   3   6   21.14    1.25
   1   3   6   22.39    1.18
  -1   3  -6   21.36    1.10
   1   3   6   21.93    1.19
   1   3   6   22.11    1.12
  -1   3  -6   21.01    1.09
  -1   3  -6   23.21    1.22
   2  -3   6    4.13    0.28
   2  -3   6    4.04    0.26
  -2  -3  -6    3.83    0.26
   2  -3   6    4.09    0.32
   2  -3   6    4.16    0.30
  -2  -3  -6    3.83    0.83
  -2  -3  -6    4.00    0.28
  -2  -3  -6    3.37    0.24
   2  -3   6    4.83    0.58
   2  -3   6    4.13    0.37
  -2  -3  -6    3.92    0.25
  -2   3  -6    3.87    0.27
  -2   3  -6    3.74    0.25
  -2   3  -6    4.08    0.34
  -2   3  -6    4.03    0.29
  -2   3  -6    4.15    0.31
  -2   3  -6    3.89    0.27
  -2   3  -6    3.00    0.34
   2   3   6    4.14    0.44
   2   3   6    3.92    0.27
   2   3   6    3.95    0.31
  -2   3  -6    3.72    0.24
   2   3   6    3.69    0.35
  -2   3  -6    3.60    0.23
   2   3   6    3.71    0.27
   2   3   6    4.04    0.28
  -2   3  -6    3.73    0.28
   2   3   6    3.88    0.27
   2   3   6    3.89    0.28
   2   3   6    3.87    0.25
   3  -3   6    1.37    0.18
   3  -3   6    1.22    0.14
   3  -3   6    0.84    0.15
  -3  -3  -6    1.13    0.14
  -3  -3  -6    1.36    0.13
  -3  -3  -6    1.21    0.12
   3  -3   6    1.24    0.14
   3  -3   6    1.28    0.16
  -3  -3  -6    1.37    0.15
  -3   3  -6    1.26    0.18
   3   3   6    1.21    0.15
  -3   3  -6    1.26    0.15
   3   3   6    1.17    0.12
   3   3   6    1.38    0.15
  -3   3  -6    0.97    0.16
   3   3   6    1.25    0.14
   3   3   6    0.92    0.18
  -3   3  -6    1.15    0.11
  -3   3  -6    1.19    0.15
   3   3   6    1.25    0.17
  -3   3  -6    1.23    0.17
   3   3   6    1.19    0.14
   3   3   6    1.22    0.20
   3   3   6    1.20    0.14
  -3   3  -6    1.29    0.13
  -4  -3  -6   23.93    1.21
  -4  -3  -6   23.99    1.21
  -4  -3  -6   23.69    1.26
   4  -3   6   22.23    1.27
   4  -3   6   23.17    1.24
   4  -3   6   24.01    1.22
  -4  -3  -6   23.37    1.23
   4  -3   6   24.20    1.23
   4  -3   6   23.15    1.22
   4  -3   6   24.27    1.30
   4   3   6   23.56    1.23
   4   3   6   23.09    1.23
   4   3   6   24.62    1.23
   4   3   6   23.61    1.23
   4   3   6   25.30    1.53
   4   3   6   26.27    1.33
   4   3   6   22.90    1.19
  -4   3  -6   24.21    1.31
  -4   3  -6   22.87    1.24
   4   3   6   23.96    1.24
  -4   3  -6   23.34    1.23
  -5  -3  -6  116.36    5.48
  -5  -3  -6  113.83    5.41
   5  -3   6  126.35    5.52
   5  -3   6  111.16    5.41
   5  -3   6  111.44    5.43
   5  -3   6  109.92    5.44
  -5  -3  -6  120.24    5.45
   5  -3   6  112.51    5.49
   5   3   6  114.99    5.43
   5   3   6  115.16    5.43
   5   3   6   99.67    5.43
  -5   3  -6  115.51    5.44
   5   3   6  106.46    5.39
   5   3   6  114.41    5.44
  -5   3  -6  104.12    5.43
   5   3   6  106.85    5.37
   5   3   6  112.57    5.42
   6  -3   6    9.85    0.56
  -6  -3  -6    8.48    0.59
   6  -3   6    9.52    0.57
   6  -3   6    9.59    0.55
  -6  -3  -6   10.85    0.59
   6  -3   6    9.99    0.55
  -6  -3  -6   10.46    0.56
  -6  -3  -6   10.97    0.57
   6  -3   6    9.16    0.61
  -6  -3  -6   10.55    0.58
   6   3   6   10.24    0.56
  -6   3  -6   10.49    0.66
   6   3   6    9.74    0.51
   6   3   6    9.86    0.56
   6   3   6   10.26    0.57
   6   3   6   10.34    0.57
   6   3   6    9.89    0.54
   6   3   6    8.74    0.59
   6   3   6   10.20    0.56
  -7  -3  -6    1.01    0.12
  -7  -3  -6    1.36    0.14
  -7  -3  -6    1.34    0.15
  -7  -3  -6    1.34    0.14
  -7  -3  -6    1.40    0.17
   7   3   6    1.20    0.14
   7   3   6    1.38    0.15
   7   3   6    1.14    0.11
   7   3   6    1.31    0.14
   7   3   6    1.13    0.13
  -7   3  -6    1.25    0.18
   7   3   6    1.19    0.13
  -8  -3  -6    3.66    0.24
   8   3   6    4.62    0.24
  -8   3  -6    4.62    0.23
   8   3   6    3.50    0.25
   8   3   6    3.91    0.24
   8   3   6    4.59    0.25
  -8  -4   6    0.33    0.07
   8   4  -6    0.38    0.06
  -8   4   6    0.35    0.07
   8   4  -6    0.41    0.06
   8   4  -6    0.32    0.05
   8   4  -6    0.33    0.07
   8   4  -6    0.40    0.07
  -7  -4   6   12.15    0.72
   7  -4  -6   12.87    0.74
   7  -4  -6   15.03    0.73
   7  -4  -6   12.77    0.76
  -7  -4   6   11.72    0.74
  -7  -4   6   12.57    0.75
  -7  -4   6   11.72    0.74
   7   4  -6   14.63    0.74
   7   4  -6   14.43    0.69
   7   4  -6   14.87    0.75
  -7   4   6   14.31    0.71
   7   4  -6   13.27    0.70
  -7   4   6   14.28    0.71
   7   4  -6   15.27    0.70
   7   4  -6   13.39    0.69
  -7   4   6   14.72    0.72
   6  -4  -6   43.45    2.15
  -6  -4   6   39.87    2.13
  -6  -4   6   39.25    2.16
  -6  -4   6   37.08    2.18
   6  -4  -6   46.25    2.15
   6  -4  -6   42.20    2.22
   6  -4  -6   41.15    2.16
   6   4  -6   44.93    2.11
   6   4  -6   45.12    2.17
   6   4  -6   44.36    2.17
   6   4  -6   43.99    2.10
   6   4  -6   44.39    2.10
  -6   4   6   46.65    2.13
  -6   4   6   46.39    2.13
   6   4  -6   43.98    2.12
  -5  -4   6    6.64    0.41
   5  -4  -6    7.25    0.44
   5  -4  -6    6.92    0.44
   5  -4  -6    7.28    0.43
   5  -4  -6    6.95    0.46
  -5  -4   6    5.78    0.40
   5   4  -6    7.63    0.43
   5   4  -6    7.58    0.47
   5   4  -6    7.03    0.40
   5   4  -6    6.93    0.41
   5   4  -6    6.16    0.37
   5   4  -6    6.18    0.37
  -5   4   6    6.98    0.42
   5   4  -6    7.08    0.40
  -5   4   6    7.14    0.42
  -5   4   6    7.24    0.42
  -5   4   6    7.73    0.64
   4  -4  -6   34.24    1.71
   4  -4  -6   35.42    1.74
   4  -4  -6   34.80    1.79
  -4  -4   6   36.77    1.73
   4  -4  -6   34.67    1.69
  -4  -4   6   28.55    1.68
  -4   4   6   33.27    1.69
   4   4  -6   32.08    1.64
  -4   4   6   34.46    1.68
  -4   4   6   34.08    1.68
   4   4  -6   33.56    1.72
   4   4  -6   31.81    1.64
  -4   4   6   33.88    1.84
   4   4  -6   32.83    1.73
  -4   4   6   33.38    1.65
   4   4  -6   34.05    1.66
  -4   4   6   33.93    1.68
  -4   4   6   32.44    1.71
   4   4  -6   35.13    1.66
   4   4  -6   33.53    1.66
  -3  -4   6    1.38    0.13
   3  -4  -6    1.67    0.17
  -3  -4   6    1.31    0.14
   3  -4  -6    1.58    0.17
   3  -4  -6    1.75    0.19
   3  -4  -6    1.41    0.16
   3   4  -6    1.72    0.15
  -3   4   6    1.33    0.15
   3   4  -6    1.66    0.15
   3   4  -6    1.48    0.19
   3   4  -6    1.28    0.16
  -3   4   6    1.11    0.20
   3   4  -6    1.13    0.17
  -3   4   6    1.35    0.18
   3   4  -6    1.46    0.16
  -3   4   6    1.43    0.16
   3   4  -6    1.14    0.18
  -3   4   6    1.35    0.15
  -3   4   6    1.37    0.13
  -3   4   6    1.50    0.14
   3   4  -6    1.25    0.13
  -3   4   6    1.52    0.25
  -3   4   6    1.55    0.16
   3   4  -6    1.46    0.14
   3   4  -6    1.25    0.13
   2  -4  -6    1.64    0.16
   2  -4  -6    1.62    0.18
  -2  -4   6    1.29    0.12
  -2  -4   6    1.38    0.13
  -2  -4   6    1.22    0.14
   2  -4  -6    1.58    0.18
   2  -4  -6    1.51    0.15
   2   4  -6    1.68    0.26
  -2   4   6    1.38    0.14
  -2   4   6    1.33    0.15
   2   4  -6    1.51    0.18
  -2   4   6    1.49    0.16
  -2   4   6    1.61    0.17
   2   4  -6    1.42    0.14
   2   4  -6    1.61    0.20
  -2   4   6    1.46    0.15
  -2   4   6    1.55    0.17
   2   4  -6    1.55    0.15
   2   4  -6    1.62    0.14
  -2   4   6    1.29    0.20
   2   4  -6    1.56    0.15
   2   4  -6    1.81    0.23
  -2   4   6    1.50    0.19
  -2   4   6    1.62    0.25
  -2   4   6    1.42    0.18
   2   4  -6    1.58    0.14
  -1  -4   6    2.92    0.20
  -1  -4   6    2.71    0.21
   1  -4  -6    2.59    0.21
   1  -4  -6    2.75    0.23
   1  -4  -6    2.79    0.21
  -1  -4   6    2.71    0.20
  -1  -4   6    2.73    0.24
   1  -4  -6    2.62    0.20
  -1   4   6    2.50    0.27
  -1   4   6    2.76    0.20
  -1   4   6    2.32    0.21
   1   4  -6    2.65    0.23
  -1   4   6    2.90    0.22
   1   4  -6    2.51    0.24
   1   4  -6    2.46    0.25
   1   4  -6    2.37    0.21
   1   4  -6    2.64    0.26
   1   4  -6    2.95    0.28
  -1   4   6    2.61    0.20
   0  -4   6    3.50    0.25
   0  -4  -6    3.86    0.37
   0  -4  -6    3.41    0.23
   0  -4  -6    3.48    0.24
   0  -4   6    3.60    0.23
   0  -4   6    3.68    0.24
   0  -4  -6    3.38    0.25
   0  -4   6    2.78    0.22
   0   4   6    2.93    0.30
   0   4  -6    3.36    0.28
   0   4   6    3.14    0.22
   0   4   6    3.00    0.31
   0   4   6    3.08    0.24
   0   4  -6    2.89    0.32
   0   4  -6    2.95    0.28
   0   4   6    3.21    0.25
   0   4   6    3.21    0.22
   0   4   6    3.70    0.47
   0   4  -6    3.18    0.29
   0   4  -6    3.19    0.25
  -1  -4  -6    3.51    0.25
   1  -4   6    3.59    0.28
   1  -4   6    3.64    0.25
  -1  -4  -6    3.53    0.23
  -1  -4  -6    3.48    0.28
  -1  -4  -6    3.74    0.26
   1  -4   6    3.65    0.24
   1  -4   6    3.79    0.27
   1   4   6    4.34    0.42
  -1   4  -6    3.42    0.24
   1   4   6    3.24    0.26
   1   4   6    3.63    0.27
   1   4   6    3.70    0.38
  -1   4  -6    3.70    0.33
   1   4   6    3.01    0.32
   1   4   6    3.71    0.27
  -1   4  -6    3.39    0.27
  -1   4  -6    3.43    0.23
  -1   4  -6    3.39    0.23
   1   4   6    2.92    0.24
   1   4   6    3.27    0.29
  -1   4  -6    3.27    0.23
  -1   4  -6    3.37    0.23
   1   4   6    3.77    0.26
   1   4   6    3.31    0.24
  -1   4  -6    4.27    0.37
  -1   4  -6    2.94    0.29
   2  -4   6    5.77    0.37
  -2  -4  -6    6.26    0.35
  -2  -4  -6    5.59    0.35
  -2  -4  -6    5.79    0.33
   2  -4   6    5.79    0.35
   2  -4   6    6.48    0.49
   2  -4   6    5.02    0.37
   2   4   6    5.33    0.36
  -2   4  -6    5.14    0.40
  -2   4  -6    5.44    0.43
   2   4   6    5.34    0.45
  -2   4  -6    5.13    0.30
  -2   4  -6    5.67    0.37
  -2   4  -6    5.45    0.33
  -2   4  -6    5.58    0.32
   2   4   6    5.19    0.44
   2   4   6    5.49    0.40
   2   4   6    5.53    0.36
  -2   4  -6    5.34    0.41
   2   4   6    5.57    0.35
  -2   4  -6    5.46    0.32
  -2   4  -6    5.47    0.33
   2   4   6    5.60    0.34
  -2   4  -6    5.28    0.32
   2   4   6    5.78    0.37
   2   4   6    4.99    0.34
   2   4   6    5.09    0.42
  -3  -4  -6    7.07    0.44
   3  -4   6    7.03    0.47
   3  -4   6    7.09    0.45
  -3  -4  -6    7.59    0.43
   3  -4   6    6.96    0.42
  -3   4  -6    6.87    0.39
  -3   4  -6    6.71    0.39
  -3   4  -6    6.57    0.38
  -3   4  -6    6.68    0.43
  -3   4  -6    6.66    0.38
   3   4   6    6.56    0.45
  -3   4  -6    7.02    0.49
   3   4   6    6.81    0.41
   3   4   6    7.22    0.42
  -3   4  -6    6.63    0.37
  -3   4  -6    7.01    0.40
   3   4   6    6.82    0.43
   3   4   6    7.49    0.44
   3   4   6    7.12    0.43
   3   4   6    6.90    0.40
   3   4   6    6.46    0.48
   4  -4   6   15.80    0.89
   4  -4   6   16.00    0.86
   4  -4   6   16.73    0.87
   4  -4   6   17.66    1.00
  -4  -4  -6   17.65    0.86
  -4   4  -6   14.66    0.82
   4   4   6   15.33    0.91
  -4   4  -6   19.02    0.87
  -4   4  -6   14.48    0.82
   4   4   6   14.75    0.87
  -4   4  -6   15.48    0.83
  -4   4  -6   18.41    1.07
   4   4   6   16.41    0.87
  -4   4  -6   17.11    0.90
  -5  -4  -6    4.10    0.31
   5  -4   6    4.92    0.31
  -5  -4  -6    5.52    0.33
   5  -4   6    4.94    0.34
   5  -4   6    4.62    0.33
   5  -4   6    4.82    0.36
   5  -4   6    4.97    0.32
   5   4   6    4.84    0.31
  -5   4  -6    4.91    0.28
   5   4   6    4.72    0.29
   5   4   6    4.82    0.32
  -5   4  -6    4.97    0.29
   5   4   6    4.92    0.31
   5   4   6    5.03    0.33
  -5   4  -6    4.87    0.32
  -5   4  -6    4.84    0.29
   5   4   6    4.91    0.32
   5   4   6    4.70    0.32
   6  -4   6    4.20    0.27
  -6  -4  -6    3.43    0.25
  -6  -4  -6    4.06    0.29
   6  -4   6    3.66    0.25
  -6  -4  -6    3.57    0.27
  -6  -4  -6    3.44    0.25
   6  -4   6    4.11    0.25
   6  -4   6    3.63    0.27
   6   4   6    4.02    0.26
  -6   4  -6    4.29    0.24
  -6   4  -6    4.11    0.23
   6   4   6    4.19    0.23
   7  -4   6    1.51    0.10
  -7  -4  -6    1.25    0.11
  -7  -4  -6    1.25    0.12
   7   4   6    1.17    0.11
   7   4   6    1.49    0.11
  -7   4  -6    1.48    0.10
   7   4   6    1.35    0.09
   7   4   6    1.39    0.11
   7   4   6    1.29    0.13
   7   5  -6    5.00    0.28
   7   5  -6    6.00    0.30
   7   5  -6    5.53    0.28
   6  -5  -6   10.04    0.50
   6   5  -6    9.30    0.47
   6   5  -6    9.19    0.50
   6   5  -6    9.81    0.51
  -6   5   6    9.25    0.48
   6   5  -6    8.96    0.47
  -6   5   6    9.29    0.48
   6   5  -6    9.06    0.47
  -6   5   6    8.99    0.50
   5  -5  -6    4.89    0.29
   5  -5  -6    3.93    0.28
   5   5  -6    4.80    0.27
  -5   5   6    4.46    0.26
  -5   5   6    4.17    0.25
   5   5  -6    3.96    0.29
  -5   5   6    5.01    0.32
  -5   5   6    5.15    0.30
   5   5  -6    4.36    0.27
   5   5  -6    4.57    0.29
   4  -5  -6    1.82    0.19
   4  -5  -6    1.85    0.17
   4  -5  -6    1.85    0.17
   4  -5  -6    1.86    0.17
  -4   5   6    1.89    0.16
  -4   5   6    1.92    0.15
   4   5  -6    1.85    0.15
  -4   5   6    1.86    0.14
   4   5  -6    1.84    0.15
  -4   5   6    1.78    0.17
   4   5  -6    1.55    0.17
  -4   5   6    1.94    0.17
  -4   5   6    1.92    0.23
  -4   5   6    1.85    0.15
   4   5  -6    1.54    0.17
   4   5  -6    1.89    0.17
   4   5  -6    1.85    0.14
   3  -5  -6    1.60    0.16
   3  -5  -6    1.65    0.18
   3  -5  -6    1.29    0.15
  -3  -5   6    1.22    0.18
  -3  -5   6    1.24    0.12
   3  -5  -6    1.54    0.15
   3   5  -6    1.54    0.14
  -3   5   6    1.37    0.15
  -3   5   6    1.21    0.11
  -3   5   6    1.46    0.17
   3   5  -6    1.39    0.12
  -3   5   6    1.36    0.13
   3   5  -6    1.43    0.13
   3   5  -6    1.44    0.13
  -3   5   6    1.36    0.13
  -3   5   6    1.38    0.14
  -3   5   6    1.54    0.22
  -3   5   6    1.57    0.13
   3   5  -6    1.15    0.15
   3   5  -6    1.47    0.15
   3   5  -6    1.47    0.13
   2  -5  -6   11.09    0.64
   2  -5  -6   11.30    0.60
   2  -5  -6   11.50    0.58
   2  -5  -6   10.81    0.60
  -2  -5   6    9.38    0.57
  -2  -5   6    8.87    0.58
  -2  -5   6    9.40    0.63
  -2   5   6   10.02    0.56
   2   5  -6   10.24    0.54
  -2   5   6   10.39    0.69
   2   5  -6   10.00    0.54
  -2   5   6   10.35    0.55
   2   5  -6   10.21    0.54
  -2   5   6   10.44    0.56
   2   5  -6   10.09    0.54
   2   5  -6    9.99    0.54
  -2   5   6   10.05    0.55
   2   5  -6   10.42    0.57
  -2   5   6   10.75    0.61
   2   5  -6    8.65    0.60
   1  -5  -6    9.41    0.58
  -1  -5   6    9.91    0.59
   1  -5  -6    9.04    0.60
  -1  -5   6    9.62    0.57
   1  -5  -6    9.65    0.64
  -1  -5   6    9.99    0.58
   1  -5  -6   12.13    0.60
   1  -5  -6   12.16    0.63
   1   5  -6   11.01    0.57
  -1   5   6   11.55    0.73
  -1   5   6   11.33    0.64
  -1   5   6   10.90    0.57
   1   5  -6   10.78    0.57
   1   5  -6   10.12    0.58
   1   5  -6   10.96    0.56
   1   5  -6   10.44    0.65
  -1   5   6   11.49    0.60
   1   5  -6   11.41    0.58
  -1   5   6   11.16    0.57
  -1   5   6   11.40    0.59
  -1   5   6   10.71    0.57
   1   5  -6   11.04    0.56
   0  -5  -6    0.24    0.06
   0  -5   6    0.27    0.09
   0  -5  -6    0.17    0.07
   0  -5  -6    0.25    0.08
   0  -5   6    0.25    0.09
   0  -5   6    0.19    0.06
   0   5  -6    0.31    0.08
   0   5  -6    0.32    0.08
   0   5   6    0.33    0.10
   0   5  -6    0.32    0.10
   0   5   6    0.31    0.11
   0   5   6    0.24    0.06
   0   5   6    0.28    0.07
   0   5   6    0.26    0.12
   0   5   6    0.30    0.08
   0   5  -6    0.25    0.06
   0   5   6    0.25    0.06
   0   5  -6    0.27    0.07
   0   5   6    0.19    0.06
   0   5  -6    0.37    0.10
   0   5  -6    0.39    0.14
  -1  -5  -6    0.24    0.06
   1  -5   6    0.41    0.11
   1  -5   6    0.37    0.10
   1  -5   6    0.53    0.14
  -1  -5  -6    0.31    0.09
  -1  -5  -6    0.26    0.09
  -1  -5  -6    0.28    0.08
   1   5   6    0.52    0.12
  -1   5  -6    0.34    0.07
  -1   5  -6    0.51    0.09
  -1   5  -6    0.45    0.09
   1   5   6    0.34    0.11
  -1   5  -6    0.52    0.10
  -1   5  -6    0.47    0.11
   1   5   6    0.45    0.12
   1   5   6    0.44    0.10
  -1   5  -6    0.31    0.06
  -1   5  -6    0.47    0.10
   1   5   6    0.53    0.12
   1   5   6    0.39    0.09
   1   5   6    0.35    0.13
   2  -5   6   19.87    1.02
   2  -5   6   20.05    1.00
  -2  -5  -6   17.10    1.10
   2  -5   6   16.08    0.98
  -2   5  -6   19.73    0.96
   2   5   6   19.07    1.07
   2   5   6   20.49    1.00
  -2   5  -6   19.88    1.08
   2   5   6   19.46    1.03
  -2   5  -6   17.14    0.94
  -2   5  -6   19.36    0.97
  -2   5  -6   19.60    1.01
  -2   5  -6   20.92    0.97
   2   5   6   19.72    1.00
  -2   5  -6   20.98    0.97
  -2   5  -6   19.71    0.98
   2   5   6   18.41    1.00
   2   5   6   19.92    0.98
   2   5   6   20.36    1.00
   3  -5   6    1.29    0.14
   3  -5   6    1.63    0.15
   3  -5   6    1.20    0.20
   3  -5   6    1.52    0.16
  -3  -5  -6    1.26    0.14
   3   5   6    1.32    0.14
   3   5   6    1.42    0.15
  -3   5  -6    1.59    0.19
  -3   5  -6    1.59    0.13
   3   5   6    1.59    0.15
  -3   5  -6    1.50    0.12
   3   5   6    1.45    0.15
   3   5   6    1.41    0.15
  -3   5  -6    1.45    0.13
   3   5   6    1.52    0.13
  -3   5  -6    1.68    0.16
  -3   5  -6    1.37    0.14
  -3   5  -6    1.54    0.12
   4  -5   6    2.25    0.18
   4  -5   6    2.27    0.17
  -4  -5  -6    1.89    0.19
   4   5   6    2.46    0.17
   4   5   6    2.16    0.15
   4   5   6    2.33    0.15
  -4   5  -6    2.19    0.14
  -4   5  -6    2.17    0.14
  -4   5  -6    2.23    0.15
  -4   5  -6    1.87    0.22
  -4   5  -6    2.08    0.17
   4   5   6    1.98    0.17
   5  -5   6    2.66    0.18
   5   5   6    2.67    0.16
   5   5   6    2.71    0.18
  -5   5  -6    2.72    0.18
   5   5   6    2.15    0.18
  -5   5  -6    2.83    0.16
  -5   5  -6    2.25    0.17
   5   5   6    2.70    0.17
   5   5   6    2.80    0.18
   6  -5   6    3.99    0.21
   6   5   6    3.15    0.18
   6   5   6    3.11    0.19
   6   5   6    3.21    0.19
   4  -6  -6    1.91    0.14
  -4   6   6    2.13    0.12
   3  -6  -6    0.50    0.07
   3  -6  -6    0.68    0.08
  -3   6   6    0.55    0.08
   3   6  -6    0.62    0.07
  -3   6   6    0.64    0.06
  -3   6   6    0.63    0.07
  -3   6   6    0.46    0.08
  -3   6   6    0.66    0.06
   3   6  -6    0.48    0.06
   3   6  -6    0.61    0.06
  -3   6   6    0.60    0.10
   3   6  -6    0.64    0.06
   3   6  -6    0.49    0.06
   2  -6  -6    1.78    0.15
   2  -6  -6    1.90    0.15
   2   6  -6    1.97    0.13
  -2   6   6    2.10    0.13
   2   6  -6    1.95    0.13
   2   6  -6    1.85    0.13
  -2   6   6    2.08    0.16
  -2   6   6    1.93    0.14
  -2   6   6    2.09    0.19
  -2   6   6    1.91    0.14
   2   6  -6    1.97    0.13
   2   6  -6    2.03    0.12
  -2   6   6    1.96    0.14
   2   6  -6    1.89    0.15
   1  -6  -6    0.13    0.07
   1  -6  -6    0.15    0.05
   1   6  -6    0.15    0.05
  -1   6   6    0.16    0.04
   1   6  -6    0.20    0.05
   1   6  -6    0.13    0.06
   1   6  -6    0.13    0.04
  -1   6   6    0.12    0.04
   1   6  -6    0.22    0.05
  -1   6   6    0.10    0.04
  -1   6   6    0.12    0.06
  -1   6   6    0.17    0.07
   1   6  -6    0.11    0.04
  -1   6   6    0.11    0.05
  -1   6   6    0.14    0.03
   0   6  -6    0.66    0.11
   0   6   6    0.63    0.09
   0   6  -6    0.64    0.08
   0   6   6    0.63    0.11
   0   6   6    0.65    0.10
   0   6   6    0.64    0.07
   0   6  -6    0.54    0.07
   0   6  -6    0.55    0.07
   0   6   6    0.58    0.10
   0   6  -6    0.67    0.07
   0   6  -6    0.67    0.07
  -1   6  -6    4.78    0.31
  -1   6  -6    5.08    0.32
   1   6   6    5.08    0.30
   1   6   6    4.86    0.30
   1   6   6    4.53    0.29
  -1   6  -6    5.29    0.27
   1   6   6    5.22    0.27
  -1   6  -6    5.30    0.27
  -1   6  -6    5.33    0.27
   1   6   6    4.92    0.28
  -1   6  -6    4.87    0.27
  -2   6  -6    5.98    0.33
  -2   6  -6    5.54    0.31
  -2   6  -6    6.19    0.33
   2   6   6    6.33    0.34
   2   6   6    5.85    0.33
  -2   6  -6    6.04    0.36
  -2   6  -6    6.30    0.33
   2   6   6    5.77    0.32
  -2   6  -6    6.08    0.32
   2   6   6    6.66    0.33
   3  -6   6    2.17    0.16
  -3   6  -6    1.91    0.13
  -3   6  -6    1.82    0.15
   3   6   6    2.12    0.13
  -3   6  -6    2.47    0.13
   3   6   6    2.18    0.13
  -3   6  -6    1.91    0.13
   3   6   6    2.27    0.12
  -3   6  -6    2.36    0.14
  -3   6  -6    1.82    0.12
  10   0  -7    5.94    0.34
  10   0  -7    5.45    0.31
  -9   0   7    8.24    0.45
   9   0  -7    6.69    0.47
  -9   0   7    8.30    0.44
  -8   0   7    1.10    0.13
  -8   0   7    1.26    0.14
  -8   0   7    1.11    0.14
   8   0  -7    1.08    0.16
  -8   0   7    1.17    0.16
  -7   0   7    0.72    0.11
   7   0  -7    0.64    0.13
   7   0  -7    0.79    0.10
  -7   0   7    0.73    0.12
  -7   0   7    0.68    0.13
  -7   0   7    0.67    0.14
  -7   0   7    0.63    0.15
  -7   0   7    0.68    0.11
  -6   0   7    0.14    0.05
   6   0  -7    0.07    0.20
   6   0  -7    0.16    0.04
  -6   0   7   -0.06    0.35
  -6   0   7    0.21    0.07
   6   0  -7    0.19    0.07
  -6   0   7    0.21    0.08
   6   0  -7    0.18    0.07
  -5   0   7    4.51    0.31
  -5   0   7    4.22    0.28
  -5   0   7    4.18    0.30
  -5   0   7    4.47    0.30
  -5   0   7    5.05    0.58
   5   0  -7    4.49    0.30
   5   0  -7    4.51    0.55
  -5   0   7    4.55    0.35
  -5   0   7    4.43    0.29
   5   0  -7    4.50    0.27
   5   0  -7    4.44    0.29
  -5   0   7    4.32    0.53
   4   0  -7  129.67    6.45
  -4   0   7  122.45    6.09
  -4   0   7  123.58    6.04
  -4   0   7  129.22    8.45
   4   0  -7  121.69    6.10
   4   0  -7  116.40    6.04
  -4   0   7  132.80    6.49
  -4   0   7  124.89    6.33
  -4   0   7  123.82    6.04
   4   0  -7  131.33    6.05
  -4   0   7  133.05    7.92
   3   0  -7   18.38    0.94
  -3   0   7   20.23    1.27
  -3   0   7   15.02    2.32
   3   0  -7   18.13    1.03
   3   0  -7   18.13    0.97
  -3   0   7   17.86    1.15
  -3   0   7   17.15    2.33
  -3   0   7   16.08    2.62
  -3   0   7   18.05    0.94
  -3   0   7   18.54    1.94
  -3   0   7   21.51    2.31
  -3   0   7   19.02    0.98
   3   0  -7   19.84    0.95
   3   0  -7   18.58    1.24
  -3   0   7   17.55    0.95
  -3   0   7   21.12    2.11
  -3   0   7   22.53    2.44
  -3   0   7   18.34    0.94
  -3   0   7   17.45    0.93
   2   0  -7  104.09    5.33
  -2   0   7  103.58    5.20
   2   0  -7  110.98    5.21
  -2   0   7  110.84    5.43
  -2   0   7  112.54    7.03
  -2   0   7  116.72    7.73
   2   0  -7  109.16    5.24
  -2   0   7  110.11    5.53
   2   0  -7  110.97    5.21
   2   0  -7  106.27    5.51
  -2   0   7  112.77    6.79
  -2   0   7  114.33    6.73
  -2   0   7  100.52    6.66
  -2   0   7  100.41    5.22
  -2   0   7  111.09    7.26
  -2   0   7  110.03    5.21
   1   0  -7    3.68    0.93
   1   0  -7    5.49    0.94
   1   0  -7    4.61    1.17
  -1   0   7    5.47    0.96
  -1   0   7    5.35    0.87
   1   0  -7    3.30    1.15
   1   0  -7    5.37    0.30
  -1   0   7    5.06    1.00
  -1   0   7    4.74    0.43
  -1   0   7    5.06    0.30
  -1   0   7    6.75    1.12
   1   0  -7    5.64    0.42
  -1   0   7    5.31    0.32
  -1   0   7    5.67    0.31
   1   0  -7    5.13    0.28
   1   0  -7    5.10    0.32
   1   0  -7    5.03    0.32
   1   0  -7    4.66    0.28
   0   0   7   30.52    2.07
   0   0   7   31.47    1.48
   0   0  -7   28.86    1.48
   0   0   7   29.84    2.82
   0   0  -7   32.71    2.57
   0   0  -7   30.03    1.48
   0   0   7   28.78    1.66
   0   0   7   28.72    1.48
   0   0   7   29.84    1.50
   0   0  -7   24.37    2.64
   0   0  -7   31.34    1.68
   0   0   7   31.52    2.51
   0   0  -7   31.52    1.51
   0   0  -7   30.86    2.84
   1   0   7    3.68    0.26
   1   0   7    4.04    0.30
  -1   0  -7    3.50    0.37
  -1   0  -7    3.71    0.22
   1   0   7    3.24    0.42
   1   0   7    4.35    1.77
   1   0   7    3.63    0.79
  -1   0  -7    4.04    1.17
   1   0   7    3.33    0.23
   1   0   7    3.53    0.23
   1   0   7    4.13    1.09
  -1   0  -7    3.37    0.23
  -1   0  -7    3.35    0.22
  -1   0  -7    3.89    0.23
  -1   0  -7    4.83    0.95
   1   0   7    3.34    0.24
   1   0   7    3.48    0.37
  -1   0  -7    3.86    1.16
   2   0   7    1.03    0.59
  -2   0  -7    0.82    0.50
   2   0   7    0.69    0.28
  -2   0  -7    1.69    1.09
   2   0   7   -0.21    1.45
   2   0   7    0.71    0.10
   2   0   7    0.65    0.10
   2   0   7    0.59    0.10
  -2   0  -7    0.68    0.09
  -2   0  -7    0.85    0.10
  -2   0  -7    0.67    0.08
   2   0   7    1.98    1.04
  -2   0  -7    0.65    0.09
  -2   0  -7    1.05    0.21
  -2   0  -7    0.55    0.07
  -2   0  -7    0.76    0.10
  -2   0  -7   -0.05    0.71
   2   0   7    1.19    1.16
  -2   0  -7    0.76    0.10
   2   0   7    0.54    0.07
   3   0   7   37.88    1.73
  -3   0  -7   30.59    1.61
  -3   0  -7   33.40    1.64
  -3   0  -7   32.37    1.62
   3   0   7   31.97    1.99
   3   0   7   33.42    1.65
   3   0   7   31.43    1.99
   3   0   7   34.79    2.24
   3   0   7   30.09    4.45
   3   0   7   39.13    4.00
  -3   0  -7   34.29    2.04
  -3   0  -7   27.74    3.80
  -3   0  -7   32.24    1.72
  -3   0  -7   32.00    1.66
  -3   0  -7   33.24    1.65
  -3   0  -7   27.32    3.18
   3   0   7   39.11    4.28
  -3   0  -7   33.56    1.64
  -3   0  -7   29.66    3.43
  -4   0  -7   46.82    2.50
  -4   0  -7   51.24    2.52
  -4   0  -7   49.17    2.47
  -4   0  -7   54.81    2.52
  -4   0  -7   52.00    2.53
   4   0   7   52.34    2.49
  -4   0  -7   49.05    2.97
  -4   0  -7   53.60    3.02
  -4   0  -7   49.81    2.49
   4   0   7   50.53    2.99
  -4   0  -7   46.60    2.58
  -4   0  -7   52.46    2.47
  -4   0  -7   50.44    2.50
  -5   0  -7    1.66    0.17
   5   0   7    1.76    0.17
  -5   0  -7    2.00    0.22
  -5   0  -7    1.88    0.17
   5   0   7    2.21    0.19
  -5   0  -7    1.84    0.17
  -5   0  -7    2.06    0.17
  -5   0  -7    2.03    0.28
  -5   0  -7    2.01    0.20
  -5   0  -7    2.06    0.20
  -6   0  -7    0.35    0.12
  -6   0  -7    0.45    0.13
  -6   0  -7    0.21    0.07
   6   0   7    0.34    0.09
  -6   0  -7    0.25    0.13
  -6   0  -7    0.22    0.07
  -6   0  -7    0.22    0.08
  -6   0  -7    0.21    0.07
  -6   0  -7    0.14    0.13
   6   0   7    0.21    0.07
   7   0   7   29.08    1.43
  -7   0  -7   27.77    1.43
  -7   0  -7   29.53    1.48
  -7   0  -7   29.18    1.48
  -7   0  -7   27.46    1.45
  -7   0  -7   27.46    1.41
  -8   0  -7    0.37    0.09
  -8   0  -7    0.38    0.10
   8   0   7    0.29    0.08
  -9   0  -7    0.58    0.08
 -10  -1   7    0.12    0.08
  10  -1  -7    0.12    0.04
 -10  -1   7    0.11    0.04
  10   1  -7    0.14    0.05
  -9  -1   7   11.80    0.69
  -9  -1   7   12.04    0.67
  -9  -1   7   12.35    0.66
  -9  -1   7   12.13    0.65
   9   1  -7   12.24    0.67
   9   1  -7   12.46    0.67
   9   1  -7   11.42    0.62
  -8  -1   7    0.76    0.14
  -8  -1   7    0.75    0.13
  -8  -1   7    0.74    0.12
  -8  -1   7    0.64    0.12
  -8  -1   7    0.92    0.19
   8   1  -7    0.77    0.12
  -8   1   7    0.67    0.09
  -7  -1   7    0.82    0.15
  -7  -1   7    0.83    0.13
  -7  -1   7    0.79    0.12
   7  -1  -7    0.77    0.17
  -7  -1   7    1.07    0.15
  -7  -1   7    0.89    0.27
  -7  -1   7    0.88    0.13
   7  -1  -7    0.69    0.14
   7   1  -7    0.64    0.13
   7   1  -7    0.88    0.15
   7   1  -7    0.64    0.12
  -7   1   7    0.67    0.10
   7   1  -7    0.80    0.11
   7   1  -7    0.66    0.11
  -6  -1   7   77.65    3.75
  -6  -1   7   78.58    3.77
   6  -1  -7   81.85    3.76
  -6  -1   7   76.07    3.72
  -6  -1   7   81.13    3.74
  -6  -1   7   77.90    3.73
   6  -1  -7   75.19    3.70
   6   1  -7   76.74    3.74
  -6   1   7   70.76    3.71
  -6   1   7   69.78    3.73
  -6   1   7   80.89    3.93
   6   1  -7   78.21    3.69
   6   1  -7   76.08    3.75
  -6   1   7   71.07    3.70
  -6   1   7   72.29    3.71
   6   1  -7   81.30    3.68
   5  -1  -7   14.26    0.74
   5  -1  -7   13.53    0.76
   5  -1  -7   13.91    1.01
   5  -1  -7   13.90    0.76
   5  -1  -7   13.81    0.75
  -5  -1   7   13.98    0.77
  -5  -1   7   15.12    1.14
  -5  -1   7   14.99    0.82
  -5  -1   7   14.22    0.75
  -5  -1   7   15.39    1.16
  -5  -1   7   14.57    0.78
   5  -1  -7   14.63    1.12
   5  -1  -7   14.30    0.75
  -5  -1   7   15.52    0.77
   5  -1  -7   15.39    0.77
  -5   1   7   13.06    0.74
  -5   1   7   12.86    1.00
   5   1  -7   13.71    0.72
   5   1  -7   13.80    0.76
  -5   1   7   10.01    4.70
  -5   1   7   13.44    0.77
  -5   1   7   15.23    1.21
   5   1  -7   13.72    0.72
   5   1  -7   13.88    0.79
  -5   1   7   13.65    0.81
   5   1  -7   14.85    0.78
  -5   1   7   14.05    0.74
  -5   1   7   14.47    3.43
  -5   1   7   13.19    0.75
   5   1  -7   14.29    0.72
  -4  -1   7   38.99    1.92
  -4  -1   7   39.96    1.94
  -4  -1   7   42.31    2.31
   4  -1  -7   38.98    1.92
  -4  -1   7   39.75    2.30
   4  -1  -7   39.99    2.18
   4  -1  -7   40.70    1.93
   4  -1  -7   38.97    1.91
   4  -1  -7   39.76    1.92
   4  -1  -7   40.74    1.98
   4  -1  -7   38.14    1.94
  -4  -1   7   39.88    1.92
   4  -1  -7   40.78    2.30
  -4  -1   7   33.55    3.95
  -4   1   7   36.21    2.09
   4   1  -7   40.09    1.94
   4   1  -7   38.48    1.89
  -4   1   7   39.84    4.33
  -4   1   7   37.18    1.96
  -4   1   7   36.66    1.91
  -4   1   7   41.05    4.00
  -4   1   7   40.56    3.55
  -4   1   7   43.47    4.12
  -4   1   7   32.01    4.36
  -4   1   7   41.05    2.38
  -4   1   7   32.77    1.92
   4   1  -7   39.02    1.93
  -3  -1   7   17.32    1.15
   3  -1  -7   18.24    1.34
  -3  -1   7   14.80    1.91
  -3  -1   7   17.62    0.88
   3  -1  -7   17.49    0.88
  -3  -1   7   17.91    0.89
  -3  -1   7   14.82    2.49
  -3  -1   7   17.63    1.17
   3  -1  -7   17.20    0.93
   3  -1  -7   18.90    0.91
   3  -1  -7   17.38    0.89
  -3  -1   7   15.56    2.25
  -3  -1   7   17.71    0.90
   3  -1  -7   17.32    1.17
  -3  -1   7   17.65    0.90
   3  -1  -7   17.36    0.89
  -3  -1   7   17.91    0.93
   3  -1  -7   16.78    1.09
   3  -1  -7   17.39    0.89
   3   1  -7   17.32    0.90
   3   1  -7   16.93    0.90
  -3   1   7   18.04    1.98
  -3   1   7   18.54    1.25
  -3   1   7   17.42    0.91
   3   1  -7   18.55    0.88
  -3   1   7   15.67    0.92
  -3   1   7   16.47    2.20
  -3   1   7   16.30    0.89
  -3   1   7   16.99    2.57
  -3   1   7   17.43    1.02
  -3   1   7   17.26    2.40
   2  -1  -7    2.89    0.18
   2  -1  -7    2.94    0.19
  -2  -1   7    3.25    0.37
  -2  -1   7    2.26    0.90
  -2  -1   7    2.10    0.92
  -2  -1   7    3.04    0.35
  -2  -1   7    2.59    1.05
   2  -1  -7    2.93    0.40
  -2  -1   7    3.56    0.71
  -2  -1   7    1.74    1.29
  -2  -1   7    3.13    1.06
   2  -1  -7    2.84    0.20
  -2  -1   7    2.80    0.21
   2  -1  -7    2.96    0.32
  -2  -1   7    1.76    0.69
   2  -1  -7    3.08    0.23
  -2  -1   7    2.90    0.20
   2  -1  -7    2.76    0.19
   2  -1  -7    2.91    0.20
   2  -1  -7    2.80    0.35
  -2  -1   7    2.72    0.18
  -2  -1   7    3.07    0.19
   2   1  -7    2.81    0.25
  -2   1   7    2.57    0.25
  -2   1   7    2.26    0.79
   2   1  -7    2.43    0.18
  -2   1   7    2.71    0.21
  -2   1   7    2.74    0.86
  -2   1   7    2.33    0.37
  -2   1   7    2.31    0.23
  -2   1   7    2.55    0.19
   2   1  -7    3.10    0.20
  -2   1   7    2.96    1.40
  -2   1   7    3.67    1.26
  -2   1   7    3.24    0.95
   2   1  -7    2.74    0.20
  -1  -1   7    5.32    0.99
  -1  -1   7    4.25    0.80
   1  -1  -7    4.06    0.28
   1  -1  -7    4.35    0.41
  -1  -1   7    4.93    1.19
  -1  -1   7    4.35    1.03
  -1  -1   7    3.87    0.42
   1  -1  -7    4.58    0.26
   1  -1  -7    4.17    0.43
  -1  -1   7    4.22    0.26
  -1  -1   7    4.26    0.24
  -1  -1   7    3.93    0.25
   1  -1  -7    4.05    0.25
  -1  -1   7    4.53    0.42
   1  -1  -7    4.23    0.26
  -1  -1   7    4.38    0.28
  -1   1   7    3.49    0.78
   1   1  -7    3.98    1.01
   1   1  -7    4.15    0.26
  -1   1   7    3.88    1.13
   1   1  -7    4.25    0.26
   1   1  -7    3.65    0.84
  -1   1   7    4.42    1.00
   1   1  -7    3.31    0.93
  -1   1   7    4.32    1.07
  -1   1   7    4.30    0.27
   1   1  -7    3.56    0.77
  -1   1   7    4.16    0.33
   1   1  -7    4.02    0.23
  -1   1   7    3.90    0.25
   1   1  -7    3.77    0.33
   1   1  -7    4.22    0.26
   1   1  -7    3.51    0.24
   0  -1  -7   27.68    1.32
   0  -1   7   28.00    2.75
   0  -1   7   27.50    1.34
   0  -1  -7   20.88    2.34
   0  -1  -7   26.06    1.32
   0  -1   7   27.44    2.34
   0  -1   7   25.58    2.47
   0  -1   7   27.12    1.32
   0  -1   7   28.19    1.32
   0  -1  -7   28.99    1.57
   0  -1  -7   26.77    1.31
   0  -1   7   27.95    1.59
   0  -1  -7   25.07    3.25
   0  -1   7   26.89    1.30
   0  -1  -7   29.33    1.35
   0  -1   7   26.42    2.62
   0  -1  -7   25.55    2.71
   0   1  -7   26.54    1.32
   0   1   7   26.84    1.34
   0   1   7   26.03    2.34
   0   1  -7   25.59    1.50
   0   1  -7   26.84    1.33
   0   1  -7   24.33    1.31
   0   1  -7   25.25    1.30
   0   1   7   30.24    2.77
   0   1   7   26.06    1.35
   0   1   7   25.22    1.31
   0   1   7   25.58    1.45
   0   1   7   24.49    1.65
   0   1   7   26.63    2.55
   0   1   7   26.65    2.81
   0   1  -7   26.50    1.33
   1  -1   7    3.92    0.44
  -1  -1  -7    3.58    0.23
  -1  -1  -7    4.18    0.43
   1  -1   7    3.86    0.25
  -1  -1  -7    3.72    0.25
   1  -1   7    4.74    1.22
  -1  -1  -7    4.59    1.24
  -1  -1  -7    3.72    0.24
   1  -1   7    3.70    0.23
   1  -1   7    3.57    0.26
  -1  -1  -7    2.48    1.17
   1  -1   7    3.72    0.23
  -1  -1  -7    4.45    0.87
  -1  -1  -7    3.92    0.93
   1  -1   7    3.60    0.25
  -1  -1  -7    3.72    0.26
   1  -1   7    4.32    0.86
  -1  -1  -7    4.02    0.25
   1  -1   7    3.18    1.33
  -1   1  -7    4.70    1.33
   1   1   7    3.18    1.42
  -1   1  -7    4.00    0.26
  -1   1  -7    5.00    0.92
   1   1   7    4.13    0.29
  -1   1  -7    4.40    0.26
  -1   1  -7    4.03    0.26
   1   1   7    3.82    1.15
  -1   1  -7    4.28    0.24
   1   1   7    3.88    0.36
  -1   1  -7    4.24    0.41
  -1   1  -7    3.99    1.06
  -1   1  -7    3.68    0.24
   1   1   7    3.93    0.27
  -1   1  -7    3.62    0.23
   1   1   7    3.79    0.25
   2  -1   7   22.28    1.50
  -2  -1  -7   18.15    2.40
  -2  -1  -7   23.66    1.16
  -2  -1  -7   18.95    2.13
   2  -1   7   23.50    1.18
  -2  -1  -7   26.76    1.63
   2  -1   7   22.85    1.18
   2  -1   7   22.89    1.14
   2  -1   7   24.45    1.19
   2  -1   7   21.18    2.99
  -2  -1  -7   22.13    1.15
   2  -1   7   23.48    1.16
  -2  -1  -7   22.18    1.14
  -2  -1  -7   22.44    1.18
   2  -1   7   23.60    2.49
   2  -1   7   24.05    3.30
  -2  -1  -7   23.19    1.16
  -2  -1  -7   23.41    1.14
   2  -1   7   24.04    1.17
   2  -1   7   22.52    1.66
  -2   1  -7   23.40    1.48
  -2   1  -7   22.90    1.15
  -2   1  -7   23.26    1.17
   2   1   7   23.32    1.23
   2   1   7   19.06    2.73
   2   1   7   22.46    1.18
   2   1   7   24.07    2.74
   2   1   7   23.54    3.35
  -2   1  -7   23.18    1.17
  -2   1  -7   18.18    2.64
  -2   1  -7   20.73    2.46
  -2   1  -7   24.62    1.16
  -2   1  -7   21.79    1.24
   2   1   7   28.79    3.43
   2   1   7   22.99    1.40
  -3  -1  -7   24.69    1.22
  -3  -1  -7   23.35    1.19
   3  -1   7   24.22    1.24
  -3  -1  -7   25.01    1.25
   3  -1   7   21.34    5.09
  -3  -1  -7   25.45    1.20
   3  -1   7   22.61    1.58
   3  -1   7   24.59    1.61
  -3  -1  -7   23.21    1.21
   3  -1   7   23.85    1.80
   3  -1   7   25.36    1.25
   3  -1   7   24.27    1.19
   3  -1   7   24.95    1.20
   3  -1   7   26.59    3.77
  -3  -1  -7   24.63    1.57
   3  -1   7   24.57    1.21
  -3  -1  -7   24.20    1.22
  -3  -1  -7   23.02    1.21
  -3   1  -7   24.39    1.23
  -3   1  -7   20.92    1.41
  -3   1  -7   23.32    1.22
   3   1   7   21.57    1.50
  -3   1  -7   22.47    1.22
   3   1   7   24.66    1.30
  -3   1  -7   23.89    1.21
  -3   1  -7   20.46    1.17
   3   1   7   24.52    1.23
  -3   1  -7   24.83    1.62
  -4  -1  -7   84.77    3.95
  -4  -1  -7   82.47    3.93
  -4  -1  -7   81.54    3.91
   4  -1   7   80.26    3.91
   4  -1   7   80.14    3.89
  -4  -1  -7   74.80    4.53
   4  -1   7   79.34    3.91
   4  -1   7   79.55    3.96
  -4  -1  -7   83.63    3.97
   4  -1   7   88.39    4.10
  -4  -1  -7   80.50    3.94
  -4  -1  -7   80.17    3.94
   4  -1   7   80.45    3.90
  -4  -1  -7   80.05    3.90
   4  -1   7   72.93    4.37
  -4   1  -7   79.66    5.07
  -4   1  -7   82.57    4.06
   4   1   7   82.64    3.90
  -4   1  -7   82.10    3.95
   4   1   7   84.75    3.92
   4   1   7   80.77    4.03
   4   1   7   85.03    3.92
  -4   1  -7   74.89    3.88
  -4   1  -7   72.95    3.88
  -4   1  -7   85.11    3.94
  -4   1  -7   79.88    3.93
  -5  -1  -7    5.35    0.39
  -5  -1  -7    5.67    0.35
  -5  -1  -7    6.13    0.38
  -5  -1  -7    5.43    0.34
  -5  -1  -7    5.37    0.35
  -5  -1  -7    5.69    0.37
   5  -1   7    5.10    0.32
  -5  -1  -7    5.47    0.38
   5  -1   7    5.15    0.32
  -5  -1  -7    5.20    0.38
   5   1   7    5.37    0.35
   5   1   7    5.36    0.43
  -5   1  -7    4.85    0.31
  -5   1  -7    5.21    0.36
  -5   1  -7    4.93    0.36
   5   1   7    5.56    0.34
  -5   1  -7    5.78    0.38
  -6  -1  -7    9.26    0.58
  -6  -1  -7    9.31    0.52
  -6  -1  -7    9.22    0.53
  -6  -1  -7    8.98    0.52
  -6  -1  -7    9.32    0.59
  -6  -1  -7    8.96    0.55
  -6  -1  -7    9.17    0.55
   6   1   7    8.89    0.52
  -6   1  -7    8.75    0.55
  -6   1  -7    8.14    0.48
   6   1   7    9.17    0.52
  -7  -1  -7   55.49    2.70
  -7  -1  -7   54.89    2.67
  -7  -1  -7   55.95    2.66
  -7  -1  -7   53.24    2.66
  -7  -1  -7   53.45    2.69
  -7  -1  -7   52.23    2.74
  -7   1  -7   53.10    2.70
   7   1   7   53.29    2.65
   7   1   7   57.63    2.66
  -8  -1  -7    2.57    0.18
  -8  -1  -7    2.61    0.21
  -8  -1  -7    2.45    0.21
  -8  -1  -7    2.44    0.20
  -8  -1  -7    2.63    0.19
   8   1   7    2.54    0.17
  -8   1  -7    2.57    0.21
   8   1   7    2.21    0.18
  -9  -1  -7    6.75    0.39
  -9   1  -7    6.83    0.41
   9   1   7    6.95    0.36
 -10  -2   7    2.08    0.14
  10   2  -7    1.86    0.16
  10   2  -7    1.94    0.14
  -9  -2   7   10.59    0.58
  -9  -2   7   10.25    0.61
  -9  -2   7   11.80    0.66
  -9  -2   7    9.71    0.58
   9   2  -7   10.49    0.59
   9   2  -7   10.42    0.55
   9   2  -7   10.73    0.60
  -8  -2   7    6.88    0.46
  -8  -2   7    6.97    0.43
  -8  -2   7    6.62    0.49
  -8  -2   7    6.99    0.43
   8   2  -7    6.48    0.42
   8   2  -7    6.59    0.37
   8   2  -7    6.73    0.44
   8   2  -7    6.80    0.42
  -7  -2   7   11.95    0.68
  -7  -2   7   12.21    0.76
  -7  -2   7   12.70    0.69
  -7  -2   7   12.22    0.70
   7  -2  -7   11.92    0.65
  -7  -2   7   12.27    0.72
   7   2  -7   12.59    0.64
   7   2  -7   11.61    0.71
   7   2  -7   11.94    0.63
   7   2  -7   11.60    0.68
   7   2  -7   11.85    0.70
   7   2  -7   12.25    0.64
   6  -2  -7  116.84    5.65
   6  -2  -7  108.48    5.93
  -6  -2   7  117.69    5.67
  -6  -2   7  117.27    5.67
   6  -2  -7  111.43    5.66
  -6  -2   7  120.27    5.70
  -6  -2   7  118.21    5.76
   6  -2  -7  122.03    5.70
   6   2  -7  115.75    5.63
   6   2  -7  118.58    5.62
   6   2  -7  116.07    5.71
   6   2  -7  115.78    5.84
  -6   2   7  128.45    5.81
   6   2  -7  121.93    5.63
   6   2  -7  114.58    5.70
   6   2  -7  116.84    5.72
  -5  -2   7   30.10    1.56
   5  -2  -7   30.15    1.58
   5  -2  -7   30.62    1.65
  -5  -2   7   30.12    1.62
  -5  -2   7   31.56    2.05
   5  -2  -7   30.35    1.56
   5  -2  -7   29.78    1.97
  -5  -2   7   35.43    1.71
  -5  -2   7   32.19    1.57
   5  -2  -7   31.73    1.61
   5  -2  -7   31.45    1.58
   5   2  -7   29.65    1.61
   5   2  -7   30.71    1.54
   5   2  -7   33.50    1.64
   5   2  -7   30.29    1.61
   5   2  -7   29.70    1.53
   5   2  -7   29.61    1.53
   5   2  -7   31.44    1.54
  -5   2   7   34.05    1.56
  -5   2   7   31.35    1.63
   5   2  -7   30.89    1.61
   5   2  -7   29.39    1.54
  -5   2   7   34.96    2.46
  -4  -2   7    3.30    0.25
   4  -2  -7    3.06    0.28
   4  -2  -7    3.03    0.25
  -4  -2   7    3.30    0.27
   4  -2  -7    2.98    0.30
   4  -2  -7    3.55    0.49
  -4  -2   7    3.37    0.23
  -4  -2   7    3.83    0.52
  -4  -2   7    3.09    0.22
   4  -2  -7    3.94    0.49
   4  -2  -7    3.09    0.23
   4  -2  -7    3.42    0.29
  -4  -2   7    3.86    0.47
  -4  -2   7    2.93    0.22
   4  -2  -7    2.84    0.23
  -4   2   7    3.10    0.26
   4   2  -7    3.14    0.25
   4   2  -7    3.17    0.25
   4   2  -7    3.19    0.20
   4   2  -7    2.82    0.21
  -4   2   7    2.98    0.24
  -4   2   7    3.56    0.24
   4   2  -7    3.18    0.27
   4   2  -7    3.13    0.20
  -4   2   7    3.12    0.50
   4   2  -7    3.38    0.21
  -3  -2   7  112.94    5.42
   3  -2  -7  113.78    5.83
  -3  -2   7  117.56    5.45
   3  -2  -7  110.55    5.41
   3  -2  -7  116.25    5.52
   3  -2  -7  111.83    5.80
  -3  -2   7  115.05    5.40
  -3  -2   7  109.60    5.40
   3  -2  -7  115.09    5.41
   3  -2  -7  109.82    5.41
  -3  -2   7  113.12    5.86
   3  -2  -7  114.12    5.44
  -3  -2   7  111.32    5.40
   3   2  -7  109.77    5.44
  -3   2   7  116.62    8.00
   3   2  -7  110.64    5.41
   3   2  -7  114.95    5.44
  -3   2   7  107.82    5.44
  -3   2   7  111.69    5.45
  -3   2   7  110.12    7.32
   2  -2  -7   32.78    1.57
   2  -2  -7   33.92    1.92
  -2  -2   7   31.67    3.10
  -2  -2   7   26.13    2.65
  -2  -2   7   33.03    1.60
  -2  -2   7   31.72    1.56
   2  -2  -7   32.76    1.59
   2  -2  -7   33.28    1.95
  -2  -2   7   32.48    1.93
   2  -2  -7   32.81    1.57
  -2  -2   7   28.10    3.13
   2  -2  -7   33.79    1.62
  -2  -2   7   30.89    3.48
  -2  -2   7   33.15    1.55
   2  -2  -7   30.95    1.56
   2   2  -7   31.44    1.59
  -2   2   7   26.01    3.30
  -2   2   7   30.61    1.61
   2   2  -7   33.57    1.63
  -2   2   7   27.84    2.94
  -2   2   7   31.48    1.61
  -2   2   7   29.15    2.82
  -2   2   7   31.54    3.08
   2   2  -7   31.92    1.61
   1  -2  -7   33.68    1.60
   1  -2  -7   31.18    1.59
  -1  -2   7   32.66    1.60
   1  -2  -7   33.04    1.87
  -1  -2   7   32.18    1.60
  -1  -2   7   37.12    2.31
  -1  -2   7   31.88    1.59
  -1  -2   7   33.65    1.59
   1  -2  -7   33.48    1.60
  -1  -2   7   29.56    4.03
   1  -2  -7   29.46    1.98
  -1  -2   7   34.26    1.63
   1  -2  -7   33.41    1.64
   1   2  -7   32.88    1.63
   1   2  -7   28.54    2.96
  -1   2   7   32.49    1.66
  -1   2   7   31.65    1.59
   1   2  -7   34.23    1.63
  -1   2   7   29.94    2.80
  -1   2   7   33.88    1.65
   1   2  -7   27.46    2.55
   1   2  -7   32.74    1.64
   0  -2  -7   24.04    1.29
   0  -2   7   24.60    1.29
   0  -2   7   26.90    1.32
   0  -2   7   29.15    1.78
   0  -2   7   26.12    1.33
   0  -2   7   25.17    1.37
   0  -2  -7   25.73    1.29
   0  -2  -7   26.98    1.33
   0  -2  -7   26.63    1.66
   0  -2   7   26.22    1.28
   0  -2  -7   25.74    1.28
   0   2  -7   25.09    1.25
   0   2   7   26.58    1.29
   0   2   7   26.25    2.49
   0   2  -7   27.39    1.32
   0   2  -7   24.65    2.30
   0   2  -7   26.08    1.32
   0   2   7   25.75    2.96
   0   2   7   23.67    2.75
   0   2  -7   26.86    1.33
   0   2  -7   21.67    2.57
   0   2  -7   26.02    1.32
   0   2   7   26.39    1.34
   0   2   7   23.95    2.58
   0   2   7   24.39    2.36
   0   2   7   25.71    1.36
   1  -2   7   34.90    2.42
   1  -2   7   32.81    1.66
  -1  -2  -7   34.74    1.66
  -1  -2  -7   34.02    2.02
   1  -2   7   33.85    1.66
  -1  -2  -7   34.28    1.64
   1  -2   7   34.05    1.68
  -1  -2  -7   31.52    1.64
  -1  -2  -7   35.01    1.69
   1  -2   7   33.39    1.64
  -1  -2  -7   34.81    1.66
   1  -2   7   33.09    2.02
   1  -2   7   32.73    1.64
   1   2   7   33.26    1.74
  -1   2  -7   33.93    1.69
  -1   2  -7   33.64    1.69
   1   2   7   30.92    3.30
   1   2   7   33.42    1.70
   1   2   7   31.13    2.89
  -1   2  -7   32.28    1.69
  -1   2  -7   35.03    1.68
  -1   2  -7   31.04    1.62
   2  -2   7   13.21    0.66
  -2  -2  -7   12.72    0.70
  -2  -2  -7   11.04    2.45
  -2  -2  -7   12.54    0.65
   2  -2   7   12.99    0.68
   2  -2   7   13.01    0.71
  -2  -2  -7   12.50    0.67
  -2  -2  -7   11.92    1.75
  -2  -2  -7   12.18    0.99
   2  -2   7   12.69    0.69
  -2  -2  -7   12.96    0.67
   2  -2   7   12.56    0.66
   2  -2   7   12.33    0.99
  -2  -2  -7   12.37    0.66
  -2   2  -7   11.99    0.65
  -2   2  -7   12.77    0.70
  -2   2  -7   12.12    0.69
   2   2   7   12.17    0.72
  -2   2  -7   12.59    0.71
   2   2   7   12.71    0.76
   2   2   7   11.15    0.66
   3  -2   7   94.62    4.55
  -3  -2  -7   95.67    4.55
   3  -2   7   95.46    4.56
   3  -2   7  105.59    5.38
   3  -2   7   82.76    5.10
   3  -2   7   95.19    4.50
  -3  -2  -7   94.84    4.52
  -3  -2  -7   89.02    5.03
  -3  -2  -7   97.80    4.52
   3  -2   7   98.50    4.55
  -3  -2  -7   94.78    4.50
   3  -2   7   94.11    4.50
  -3  -2  -7   82.60    4.53
  -3  -2  -7   91.76    4.52
   3  -2   7   91.80    4.52
  -3   2  -7   93.85    4.54
   3   2   7   96.53    4.51
   3   2   7   96.27    4.49
  -3   2  -7   98.50    4.53
  -3   2  -7   98.67    4.60
   3   2   7   95.50    4.51
   3   2   7   95.08    4.52
   3   2   7   89.12    4.54
   3   2   7   97.70    4.65
   3   2   7   92.96    4.57
  -3   2  -7   81.92    4.52
  -3   2  -7   97.24    4.56
   3   2   7   81.32    4.59
  -3   2  -7   90.00    4.50
  -4  -2  -7   98.49    4.94
  -4  -2  -7  101.57    4.97
   4  -2   7  104.79    4.98
   4  -2   7  102.05    4.91
   4  -2   7  100.79    4.90
  -4  -2  -7   97.34    4.92
   4  -2   7  107.23    6.18
   4  -2   7  103.08    4.98
   4  -2   7  101.32    4.92
  -4  -2  -7  100.77    4.91
  -4  -2  -7  100.22    4.91
   4  -2   7  110.08    4.99
  -4  -2  -7  106.57    4.94
   4   2   7  100.29    5.06
  -4   2  -7  105.44    4.98
  -4   2  -7   98.21    4.94
   4   2   7   95.85    4.91
   4   2   7  102.78    4.92
   4   2   7  104.03    4.91
   4   2   7  102.37    4.93
   4   2   7   96.89    4.98
   4   2   7   94.92    4.87
   4   2   7  103.12    4.92
  -4   2  -7  108.73    4.95
  -5  -2  -7   23.89    1.25
   5  -2   7   23.12    1.26
   5  -2   7   22.25    1.21
  -5  -2  -7   24.11    1.23
   5  -2   7   22.99    1.19
  -5  -2  -7   23.46    1.20
  -5  -2  -7   23.27    1.21
   5  -2   7   22.94    1.19
   5   2   7   22.09    1.19
   5   2   7   23.13    1.17
   5   2   7   23.27    1.15
   5   2   7   24.03    1.21
   5   2   7   22.34    1.34
  -5   2  -7   22.85    1.38
   5   2   7   24.09    1.20
   5   2   7   23.89    1.20
  -6  -2  -7    5.61    0.37
  -6  -2  -7    5.97    0.41
  -6  -2  -7    6.24    0.40
  -6  -2  -7    5.46    0.41
   6  -2   7    5.22    0.33
   6  -2   7    5.32    0.34
  -6  -2  -7    5.75    0.36
  -6   2  -7    5.63    0.39
   6   2   7    5.76    0.36
   6   2   7    5.36    0.34
   6   2   7    5.71    0.36
   6   2   7    5.43    0.36
   6   2   7    5.79    0.36
  -7  -2  -7    7.05    0.40
  -7  -2  -7    7.08    0.43
  -7  -2  -7    6.96    0.40
  -7  -2  -7    6.46    0.45
  -7  -2  -7    5.38    0.39
  -7   2  -7    6.17    0.44
   7   2   7    6.48    0.38
   7   2   7    6.68    0.39
   7   2   7    6.36    0.37
   7   2   7    6.77    0.39
  -8  -2  -7   12.62    0.72
  -8  -2  -7   12.76    0.66
  -8  -2  -7   13.45    0.70
   8   2   7   12.95    0.65
   8   2   7   12.31    0.65
  -8   2  -7   12.19    0.68
   8   2   7   12.67    0.65
  -9  -3   7    3.04    0.21
  -9  -3   7    3.33    0.24
   9   3  -7    2.83    0.19
   9   3  -7    3.58    0.21
   9   3  -7    3.82    0.22
   9   3  -7    3.70    0.19
   9   3  -7    2.81    0.18
  -8  -3   7   10.34    0.55
  -8  -3   7    8.42    0.53
  -8  -3   7   10.08    0.53
  -8  -3   7    8.13    0.55
   8   3  -7    9.88    0.49
   8   3  -7    9.87    0.55
   8   3  -7    9.05    0.52
   7  -3  -7   10.27    0.62
  -7  -3   7   12.27    0.68
   7  -3  -7   11.44    0.62
   7  -3  -7   10.38    0.66
  -7  -3   7   10.19    0.69
  -7  -3   7   10.65    0.64
   7  -3  -7   11.60    0.62
  -7  -3   7   12.50    0.65
   7   3  -7   11.64    0.60
   7   3  -7   11.04    0.66
  -7   3   7   11.37    0.61
   7   3  -7   11.58    0.59
   7   3  -7   11.76    0.59
   7   3  -7   11.19    0.65
   7   3  -7   11.14    0.63
  -7   3   7   11.21    0.61
  -6  -3   7    0.43    0.10
   6  -3  -7    0.49    0.12
   6  -3  -7    0.46    0.11
  -6  -3   7    0.53    0.11
  -6  -3   7    0.59    0.14
   6  -3  -7    0.42    0.16
  -6  -3   7    0.58    0.11
   6  -3  -7    0.44    0.14
  -6  -3   7    0.63    0.17
   6   3  -7    0.45    0.08
   6   3  -7    0.43    0.12
   6   3  -7    0.39    0.11
   6   3  -7    0.54    0.10
   6   3  -7    0.44    0.08
   6   3  -7    0.50    0.11
   6   3  -7    0.54    0.10
   6   3  -7    0.49    0.11
  -6   3   7    0.48    0.13
   5  -3  -7   48.46    2.42
  -5  -3   7   52.18    2.48
  -5  -3   7   43.45    2.50
   5  -3  -7   49.36    2.44
   5  -3  -7   48.92    2.41
   5  -3  -7   46.31    2.42
  -5  -3   7   50.80    2.39
  -5  -3   7   54.94    2.66
  -5  -3   7   50.85    2.42
  -5  -3   7   49.39    2.38
   5  -3  -7   53.41    2.48
   5   3  -7   44.04    2.34
   5   3  -7   47.20    2.45
   5   3  -7   48.75    2.36
  -5   3   7   46.46    2.52
  -5   3   7   51.67    2.38
   5   3  -7   48.13    2.44
   5   3  -7   42.52    2.46
   5   3  -7   44.14    2.34
   5   3  -7   48.73    2.44
  -5   3   7   46.73    2.47
   5   3  -7   46.82    2.39
   5   3  -7   49.05    2.36
   5   3  -7   49.74    2.36
  -4  -3   7   37.69    1.85
  -4  -3   7   39.99    1.86
   4  -3  -7   38.10    1.96
   4  -3  -7   37.99    1.87
   4  -3  -7   36.19    1.88
   4  -3  -7   37.47    1.88
  -4  -3   7   39.21    1.89
   4  -3  -7   36.92    1.91
   4  -3  -7   35.82    1.88
  -4  -3   7   37.26    1.86
  -4  -3   7   39.47    1.92
   4   3  -7   35.88    1.90
   4   3  -7   37.18    1.83
  -4   3   7   35.81    2.01
   4   3  -7   37.95    1.84
   4   3  -7   36.78    1.92
   4   3  -7   37.14    1.84
   4   3  -7   38.43    1.93
   4   3  -7   38.26    1.84
   4   3  -7   37.26    1.83
  -4   3   7   39.89    1.88
  -4   3   7   37.78    1.86
  -4   3   7   37.17    1.94
   4   3  -7   35.16    1.91
  -4   3   7   34.65    1.82
  -3  -3   7   14.68    0.85
   3  -3  -7   14.15    0.78
   3  -3  -7   16.62    0.96
  -3  -3   7   14.54    0.81
   3  -3  -7   16.98    1.60
   3  -3  -7   12.97    0.79
   3  -3  -7   14.01    0.79
   3  -3  -7   13.78    0.78
  -3  -3   7   14.48    0.79
  -3  -3   7   16.15    1.43
  -3  -3   7   14.09    0.76
   3  -3  -7   14.17    0.85
   3  -3  -7   14.57    1.17
   3   3  -7   14.72    0.83
   3   3  -7   14.69    0.80
   3   3  -7   15.27    0.76
   3   3  -7   14.06    0.82
   3   3  -7   14.85    0.76
  -3   3   7   16.32    0.80
  -3   3   7   15.62    0.78
   3   3  -7   15.02    0.76
  -3   3   7   14.87    0.94
  -3   3   7   14.19    0.87
   3   3  -7   15.13    0.75
   3   3  -7   13.98    0.81
   3   3  -7   14.11    0.83
  -3   3   7   14.61    0.85
   3   3  -7   14.12    0.76
   2  -3  -7   45.59    2.21
   2  -3  -7   45.72    2.24
  -2  -3   7   44.35    3.19
   2  -3  -7   42.40    2.25
   2  -3  -7   39.80    2.19
  -2  -3   7   45.27    2.16
   2  -3  -7   43.14    2.68
  -2  -3   7   45.09    2.20
   2  -3  -7   44.44    2.18
  -2  -3   7   43.82    2.17
   2   3  -7   40.18    2.20
   2   3  -7   43.14    2.14
  -2   3   7   45.25    2.17
   2   3  -7   44.64    2.15
   2   3  -7   43.27    2.14
  -2   3   7   45.32    2.24
  -2   3   7   38.73    2.34
   2   3  -7   44.57    2.16
   2   3  -7   50.31    2.41
   2   3  -7   42.91    2.21
  -2   3   7   44.76    2.25
   2   3  -7   44.19    2.21
  -2   3   7   47.83    2.19
   2   3  -7   44.74    2.15
  -2   3   7   44.48    2.35
   1  -3  -7    1.00    0.14
   1  -3  -7    1.01    0.12
  -1  -3   7    0.94    0.13
  -1  -3   7    0.80    0.11
   1  -3  -7    1.21    0.27
   1  -3  -7    0.97    0.13
   1  -3  -7    0.90    0.12
  -1  -3   7    0.83    0.11
  -1  -3   7    0.95    0.11
   1  -3  -7    0.55    0.35
   1  -3  -7    0.95    0.12
  -1  -3   7    1.23    0.42
  -1  -3   7    0.94    0.12
   1   3  -7    1.01    0.10
  -1   3   7    1.09    0.17
   1   3  -7    1.00    0.14
   1   3  -7    1.10    0.12
   1   3  -7    0.94    0.14
   1   3  -7    1.04    0.11
   1   3  -7    0.99    0.13
   1   3  -7    0.98    0.12
  -1   3   7    1.07    0.14
  -1   3   7    1.02    0.14
   1   3  -7    0.96    0.14
  -1   3   7    1.05    0.11
   1   3  -7    1.08    0.12
  -1   3   7    1.07    0.13
  -1   3   7    1.12    0.16
  -1   3   7    0.95    0.16
   0  -3   7   31.23    1.57
   0  -3   7   32.32    1.56
   0  -3  -7   30.57    1.57
   0  -3  -7   31.15    1.55
   0  -3   7   31.46    1.99
   0  -3   7   31.35    1.58
   0  -3   7   32.80    1.55
   0  -3   7   32.60    1.60
   0  -3  -7   32.39    1.61
   0  -3  -7   29.06    1.55
   0  -3  -7   33.61    1.58
   0   3  -7   27.92    1.56
   0   3   7   30.70    1.66
   0   3  -7   32.27    1.63
   0   3  -7   32.36    1.54
   0   3  -7   30.63    1.55
   0   3   7   33.46    1.58
   0   3  -7   32.26    1.54
   0   3   7   32.36    1.58
   0   3  -7   30.92    1.60
   0   3  -7   30.91    1.62
   0   3   7   30.93    1.64
   0   3  -7   28.02    1.59
   0   3  -7   31.73    1.65
   0   3   7   30.60    1.62
   0   3  -7   31.59    1.55
   1  -3   7    8.39    0.51
  -1  -3  -7    8.95    0.49
  -1  -3  -7    8.67    0.51
  -1  -3  -7    8.08    0.86
   1  -3   7    9.15    0.49
   1  -3   7    9.18    0.54
   1  -3   7    8.56    0.51
   1  -3   7    8.47    0.96
   1  -3   7    7.82    0.56
  -1  -3  -7    9.13    0.50
  -1  -3  -7    9.00    0.53
   1  -3   7    8.99    0.51
   1  -3   7   10.42    1.05
  -1   3  -7    8.76    0.48
   1   3   7    9.06    0.52
  -1   3  -7    8.60    0.47
   1   3   7    9.15    0.58
  -1   3  -7    8.97    0.58
   1   3   7    9.25    0.51
  -1   3  -7    8.93    0.48
   1   3   7    9.20    0.50
  -1   3  -7    8.57    0.51
  -1   3  -7    8.63    0.53
  -1   3  -7    8.69    0.47
   1   3   7    8.66    0.55
   1   3   7    8.73    0.50
   1   3   7    9.01    0.49
  -1   3  -7    8.69    0.55
   2  -3   7   42.79    2.04
   2  -3   7   42.47    2.08
  -2  -3  -7   41.90    2.05
  -2  -3  -7   42.53    2.03
  -2  -3  -7   41.94    2.08
   2  -3   7   38.73    2.05
   2  -3   7   42.35    2.04
  -2  -3  -7   41.74    2.03
   2  -3   7   46.55    2.18
   2  -3   7   42.45    2.10
  -2  -3  -7   41.18    2.08
   2   3   7   42.80    2.06
   2   3   7   40.05    2.10
   2   3   7   41.80    2.05
  -2   3  -7   35.53    1.99
  -2   3  -7   40.06    2.02
  -2   3  -7   40.38    2.01
  -2   3  -7   40.51    2.01
   2   3   7   43.04    2.03
   2   3   7   40.24    2.18
  -2   3  -7   41.84    2.08
   2   3   7   43.10    2.05
  -2   3  -7   42.19    2.12
   2   3   7   41.07    2.18
  -2   3  -7   40.80    2.13
   2   3   7   39.41    2.04
  -2   3  -7   42.85    2.12
  -2   3  -7   40.49    2.05
   2   3   7   41.84    2.06
  -2   3  -7   40.35    2.02
   2   3   7   39.52    2.13
   3  -3   7   35.44    1.72
   3  -3   7   37.71    1.94
  -3  -3  -7   35.18    1.74
   3  -3   7   34.69    1.75
   3  -3   7   34.56    1.72
  -3  -3  -7   34.12    1.71
   3  -3   7   34.46    1.74
  -3  -3  -7   36.30    1.74
  -3  -3  -7   34.93    1.71
  -3  -3  -7   36.73    1.89
   3  -3   7   33.06    1.76
   3   3   7   35.96    1.75
   3   3   7   31.00    1.82
  -3   3  -7   33.83    1.75
  -3   3  -7   32.46    1.69
  -3   3  -7   33.06    1.69
  -3   3  -7   32.78    1.80
   3   3   7   33.54    1.76
   3   3   7   32.75    1.86
   3   3   7   34.61    1.72
   3   3   7   39.10    1.74
  -3   3  -7   36.53    1.78
   3   3   7   31.61    1.80
  -3   3  -7   34.34    1.80
   3   3   7   34.92    1.73
   3   3   7   31.77    1.77
   3   3   7   34.09    1.72
  -4  -3  -7   79.06    3.74
  -4  -3  -7   77.40    3.77
   4  -3   7   77.56    3.72
   4  -3   7   76.49    3.78
  -4  -3  -7   80.08    3.71
  -4  -3  -7   79.04    3.71
   4  -3   7   77.02    3.71
   4  -3   7   74.78    3.74
   4  -3   7   76.67    3.73
   4   3   7   78.72    3.73
  -4   3  -7   73.68    3.74
   4   3   7   65.66    4.01
   4   3   7   79.30    3.72
  -4   3  -7   77.18    3.79
   4   3   7   75.26    3.69
   4   3   7   70.89    3.76
   4   3   7   75.87    3.72
   4   3   7   76.40    3.73
  -4   3  -7   84.12    3.92
   4   3   7   71.63    3.66
   4   3   7   78.41    3.72
  -4   3  -7   77.33    3.73
   5  -3   7    9.97    0.65
  -5  -3  -7    9.96    0.54
  -5  -3  -7    9.88    0.56
  -5  -3  -7    9.55    0.58
   5  -3   7    8.96    0.55
  -5  -3  -7    9.79    0.57
   5  -3   7    9.12    0.54
   5  -3   7    9.70    0.57
   5  -3   7    8.92    0.52
  -5   3  -7    9.42    0.55
   5   3   7    8.41    0.50
   5   3   7    8.93    0.53
   5   3   7    8.86    0.54
   5   3   7    8.92    0.53
   5   3   7    9.24    0.54
   5   3   7    8.96    0.53
  -5   3  -7    8.64    0.55
   5   3   7   10.31    0.69
  -6  -3  -7    5.23    0.32
  -6  -3  -7    5.17    0.33
  -6  -3  -7    5.19    0.32
  -6  -3  -7    5.22    0.34
   6  -3   7    4.63    0.31
   6  -3   7    4.97    0.38
   6  -3   7    4.52    0.31
   6  -3   7    4.66    0.33
   6   3   7    4.72    0.29
   6   3   7    4.72    0.31
   6   3   7    4.84    0.31
   6   3   7    4.69    0.31
   6   3   7    4.88    0.31
  -6   3  -7    4.80    0.29
   7  -3   7    2.94    0.19
  -7  -3  -7    2.08    0.19
  -7  -3  -7    2.89    0.20
  -7  -3  -7    2.90    0.20
   7   3   7    2.51    0.17
   7   3   7    2.42    0.18
  -7   3  -7    2.61    0.17
  -7   3  -7    2.36    0.19
   7   3   7    2.97    0.21
   7   3   7    2.50    0.18
   7   3   7    2.57    0.19
  -8  -3  -7    1.35    0.11
  -8  -3  -7    1.59    0.12
  -8   3  -7    1.35    0.09
   8   3   7    1.53    0.09
   8   3   7    1.37    0.10
   8   3   7    1.68    0.11
  -8  -4   7    0.05    0.04
  -8   4   7    0.05    0.03
   8   4  -7    0.12    0.05
  -8   4   7    0.07    0.04
   8   4  -7    0.08    0.06
  -8   4   7    0.04    0.03
   8   4  -7    0.04    0.04
  -7  -4   7    8.89    0.53
  -7  -4   7    8.10    0.51
  -7  -4   7    7.83    0.56
   7  -4  -7    9.49    0.51
   7   4  -7    9.86    0.49
  -7   4   7   10.16    0.55
  -7   4   7   10.19    0.54
   7   4  -7    9.72    0.49
   7   4  -7    9.67    0.49
   7   4  -7    8.74    0.50
   7   4  -7    9.64    0.53
  -7   4   7   10.51    0.52
   7   4  -7    9.80    0.54
   6  -4  -7    5.37    0.43
  -6  -4   7    5.11    0.35
  -6  -4   7    5.35    0.35
  -6  -4   7    5.68    0.47
   6  -4  -7    5.88    0.36
   6  -4  -7    5.61    0.36
  -6   4   7    5.47    0.33
   6   4  -7    5.76    0.32
  -6   4   7    5.11    0.46
   6   4  -7    5.79    0.37
   6   4  -7    5.64    0.37
   6   4  -7    5.78    0.32
   6   4  -7    5.69    0.37
   6   4  -7    6.01    0.33
  -6   4   7    5.63    0.33
   5  -4  -7   11.43    0.63
  -5  -4   7    9.51    0.65
   5  -4  -7   11.67    0.66
  -5  -4   7   12.57    0.65
  -5  -4   7   12.78    0.62
   5  -4  -7   10.93    0.70
   5  -4  -7   11.25    0.62
   5  -4  -7   11.79    0.64
   5   4  -7   11.37    0.59
   5   4  -7   11.13    0.65
   5   4  -7   10.00    0.57
  -5   4   7   11.30    0.61
  -5   4   7   10.78    0.71
   5   4  -7   10.19    0.57
  -5   4   7   10.91    0.60
   5   4  -7   10.45    0.63
   5   4  -7   11.22    0.59
  -5   4   7   10.46    0.57
   5   4  -7   11.74    0.59
  -5   4   7   11.33    0.61
   4  -4  -7    0.76    0.13
   4  -4  -7    0.69    0.16
   4  -4  -7    0.71    0.20
   4  -4  -7    0.74    0.13
   4  -4  -7    0.64    0.13
  -4  -4   7    0.66    0.14
  -4  -4   7    0.62    0.13
  -4   4   7    0.76    0.19
   4   4  -7    0.78    0.11
   4   4  -7    0.72    0.12
  -4   4   7    0.64    0.10
   4   4  -7    0.70    0.10
  -4   4   7    0.65    0.11
  -4   4   7    0.78    0.14
  -4   4   7    0.61    0.12
   4   4  -7    0.72    0.13
   4   4  -7    0.70    0.11
  -4   4   7    0.65    0.13
  -4   4   7    0.70    0.13
   4   4  -7    0.62    0.10
   4   4  -7    0.76    0.12
  -4   4   7    0.56    0.11
   3  -4  -7   11.14    0.66
   3  -4  -7   11.07    0.63
   3  -4  -7   10.57    0.63
  -3  -4   7   11.67    0.60
  -3  -4   7   11.90    0.66
   3  -4  -7   11.55    0.70
   3  -4  -7   11.23    0.62
  -3   4   7    9.94    0.58
  -3   4   7   11.28    0.63
   3   4  -7   10.63    0.65
  -3   4   7   11.31    0.61
   3   4  -7   10.70    0.63
   3   4  -7   10.98    0.59
   3   4  -7   10.89    0.59
  -3   4   7   10.81    0.58
   3   4  -7   11.20    0.59
  -3   4   7   11.14    0.77
  -3   4   7   11.59    0.62
   3   4  -7   11.18    0.59
   3   4  -7   10.82    0.59
  -3   4   7   11.12    0.61
  -3   4   7   10.78    0.65
   2  -4  -7    4.46    0.30
   2  -4  -7    4.89    0.41
  -2  -4   7    3.93    0.29
  -2  -4   7    4.24    0.28
   2  -4  -7    4.40    0.33
   2  -4  -7    4.07    0.31
  -2  -4   7    4.92    0.29
   2  -4  -7    4.63    0.31
  -2  -4   7    3.61    0.34
  -2   4   7    4.22    0.29
   2   4  -7    4.42    0.35
   2   4  -7    4.47    0.28
  -2   4   7    4.11    0.27
   2   4  -7    4.05    0.33
   2   4  -7    4.13    0.33
  -2   4   7    4.28    0.41
  -2   4   7    4.18    0.28
   2   4  -7    4.34    0.28
   2   4  -7    4.43    0.27
  -2   4   7    4.10    0.28
   2   4  -7    4.49    0.28
  -2   4   7    4.57    0.31
   2   4  -7    4.30    0.32
   2   4  -7    4.52    0.27
  -2   4   7    4.12    0.36
  -2   4   7    4.39    0.30
  -2   4   7    4.46    0.34
   2   4  -7    3.80    0.34
   1  -4  -7   33.68    1.73
   1  -4  -7   33.82    1.72
  -1  -4   7   37.28    1.71
  -1  -4   7   36.75    1.73
  -1  -4   7   33.97    1.75
   1  -4  -7   35.94    1.72
  -1  -4   7   35.36    1.73
   1  -4  -7   36.44    1.81
   1  -4  -7   36.05    1.76
  -1   4   7   32.36    1.72
   1   4  -7   34.96    1.70
   1   4  -7   30.40    1.70
  -1   4   7   32.78    1.82
  -1   4   7   34.45    1.73
   1   4  -7   34.26    1.69
  -1   4   7   34.77    1.70
   1   4  -7   33.08    1.79
  -1   4   7   35.41    1.79
   1   4  -7   35.09    1.80
   1   4  -7   34.54    1.70
   1   4  -7   32.67    1.81
  -1   4   7   35.16    1.72
   1   4  -7   34.51    1.69
  -1   4   7   34.40    1.90
   1   4  -7   36.18    1.70
   1   4  -7   32.22    1.79
  -1   4   7   33.82    1.70
   1   4  -7   34.08    1.75
  -1   4   7   34.36    1.70
   0  -4  -7    2.34    0.19
   0  -4  -7    2.05    0.19
   0  -4   7    2.47    0.19
   0  -4   7    2.27    0.20
   0  -4  -7    2.46    0.21
   0  -4   7    2.38    0.21
   0  -4  -7    2.16    0.24
   0  -4  -7    2.18    0.18
   0  -4   7    2.16    0.21
   0  -4   7    2.26    0.18
   0   4  -7    2.17    0.21
   0   4   7    1.92    0.16
   0   4   7    1.79    0.24
   0   4   7    2.26    0.29
   0   4   7    2.11    0.17
   0   4  -7    2.21    0.25
   0   4  -7    2.12    0.23
   0   4  -7    2.25    0.17
   0   4   7    2.73    0.26
   0   4  -7    2.21    0.17
   0   4  -7    2.13    0.19
   0   4  -7    2.10    0.18
   0   4   7    2.20    0.23
   0   4  -7    2.39    0.18
   0   4  -7    2.30    0.25
   0   4   7    2.10    0.20
   0   4   7    2.40    0.20
   0   4   7    2.24    0.18
   0   4  -7    2.22    0.18
   0   4   7    2.25    0.21
  -1  -4  -7    9.14    0.50
  -1  -4  -7    8.51    0.57
   1  -4   7    8.82    0.55
  -1  -4  -7    8.53    0.56
   1  -4   7    8.69    0.53
   1  -4   7    9.14    0.50
  -1  -4  -7    8.85    0.53
   1  -4   7    9.14    0.53
   1  -4   7    9.05    0.51
  -1  -4  -7    9.04    0.52
  -1   4  -7    8.86    0.58
  -1   4  -7    8.85    0.59
   1   4   7    8.75    0.56
  -1   4  -7    9.41    0.49
  -1   4  -7    9.28    0.60
   1   4   7    9.42    0.51
  -1   4  -7    8.57    0.48
   1   4   7    8.01    0.61
  -1   4  -7    8.59    0.48
   1   4   7    8.35    0.52
   1   4   7    9.05    0.51
   1   4   7    7.39    0.48
  -1   4  -7    8.96    0.48
  -1   4  -7    8.78    0.48
   1   4   7    7.89    0.61
   1   4   7    9.24    0.49
   1   4   7    8.61    0.63
  -1   4  -7    8.66    0.51
   1   4   7    9.17    0.52
  -2  -4  -7   10.42    0.63
  -2  -4  -7   10.95    0.65
   2  -4   7   11.62    0.62
   2  -4   7   11.76    0.62
   2  -4   7   10.93    0.64
   2  -4   7   11.17    0.63
  -2  -4  -7   11.43    0.62
  -2  -4  -7   10.61    0.60
   2  -4   7   11.12    0.66
   2   4   7   11.18    0.61
  -2   4  -7   10.88    0.58
  -2   4  -7   11.28    0.59
   2   4   7   10.95    0.59
   2   4   7   11.46    0.62
  -2   4  -7   11.12    0.59
  -2   4  -7   11.17    0.63
   2   4   7   10.57    0.72
  -2   4  -7   11.01    0.58
   2   4   7   10.18    0.60
  -2   4  -7   11.32    0.70
   2   4   7   11.03    0.62
   2   4   7   11.24    0.63
  -2   4  -7   10.62    0.59
   2   4   7   10.84    0.66
  -3  -4  -7   20.04    1.00
   3  -4   7   19.26    1.04
   3  -4   7   19.16    1.00
   3  -4   7   18.18    1.04
   3  -4   7   20.65    1.06
   3  -4   7   18.26    0.98
   3   4   7   18.95    0.99
  -3   4  -7   18.20    0.95
   3   4   7   17.61    1.09
   3   4   7   18.03    0.98
   3   4   7   19.21    0.98
  -3   4  -7   19.18    1.00
  -3   4  -7   18.22    0.94
   3   4   7   20.04    1.00
   3   4   7   18.78    1.00
  -3   4  -7   19.16    0.96
  -3   4  -7   18.32    0.95
  -3   4  -7   18.50    0.94
   3   4   7   18.31    0.96
  -3   4  -7   19.42    1.07
   3   4   7   18.10    1.02
   4  -4   7   29.57    1.56
   4  -4   7   31.45    1.58
   4  -4   7   29.30    1.58
  -4  -4  -7   33.51    1.59
   4  -4   7   29.58    1.56
   4  -4   7   30.16    1.63
  -4  -4  -7   32.32    1.56
  -4  -4  -7   33.49    1.65
  -4   4  -7   31.31    1.63
  -4   4  -7   31.66    1.54
   4   4   7   29.81    1.59
  -4   4  -7   30.25    1.53
   4   4   7   31.50    1.56
   4   4   7   34.58    1.59
  -4   4  -7   30.42    1.53
   4   4   7   31.43    1.56
   4   4   7   32.19    1.58
   4   4   7   32.29    1.57
  -4   4  -7   29.69    1.57
   4   4   7   29.70    1.54
   5  -4   7   26.10    1.24
  -5  -4  -7   22.92    1.29
   5  -4   7   25.11    1.28
   5  -4   7   25.39    1.25
   5  -4   7   24.39    1.24
   5  -4   7   25.01    1.33
  -5  -4  -7   20.72    1.24
  -5  -4  -7   21.12    1.23
   5   4   7   26.28    1.25
   5   4   7   24.88    1.25
   5   4   7   25.65    1.24
  -5   4  -7   25.15    1.21
   5   4   7   23.31    1.26
   5   4   7   24.60    1.22
   5   4   7   25.22    1.24
  -5   4  -7   26.65    1.26
  -5   4  -7   20.67    1.32
  -5   4  -7   28.23    1.25
   5   4   7   25.93    1.24
   6  -4   7   13.71    0.66
  -6  -4  -7   11.95    0.67
  -6  -4  -7   12.21    0.67
  -6   4  -7   13.20    0.65
   6   4   7   14.01    0.68
  -6   4  -7   11.73    0.67
   6   4   7   14.00    0.66
  -7  -4  -7    7.61    0.43
  -7   4  -7    7.55    0.38
   7   4   7    7.95    0.39
   7   4   7    6.76    0.39
   7   4   7    7.19    0.38
   7   4   7    8.70    0.39
   7   4   7    6.69    0.39
   7   5  -7    1.49    0.10
   7   5  -7    1.55    0.09
   6  -5  -7    0.20    0.07
   6   5  -7    0.23    0.05
   6   5  -7    0.25    0.06
   6   5  -7    0.25    0.06
  -6   5   7    0.16    0.04
   6   5  -7    0.23    0.07
  -6   5   7    0.18    0.05
  -6   5   7    0.23    0.05
   5  -5  -7    0.43    0.10
   5  -5  -7    0.45    0.12
   5  -5  -7    0.55    0.11
  -5   5   7    0.42    0.09
   5   5  -7    0.53    0.10
  -5   5   7    0.39    0.06
  -5   5   7    0.44    0.11
   5   5  -7    0.57    0.09
  -5   5   7    0.41    0.08
  -5   5   7    0.48    0.08
   5   5  -7    0.43    0.08
   5   5  -7    0.48    0.09
   5   5  -7    0.53    0.08
  -5   5   7    0.51    0.08
   4  -5  -7    2.87    0.29
   4  -5  -7    3.14    0.21
  -4  -5   7    2.91    0.24
   4  -5  -7    3.03    0.22
   4  -5  -7    3.03    0.24
   4   5  -7    2.42    0.17
  -4   5   7    2.89    0.27
   4   5  -7    2.93    0.28
  -4   5   7    2.80    0.19
  -4   5   7    2.76    0.19
  -4   5   7    2.76    0.20
  -4   5   7    2.57    0.17
  -4   5   7    2.73    0.18
   4   5  -7    2.81    0.19
   4   5  -7    2.79    0.18
  -4   5   7    3.09    0.23
   4   5  -7    2.41    0.17
   4   5  -7    2.78    0.19
   3  -5  -7   13.19    0.67
  -3  -5   7   10.33    0.63
   3  -5  -7   11.30    0.71
   3  -5  -7   13.16    0.69
  -3  -5   7   10.54    0.65
   3   5  -7   11.97    0.61
   3   5  -7   11.89    0.62
  -3   5   7   11.84    0.63
  -3   5   7   11.94    0.63
  -3   5   7   12.16    0.75
  -3   5   7   11.71    0.61
   3   5  -7   12.00    0.61
   3   5  -7   12.31    0.62
  -3   5   7   11.87    0.64
  -3   5   7   12.53    0.67
   3   5  -7   12.31    0.62
   3   5  -7   11.94    0.65
   2  -5  -7    9.04    0.50
  -2  -5   7    7.26    0.51
   2  -5  -7    6.77    0.46
   2  -5  -7    8.86    0.47
   2  -5  -7    6.93    0.51
  -2  -5   7    7.34    0.44
   2  -5  -7    7.74    0.47
  -2  -5   7    7.86    0.45
  -2   5   7    8.13    0.44
   2   5  -7    8.34    0.44
  -2   5   7    8.43    0.46
  -2   5   7    8.42    0.46
  -2   5   7    8.16    0.57
   2   5  -7    8.05    0.44
   2   5  -7    7.40    0.50
   2   5  -7    8.27    0.43
  -2   5   7    8.85    0.50
  -2   5   7    7.88    0.44
   2   5  -7    8.36    0.44
   2   5  -7    8.26    0.43
  -2   5   7    8.03    0.43
   2   5  -7    8.11    0.46
  -1  -5   7    2.65    0.22
  -1  -5   7    2.80    0.22
   1  -5  -7    3.11    0.23
  -1  -5   7    2.73    0.22
   1  -5  -7    2.83    0.26
  -1  -5   7    2.53    0.24
   1  -5  -7    3.46    0.23
   1  -5  -7    3.52    0.26
   1  -5  -7    2.59    0.23
  -1   5   7    3.10    0.23
   1   5  -7    2.82    0.20
   1   5  -7    3.10    0.20
  -1   5   7    3.09    0.31
  -1   5   7    3.13    0.21
  -1   5   7    3.09    0.20
   1   5  -7    3.14    0.21
   1   5  -7    3.09    0.21
  -1   5   7    2.77    0.21
  -1   5   7    3.06    0.26
   1   5  -7    3.11    0.20
   1   5  -7    2.98    0.27
  -1   5   7    3.14    0.20
   1   5  -7    3.22    0.21
  -1   5   7    3.18    0.24
   0  -5  -7    1.72    0.17
   0  -5  -7    1.87    0.16
   0  -5  -7    1.52    0.18
   0  -5   7    1.73    0.15
   0  -5  -7    2.13    0.19
   0  -5   7    2.09    0.18
   0  -5   7    1.54    0.18
   0   5  -7    1.87    0.15
   0   5  -7    1.96    0.16
   0   5   7    1.52    0.22
   0   5   7    1.85    0.19
   0   5  -7    1.92    0.22
   0   5  -7    1.93    0.15
   0   5   7    1.70    0.15
   0   5   7    1.93    0.15
   0   5   7    1.98    0.18
   0   5  -7    1.91    0.15
   0   5   7    2.01    0.18
   0   5   7    1.73    0.13
   0   5  -7    1.71    0.16
   0   5  -7    1.90    0.16
   0   5   7    1.79    0.13
   0   5   7    2.03    0.25
  -1  -5  -7    3.39    0.27
   1  -5   7    4.23    0.29
  -1  -5  -7    3.30    0.29
   1  -5   7    3.36    0.27
  -1   5  -7    4.30    0.25
  -1   5  -7    4.15    0.28
   1   5   7    4.04    0.27
  -1   5  -7    4.24    0.33
   1   5   7    4.31    0.27
  -1   5  -7    4.24    0.25
   1   5   7    4.28    0.26
  -1   5  -7    4.28    0.26
  -1   5  -7    4.17    0.25
   1   5   7    4.15    0.27
  -1   5  -7    4.18    0.25
   1   5   7    4.07    0.34
   1   5   7    4.39    0.28
   1   5   7    4.15    0.30
  -2  -5  -7    0.63    0.11
  -2  -5  -7    0.58    0.10
   2  -5   7    0.63    0.12
   2  -5   7    0.70    0.11
   2  -5   7    0.74    0.17
   2  -5   7    0.79    0.11
   2  -5   7    0.77    0.13
   2   5   7    0.65    0.11
   2   5   7    0.71    0.12
  -2   5  -7    0.83    0.10
  -2   5  -7    0.84    0.09
  -2   5  -7    0.66    0.10
   2   5   7    0.67    0.10
  -2   5  -7    0.83    0.15
  -2   5  -7    0.69    0.09
  -2   5  -7    0.81    0.13
   2   5   7    0.68    0.11
   2   5   7    0.77    0.12
   2   5   7    0.79    0.12
  -2   5  -7    0.86    0.09
   3  -5   7    4.31    0.27
  -3  -5  -7    3.45    0.25
   3  -5   7    3.90    0.30
   3   5   7    3.83    0.24
   3   5   7    4.75    0.32
  -3   5  -7    4.76    0.25
   3   5   7    4.11    0.25
  -3   5  -7    4.80    0.34
   3   5   7    4.04    0.27
  -3   5  -7    4.24    0.25
  -3   5  -7    4.60    0.26
  -3   5  -7    4.20    0.28
  -3   5  -7    4.80    0.25
   3   5   7    4.14    0.28
   3   5   7    4.30    0.27
  -3   5  -7    4.03    0.24
   3   5   7    4.28    0.27
   4  -5   7    1.00    0.14
  -4  -5  -7    0.85    0.12
   4  -5   7    1.11    0.12
   4  -5   7    0.97    0.11
   4  -5   7    1.03    0.11
  -4   5  -7    0.79    0.14
   4   5   7    0.70    0.13
   4   5   7    1.11    0.09
   4   5   7    1.00    0.13
  -4   5  -7    1.06    0.13
   4   5   7    0.96    0.10
   4   5   7    0.89    0.10
  -4   5  -7    0.84    0.08
   4   5   7    0.94    0.13
  -4   5  -7    0.86    0.10
  -4   5  -7    0.98    0.09
   5  -5   7    1.13    0.13
   5  -5   7    0.90    0.09
   5   5   7    1.00    0.12
  -5   5  -7    1.09    0.10
   5   5   7    1.01    0.08
   5   5   7    1.11    0.11
   5   5   7    0.98    0.12
   5   5   7    0.93    0.08
   5   5   7    0.95    0.10
  -4   6   7    4.96    0.26
  -4   6   7    5.08    0.26
   3  -6  -7    3.16    0.23
   3   6  -7    3.31    0.18
  -3   6   7    3.15    0.17
   3   6  -7    3.16    0.17
  -3   6   7    2.92    0.17
   3   6  -7    3.23    0.17
  -3   6   7    3.16    0.17
  -3   6   7    3.25    0.18
  -3   6   7    2.68    0.21
  -2   6   7    1.70    0.11
  -2   6   7    1.78    0.13
  -2   6   7    1.71    0.11
  -2   6   7    1.79    0.17
   2   6  -7    1.53    0.10
  -2   6   7    1.61    0.11
   2   6  -7    1.81    0.12
   2   6  -7    1.96    0.12
   2   6  -7    1.49    0.10
  -1   6   7    1.89    0.12
   1   6  -7    1.86    0.12
   1   6  -7    1.83    0.12
  -1   6   7    1.78    0.13
  -1   6   7    1.60    0.12
  -1   6   7    1.82    0.17
   1   6  -7    1.77    0.12
   1   6  -7    1.80    0.12
  -1   6   7    1.94    0.15
   1   6  -7    1.72    0.12
   0   6   7    4.12    0.22
   0   6  -7    3.44    0.28
   0   6  -7    4.13    0.22
   0   6  -7    4.04    0.22
   0   6   7    3.62    0.22
   0   6  -7    4.00    0.22
   0   6   7    3.89    0.27
   0   6  -7    4.01    0.22
   0   6   7    3.95    0.24
   0   6   7    4.02    0.23
   1   6   7    1.13    0.13
   1   6   7    1.10    0.10
  -1   6  -7    1.32    0.10
   1   6   7    1.21    0.10
   1   6   7    1.37    0.10
  -1   6  -7    1.44    0.10
  -1   6  -7    1.27    0.10
  -1   6  -7    1.44    0.10
  -1   6  -7    1.57    0.18
  -2   6  -7    1.41    0.09
  -2   6  -7    1.39    0.09
   2   6   7    1.65    0.10
  -2   6  -7    1.61    0.10
  -2   6  -7    1.26    0.12
  -2   6  -7    1.40    0.10
   2   6   7    1.52    0.10
   2   6   7    1.62    0.11
   3   6   7    1.25    0.11
  10   0  -8    0.11    0.05
  -9   0   8    2.40    0.18
  -9   0   8    2.20    0.20
  -9   0   8    2.34    0.17
   8   0  -8    0.00    0.04
  -8   0   8    0.02    0.04
  -8   0   8   -0.02    0.05
  -8   0   8    0.01    0.06
  -8   0   8    0.04    0.07
  -8   0   8    0.00    0.04
   7   0  -8    0.50    0.16
  -6   0   8    7.90    0.50
   6   0  -8    8.08    0.49
  -6   0   8    7.69    0.48
  -6   0   8    7.78    0.47
  -6   0   8    7.69    0.46
   6   0  -8    8.01    0.45
  -6   0   8    7.71    0.53
   6   0  -8    7.88    0.48
  -5   0   8   22.46    1.23
   5   0  -8   25.59    1.26
   5   0  -8   25.46    1.74
  -5   0   8   23.45    1.26
  -5   0   8   25.61    1.32
  -5   0   8   23.22    1.25
   5   0  -8   26.05    1.22
   5   0  -8   24.10    1.25
  -5   0   8   22.37    1.23
  -5   0   8   24.58    1.58
  -4   0   8    4.32    0.28
   4   0  -8    4.65    0.29
  -4   0   8    4.72    0.59
  -4   0   8    4.81    0.33
   4   0  -8    4.09    0.34
   4   0  -8    4.44    0.29
  -4   0   8    5.43    2.36
  -4   0   8    4.32    0.55
  -4   0   8    4.03    0.29
  -4   0   8    4.21    0.29
  -4   0   8    4.16    0.28
   4   0  -8    4.32    0.51
  -4   0   8    3.95    1.99
   3   0  -8    0.77    0.10
  -3   0   8    0.71    0.09
  -3   0   8    0.47    0.20
  -3   0   8    0.79    0.10
  -3   0   8    0.59    0.09
  -3   0   8    2.10    1.82
  -3   0   8   -0.53    1.11
  -3   0   8    2.29    1.15
   3   0  -8    1.06    0.24
   3   0  -8    0.80    0.15
  -3   0   8    1.44    0.62
  -3   0   8   -0.65    1.07
  -3   0   8   -1.27    1.41
  -3   0   8    0.61    0.09
   3   0  -8    0.63    0.09
  -3   0   8    0.49    0.10
  -2   0   8    0.31    0.06
  -2   0   8    0.31    0.07
  -2   0   8    0.26    0.08
  -2   0   8    0.74    1.11
   2   0  -8    0.27    0.05
  -2   0   8    0.47    0.93
   2   0  -8    0.30    0.07
  -2   0   8    0.31    0.13
  -2   0   8    0.70    0.86
   2   0  -8    0.29    0.08
  -2   0   8    0.24    0.06
  -2   0   8    0.02    0.37
  -2   0   8    0.76    0.53
  -2   0   8    0.70    0.23
  -2   0   8    1.15    0.88
   2   0  -8    0.25    0.08
   2   0  -8    0.37    0.06
  -2   0   8    0.33    0.07
  -2   0   8    1.68    1.15
   2   0  -8    0.27    0.07
   1   0  -8   15.90    0.78
   1   0  -8   15.48    0.76
  -1   0   8   15.44    0.78
  -1   0   8   15.24    1.71
  -1   0   8   13.17    0.77
  -1   0   8   15.48    1.97
   1   0  -8   16.16    2.14
   1   0  -8   15.57    0.78
   1   0  -8   15.17    0.94
  -1   0   8   14.34    0.76
  -1   0   8   15.90    2.27
  -1   0   8   13.39    0.80
  -1   0   8   16.49    1.96
  -1   0   8   14.72    0.78
   1   0  -8   15.04    0.80
  -1   0   8   15.25    0.98
   0   0  -8    0.19    0.72
   0   0  -8    0.88    0.84
   0   0   8    0.80    1.07
   0   0   8    0.29    0.41
   0   0  -8    0.25    0.33
   0   0   8    0.20    1.04
   0   0  -8    1.52    0.87
   0   0   8    0.28    0.12
  -1   0  -8  507.15   23.00
   1   0   8  470.10   22.99
  -1   0  -8  522.67   23.00
  -1   0  -8  414.38   24.63
   1   0   8  505.44   23.33
   1   0   8  527.82   26.16
   1   0   8  536.58   25.52
  -1   0  -8  517.82   23.34
  -1   0  -8  408.65   24.92
   1   0   8  433.61   22.97
  -2   0  -8   27.58    1.33
   2   0   8   27.83    3.43
  -2   0  -8   23.71    2.89
   2   0   8   29.16    2.96
  -2   0  -8   22.21    2.83
   2   0   8   30.13    4.31
  -2   0  -8   19.27    3.33
   2   0   8   27.39    1.33
  -2   0  -8   26.98    3.53
   2   0   8   22.72    1.28
  -2   0  -8   27.42    1.30
  -2   0  -8   26.81    1.29
   2   0   8   22.17    1.30
  -2   0  -8   26.12    1.31
  -2   0  -8   26.97    1.32
   2   0   8   28.31    1.38
   2   0   8   25.10    1.30
  -2   0  -8   27.76    1.35
  -2   0  -8   28.41    1.67
  -2   0  -8   29.40    1.33
  -2   0  -8   21.89    1.29
  -3   0  -8    6.09    0.37
   3   0   8    6.34    0.42
  -3   0  -8    4.91    0.33
  -3   0  -8    5.70    0.68
  -3   0  -8    5.74    0.36
  -3   0  -8    5.67    0.37
   3   0   8    5.80    0.39
  -3   0  -8    5.41    0.38
   3   0   8    6.35    0.65
  -3   0  -8    6.09    0.37
  -3   0  -8    5.54    1.99
  -3   0  -8    5.70    0.36
  -3   0  -8    5.43    0.33
  -3   0  -8    5.78    0.34
  -4   0  -8    3.85    0.28
  -4   0  -8    3.00    0.67
   4   0   8    3.87    0.27
  -4   0  -8    4.20    0.30
  -4   0  -8    4.34    0.27
  -4   0  -8    3.85    0.31
  -4   0  -8    4.03    0.27
  -4   0  -8    3.99    0.28
   4   0   8    3.38    0.30
  -4   0  -8    3.70    0.30
  -4   0  -8    3.87    0.26
   4   0   8    4.84    0.61
  -4   0  -8    3.90    0.29
  -4   0  -8    4.62    0.64
  -5   0  -8    0.03    0.06
  -5   0  -8    0.01    0.04
  -5   0  -8    0.16    0.07
  -5   0  -8    0.08    0.05
  -5   0  -8    0.02    0.06
   5   0   8    0.06    0.06
  -5   0  -8    0.08    0.05
   5   0   8    0.02    0.04
  -5   0  -8   -0.01    0.06
  -5   0  -8    0.10    0.11
  -6   0  -8   29.58    1.45
  -6   0  -8   27.42    1.48
  -6   0  -8   28.42    1.40
  -6   0  -8   27.61    1.39
  -6   0  -8   27.44    1.38
   6   0   8   25.13    1.38
  -6   0  -8   26.99    1.45
  -6   0  -8   28.68    1.46
   7   0   8    4.50    0.30
  -7   0  -8    5.30    0.31
  -7   0  -8    5.36    0.42
  -7   0  -8    5.69    0.32
  -8   0  -8    0.20    0.07
   9   0   8    1.92    0.12
 -10  -1   8    2.95    0.18
  10  -1  -8    3.06    0.21
  10   1  -8    3.11    0.20
  -9  -1   8    9.56    0.57
  -9  -1   8    9.13    0.57
  -9  -1   8   10.03    0.55
  -9  -1   8    9.74    0.54
   9   1  -8   10.35    0.56
  -8  -1   8    3.21    0.24
  -8  -1   8    3.31    0.28
  -8  -1   8    3.34    0.26
  -8  -1   8    3.30    0.26
  -8  -1   8    3.11    0.30
   8   1  -8    3.55    0.21
  -8   1   8    3.30    0.22
   8   1  -8    3.58    0.28
   8   1  -8    2.63    0.22
  -7  -1   8   43.45    2.27
  -7  -1   8   43.35    2.19
  -7  -1   8   44.17    2.19
  -7  -1   8   43.37    2.22
   7   1  -8   45.08    2.14
   7   1  -8   45.47    2.12
  -7   1   8   40.25    2.14
   7   1  -8   43.46    2.21
  -6  -1   8   31.33    1.62
   6  -1  -8   32.31    1.61
   6  -1  -8   30.35    1.55
  -6  -1   8   30.77    1.58
  -6  -1   8   31.91    1.68
  -6  -1   8   30.75    1.59
  -6  -1   8   31.56    1.61
   6   1  -8   33.17    1.56
   6   1  -8   32.09    1.62
   6   1  -8   33.73    1.54
  -6   1   8   28.31    1.56
   6   1  -8   31.77    1.62
   6   1  -8   30.98    1.61
  -6   1   8   28.53    1.55
  -6   1   8   32.30    1.64
  -5  -1   8   47.81    2.18
   5  -1  -8   39.58    2.04
  -5  -1   8   42.81    2.52
  -5  -1   8   41.35    2.08
   5  -1  -8   41.09    2.04
   5  -1  -8   40.69    2.03
   5  -1  -8   40.25    2.06
  -5  -1   8   38.89    2.06
  -5  -1   8   41.82    2.12
   5  -1  -8   39.40    2.06
  -5  -1   8   41.89    2.05
   5  -1  -8   43.04    2.55
  -5  -1   8   44.28    2.59
  -5   1   8   36.78    2.15
   5   1  -8   42.33    2.02
   5   1  -8   46.69    2.11
  -5   1   8   38.07    2.04
  -5   1   8   42.88    2.08
  -5   1   8   43.65    2.65
  -5   1   8   40.22    2.03
  -5   1   8   38.90    2.06
   5   1  -8   43.05    2.01
   5   1  -8   41.39    2.02
  -5   1   8   43.04    2.10
  -5   1   8   37.14    2.04
   5   1  -8   40.41    2.08
   5   1  -8   41.15    2.02
   5   1  -8   41.77    2.07
  -4  -1   8   11.94    0.96
   4  -1  -8   12.47    0.63
   4  -1  -8   11.53    0.95
   4  -1  -8   11.53    0.67
  -4  -1   8   11.31    0.93
   4  -1  -8   11.02    0.63
  -4  -1   8   11.87    0.61
  -4  -1   8   11.44    0.61
   4  -1  -8   10.85    0.60
   4  -1  -8   11.12    0.61
   4  -1  -8   11.07    0.66
  -4  -1   8   11.37    0.63
   4  -1  -8   11.25    0.62
   4  -1  -8   11.38    0.84
  -4  -1   8   11.35    0.62
  -4  -1   8   11.26    0.66
   4   1  -8   12.06    0.60
  -4   1   8   10.26    0.62
  -4   1   8   10.70    0.60
   4   1  -8   11.17    0.63
  -4   1   8   10.41    0.60
   4   1  -8   11.59    0.63
  -4   1   8   11.97    1.02
  -4   1   8   10.96    0.81
  -4   1   8   11.85    0.66
   4   1  -8   11.48    0.60
  -4   1   8   10.62    0.66
  -4   1   8    8.01    3.27
  -4   1   8   10.78    0.62
   3  -1  -8   28.14    1.44
   3  -1  -8   29.64    1.76
   3  -1  -8   27.56    1.39
  -3  -1   8   29.39    1.44
   3  -1  -8   27.68    1.39
  -3  -1   8   28.22    1.41
  -3  -1   8   28.42    1.74
   3  -1  -8   27.38    1.41
   3  -1  -8   27.84    1.64
  -3  -1   8   28.07    1.39
  -3  -1   8   30.51    1.75
   3  -1  -8   27.25    1.38
  -3  -1   8   28.66    1.39
  -3  -1   8   28.17    1.39
  -3  -1   8   27.02    2.94
   3   1  -8   28.74    1.41
  -3   1   8   26.11    1.53
  -3   1   8   33.11    3.63
   3   1  -8   27.23    1.41
   3   1  -8   27.88    1.39
  -3   1   8   22.04    3.18
  -3   1   8   29.71    2.81
  -3   1   8   23.08    1.39
  -3   1   8   28.21    1.85
  -3   1   8   29.22    3.18
  -3   1   8   31.68    3.99
  -3   1   8   24.15    1.45
  -3   1   8   27.35    1.39
  -3   1   8   25.77    3.19
  -3   1   8   28.80    1.42
   2  -1  -8   35.04    1.95
  -2  -1   8   29.92    4.02
  -2  -1   8   33.92    1.91
  -2  -1   8   33.57    1.60
   2  -1  -8   33.70    1.59
  -2  -1   8   32.13    1.58
  -2  -1   8   26.00    2.89
  -2  -1   8   33.58    1.57
   2  -1  -8   32.44    1.60
  -2  -1   8   32.56    1.89
  -2  -1   8   25.48    3.42
   2  -1  -8   33.99    1.86
  -2  -1   8   34.15    3.88
  -2  -1   8   34.22    1.59
   2  -1  -8   34.59    1.64
   2  -1  -8   28.61    1.56
   2  -1  -8   32.95    1.58
  -2  -1   8   35.00    1.63
  -2   1   8   32.18    3.36
   2   1  -8   30.44    1.58
  -2   1   8   28.64    1.62
  -2   1   8   25.61    3.76
   2   1  -8   26.65    1.62
  -2   1   8   28.61    3.53
  -2   1   8   32.34    1.59
   2   1  -8   32.33    1.60
  -2   1   8   32.45    2.91
  -2   1   8   31.18    1.71
  -2   1   8   32.82    1.61
   2   1  -8   34.71    1.61
   1  -1  -8   56.50    2.59
  -1  -1   8   54.85    2.59
  -1  -1   8   53.13    3.90
   1  -1  -8   53.89    2.58
   1  -1  -8   56.03    2.60
  -1  -1   8   55.23    2.59
  -1  -1   8   54.65    2.58
  -1  -1   8   44.54    4.14
  -1  -1   8   44.63    2.62
   1  -1  -8   56.64    2.87
   1  -1  -8   53.35    2.62
  -1  -1   8   54.10    2.89
  -1  -1   8   57.10    2.62
   1  -1  -8   53.99    2.90
  -1   1   8   57.57    2.62
  -1   1   8   53.10    3.94
  -1   1   8   54.10    4.19
  -1   1   8   52.05    4.37
   1   1  -8   44.10    4.22
   1   1  -8   54.93    2.60
   1   1  -8   50.00    2.72
   1   1  -8   47.35    4.66
  -1   1   8   53.31    2.73
   1   1  -8   48.67    2.59
  -1   1   8   52.34    4.58
  -1   1   8   49.29    2.57
   1   1  -8   51.17    2.56
   1   1  -8   55.37    2.61
  -1   1   8   57.33    2.64
   1   1  -8   54.64    2.58
   0  -1  -8   12.46    0.67
   0  -1  -8   11.56    2.47
   0  -1  -8   13.30    0.73
   0  -1  -8   12.81    0.91
   0  -1   8   12.59    0.93
   0  -1   8   12.91    0.68
   0  -1   8   12.75    0.67
   0  -1   8   10.53    2.44
   0  -1  -8   12.44    0.70
   0  -1   8   12.90    0.69
   0  -1   8   12.61    0.66
   0  -1   8   12.62    0.67
   0  -1   8   11.21    1.89
   0  -1  -8   14.41    0.68
   0  -1  -8   11.74    0.67
   0  -1   8   12.74    2.16
   0  -1   8   14.73    1.73
   0   1  -8    9.79    1.49
   0   1  -8   12.92    0.68
   0   1   8   13.65    0.70
   0   1  -8   12.98    0.65
   0   1   8   12.07    2.38
   0   1  -8   11.25    0.66
   0   1  -8   12.01    1.76
   0   1   8   12.59    0.82
   0   1   8   12.59    0.71
   0   1  -8   13.71    0.67
   0   1   8   12.38    1.75
   0   1  -8    8.95    1.86
   0   1   8   11.77    0.66
   0   1  -8   13.44    0.70
   0   1   8   12.24    1.94
   0   1  -8   12.26    0.85
  -1  -1  -8   32.37    1.56
  -1  -1  -8   30.78    1.54
  -1  -1  -8   33.71    1.54
   1  -1   8   33.00    3.54
  -1  -1  -8   25.66    3.13
   1  -1   8   30.04    1.53
   1  -1   8   36.50    2.36
  -1  -1  -8   30.09    1.54
   1  -1   8   32.63    1.57
   1  -1   8   32.06    1.54
   1  -1   8   30.52    2.96
   1  -1   8   31.66    1.58
  -1  -1  -8   31.04    1.58
  -1   1  -8   31.64    1.57
  -1   1  -8   30.98    1.54
   1   1   8   35.33    3.09
  -1   1  -8   31.14    1.57
   1   1   8   31.37    1.78
  -1   1  -8   25.07    2.65
   1   1   8   32.04    3.47
   1   1   8   30.88    1.57
   1   1   8   26.31    1.94
  -1   1  -8   30.94    1.84
  -1   1  -8   28.89    1.55
  -1   1  -8   32.10    1.58
   1   1   8   33.81    1.63
   1   1   8   32.21    3.33
   1   1   8   31.56    1.62
  -2  -1  -8    1.06    0.11
  -2  -1  -8    1.17    0.13
  -2  -1  -8    0.91    0.09
   2  -1   8    1.46    0.46
   2  -1   8   -0.60    2.15
   2  -1   8    1.02    0.14
  -2  -1  -8    1.06    0.20
   2  -1   8    1.11    0.11
   2  -1   8    1.16    0.13
  -2  -1  -8    1.14    0.28
   2  -1   8    2.06    1.01
   2  -1   8    1.14    0.29
  -2  -1  -8    1.01    0.12
   2  -1   8    1.16    0.11
   2  -1   8    0.93    0.13
  -2  -1  -8    0.96    0.11
  -2   1  -8    0.96    0.11
  -2   1  -8    2.62    1.67
   2   1   8    0.87    0.13
  -2   1  -8    1.22    0.28
   2   1   8    0.08    0.88
  -2   1  -8    0.97    0.13
  -2   1  -8    1.08    0.14
   2   1   8    0.92    0.31
  -2   1  -8    1.16    0.13
   2   1   8    0.95    0.15
  -3  -1  -8    6.16    0.36
  -3  -1  -8    5.91    0.42
  -3  -1  -8    5.67    0.38
   3  -1   8    4.90    0.38
  -3  -1  -8    5.85    0.40
  -3  -1  -8    5.57    0.36
   3  -1   8    5.86    0.40
  -3  -1  -8    5.95    0.38
   3  -1   8    6.02    0.35
   3  -1   8    6.39    0.37
  -3  -1  -8    5.98    0.38
   3  -1   8    5.83    0.72
   3  -1   8    6.51    0.73
  -3  -1  -8    5.98    0.65
   3  -1   8    5.88    0.35
  -3  -1  -8    6.21    0.37
   3  -1   8    5.95    0.36
   3   1   8    5.95    0.44
  -3   1  -8    6.17    0.39
  -3   1  -8    5.82    0.37
   3   1   8    6.51    0.64
  -3   1  -8    6.21    0.46
  -3   1  -8    6.16    0.69
   4  -1   8   22.42    1.15
   4  -1   8   22.31    1.16
  -4  -1  -8   24.65    1.22
  -4  -1  -8   25.43    2.13
   4  -1   8   22.47    1.22
  -4  -1  -8   23.45    1.23
  -4  -1  -8   22.55    1.21
   4  -1   8   22.09    1.18
  -4  -1  -8   23.88    1.17
   4  -1   8   22.78    1.23
  -4  -1  -8   23.49    1.19
   4  -1   8   23.13    1.16
  -4  -1  -8   22.73    1.17
  -4  -1  -8   22.15    1.18
  -4   1  -8   24.83    1.20
  -4   1  -8   23.52    1.20
   4   1   8   24.50    1.18
  -4   1  -8   21.62    1.14
   4   1   8   19.78    1.17
   4   1   8   24.93    1.31
  -4   1  -8   23.76    1.23
   4   1   8   18.99    1.15
  -5  -1  -8    2.33    0.20
  -5  -1  -8    2.36    0.20
  -5  -1  -8    2.61    0.25
  -5  -1  -8    2.43    0.22
  -5  -1  -8    2.24    0.20
  -5  -1  -8    2.52    0.24
  -5  -1  -8    2.36    0.22
   5  -1   8    2.18    0.18
   5   1   8    2.50    0.20
  -5   1  -8    2.02    0.22
   5   1   8    2.38    0.20
   5   1   8    1.63    0.31
  -5   1  -8    2.33    0.22
  -5   1  -8    2.51    0.22
  -6  -1  -8    3.13    0.26
  -6  -1  -8    3.19    0.28
  -6  -1  -8    2.31    0.35
  -6  -1  -8    2.34    0.25
  -6  -1  -8    2.92    0.24
  -6  -1  -8    3.04    0.23
  -6  -1  -8    3.04    0.24
   6   1   8    3.03    0.23
  -6   1  -8    3.08    0.26
   6   1   8    3.08    0.23
  -7  -1  -8    1.41    0.15
  -7  -1  -8    1.29    0.15
  -7  -1  -8    1.38    0.16
  -7  -1  -8    1.17    0.26
  -7  -1  -8    1.40    0.14
  -7  -1  -8    1.40    0.16
  -7   1  -8    1.36    0.17
   7   1   8    1.54    0.14
   7   1   8    1.30    0.13
  -8  -1  -8    1.38    0.13
  -8  -1  -8    1.30    0.11
   8   1   8    1.45    0.11
  -8   1  -8    1.43    0.17
   8   1   8    1.04    0.10
   9   1   8    1.38    0.09
 -10  -2   8   16.13    0.83
  10   2  -8   17.45    0.84
  -9  -2   8    2.16    0.22
  -9  -2   8    2.50    0.22
  -9  -2   8    1.77    0.21
  -9  -2   8    2.15    0.18
   9   2  -8    2.39    0.16
  -8  -2   8    6.82    0.44
  -8  -2   8    6.15    0.38
  -8  -2   8    5.64    0.44
  -8  -2   8    6.21    0.42
  -8  -2   8    6.16    0.39
   8   2  -8    5.82    0.37
   8   2  -8    5.42    0.39
   8   2  -8    5.79    0.33
   8   2  -8    5.74    0.37
  -7  -2   8    9.73    0.58
   7  -2  -8    9.93    0.60
  -7  -2   8    9.21    0.63
  -7  -2   8    9.77    0.60
  -7  -2   8    9.94    0.57
   7   2  -8    9.37    0.52
   7   2  -8   10.03    0.52
   7   2  -8    9.30    0.58
   7   2  -8    9.93    0.53
   7   2  -8    9.59    0.59
   7   2  -8    9.51    0.56
  -6  -2   8   51.35    2.59
  -6  -2   8   53.93    2.71
   6  -2  -8   50.71    2.56
  -6  -2   8   53.89    2.61
   6  -2  -8   53.57    2.60
   6  -2  -8   45.75    2.82
   6  -2  -8   54.06    2.59
   6  -2  -8   49.07    2.59
  -6  -2   8   54.91    2.59
  -6  -2   8   51.97    2.58
  -6  -2   8   53.74    2.58
   6   2  -8   51.74    2.53
   6   2  -8   51.65    2.62
   6   2  -8   51.38    2.52
   6   2  -8   52.24    2.62
   6   2  -8   53.62    2.54
   6   2  -8   54.97    2.53
   6   2  -8   51.71    2.61
   6   2  -8   51.27    2.62
  -6   2   8   50.39    2.64
   6   2  -8   51.50    2.52
  -5  -2   8   27.70    1.37
   5  -2  -8   25.87    1.36
   5  -2  -8   26.31    1.38
   5  -2  -8   26.95    1.37
  -5  -2   8   27.41    1.40
  -5  -2   8   27.08    1.39
   5  -2  -8   26.73    1.40
   5  -2  -8   25.86    1.39
   5  -2  -8   26.66    1.38
   5  -2  -8   26.63    1.46
  -5  -2   8   26.25    1.36
  -5  -2   8   26.80    1.37
  -5  -2   8   26.57    1.44
   5   2  -8   26.46    1.33
  -5   2   8   26.77    1.43
   5   2  -8   27.39    1.33
  -5   2   8   30.19    1.36
   5   2  -8   26.94    1.34
   5   2  -8   26.42    1.33
   5   2  -8   26.53    1.33
   5   2  -8   25.71    1.41
   5   2  -8   26.73    1.41
   4  -2  -8   18.09    0.98
   4  -2  -8   15.63    0.89
   4  -2  -8   16.28    1.26
  -4  -2   8   17.22    0.94
  -4  -2   8   17.92    0.91
   4  -2  -8   17.34    0.90
   4  -2  -8   16.62    0.92
   4  -2  -8   19.27    1.34
   4  -2  -8   16.98    0.89
  -4  -2   8   16.83    0.88
   4  -2  -8   16.15    0.89
  -4  -2   8   13.98    1.19
   4  -2  -8   16.02    0.88
  -4  -2   8   16.34    0.88
  -4  -2   8   18.51    1.37
  -4   2   8   16.34    0.92
   4   2  -8   17.06    0.86
   4   2  -8   16.36    0.86
  -4   2   8   16.30    0.93
   4   2  -8   15.80    0.92
   4   2  -8   16.50    0.92
   4   2  -8   16.93    0.85
   4   2  -8   16.65    0.85
  -4   2   8   17.78    0.88
   4   2  -8   17.31    0.86
  -3  -2   8   10.02    0.56
   3  -2  -8    9.61    0.57
   3  -2  -8    9.51    0.55
   3  -2  -8    8.91    0.55
   3  -2  -8   10.68    0.88
  -3  -2   8   10.04    0.53
  -3  -2   8    9.73    0.89
   3  -2  -8    9.87    0.55
   3  -2  -8   10.03    0.60
  -3  -2   8    9.41    0.54
  -3  -2   8   10.22    0.59
   3  -2  -8   10.64    0.88
  -3  -2   8    9.70    0.53
   3  -2  -8    9.93    0.62
   3   2  -8    9.75    0.51
  -3   2   8    8.91    0.57
   3   2  -8    9.66    0.52
   3   2  -8    9.97    0.57
   3   2  -8    9.44    0.58
   3   2  -8    9.72    0.51
   3   2  -8    9.19    0.52
   3   2  -8    8.95    0.55
  -3   2   8    9.71    0.59
   3   2  -8    9.19    0.52
  -3   2   8   10.67    0.56
   2  -2  -8   15.92    0.82
  -2  -2   8   16.16    0.81
   2  -2  -8   16.09    1.14
  -2  -2   8   14.52    0.81
  -2  -2   8   14.65    2.20
   2  -2  -8   16.48    0.88
  -2  -2   8   15.57    1.16
   2  -2  -8   15.92    1.13
   2  -2  -8   15.02    0.82
   2  -2  -8   16.21    0.85
  -2  -2   8   16.23    0.86
   2  -2  -8   15.60    0.82
  -2  -2   8   15.48    0.81
  -2  -2   8   16.31    0.83
  -2   2   8   16.23    0.88
  -2   2   8   12.71    3.36
   2   2  -8   16.28    0.85
   2   2  -8   15.79    0.87
   2   2  -8   14.90    0.84
  -2   2   8   15.44    0.88
   1  -2  -8   52.11    2.61
  -1  -2   8   54.46    2.61
  -1  -2   8   58.61    2.62
   1  -2  -8   54.63    2.63
   1  -2  -8   56.07    3.05
   1  -2  -8   52.37    2.94
  -1  -2   8   51.92    3.00
   1  -2  -8   55.99    2.62
   1  -2  -8   57.67    2.65
  -1  -2   8   54.98    2.62
  -1  -2   8   58.21    2.66
   1  -2  -8   53.03    2.67
  -1  -2   8   56.76    2.63
   1   2  -8   53.97    2.66
   1   2  -8   51.45    2.65
  -1   2   8   49.73    4.15
   1   2  -8   47.41    2.56
  -1   2   8   42.79    4.74
   1   2  -8   55.56    2.67
  -1   2   8   54.96    2.68
  -1   2   8   52.37    2.69
   0  -2   8   35.03    1.73
   0  -2  -8   35.03    1.75
   0  -2   8   32.90    2.11
   0  -2  -8   35.03    1.78
   0  -2  -8   33.83    1.73
   0  -2  -8   34.53    1.75
   0  -2   8   36.18    1.73
   0  -2   8   37.14    1.78
   0  -2  -8   36.02    2.13
   0  -2   8   36.01    1.75
   0  -2   8   33.49    1.75
   0  -2  -8   34.48    1.73
   0   2  -8   32.81    1.70
   0   2  -8   37.27    1.78
   0   2   8   35.83    1.83
   0   2  -8   35.22    1.79
   0   2   8   35.53    1.80
   0   2  -8   36.52    1.77
   0   2  -8   35.69    1.78
   1  -2   8   79.22    4.52
   1  -2   8   89.85    4.09
   1  -2   8   86.35    4.08
  -1  -2  -8   84.87    4.14
   1  -2   8   87.53    4.11
   1  -2   8   82.11    4.11
  -1  -2  -8   87.16    4.11
  -1  -2  -8   88.44    4.10
  -1  -2  -8   86.20    4.08
  -1  -2  -8   81.83    4.08
  -1  -2  -8   83.05    4.53
   1  -2   8   87.40    4.14
  -1   2  -8   85.04    4.14
  -1   2  -8   81.66    4.06
   1   2   8   84.71    4.20
  -1   2  -8   85.90    4.13
   1   2   8   79.25    4.11
   1   2   8   83.63    4.15
  -1   2  -8   84.07    4.14
  -1   2  -8   86.40    4.12
   2  -2   8    4.78    0.34
   2  -2   8    4.92    0.30
  -2  -2  -8    4.73    0.32
   2  -2   8    4.80    0.32
  -2  -2  -8    5.29    0.34
  -2  -2  -8    4.70    0.30
  -2  -2  -8    5.52    0.62
  -2  -2  -8    5.04    0.32
  -2  -2  -8    4.67    0.34
   2  -2   8    4.74    0.30
  -2  -2  -8    4.14    0.30
   2  -2   8    4.27    0.32
   2  -2   8    6.10    0.65
   2   2   8    3.91    0.29
   2   2   8    4.33    0.35
   2   2   8    4.48    0.30
  -2   2  -8    4.63    0.33
  -2   2  -8    4.36    0.27
  -2   2  -8    4.77    0.32
   2   2   8    4.52    0.38
  -2   2  -8    4.97    0.34
  -2   2  -8    5.56    0.44
   2   2   8    4.68    0.30
  -2   2  -8    4.93    0.35
   3  -2   8    1.32    0.15
   3  -2   8    0.95    0.16
   3  -2   8    1.26    0.16
   3  -2   8    1.76    0.54
  -3  -2  -8    1.23    0.16
  -3  -2  -8    1.24    0.15
  -3  -2  -8    1.25    0.14
   3  -2   8    1.21    0.18
   3  -2   8    1.32    0.15
  -3  -2  -8    1.09    0.15
   3  -2   8    1.31    0.16
  -3  -2  -8    1.31    0.14
  -3  -2  -8    1.39    0.15
  -3   2  -8    1.11    0.16
  -3   2  -8    1.29    0.16
   3   2   8    1.25    0.13
   3   2   8    0.98    0.17
  -3   2  -8    1.20    0.16
   3   2   8    1.29    0.15
  -3   2  -8    1.45    0.21
   3   2   8    1.32    0.13
   3   2   8    1.14    0.20
   3   2   8    1.10    0.14
  -3   2  -8    1.15    0.13
   3   2   8    1.39    0.16
   4  -2   8   62.27    3.07
  -4  -2  -8   70.78    3.21
   4  -2   8   70.95    3.22
   4  -2   8   61.97    3.10
  -4  -2  -8   63.87    3.11
  -4  -2  -8   61.76    3.07
   4  -2   8   63.59    3.15
  -4  -2  -8   64.26    3.08
   4  -2   8   63.65    3.07
  -4  -2  -8   64.71    3.12
   4  -2   8   61.89    3.15
  -4  -2  -8   60.33    3.18
  -4   2  -8   59.01    3.14
   4   2   8   60.08    3.23
  -4   2  -8   62.12    3.12
   4   2   8   62.21    3.07
   4   2   8   62.38    3.08
   4   2   8   64.53    3.18
   4   2   8   57.76    3.08
  -5  -2  -8    0.18    0.10
  -5  -2  -8    0.07    0.05
  -5  -2  -8    0.08    0.06
   5  -2   8    0.10    0.09
  -5  -2  -8    0.06    0.05
   5  -2   8    0.13    0.06
  -5  -2  -8    0.12    0.07
   5  -2   8    0.10    0.05
   5  -2   8    0.11    0.07
   5   2   8    0.12    0.06
   5   2   8    0.15    0.07
   5   2   8    0.19    0.06
   5   2   8    0.10    0.05
   5   2   8    0.16    0.07
   5   2   8    0.19    0.08
  -5   2  -8    0.05    0.07
  -6  -2  -8    1.22    0.17
  -6  -2  -8    1.21    0.16
  -6  -2  -8    1.29    0.15
   6  -2   8    1.13    0.12
  -6  -2  -8    1.21    0.14
  -6  -2  -8    1.22    0.15
   6   2   8    1.39    0.15
   6   2   8    1.03    0.15
   6   2   8    1.19    0.14
  -6   2  -8    1.28    0.16
   6   2   8    1.10    0.14
   6   2   8    1.29    0.13
  -7  -2  -8    2.09    0.19
  -7  -2  -8    2.08    0.17
  -7  -2  -8    2.10    0.17
  -7  -2  -8    1.99    0.17
   7   2   8    1.94    0.16
   7   2   8    1.94    0.15
   7   2   8    1.62    0.18
   7   2   8    1.89    0.16
  -7   2  -8    1.92    0.18
  -8  -2  -8    3.48    0.21
  -8  -2  -8    3.37    0.21
  -8   2  -8    3.09    0.22
   8   2   8    2.70    0.19
   8   2   8    3.22    0.19
  -9  -3   8    3.34    0.19
   9   3  -8    2.68    0.19
   9   3  -8    2.64    0.16
  -8  -3   8    4.74    0.36
  -8  -3   8    3.35    0.28
  -8  -3   8    4.41    0.27
   8   3  -8    3.96    0.24
   8   3  -8    4.02    0.25
  -8   3   8    3.89    0.23
   8   3  -8    3.86    0.25
  -8   3   8    3.90    0.23
  -7  -3   8   53.42    2.49
  -7  -3   8   44.18    2.48
  -7  -3   8   53.10    2.50
  -7  -3   8   55.26    2.53
   7  -3  -8   50.49    2.46
   7   3  -8   48.28    2.50
   7   3  -8   49.63    2.47
   7   3  -8   48.41    2.50
   7   3  -8   51.24    2.44
  -7   3   8   49.86    2.45
  -7   3   8   50.27    2.46
   7   3  -8   50.05    2.44
   7   3  -8   50.18    2.43
   6  -3  -8    0.66    0.18
  -6  -3   8    0.54    0.14
   6  -3  -8    0.61    0.12
   6  -3  -8    0.63    0.12
  -6  -3   8    0.66    0.12
  -6  -3   8    0.64    0.13
  -6  -3   8    0.68    0.13
  -6  -3   8    0.73    0.12
   6  -3  -8    0.50    0.15
   6   3  -8    0.68    0.11
  -6   3   8    0.43    0.11
   6   3  -8    0.47    0.08
   6   3  -8    0.52    0.12
   6   3  -8    0.61    0.10
   6   3  -8    0.54    0.11
   6   3  -8    0.48    0.09
   6   3  -8    0.61    0.10
   6   3  -8    0.55    0.13
  -5  -3   8    4.19    0.31
  -5  -3   8    4.16    0.28
   5  -3  -8    4.01    0.32
   5  -3  -8    3.93    0.30
   5  -3  -8    3.93    0.29
  -5  -3   8    4.18    0.28
  -5  -3   8    3.24    0.28
  -5  -3   8    3.96    0.33
   5  -3  -8    3.95    0.28
   5   3  -8    3.76    0.24
   5   3  -8    4.01    0.26
   5   3  -8    3.60    0.30
   5   3  -8    3.75    0.24
  -5   3   8    3.59    0.35
   5   3  -8    3.86    0.27
   5   3  -8    3.66    0.25
  -5   3   8    3.94    0.28
   5   3  -8    3.72    0.31
   5   3  -8    4.00    0.26
  -4  -3   8   38.36    1.89
  -4  -3   8   40.55    1.97
   4  -3  -8   36.52    1.92
   4  -3  -8   36.75    1.90
  -4  -3   8   39.13    1.92
   4  -3  -8   36.79    1.91
  -4  -3   8   39.57    1.89
  -4  -3   8   37.69    1.96
   4  -3  -8   36.35    1.93
   4  -3  -8   36.15    1.98
   4  -3  -8   36.87    1.91
   4   3  -8   34.89    1.95
  -4   3   8   40.05    1.91
  -4   3   8   41.40    2.14
   4   3  -8   35.26    1.94
   4   3  -8   38.44    1.87
   4   3  -8   37.31    1.86
   4   3  -8   35.49    1.87
   4   3  -8   41.15    1.98
  -4   3   8   37.82    1.88
   4   3  -8   39.53    1.87
   4   3  -8   38.84    1.87
  -4   3   8   42.41    2.04
   4   3  -8   34.21    2.00
   3  -3  -8   48.87    2.41
  -3  -3   8   50.18    2.36
  -3  -3   8   47.45    2.36
   3  -3  -8   48.91    2.46
   3  -3  -8   47.57    2.38
  -3  -3   8   50.39    2.39
   3  -3  -8   46.31    2.38
  -3  -3   8   50.04    2.43
   3  -3  -8   46.18    2.38
   3  -3  -8   48.97    2.37
  -3  -3   8   49.52    2.36
   3   3  -8   49.52    2.34
   3   3  -8   49.27    2.34
  -3   3   8   47.42    2.45
   3   3  -8   46.50    2.42
  -3   3   8   47.58    2.54
   3   3  -8   44.51    2.39
  -3   3   8   51.37    2.38
  -3   3   8   46.36    2.41
   3   3  -8   45.52    2.40
   3   3  -8   46.00    2.34
  -3   3   8   49.40    2.36
   3   3  -8   46.47    2.41
   3   3  -8   49.61    2.34
   3   3  -8   49.77    2.34
   3   3  -8   45.16    2.43
   2  -3  -8   36.04    1.81
  -2  -3   8   39.48    1.80
   2  -3  -8   36.68    1.89
   2  -3  -8   33.89    1.82
   2  -3  -8   38.44    1.96
  -2  -3   8   38.71    1.83
   2  -3  -8   37.16    1.82
   2  -3  -8   36.22    2.25
   2  -3  -8   32.75    1.82
  -2  -3   8   36.85    1.80
  -2  -3   8   36.93    1.86
  -2  -3   8   36.73    1.81
   2   3  -8   37.63    1.78
   2   3  -8   37.19    1.79
  -2   3   8   35.86    1.86
   2   3  -8   32.66    1.87
  -2   3   8   35.14    1.89
   2   3  -8   37.61    1.78
   2   3  -8   36.65    1.79
   2   3  -8   38.55    1.79
   2   3  -8   35.47    1.85
   2   3  -8   36.19    1.84
   2   3  -8   34.53    1.85
  -2   3   8   37.78    1.81
  -2   3   8   35.52    2.08
  -2   3   8   33.91    1.82
   2   3  -8   37.53    1.87
  -2   3   8   39.20    1.83
   2   3  -8   33.81    1.87
  -1  -3   8    0.74    0.19
  -1  -3   8    1.08    0.14
   1  -3  -8    2.15    0.70
   1  -3  -8    1.00    0.12
  -1  -3   8    0.94    0.12
   1  -3  -8    1.09    0.15
   1  -3  -8    1.12    0.13
  -1  -3   8    1.04    0.12
  -1  -3   8    1.10    0.13
   1  -3  -8    0.81    0.12
   1  -3  -8    0.88    0.13
  -1  -3   8    1.07    0.14
  -1   3   8    1.02    0.14
  -1   3   8    0.89    0.11
   1   3  -8    0.88    0.12
   1   3  -8    0.88    0.12
  -1   3   8    1.04    0.13
  -1   3   8    0.87    0.16
   1   3  -8    0.86    0.14
   1   3  -8    1.16    0.15
   1   3  -8    0.99    0.17
   1   3  -8    0.93    0.12
  -1   3   8    1.01    0.15
  -1   3   8    0.91    0.14
  -1   3   8    0.95    0.14
   1   3  -8    1.14    0.11
   1   3  -8    1.05    0.11
   1   3  -8    0.76    0.13
   1   3  -8    1.14    0.15
   0  -3   8   13.22    0.89
   0  -3   8   16.21    0.80
   0  -3  -8   15.78    0.86
   0  -3  -8   14.94    0.81
   0  -3  -8   14.90    0.80
   0  -3   8   15.68    0.85
   0  -3   8   16.14    0.83
   0  -3   8   14.62    0.82
   0  -3  -8   15.44    0.83
   0  -3  -8   15.91    0.81
   0  -3   8   15.86    0.80
   0  -3   8   15.68    1.34
   0   3  -8   14.94    0.85
   0   3  -8   13.61    0.80
   0   3  -8   15.41    0.79
   0   3   8   15.55    0.81
   0   3   8   15.16    0.88
   0   3   8   16.53    0.82
   0   3  -8   15.33    0.88
   0   3  -8   14.70    0.86
   0   3  -8   15.33    0.89
   0   3   8   15.80    0.83
   0   3   8   15.28    0.87
   0   3  -8   15.08    0.79
   0   3  -8   15.51    0.78
   0   3   8   15.10    0.79
   0   3   8   15.09    0.80
   0   3  -8   15.78    0.79
   0   3   8   14.77    0.91
   0   3  -8   15.43    0.78
  -1  -3  -8    5.62    0.36
   1  -3   8    5.20    0.36
   1  -3   8    5.89    0.37
   1  -3   8    5.45    0.34
  -1  -3  -8    5.22    0.38
   1  -3   8    5.85    0.35
  -1  -3  -8    5.33    0.34
   1  -3   8    5.74    0.39
  -1  -3  -8    5.66    0.39
  -1  -3  -8    5.54    0.34
  -1   3  -8    5.52    0.32
   1   3   8    5.53    0.40
  -1   3  -8    5.35    0.32
   1   3   8    5.50    0.44
  -1   3  -8    5.79    0.40
   1   3   8    5.41    0.41
  -1   3  -8    5.59    0.38
   1   3   8    5.42    0.34
  -1   3  -8    5.50    0.40
  -1   3  -8    5.37    0.32
   1   3   8    5.76    0.36
   1   3   8    4.89    0.34
   1   3   8    5.58    0.33
   1   3   8    5.66    0.35
  -1   3  -8    5.73    0.42
  -1   3  -8    5.44    0.35
   1   3   8    5.57    0.36
  -1   3  -8    5.65    0.33
   2  -3   8   63.54    2.98
  -2  -3  -8   61.74    3.01
   2  -3   8   64.00    2.97
   2  -3   8   62.96    2.95
   2  -3   8   60.58    2.99
  -2  -3  -8   62.57    2.94
  -2  -3  -8   63.39    2.97
   2  -3   8   60.72    3.01
   2  -3   8   62.68    2.95
  -2  -3  -8   60.24    2.94
  -2  -3  -8   64.40    2.97
   2   3   8   59.85    2.97
   2   3   8   55.82    3.01
  -2   3  -8   59.40    2.92
  -2   3  -8   60.58    2.99
   2   3   8   59.18    2.95
  -2   3  -8   51.16    3.00
  -2   3  -8   57.15    2.91
   2   3   8   59.20    3.10
  -2   3  -8   60.91    2.96
  -2   3  -8   59.46    3.03
   2   3   8   62.52    2.96
   2   3   8   61.08    2.94
   2   3   8   60.10    2.95
   2   3   8   57.60    3.04
  -2   3  -8   57.31    2.91
   2   3   8   58.16    3.09
   2   3   8   62.45    2.93
  -2   3  -8   58.87    2.92
  -2   3  -8   63.50    3.05
  -3  -3  -8   27.48    1.42
   3  -3   8   27.55    1.42
  -3  -3  -8   29.05    1.39
   3  -3   8   30.76    1.49
  -3  -3  -8   28.54    1.42
   3  -3   8   27.87    1.40
   3  -3   8   27.40    1.45
   3  -3   8   28.82    1.42
  -3   3  -8   27.63    1.48
   3   3   8   26.52    1.54
   3   3   8   28.05    1.38
  -3   3  -8   26.32    1.36
   3   3   8   28.76    1.41
   3   3   8   28.28    1.39
   3   3   8   27.32    1.40
   3   3   8   25.65    1.48
   3   3   8   24.76    1.48
   3   3   8   24.99    1.49
  -3   3  -8   27.41    1.36
   3   3   8   28.23    1.42
   3   3   8   26.00    1.45
  -3   3  -8   23.92    1.51
  -3   3  -8   28.53    1.42
  -3   3  -8   29.48    1.49
  -4  -3  -8   23.30    1.19
  -4  -3  -8   23.37    1.19
   4  -3   8   23.01    1.25
   4  -3   8   22.99    1.21
   4  -3   8   23.37    1.20
  -4  -3  -8   23.84    1.18
   4  -3   8   21.72    1.18
  -4  -3  -8   22.97    1.20
   4  -3   8   22.86    1.18
  -4  -3  -8   23.50    1.24
  -4   3  -8   22.21    1.15
   4   3   8   23.32    1.19
   4   3   8   22.12    1.16
  -4   3  -8   23.87    1.25
   4   3   8   22.61    1.18
  -4   3  -8   22.19    1.21
   4   3   8   21.16    1.22
   4   3   8   22.86    1.18
   4   3   8   23.67    1.20
  -4   3  -8   23.84    1.20
  -5  -3  -8    9.69    0.53
   5  -3   8    9.01    0.51
  -5  -3  -8    9.86    0.56
  -5  -3  -8    9.54    0.54
  -5  -3  -8    9.54    0.52
   5  -3   8    8.90    0.52
   5  -3   8    8.90    0.52
   5  -3   8    8.84    0.58
  -5  -3  -8    9.70    0.59
   5  -3   8    8.61    0.54
   5   3   8    9.14    0.52
   5   3   8    9.24    0.54
  -5   3  -8    9.44    0.50
   5   3   8    9.52    0.52
   5   3   8    9.40    0.50
  -5   3  -8    8.74    0.55
   5   3   8    8.73    0.55
   5   3   8    9.29    0.53
  -6  -3  -8    1.24    0.13
  -6  -3  -8    1.32    0.14
   6  -3   8    1.00    0.13
  -6  -3  -8    1.12    0.17
   6  -3   8    1.27    0.13
  -6  -3  -8    1.43    0.15
   6   3   8    1.31    0.14
   6   3   8    1.31    0.15
   6   3   8    1.19    0.13
   6   3   8    1.24    0.13
   6   3   8    1.32    0.14
   6   3   8    1.28    0.12
  -6   3  -8    1.20    0.14
  -6   3  -8    1.26    0.12
  -7  -3  -8    2.52    0.20
  -7  -3  -8    2.37    0.17
  -7  -3  -8    2.74    0.19
   7   3   8    2.54    0.17
  -7   3  -8    2.58    0.16
   7   3   8    2.49    0.16
  -7   3  -8    2.13    0.19
   7   3   8    2.69    0.18
  -8  -3  -8    1.20    0.11
   8   4  -8    0.82    0.08
   8   4  -8    0.64    0.06
  -8   4   8    0.87    0.07
   8   4  -8    0.70    0.07
   8   4  -8    0.74    0.06
   7  -4  -8   11.63    0.60
  -7  -4   8   10.09    0.63
  -7  -4   8   10.61    0.62
  -7  -4   8   12.99    0.66
   7   4  -8   13.25    0.60
  -7   4   8   11.50    0.60
   7   4  -8   12.39    0.61
  -7   4   8   11.23    0.59
  -7   4   8   11.33    0.60
   7   4  -8   11.44    0.63
   7   4  -8   12.19    0.59
   6  -4  -8    6.12    0.37
   6  -4  -8    6.05    0.36
  -6  -4   8    5.78    0.37
  -6  -4   8    6.54    0.52
  -6  -4   8    5.37    0.36
  -6  -4   8    5.32    0.38
  -6  -4   8    5.79    0.37
   6   4  -8    6.41    0.34
   6   4  -8    5.93    0.38
   6   4  -8    5.96    0.33
  -6   4   8    6.22    0.35
   6   4  -8    6.09    0.38
  -6   4   8    6.20    0.35
   6   4  -8    5.94    0.33
  -6   4   8    6.13    0.37
   5  -4  -8    2.00    0.19
  -5  -4   8    2.24    0.20
  -5  -4   8    1.70    0.21
   5  -4  -8    2.06    0.20
  -5  -4   8    1.86    0.19
  -5  -4   8    1.97    0.17
   5  -4  -8    2.04    0.21
   5  -4  -8    2.25    0.21
   5  -4  -8    1.80    0.23
   5   4  -8    2.06    0.15
   5   4  -8    2.12    0.16
   5   4  -8    2.17    0.17
   5   4  -8    1.93    0.15
  -5   4   8    2.13    0.18
  -5   4   8    2.10    0.18
  -5   4   8    1.91    0.16
  -5   4   8    2.22    0.25
   5   4  -8    2.18    0.16
  -5   4   8    2.13    0.18
   5   4  -8    2.14    0.19
   5   4  -8    2.04    0.20
   4  -4  -8   10.79    0.61
   4  -4  -8   10.86    0.64
  -4  -4   8   11.67    0.60
   4  -4  -8   10.88    0.60
   4   4  -8   10.84    0.76
  -4   4   8   10.64    0.68
   4   4  -8    9.53    0.60
  -4   4   8   10.04    0.64
  -4   4   8    9.69    0.57
  -4   4   8   10.23    0.56
  -4   4   8    9.99    0.94
   4   4  -8   10.56    0.58
   4   4  -8   11.42    0.58
   4   4  -8   11.47    0.58
  -3  -4   8   20.85    1.09
   3  -4  -8   20.68    1.04
   3  -4  -8   19.31    1.04
   3  -4  -8   20.62    1.07
  -3  -4   8   21.01    1.11
  -3  -4   8   21.39    1.02
   3  -4  -8   19.40    1.11
   3  -4  -8   20.98    1.04
  -3  -4   8   16.81    1.00
  -3   4   8   20.12    1.02
   3   4  -8   19.36    1.00
  -3   4   8   18.31    0.98
   3   4  -8   19.11    0.99
  -3   4   8   19.43    1.01
  -3   4   8   19.58    1.18
   3   4  -8   18.97    1.06
   3   4  -8   20.12    1.00
   3   4  -8   19.48    0.99
   3   4  -8   20.11    1.00
   3   4  -8   18.71    1.03
  -3   4   8   20.17    1.03
  -3   4   8   17.95    1.05
  -3   4   8   19.78    1.01
   2  -4  -8    3.18    0.26
  -2  -4   8    3.18    0.24
   2  -4  -8    2.95    0.28
  -2  -4   8    2.65    0.21
   2  -4  -8    2.91    0.23
   2  -4  -8    3.18    0.25
  -2  -4   8    3.07    0.24
   2  -4  -8    2.98    0.24
  -2  -4   8    3.31    0.27
   2   4  -8    2.98    0.21
   2   4  -8    2.95    0.21
  -2   4   8    2.76    0.22
  -2   4   8    2.90    0.23
   2   4  -8    2.49    0.27
   2   4  -8    2.92    0.25
   2   4  -8    3.04    0.21
  -2   4   8    2.89    0.34
  -2   4   8    2.95    0.27
   2   4  -8    3.14    0.22
   2   4  -8    2.98    0.21
  -2   4   8    2.78    0.23
  -2   4   8    2.67    0.22
  -2   4   8    3.05    0.25
  -2   4   8    2.84    0.20
  -1  -4   8    9.15    0.52
   1  -4  -8    9.13    0.51
   1  -4  -8    8.74    0.57
  -1  -4   8    8.73    0.54
   1  -4  -8    8.97    0.51
   1  -4  -8    9.12    0.54
  -1  -4   8    9.39    0.50
  -1  -4   8    9.32    0.50
  -1   4   8    8.96    0.48
  -1   4   8    8.79    0.56
   1   4  -8    7.72    0.49
  -1   4   8    8.76    0.50
  -1   4   8    8.50    0.65
   1   4  -8    8.79    0.48
  -1   4   8    8.71    0.49
   1   4  -8    8.95    0.48
  -1   4   8    7.65    0.50
   1   4  -8    8.26    0.57
  -1   4   8    9.06    0.52
   1   4  -8    8.61    0.49
   1   4  -8    9.09    0.49
   1   4  -8    8.64    0.47
  -1   4   8    8.54    0.48
   1   4  -8    8.49    0.53
   0  -4  -8    9.52    0.54
   0  -4   8   10.37    0.54
   0  -4   8    9.81    0.59
   0  -4   8   10.18    0.57
   0  -4  -8    9.54    0.60
   0  -4   8   10.26    0.55
   0  -4  -8    9.88    0.55
   0  -4  -8   10.38    0.58
   0   4  -8    9.94    0.53
   0   4  -8    8.45    0.54
   0   4  -8    9.58    0.52
   0   4  -8    9.35    0.52
   0   4   8   10.21    0.55
   0   4   8    9.97    0.56
   0   4  -8    9.20    0.56
   0   4   8    9.74    0.61
   0   4  -8    9.40    0.62
   0   4   8    9.19    0.68
   0   4  -8    9.44    0.53
   0   4  -8    9.51    0.52
   0   4   8    9.86    0.53
   0   4   8    9.33    0.54
   0   4   8    9.46    0.52
   0   4   8    9.57    0.52
   0   4   8    9.13    0.55
  -1  -4  -8    1.60    0.16
   1  -4   8    1.54    0.19
  -1  -4  -8    1.65    0.18
   1  -4   8    1.63    0.16
  -1  -4  -8    1.54    0.18
   1  -4   8    1.58    0.18
   1   4   8    1.44    0.17
   1   4   8    1.58    0.20
  -1   4  -8    1.47    0.15
  -1   4  -8    1.63    0.22
  -1   4  -8    1.55    0.15
  -1   4  -8    1.52    0.14
   1   4   8    1.58    0.17
   1   4   8    1.54    0.15
   1   4   8    1.54    0.18
  -1   4  -8    1.59    0.14
  -1   4  -8    1.54    0.17
   1   4   8    1.71    0.18
  -1   4  -8    1.51    0.14
   1   4   8    1.52    0.24
   1   4   8    1.33    0.14
   2  -4   8    2.05    0.20
  -2  -4  -8    1.82    0.20
   2  -4   8    2.05    0.19
  -2  -4  -8    2.05    0.17
   2  -4   8    1.98    0.18
  -2  -4  -8    2.07    0.21
   2  -4   8    1.91    0.21
  -2  -4  -8    1.92    0.22
   2   4   8    1.87    0.16
   2   4   8    1.97    0.19
  -2   4  -8    1.81    0.16
  -2   4  -8    1.94    0.20
   2   4   8    1.68    0.21
   2   4   8    1.68    0.24
  -2   4  -8    1.81    0.15
   2   4   8    1.90    0.19
  -2   4  -8    1.83    0.16
  -2   4  -8    2.01    0.24
  -2   4  -8    1.92    0.16
  -2   4  -8    1.79    0.15
   2   4   8    1.83    0.19
   2   4   8    1.65    0.16
   2   4   8    1.98    0.19
  -3  -4  -8   19.35    0.97
  -3  -4  -8   18.54    0.94
   3  -4   8   18.59    0.95
   3  -4   8   18.01    0.94
  -3  -4  -8   18.81    0.93
   3  -4   8   18.22    0.96
   3  -4   8   18.21    1.01
   3  -4   8   19.42    0.99
  -3  -4  -8   18.44    0.99
  -3   4  -8   18.03    0.91
   3   4   8   17.54    0.98
   3   4   8   16.22    1.02
   3   4   8   17.26    0.94
   3   4   8   17.86    0.96
  -3   4  -8   17.62    0.95
  -3   4  -8   17.25    0.90
   3   4   8   18.00    0.93
   3   4   8   18.27    0.92
   3   4   8   17.54    0.94
   3   4   8   17.57    0.93
  -3   4  -8   17.65    0.91
  -3   4  -8   17.46    0.90
  -3   4  -8   18.01    0.91
  -3   4  -8   18.87    1.02
  -4  -4  -8   12.72    0.79
  -4  -4  -8   15.04    0.85
   4  -4   8   15.41    0.79
   4  -4   8   14.38    0.84
   4  -4   8   15.25    0.82
   4  -4   8   14.98    0.81
   4  -4   8   14.43    0.79
   4   4   8   14.49    0.81
  -4   4  -8   15.03    0.76
   4   4   8   14.56    0.78
   4   4   8   14.99    0.78
  -4   4  -8   15.50    0.80
   4   4   8   14.85    0.76
   4   4   8   14.64    0.78
  -4   4  -8   15.17    0.76
   4   4   8   14.75    0.79
  -4   4  -8   16.56    0.85
  -5  -4  -8    5.93    0.36
   5  -4   8    5.98    0.36
  -5  -4  -8    5.85    0.35
   5  -4   8    6.14    0.35
   5  -4   8    5.98    0.38
   5  -4   8    6.07    0.34
  -5  -4  -8    4.95    0.33
   5   4   8    4.92    0.35
   5   4   8    6.49    0.36
  -5   4  -8    5.19    0.35
   5   4   8    4.82    0.37
   5   4   8    6.37    0.35
   6  -4   8    0.68    0.08
  -6  -4  -8    0.53    0.09
  -6  -4  -8    0.50    0.08
   6   4   8    0.64    0.08
   6   4   8    0.69    0.08
  -6   4  -8    0.67    0.07
   6   4   8    0.67    0.09
   6   4   8    0.66    0.07
  -6   4  -8    0.60    0.06
   6   4   8    0.49    0.08
   6   4   8    0.58    0.08
   6  -5  -8    0.23    0.06
   6   5  -8    0.23    0.05
   6   5  -8    0.20    0.05
  -6   5   8    0.20    0.04
   6   5  -8    0.29    0.05
  -6   5   8    0.19    0.04
   6   5  -8    0.22    0.06
   5  -5  -8    0.16    0.05
   5  -5  -8    0.19    0.05
   5   5  -8    0.18    0.05
  -5   5   8    0.28    0.07
   5   5  -8    0.27    0.06
   5   5  -8    0.25    0.06
  -5   5   8    0.23    0.06
  -5   5   8    0.25    0.06
  -5   5   8    0.17    0.08
   5   5  -8    0.21    0.06
   4  -5  -8    1.96    0.16
   4  -5  -8    1.95    0.17
   4  -5  -8    1.43    0.16
   4  -5  -8    1.36    0.14
  -4   5   8    1.71    0.15
   4   5  -8    1.78    0.13
  -4   5   8    1.81    0.13
   4   5  -8    1.76    0.13
  -4   5   8    1.70    0.15
  -3  -5   8    0.81    0.13
   3  -5  -8    1.11    0.12
   3  -5  -8    1.12    0.14
   3  -5  -8    0.77    0.13
   3  -5  -8    0.81    0.11
  -3  -5   8    0.80    0.14
  -3  -5   8    0.84    0.11
   3   5  -8    0.91    0.10
   3   5  -8    1.05    0.11
   3   5  -8    0.96    0.10
  -3   5   8    0.93    0.12
   3   5  -8    1.18    0.16
   3   5  -8    0.90    0.10
  -3   5   8    0.93    0.10
  -3   5   8    0.99    0.10
  -3   5   8    1.05    0.12
  -3   5   8    1.00    0.17
  -3   5   8    1.00    0.13
  -3   5   8    0.91    0.10
   3   5  -8    1.10    0.11
  -2  -5   8    2.72    0.23
   2  -5  -8    3.67    0.25
   2  -5  -8    3.46    0.26
  -2  -5   8    3.33    0.26
  -2  -5   8    3.05    0.22
   2  -5  -8    3.50    0.23
   2  -5  -8    2.95    0.23
   2  -5  -8    2.68    0.33
  -2  -5   8    2.76    0.21
   2   5  -8    3.15    0.21
  -2   5   8    3.32    0.21
  -2   5   8    3.19    0.23
   2   5  -8    3.18    0.21
  -2   5   8    3.25    0.25
   2   5  -8    3.53    0.22
  -2   5   8    3.28    0.23
  -2   5   8    3.28    0.31
   2   5  -8    3.38    0.21
   2   5  -8    3.36    0.24
   2   5  -8    2.91    0.26
  -2   5   8    3.24    0.21
   2   5  -8    3.28    0.20
  -2   5   8    3.09    0.20
   1  -5  -8    3.74    0.30
   1  -5  -8    3.78    0.32
   1  -5  -8    4.84    0.29
   1  -5  -8    3.89    0.30
   1  -5  -8    3.62    0.28
  -1  -5   8    3.84    0.27
  -1  -5   8    3.91    0.27
  -1   5   8    4.36    0.25
  -1   5   8    4.49    0.26
  -1   5   8    4.30    0.28
  -1   5   8    4.58    0.29
   1   5  -8    3.73    0.30
   1   5  -8    4.16    0.33
   1   5  -8    4.61    0.26
   1   5  -8    4.56    0.26
   1   5  -8    4.68    0.26
  -1   5   8    4.39    0.25
   1   5  -8    4.72    0.26
   1   5  -8    4.38    0.26
  -1   5   8    4.40    0.38
  -1   5   8    4.74    0.32
   0  -5   8    2.81    0.21
   0  -5  -8    2.76    0.22
   0  -5   8    2.87    0.28
   0  -5  -8    2.83    0.26
   0  -5  -8    3.56    0.23
   0  -5   8    3.49    0.23
   0  -5   8    2.86    0.24
   0   5  -8    3.22    0.21
   0   5   8    3.41    0.24
   0   5   8    3.23    0.31
   0   5  -8    3.16    0.22
   0   5   8    3.44    0.26
   0   5   8    3.28    0.23
   0   5   8    2.87    0.22
   0   5  -8    3.12    0.20
   0   5   8    3.21    0.21
   0   5  -8    3.43    0.21
   0   5  -8    3.40    0.21
   0   5  -8    3.35    0.21
   0   5  -8    3.57    0.29
  -1  -5  -8    2.82    0.24
   1  -5   8    2.30    0.27
  -1  -5  -8    2.38    0.19
   1  -5   8    3.07    0.21
  -1  -5  -8    2.45    0.21
   1  -5   8    2.58    0.20
   1   5   8    2.81    0.26
   1   5   8    3.00    0.21
  -1   5  -8    2.77    0.21
  -1   5  -8    2.95    0.19
  -1   5  -8    2.92    0.19
   1   5   8    2.83    0.21
   1   5   8    2.77    0.23
   1   5   8    3.06    0.21
  -1   5  -8    3.04    0.19
  -1   5  -8    3.14    0.28
   1   5   8    2.71    0.21
  -1   5  -8    2.96    0.19
  -1   5  -8    2.98    0.19
   1   5   8    2.95    0.19
  -2  -5  -8    0.11    0.05
  -2  -5  -8    0.09    0.04
   2  -5   8    0.10    0.05
  -2  -5  -8    0.05    0.04
   2  -5   8    0.09    0.06
   2  -5   8    0.08    0.04
   2  -5   8    0.09    0.06
   2   5   8    0.12    0.06
   2   5   8    0.09    0.06
  -2   5  -8    0.07    0.04
   2   5   8    0.08    0.04
  -2   5  -8    0.09    0.05
   2   5   8    0.15    0.07
  -2   5  -8    0.10    0.05
   2   5   8    0.06    0.06
  -2   5  -8    0.11    0.08
  -2   5  -8    0.14    0.05
   2   5   8    0.09    0.05
  -2   5  -8    0.07    0.04
   2   5   8    0.15    0.07
  -2   5  -8    0.10    0.06
  -3  -5  -8    0.62    0.09
  -3  -5  -8    0.64    0.09
   3  -5   8    0.55    0.10
   3  -5   8    0.66    0.11
   3  -5   8    0.66    0.12
  -3  -5  -8    0.56    0.11
  -3   5  -8    0.73    0.08
   3   5   8    0.79    0.10
   3   5   8    0.71    0.10
   3   5   8    0.71    0.08
  -3   5  -8    0.77    0.07
  -3   5  -8    0.76    0.09
   3   5   8    0.54    0.08
  -3   5  -8    0.78    0.08
  -3   5  -8    0.78    0.12
   3   5   8    0.74    0.10
   3   5   8    0.69    0.11
  -3   5  -8    0.77    0.07
   4  -5   8    0.02    0.03
   4  -5   8    0.04    0.04
  -4  -5  -8    0.01    0.04
   4   5   8    0.04    0.03
   4   5   8    0.04    0.04
   4   5   8    0.08    0.03
   4   5   8    0.03    0.04
  -4   5  -8    0.02    0.03
   4   5   8    0.04    0.05
  -4   5  -8    0.01    0.02
  -4   5  -8    0.02    0.03
   4   5   8    0.06    0.04
   5  -5   8    1.39    0.10
   5   5   8    1.36    0.10
   5   5   8    1.27    0.09
   5   5   8    1.30    0.09
  -5   5  -8    1.42    0.09
   3   6  -8    5.28    0.26
  -3   6   8    4.53    0.29
   3   6  -8    5.23    0.26
   2   6  -8    3.80    0.19
  -2   6   8    3.62    0.24
   2   6  -8    4.04    0.20
   2   6  -8    3.62    0.19
  -2   6   8    3.08    0.18
  -2   6   8    3.21    0.19
   2   6  -8    3.65    0.19
  -2   6   8    3.31    0.20
  -1   6   8    1.29    0.12
  -1   6   8    1.62    0.14
   1   6  -8    1.57    0.10
   1   6  -8    1.48    0.14
   1   6  -8    1.57    0.10
   1   6  -8    1.58    0.10
  -1   6   8    1.56    0.11
   1   6  -8    1.47    0.10
   0   6   8    0.14    0.05
   0   6  -8    0.10    0.03
   0   6   8    0.09    0.03
   0   6  -8    0.12    0.04
   0   6   8    0.07    0.04
   0   6  -8    0.13    0.04
   0   6   8    0.09    0.04
   0   6  -8    0.09    0.03
   0   6  -8    0.09    0.04
  -1   6  -8    5.00    0.25
  -1   6  -8    4.56    0.28
   1   6   8    5.59    0.27
  -1   6  -8    5.01    0.25
   1   6   8    4.91    0.25
   1   6   8    4.47    0.26
  -1   6  -8    4.99    0.25
   2   6   8    0.55    0.05
  -2   6  -8    0.58    0.07
   2   6   8    0.57    0.06
  10   0  -9    2.11    0.16
   9   0  -9    0.56    0.08
  -9   0   9    0.73    0.12
  -8   0   9   35.00    1.87
  -8   0   9   37.81    1.89
  -8   0   9   35.78    1.83
  -8   0   9   36.47    1.84
   8   0  -9   40.12    1.89
  -7   0   9    3.77    0.27
  -7   0   9    3.55    0.33
  -7   0   9    3.84    0.28
  -7   0   9    3.78    0.30
  -7   0   9    3.87    0.30
  -6   0   9    0.08    0.05
  -6   0   9    0.09    0.05
  -6   0   9    0.09    0.06
   6   0  -9    0.04    0.07
  -6   0   9    0.16    0.09
  -6   0   9    0.08    0.06
   6   0  -9    0.10    0.07
  -6   0   9    0.07    0.05
   6   0  -9    0.07    0.03
  -5   0   9    1.08    0.15
  -5   0   9    1.13    0.17
   5   0  -9    1.09    0.14
  -5   0   9    1.12    0.13
   5   0  -9    1.09    0.12
  -5   0   9    1.11    0.14
   5   0  -9    1.05    0.14
   4   0  -9   54.54    2.66
  -4   0   9   54.26    2.75
  -4   0   9   51.40    2.70
   4   0  -9   54.90    2.70
  -4   0   9   55.07    3.22
  -4   0   9   55.07    2.69
  -4   0   9   51.30    2.69
  -4   0   9   52.54    2.68
  -4   0   9   57.59    3.06
   4   0  -9   58.98    2.70
  -4   0   9   58.25    2.70
  -3   0   9   65.82    3.22
  -3   0   9   63.52    3.16
   3   0  -9   62.56    3.16
  -3   0   9   63.54    3.15
  -3   0   9   62.76    5.00
   3   0  -9   67.55    3.18
   3   0  -9   69.62    3.17
   3   0  -9   60.24    3.38
  -3   0   9   70.06    3.70
  -3   0   9   71.31    3.18
  -3   0   9   58.34    3.66
  -3   0   9   59.92    3.17
  -3   0   9   68.05    5.72
  -3   0   9   69.23    3.19
  -2   0   9   14.61    0.79
  -2   0   9   12.52    0.84
   2   0  -9   15.08    0.94
   2   0  -9   14.79    0.78
  -2   0   9   15.63    2.32
   2   0  -9   14.42    0.82
   2   0  -9   16.32    0.77
  -2   0   9   14.12    0.76
   2   0  -9   15.37    0.79
  -2   0   9   14.47    1.00
  -2   0   9   14.51    0.78
  -2   0   9   17.09    2.89
  -2   0   9   15.01    0.77
  -2   0   9   15.89    0.83
  -2   0   9   10.95    2.53
  -2   0   9   17.75    3.21
   1   0  -9    2.23    0.17
   1   0  -9    1.97    1.26
  -1   0   9    1.98    0.17
   1   0  -9    1.99    0.15
  -1   0   9    2.13    0.16
  -1   0   9    2.09    0.17
  -1   0   9    2.66    0.32
  -1   0   9    2.27    0.18
   1   0  -9    2.03    0.18
  -1   0   9    2.16    0.19
   1   0  -9    2.00    0.15
  -1   0   9    4.10    2.84
   1   0  -9    1.99    0.28
   1   0  -9    2.02    0.17
   1   0  -9    1.65    1.31
  -1   0   9    2.03    0.16
   1   0  -9    2.12    0.17
  -1   0   9    2.91    0.98
   0   0  -9    7.47    0.42
   0   0   9    7.75    0.64
   0   0  -9    7.21    0.44
   0   0   9    5.91    0.43
   0   0  -9    7.13    0.40
   0   0   9    6.82    0.40
   0   0  -9    8.29    2.19
   0   0   9    8.09    2.10
   0   0   9    7.54    0.43
   0   0  -9    4.24    1.83
   0   0  -9    7.60    0.62
   0   0   9    7.34    0.45
   0   0  -9    6.87    0.41
   0   0   9    6.68    0.41
   0   0   9    8.91    1.87
   0   0   9    9.16    1.49
   0   0  -9    7.19    0.42
   0   0  -9    7.90    0.44
   0   0  -9    6.80    1.64
  -1   0  -9  135.62    6.76
  -1   0  -9  140.06    6.40
   1   0   9  145.19   10.36
   1   0   9  133.68    6.41
  -1   0  -9  135.55    6.43
   1   0   9  135.38    9.34
   1   0   9  121.60    6.39
  -1   0  -9  109.02    8.13
  -1   0  -9  141.34    6.44
   1   0   9  140.61    7.03
  -1   0  -9  137.85    6.41
   1   0   9  134.42    6.43
  -1   0  -9  128.57    6.41
   1   0   9  125.53    6.37
   1   0   9  139.49    6.47
   1   0   9  132.07    8.58
  -1   0  -9  125.56    6.40
   1   0   9  137.65    9.34
  -1   0  -9  127.26    6.37
  -1   0  -9  145.90    6.42
  -2   0  -9    0.47    0.21
  -2   0  -9    0.39    0.08
  -2   0  -9    0.50    0.09
  -2   0  -9    0.57    0.08
   2   0   9    0.45    0.10
  -2   0  -9    0.56    0.08
   2   0   9    0.87    0.34
  -2   0  -9    0.49    0.09
  -2   0  -9    0.58    0.10
  -2   0  -9    0.60    0.11
  -2   0  -9    0.41    0.09
  -2   0  -9   -2.67    2.39
  -3   0  -9    0.05    0.20
  -3   0  -9    0.01    0.04
  -3   0  -9   -0.07    0.05
  -3   0  -9    0.03    0.04
  -3   0  -9    0.09    0.06
  -3   0  -9    0.02    0.06
   3   0   9    0.02    0.06
  -3   0  -9    0.00    0.03
  -3   0  -9    0.01    0.04
   3   0   9   -0.02    0.04
  -3   0  -9    0.00    0.03
  -4   0  -9   10.52    0.60
   4   0   9    8.59    0.63
  -4   0  -9   10.88    0.61
  -4   0  -9   10.88    0.64
  -4   0  -9   10.11    0.61
  -4   0  -9   10.21    0.63
  -4   0  -9   10.15    0.60
  -4   0  -9   10.54    0.57
  -4   0  -9   10.30    0.56
  -4   0  -9   10.58    0.57
  -5   0  -9    7.49    0.46
  -5   0  -9    7.18    0.44
  -5   0  -9    7.01    0.41
  -5   0  -9    7.01    0.42
  -5   0  -9    6.97    0.42
  -5   0  -9    7.22    0.53
  -6   0  -9   45.03    2.18
  -6   0  -9   44.95    2.16
  -6   0  -9   38.93    2.23
  -6   0  -9   42.31    2.09
  -7   0  -9    2.82    0.24
  -8   0  -9    0.26    0.07
  10  -1  -9    2.60    0.18
  10   1  -9    3.37    0.19
  -9  -1   9   10.37    0.68
  -9  -1   9   13.38    0.70
  -9  -1   9   11.81    0.66
   9   1  -9   10.60    0.73
   9   1  -9   13.89    0.67
  -8  -1   9   35.03    1.82
  -8  -1   9   34.36    1.83
  -8  -1   9   36.65    1.86
  -8  -1   9   39.66    1.84
  -8  -1   9   33.16    1.90
   8   1  -9   38.04    1.77
   8   1  -9   37.27    1.85
  -7  -1   9    6.84    0.52
  -7  -1   9    7.08    0.45
  -7  -1   9    6.90    0.45
  -7  -1   9    8.18    0.54
  -7  -1   9    6.85    0.44
   7   1  -9    7.42    0.41
   7   1  -9    7.28    0.48
   7   1  -9    7.42    0.39
  -7   1   9    6.44    0.40
  -6  -1   9    1.80    0.23
  -6  -1   9    1.75    0.20
  -6  -1   9    1.61    0.29
  -6  -1   9    1.94    0.19
  -6  -1   9    1.72    0.19
   6  -1  -9    1.39    0.21
  -6  -1   9    1.93    0.20
   6   1  -9    1.52    0.25
  -6   1   9    1.91    0.24
   6   1  -9    1.88    0.15
  -6   1   9    1.71    0.16
   6   1  -9    2.02    0.20
   6   1  -9    1.86    0.16
   6   1  -9    1.91    0.22
   5  -1  -9  105.60    5.42
  -5  -1   9  111.27    5.52
   5  -1  -9  107.32    5.41
  -5  -1   9  111.22    5.44
  -5  -1   9  111.71    5.44
  -5  -1   9  112.00    5.46
  -5  -1   9  112.02    5.48
   5  -1  -9  118.58    5.47
  -5  -1   9  119.75    5.47
   5   1  -9  110.56    5.48
   5   1  -9  112.09    5.48
   5   1  -9  119.20    5.41
   5   1  -9  119.04    5.41
   5   1  -9  117.70    5.42
   5   1  -9  118.90    5.48
  -5   1   9  119.38    5.51
  -5   1   9  104.57    5.42
  -5   1   9  102.61    5.43
   4  -1  -9   12.26    0.65
  -4  -1   9   13.39    1.07
   4  -1  -9   11.30    0.65
   4  -1  -9   12.16    0.64
   4  -1  -9   11.82    0.65
  -4  -1   9   12.39    0.67
   4  -1  -9   11.37    0.63
  -4  -1   9   12.53    0.64
   4  -1  -9   10.79    0.90
  -4  -1   9   11.83    0.70
   4  -1  -9   11.47    0.66
  -4  -1   9   12.81    1.02
  -4  -1   9   11.38    0.65
   4  -1  -9   11.88    0.71
  -4  -1   9   12.53    0.64
   4   1  -9   12.24    0.67
  -4   1   9   10.74    0.62
  -4   1   9   12.03    0.66
   4   1  -9   11.09    0.66
  -4   1   9   10.35    0.62
   4   1  -9   11.86    0.64
   4   1  -9   10.27    0.60
   4   1  -9   11.51    0.61
   4   1  -9   11.41    0.61
  -4   1   9   11.82    0.68
   3  -1  -9   12.25    0.97
  -3  -1   9   11.12    0.59
   3  -1  -9   10.37    0.61
   3  -1  -9   11.94    1.09
   3  -1  -9   10.41    0.58
  -3  -1   9   11.39    0.61
  -3  -1   9   11.18    0.64
  -3  -1   9   10.44    0.90
  -3  -1   9   10.92    0.59
   3  -1  -9    9.89    0.58
  -3  -1   9   11.37    0.93
   3  -1  -9   10.54    0.64
   3  -1  -9   10.49    0.59
   3  -1  -9   10.23    0.60
  -3  -1   9   11.15    0.60
   3  -1  -9   10.89    0.60
   3   1  -9   11.23    0.57
   3   1  -9   10.25    0.61
   3   1  -9   10.22    0.59
  -3   1   9   10.01    2.47
   3   1  -9   11.11    0.61
  -3   1   9   12.37    3.65
   3   1  -9   11.11    0.57
  -3   1   9   11.09    0.63
  -3   1   9    9.48    0.76
  -3   1   9   10.05    0.60
   2  -1  -9   19.22    0.99
  -2  -1   9   19.57    1.00
  -2  -1   9   20.07    1.32
  -2  -1   9   18.00    2.52
  -2  -1   9   20.03    0.99
   2  -1  -9   20.75    1.27
   2  -1  -9   19.06    1.02
  -2  -1   9   19.50    0.99
   2  -1  -9   19.58    1.00
   2  -1  -9   20.15    1.06
   2  -1  -9   19.52    1.35
  -2  -1   9   19.44    1.36
  -2  -1   9   19.91    1.01
   2  -1  -9   19.42    1.01
   2   1  -9   19.01    1.01
  -2   1   9   17.75    1.13
  -2   1   9   20.47    1.04
   2   1  -9   20.16    1.01
  -2   1   9   18.93    2.49
  -2   1   9   18.35    3.67
   2   1  -9   19.13    1.02
  -2   1   9   18.30    1.00
   2   1  -9   18.82    0.97
  -2   1   9   21.89    3.41
  -1  -1   9   51.73    2.41
  -1  -1   9   58.29    5.13
   1  -1  -9   48.33    2.42
  -1  -1   9   48.85    2.40
  -1  -1   9   48.14    2.76
   1  -1  -9   49.66    2.46
   1  -1  -9   47.16    2.40
  -1  -1   9   49.70    2.42
  -1  -1   9   50.71    4.33
   1  -1  -9   50.76    2.41
   1  -1  -9   49.17    2.43
  -1  -1   9   51.50    2.46
  -1  -1   9   50.31    2.42
  -1   1   9   49.72    4.89
  -1   1   9   44.41    2.41
  -1   1   9   49.07    2.44
   1   1  -9   49.84    2.44
  -1   1   9   45.97    2.58
   1   1  -9   47.17    4.03
   1   1  -9   45.97    4.59
   1   1  -9   48.61    2.39
  -1   1   9   52.89    4.24
   1   1  -9   48.64    2.44
   1   1  -9   46.76    2.59
  -1   1   9   52.16    2.48
   1   1  -9   45.05    2.42
   1   1  -9   54.25    2.43
   0  -1  -9   89.92    4.43
   0  -1   9   83.38    5.98
   0  -1   9   85.91    4.02
   0  -1   9   88.01    4.08
   0  -1  -9   85.72    4.08
   0  -1  -9   82.80    4.02
   0  -1   9   85.19    4.04
   0  -1   9   86.90    4.05
   0  -1   9   81.27    6.67
   0  -1   9   85.84    4.02
   0  -1  -9   86.52    4.03
   0  -1  -9   83.71    4.05
   0  -1  -9   85.32    4.04
   0  -1   9   84.06    4.42
   0   1  -9   80.82    4.05
   0   1   9   83.43    6.06
   0   1   9   85.00    4.13
   0   1   9   78.72    4.25
   0   1  -9   81.07    4.31
   0   1  -9   82.89    4.02
   0   1   9   73.81    6.61
   0   1   9   86.23    4.07
   0   1  -9   76.34    6.44
   0   1   9   83.33    4.10
   0   1  -9   71.22    5.64
   0   1  -9   87.05    4.07
   0   1  -9   84.16    4.06
   1  -1   9   19.03    1.04
   1  -1   9   18.93    0.98
  -1  -1  -9   14.11    3.19
  -1  -1  -9   18.99    1.00
  -1  -1  -9   19.21    1.00
   1  -1   9   19.14    1.01
  -1  -1  -9   18.31    0.99
   1  -1   9   19.21    1.38
   1  -1   9   19.70    1.03
  -1  -1  -9   19.64    0.98
  -1  -1  -9   20.91    1.08
   1  -1   9   18.86    1.00
  -1  -1  -9   19.57    1.33
   1  -1   9   19.15    0.98
  -1  -1  -9   18.78    0.98
  -1   1  -9   19.93    1.02
   1   1   9   17.85    2.98
   1   1   9   18.77    1.24
   1   1   9   21.84    4.05
   1   1   9   19.31    1.02
  -1   1  -9   19.18    1.02
  -1   1  -9   20.38    1.31
  -1   1  -9   19.15    0.99
  -1   1  -9   20.47    1.02
   1   1   9   19.57    1.07
  -2  -1  -9    8.51    0.49
  -2  -1  -9    7.43    0.46
   2  -1   9    7.93    0.50
  -2  -1  -9    7.66    0.50
   2  -1   9    8.12    0.50
   2  -1   9    9.02    0.85
   2  -1   9    7.71    0.47
   2  -1   9    6.60    0.49
  -2  -1  -9    8.36    0.77
   2  -1   9    7.94    0.45
   2  -1   9    8.20    0.47
   2  -1   9    8.17    0.46
  -2  -1  -9    7.91    0.48
  -2  -1  -9    8.10    0.48
  -2  -1  -9    8.19    0.46
   2   1   9    8.24    0.55
  -2   1  -9    8.02    0.47
  -2   1  -9    7.88    0.80
  -2   1  -9    9.25    0.56
   2   1   9    9.03    0.48
   2   1   9    8.23    0.76
  -2   1  -9    7.95    0.49
   3  -1   9    7.46    0.46
   3  -1   9    7.78    0.44
  -3  -1  -9    7.93    0.45
  -3  -1  -9    7.64    0.46
   3  -1   9    7.66    0.45
  -3  -1  -9    8.98    0.54
  -3  -1  -9    8.12    0.48
   3  -1   9    6.84    0.48
  -3  -1  -9    8.10    0.46
  -3  -1  -9    8.49    0.46
   3  -1   9    7.92    0.50
   3  -1   9    8.43    0.51
  -3  -1  -9    7.88    0.51
   3  -1   9    7.60    0.45
   3  -1   9    9.44    0.91
  -3  -1  -9    8.41    0.48
   3   1   9    8.35    0.47
  -3   1  -9    7.79    0.50
  -3   1  -9    8.20    0.49
  -3   1  -9    8.87    0.85
   3   1   9    7.77    0.56
  -3   1  -9    7.40    0.53
   3   1   9    6.89    0.45
  -3   1  -9    6.74    0.44
   3   1   9    7.23    0.44
  -3   1  -9    7.93    0.47
  -4  -1  -9   27.55    1.34
  -4  -1  -9   27.35    1.34
   4  -1   9   26.13    1.32
  -4  -1  -9   30.32    1.40
  -4  -1  -9   22.03    1.35
  -4  -1  -9   27.40    1.39
   4  -1   9   25.03    1.31
  -4  -1  -9   27.43    1.39
  -4  -1  -9   26.91    1.36
  -4  -1  -9   27.51    1.42
  -4  -1  -9   27.87    1.37
  -4   1  -9   28.12    1.37
  -4   1  -9   23.39    1.38
   4   1   9   22.18    1.33
  -4   1  -9   28.30    1.38
   4   1   9   25.45    1.47
  -4   1  -9   24.70    1.30
  -5  -1  -9    6.34    0.39
  -5  -1  -9    6.45    0.41
  -5  -1  -9    6.27    0.45
  -5  -1  -9    6.46    0.42
  -5  -1  -9    6.03    0.39
   5  -1   9    5.87    0.35
  -5  -1  -9    6.36    0.40
  -5  -1  -9    6.56    0.45
  -5   1  -9    6.41    0.42
   5   1   9    6.48    0.40
  -5   1  -9    6.12    0.42
  -6  -1  -9    2.21    0.26
  -6  -1  -9    2.62    0.23
  -6  -1  -9    2.45    0.25
  -6  -1  -9    2.63    0.21
  -6  -1  -9    2.53    0.20
  -6  -1  -9    2.79    0.23
  -6  -1  -9    2.63    0.22
  -6   1  -9    2.68    0.24
   6   1   9    2.73    0.21
  -7  -1  -9    4.87    0.33
  -7  -1  -9    5.09    0.31
  -7  -1  -9    4.48    0.35
  -7  -1  -9    5.09    0.30
  -7  -1  -9    5.18    0.33
  -7   1  -9    5.00    0.34
   7   1   9    5.11    0.29
  -8  -1  -9    1.26    0.14
  -8  -1  -9    1.68    0.11
  -8   1  -9    1.37    0.13
  -9  -2   9    0.80    0.10
  -9  -2   9    0.81    0.11
   9   2  -9    0.92    0.08
   9   2  -9    0.94    0.10
   9   2  -9    0.84    0.11
  -8  -2   9   17.40    0.90
  -8  -2   9   17.37    0.91
  -8  -2   9   16.97    0.90
  -8  -2   9   14.97    0.96
   8   2  -9   17.10    0.89
   8   2  -9   17.77    0.85
   8   2  -9   17.31    0.92
  -7  -2   9   21.96    1.20
  -7  -2   9   21.48    1.12
  -7  -2   9   21.60    1.10
   7  -2  -9   19.84    1.04
  -7  -2   9   20.10    1.18
  -7  -2   9   22.39    1.12
   7   2  -9   20.87    1.14
   7   2  -9   20.39    1.09
   7   2  -9   20.44    1.11
   7   2  -9   20.27    1.04
   7   2  -9   21.49    1.05
  -6  -2   9   14.95    0.80
   6  -2  -9   14.30    0.78
   6  -2  -9   14.34    0.81
  -6  -2   9   15.05    0.82
   6  -2  -9   14.56    0.77
  -6  -2   9   14.56    0.83
  -6  -2   9   14.41    0.88
  -6  -2   9   16.28    0.85
   6   2  -9   15.13    0.76
   6   2  -9   14.30    0.83
   6   2  -9   13.62    0.75
   6   2  -9   13.77    0.83
   6   2  -9   15.09    0.77
   6   2  -9   14.30    0.79
   5  -2  -9   33.79    1.72
   5  -2  -9   34.70    1.74
  -5  -2   9   34.37    1.81
   5  -2  -9   36.68    1.75
  -5  -2   9   35.98    1.74
  -5  -2   9   34.39    1.73
   5  -2  -9   35.01    1.77
   5  -2  -9   34.91    2.00
   5  -2  -9   33.99    1.76
   5  -2  -9   29.83    1.74
  -5  -2   9   35.20    1.77
   5   2  -9   34.96    1.82
   5   2  -9   32.40    1.78
  -5   2   9   34.59    1.85
   5   2  -9   35.31    1.70
   5   2  -9   34.32    1.78
   5   2  -9   35.88    1.71
  -4  -2   9   10.94    1.02
   4  -2  -9   11.67    0.72
  -4  -2   9   12.19    0.64
   4  -2  -9   10.88    1.08
   4  -2  -9   11.61    0.66
   4  -2  -9   11.00    0.63
   4  -2  -9   11.87    0.65
   4  -2  -9   11.06    0.65
  -4  -2   9   12.62    0.65
  -4  -2   9   13.06    0.68
  -4  -2   9   11.60    0.70
  -4  -2   9   12.38    0.65
  -4  -2   9    9.69    0.64
   4   2  -9   11.48    0.61
   4   2  -9   11.03    0.67
  -4   2   9   11.31    0.70
   4   2  -9   10.82    0.67
   4   2  -9   11.38    0.61
   4   2  -9   11.39    0.60
   4   2  -9   11.45    0.61
   4   2  -9   11.68    0.69
  -4   2   9   12.66    0.66
  -4   2   9   11.94    0.70
   4   2  -9   11.56    0.61
  -4   2   9   10.14    0.62
  -3  -2   9    9.54    0.55
   3  -2  -9    9.87    0.57
  -3  -2   9   10.66    0.93
   3  -2  -9    9.67    0.62
  -3  -2   9    9.91    0.62
   3  -2  -9    9.27    0.56
   3  -2  -9   11.80    0.98
  -3  -2   9    8.80    0.81
   3  -2  -9    9.69    0.55
   3  -2  -9   10.67    0.59
  -3  -2   9   10.23    0.55
   3  -2  -9    9.92    0.59
  -3  -2   9   10.46    0.61
   3  -2  -9   11.64    1.03
  -3  -2   9   10.08    0.57
   3   2  -9    9.82    0.52
   3   2  -9    9.33    0.53
   3   2  -9    9.31    0.52
   3   2  -9    9.40    0.57
   3   2  -9    9.82    0.52
   3   2  -9    9.65    0.52
   3   2  -9    9.83    0.61
   3   2  -9    9.22    0.60
  -3   2   9    8.61    0.58
  -3   2   9    9.95    0.61
  -3   2   9   11.21    0.58
  -3   2   9    9.32    0.60
  -2  -2   9   27.26    1.45
  -2  -2   9   26.36    1.43
   2  -2  -9   28.68    1.83
   2  -2  -9   28.84    1.41
  -2  -2   9   30.15    1.43
  -2  -2   9   26.77    1.85
   2  -2  -9   28.36    1.43
  -2  -2   9   30.72    1.40
   2  -2  -9   27.55    1.41
  -2  -2   9   27.98    1.41
   2  -2  -9   27.77    1.47
   2  -2  -9   27.70    1.81
   2  -2  -9   28.46    1.40
  -2   2   9   26.95    1.46
   2   2  -9   27.23    1.37
   2   2  -9   27.96    1.46
   2   2  -9   25.95    1.47
  -2   2   9   25.42    1.45
   2   2  -9   26.50    1.37
  -2   2   9   27.59    1.48
   2   2  -9   27.79    1.43
   2   2  -9   25.79    1.42
   2   2  -9   31.88    1.40
   1  -2  -9   18.97    1.32
   1  -2  -9   17.68    1.00
  -1  -2   9   17.41    0.95
  -1  -2   9   19.16    0.99
   1  -2  -9   16.30    0.94
   1  -2  -9   18.98    0.97
   1  -2  -9   18.84    0.95
  -1  -2   9   19.23    0.96
   1  -2  -9   17.82    0.95
  -1  -2   9   19.69    0.94
  -1  -2   9   18.15    1.35
  -1  -2   9   19.15    0.96
   1   2  -9   17.33    0.97
  -1   2   9   19.46    0.97
   1   2  -9   18.05    0.92
   1   2  -9   17.95    0.91
   1   2  -9   17.83    1.02
   1   2  -9   17.95    0.91
   1   2  -9   17.42    0.96
   1   2  -9   18.47    1.00
  -1   2   9   17.64    0.99
  -1   2   9   18.94    0.95
   1   2  -9   16.19    0.88
  -1   2   9   18.13    1.00
  -1   2   9   18.17    1.02
   1   2  -9   17.97    0.93
   0  -2   9    6.57    0.73
   0  -2   9    6.84    0.42
   0  -2   9    7.49    0.46
   0  -2   9    7.12    0.43
   0  -2  -9    6.89    0.46
   0  -2  -9    8.05    0.76
   0  -2  -9    6.59    0.42
   0  -2   9    7.70    0.48
   0  -2  -9    7.60    0.44
   0  -2  -9    7.24    0.43
   0  -2   9    7.57    0.41
   0  -2  -9    7.50    0.42
   0  -2   9    7.53    0.43
   0   2  -9    6.71    0.46
   0   2  -9    6.50    0.42
   0   2  -9    6.73    0.39
   0   2  -9    8.27    0.50
   0   2  -9    6.43    0.41
   0   2  -9    6.61    0.38
   0   2  -9    7.21    0.43
   0   2  -9    7.00    0.46
   0   2  -9    6.79    0.39
   0   2   9    7.13    0.42
   0   2   9    6.76    0.46
   0   2   9    7.19    0.50
   1  -2   9   13.87    0.78
   1  -2   9   13.89    0.75
  -1  -2  -9   12.97    1.16
   1  -2   9   14.01    0.73
  -1  -2  -9   13.45    0.73
  -1  -2  -9   13.67    0.78
  -1  -2  -9   14.38    0.76
   1  -2   9   13.59    1.17
  -1  -2  -9   13.32    0.72
  -1  -2  -9   13.29    0.75
   1  -2   9   13.96    0.73
   1  -2   9   13.57    0.75
   1  -2   9   13.13    0.75
  -1   2  -9   13.75    0.77
   1   2   9   14.43    0.76
  -1   2  -9   14.54    0.76
  -1   2  -9   14.04    0.78
  -1   2  -9   13.38    0.70
   1   2   9   12.97    0.72
  -1   2  -9   13.46    0.71
   1   2   9   13.10    0.79
  -1   2  -9   13.75    0.70
   1   2   9   13.98    0.75
  -1   2  -9   14.53    0.83
  -1   2  -9   13.64    0.70
  -2  -2  -9   38.45    2.00
  -2  -2  -9   38.18    1.97
  -2  -2  -9   37.34    1.95
   2  -2   9   40.13    1.96
   2  -2   9   40.28    2.01
  -2  -2  -9   38.86    1.94
   2  -2   9   38.80    1.99
  -2  -2  -9   39.20    1.94
   2  -2   9   37.85    1.99
   2  -2   9   40.59    1.94
   2  -2   9   40.43    1.94
   2   2   9   38.71    2.08
   2   2   9   38.27    1.92
   2   2   9   38.64    1.95
   2   2   9   39.90    1.96
  -2   2  -9   41.81    2.05
  -2   2  -9   38.02    1.96
   2   2   9   37.73    2.01
  -2   2  -9   43.09    2.04
  -2   2  -9   39.46    1.93
  -2   2  -9   38.50    1.98
   3  -2   9  127.25    6.02
  -3  -2  -9  120.72    6.02
  -3  -2  -9  124.27    6.01
  -3  -2  -9  130.47    6.11
   3  -2   9  130.53    6.09
  -3  -2  -9  115.85    6.05
   3  -2   9  123.92    6.01
  -3  -2  -9  123.38    6.05
   3  -2   9  120.05    6.03
  -3  -2  -9  127.80    6.05
  -3  -2  -9  129.49    6.02
   3  -2   9  124.07    6.00
  -3   2  -9  122.28    6.00
   3   2   9  124.18    6.19
   3   2   9  130.97    6.03
  -3   2  -9  120.48    5.97
   3   2   9  132.69    6.03
   3   2   9  123.03    6.01
  -3   2  -9  125.10    6.09
   3   2   9  120.99    6.00
  -3   2  -9  137.87    6.12
  -3   2  -9  120.67    6.05
   3   2   9  120.90    5.99
   4  -2   9   15.84    0.87
  -4  -2  -9   17.26    0.95
   4  -2   9   15.66    0.96
  -4  -2  -9   17.14    0.88
  -4  -2  -9   16.80    0.91
   4  -2   9   17.98    1.00
   4  -2   9   15.65    0.89
   4  -2   9   15.43    0.87
   4  -2   9   16.48    0.88
  -4  -2  -9   16.34    0.89
  -4  -2  -9   16.21    0.88
  -4  -2  -9   18.04    0.97
   4   2   9   17.47    0.89
   4   2   9   17.19    0.89
   4   2   9   16.79    0.87
   4   2   9   16.59    1.01
  -4   2  -9   16.54    0.85
   4   2   9   16.33    0.86
  -4   2  -9   16.68    1.00
   5  -2   9   10.15    0.74
  -5  -2  -9   12.73    0.75
   5  -2   9   11.99    0.66
   5  -2   9   12.12    0.67
  -5  -2  -9   12.60    0.72
  -5  -2  -9   13.27    0.69
  -5  -2  -9   12.28    0.69
   5  -2   9   13.00    0.80
   5   2   9   12.97    0.69
  -5   2  -9   12.59    0.72
   5   2   9   12.46    0.68
  -5   2  -9   12.47    0.65
   5   2   9   12.80    0.66
   5   2   9   12.75    0.70
  -6  -2  -9    0.16    0.08
  -6  -2  -9    0.12    0.08
  -6  -2  -9    0.11    0.07
  -6  -2  -9    0.11    0.06
  -6  -2  -9    0.17    0.06
  -6  -2  -9    0.15    0.06
   6   2   9    0.07    0.06
   6   2   9    0.19    0.06
   6   2   9    0.16    0.05
  -6   2  -9    0.14    0.05
  -6   2  -9    0.19    0.08
   6   2   9    0.13    0.06
   6   2   9    0.25    0.08
  -7  -2  -9    6.04    0.35
  -7  -2  -9    5.50    0.35
  -7  -2  -9    5.47    0.38
  -7  -2  -9    6.43    0.37
  -7   2  -9    6.12    0.39
   7   2   9    5.49    0.33
   7   2   9    6.81    0.38
   7   2   9    6.17    0.33
  -8  -2  -9    2.95    0.17
   8   2   9    2.95    0.17
  -9  -3   9    0.66    0.07
  -9   3   9    0.68    0.06
   9   3  -9    0.64    0.07
  -8  -3   9    1.15    0.13
  -8  -3   9    1.21    0.13
   8   3  -9    1.15    0.11
  -8   3   9    1.14    0.10
   8   3  -9    1.18    0.10
  -8   3   9    1.15    0.10
   8   3  -9    1.28    0.13
   8   3  -9    1.14    0.09
   8   3  -9    1.29    0.15
  -7  -3   9   29.23    1.39
  -7  -3   9   27.30    1.48
  -7  -3   9   26.14    1.66
  -7  -3   9   28.87    1.40
   7  -3  -9   27.24    1.35
  -7  -3   9   22.87    1.37
   7   3  -9   26.76    1.40
  -7   3   9   27.76    1.36
   7   3  -9   26.68    1.33
   7   3  -9   27.16    1.34
   7   3  -9   27.99    1.34
  -7   3   9   27.87    1.36
   7   3  -9   26.82    1.36
   7   3  -9   27.90    1.40
   6  -3  -9   11.67    0.70
  -6  -3   9   13.58    0.69
   6  -3  -9   10.75    0.74
  -6  -3   9   13.64    0.69
   6  -3  -9   12.31    0.67
  -6  -3   9   13.62    0.70
  -6  -3   9   12.72    0.71
   6  -3  -9   12.25    0.67
   6   3  -9   11.71    0.70
   6   3  -9   11.79    0.70
   6   3  -9   11.09    0.62
   6   3  -9   12.11    0.63
   6   3  -9   12.31    0.64
   6   3  -9   11.19    0.62
   6   3  -9   12.01    0.65
   6   3  -9   11.93    0.63
   5  -3  -9    4.27    0.42
  -5  -3   9    4.50    0.31
  -5  -3   9    4.77    0.31
   5  -3  -9    4.18    0.30
   5  -3  -9    4.44    0.31
   5  -3  -9    4.33    0.32
  -5  -3   9    4.33    0.35
  -5  -3   9    4.35    0.36
   5   3  -9    4.43    0.27
   5   3  -9    4.77    0.28
   5   3  -9    3.99    0.32
   5   3  -9    4.37    0.28
  -5   3   9    4.27    0.39
   5   3  -9    4.46    0.34
   5   3  -9    4.44    0.27
  -5   3   9    4.48    0.29
   5   3  -9    4.53    0.28
  -4  -3   9    2.26    0.20
   4  -3  -9    2.05    0.20
   4  -3  -9    2.08    0.25
   4  -3  -9    2.12    0.21
   4  -3  -9    2.22    0.21
  -4  -3   9    1.88    0.23
  -4  -3   9    2.11    0.23
   4  -3  -9    2.02    0.22
  -4  -3   9    2.21    0.20
  -4  -3   9    2.25    0.22
  -4   3   9    2.18    0.29
  -4   3   9    2.26    0.21
   4   3  -9    2.17    0.18
  -4   3   9    2.18    0.20
   4   3  -9    1.99    0.22
   4   3  -9    1.99    0.26
   4   3  -9    2.12    0.25
   4   3  -9    2.09    0.17
   4   3  -9    1.90    0.18
   4   3  -9    2.08    0.21
   4   3  -9    2.15    0.17
   3  -3  -9   22.85    1.21
  -3  -3   9   23.81    1.18
  -3  -3   9   25.43    1.29
  -3  -3   9   23.03    1.18
   3  -3  -9   22.23    1.19
  -3  -3   9   22.47    1.24
   3  -3  -9   21.12    1.21
   3  -3  -9   22.67    1.19
  -3  -3   9   23.10    1.20
   3  -3  -9   22.92    1.23
   3  -3  -9   21.31    1.26
   3   3  -9   23.15    1.15
   3   3  -9   22.18    1.27
   3   3  -9   21.35    1.22
   3   3  -9   24.30    1.30
  -3   3   9   24.32    1.33
   3   3  -9   24.87    1.37
   3   3  -9   21.97    1.16
   3   3  -9   23.35    1.15
  -3   3   9   23.88    1.19
   3   3  -9   23.16    1.15
  -3   3   9   22.11    1.35
   3   3  -9   22.77    1.15
  -2  -3   9   15.96    0.80
   2  -3  -9   13.99    0.81
  -2  -3   9   15.87    0.80
   2  -3  -9   15.29    0.81
   2  -3  -9   14.29    0.82
   2  -3  -9   15.27    0.84
  -2  -3   9   16.17    0.83
  -2  -3   9   15.11    0.86
   2  -3  -9   14.73    0.88
  -2  -3   9   14.77    0.81
   2  -3  -9   15.57    0.81
   2   3  -9   15.99    0.78
   2   3  -9   15.41    0.78
   2   3  -9   13.21    0.86
   2   3  -9   15.12    0.85
   2   3  -9   14.09    0.84
   2   3  -9   14.01    0.87
  -2   3   9   16.60    0.82
   2   3  -9   14.67    0.84
   2   3  -9   15.28    0.78
  -2   3   9   14.55    0.81
  -2   3   9   15.31    0.90
   2   3  -9   15.84    0.78
   2   3  -9   15.35    0.79
  -2   3   9   14.91    0.85
  -2   3   9   15.35    0.79
   2   3  -9   14.41    0.82
  -2   3   9   14.45    0.88
  -2   3   9   13.21    0.76
  -1  -3   9    2.96    0.22
   1  -3  -9    2.86    0.24
  -1  -3   9    2.73    0.22
  -1  -3   9    3.07    0.22
  -1  -3   9    3.27    0.27
   1  -3  -9    2.89    0.22
   1  -3  -9    3.03    0.27
   1  -3  -9    2.88    0.22
   1  -3  -9    2.74    0.23
  -1  -3   9    3.02    0.24
   1  -3  -9    2.75    0.23
  -1   3   9    2.69    0.20
  -1   3   9    2.70    0.23
   1   3  -9    3.02    0.20
  -1   3   9    2.59    0.28
   1   3  -9    2.59    0.20
   1   3  -9    2.94    0.20
   1   3  -9    2.85    0.26
   1   3  -9    2.87    0.20
  -1   3   9    3.06    0.24
  -1   3   9    2.71    0.21
   1   3  -9    2.88    0.28
   1   3  -9    2.77    0.25
   1   3  -9    3.02    0.20
  -1   3   9    2.88    0.26
  -1   3   9    2.87    0.28
  -1   3   9    2.85    0.22
   1   3  -9    3.02    0.27
   0  -3  -9    3.24    0.24
   0  -3  -9    3.65    0.29
   0  -3  -9    3.20    0.26
   0  -3  -9    2.80    0.25
   0  -3   9    3.27    0.26
   0  -3   9    3.21    0.25
   0  -3   9    3.43    0.24
   0  -3  -9    3.31    0.24
   0  -3   9    3.34    0.25
   0  -3   9    3.16    0.27
   0  -3   9    3.31    0.24
   0  -3  -9    3.04    0.24
   0   3   9    2.96    0.32
   0   3  -9    3.18    0.27
   0   3   9    3.64    0.32
   0   3  -9    3.26    0.22
   0   3   9    3.39    0.26
   0   3  -9    3.50    0.31
   0   3  -9    2.92    0.27
   0   3   9    3.30    0.29
   0   3  -9    3.14    0.24
   0   3  -9    3.29    0.23
   0   3  -9    3.12    0.29
   0   3   9    3.59    0.26
   0   3  -9    3.53    0.22
   0   3   9    2.89    0.22
   0   3   9    3.26    0.22
   0   3  -9    3.37    0.22
   0   3  -9    3.51    0.22
   0   3   9    3.34    0.24
   0   3   9    3.10    0.23
  -1  -3  -9   24.43    1.24
  -1  -3  -9   24.76    1.27
  -1  -3  -9   24.77    1.24
  -1  -3  -9   23.34    1.25
   1  -3   9   26.13    1.29
   1  -3   9   24.71    1.24
   1  -3   9   28.18    1.48
   1  -3   9   26.08    1.25
   1  -3   9   25.34    1.27
   1  -3   9   24.27    1.28
  -1  -3  -9   24.64    1.27
  -1  -3  -9   25.83    1.35
   1   3   9   25.17    1.26
   1   3   9   23.80    1.39
   1   3   9   23.97    1.34
  -1   3  -9   21.38    1.52
   1   3   9   24.05    1.24
  -1   3  -9   22.99    1.32
   1   3   9   22.15    1.37
  -1   3  -9   23.48    1.22
  -1   3  -9   23.42    1.28
  -1   3  -9   26.36    1.30
  -1   3  -9   23.54    1.32
   1   3   9   22.70    1.24
  -2  -3  -9   94.59    4.50
   2  -3   9   95.32    4.50
  -2  -3  -9   96.01    4.47
  -2  -3  -9   94.11    4.50
   2  -3   9   95.75    4.47
   2  -3   9   95.53    4.48
   2  -3   9   87.60    4.51
   2  -3   9  105.00    4.69
  -2  -3  -9   92.10    4.48
  -2   3  -9   91.03    4.56
   2   3   9   88.81    4.47
   2   3   9   92.01    4.46
   2   3   9   87.05    4.57
   2   3   9   89.61    4.62
   2   3   9   95.83    4.45
  -2   3  -9   87.19    4.43
   2   3   9   90.86    4.54
  -2   3  -9   91.66    4.44
  -2   3  -9   88.78    4.43
   2   3   9   92.23    4.49
  -2   3  -9   90.03    4.57
  -2   3  -9   88.85    4.43
  -2   3  -9   91.70    4.48
   2   3   9   88.59    4.63
   2   3   9   94.41    4.47
  -2   3  -9   99.45    4.58
   3  -3   9  120.94    5.93
   3  -3   9  119.38    5.88
   3  -3   9  122.13    5.86
  -3  -3  -9  125.42    5.89
  -3  -3  -9  121.08    5.93
  -3  -3  -9  120.71    5.87
   3  -3   9  137.60    5.97
   3  -3   9  123.71    5.87
  -3  -3  -9  123.76    5.86
  -3  -3  -9  131.48    5.95
   3   3   9  119.54    5.86
  -3   3  -9  124.53    5.88
   3   3   9  118.96    5.92
   3   3   9  120.02    5.87
   3   3   9  120.94    5.85
   3   3   9  122.84    5.84
  -3   3  -9  114.82    5.89
   3   3   9  115.62    5.86
  -3   3  -9  126.23    5.96
   3   3   9  111.80    5.96
   3   3   9  120.53    5.85
  -3   3  -9  118.20    5.82
  -4  -3  -9   12.04    0.67
  -4  -3  -9   13.62    0.78
  -4  -3  -9   12.15    0.67
  -4  -3  -9   12.13    0.70
   4  -3   9   11.63    0.69
   4  -3   9   11.63    0.74
   4  -3   9   11.41    0.67
  -4  -3  -9   13.27    0.82
   4  -3   9   11.50    0.66
   4  -3   9   12.50    0.77
  -4   3  -9   12.01    0.70
   4   3   9   13.85    0.75
  -4   3  -9   13.06    0.78
  -4   3  -9   11.16    0.69
   4   3   9   12.68    0.66
  -5  -3  -9    0.60    0.10
  -5  -3  -9    0.49    0.12
   5  -3   9    0.45    0.14
   5  -3   9    0.36    0.10
  -5  -3  -9    0.50    0.12
   5  -3   9    0.33    0.11
  -5  -3  -9    0.48    0.10
   5  -3   9    0.50    0.11
   5   3   9    0.36    0.08
   5   3   9    0.48    0.11
  -5   3  -9    0.53    0.09
  -5   3  -9    0.57    0.12
   5   3   9    0.48    0.09
   5   3   9    0.54    0.11
   5   3   9    0.43    0.10
   5   3   9    0.41    0.10
   5   3   9    0.47    0.09
  -6  -3  -9    2.38    0.21
  -6  -3  -9    2.97    0.21
  -6  -3  -9    2.36    0.19
   6  -3   9    2.88    0.19
  -6  -3  -9    3.04    0.20
   6   3   9    2.79    0.21
   6   3   9    2.71    0.24
  -7  -3  -9    0.43    0.10
  -7  -3  -9    0.42    0.09
   7   3   9    0.23    0.04
  -7   3  -9    0.36    0.05
   7   3   9    0.41    0.07
  -7   3  -9    0.25    0.04
   8   4  -9   11.16    0.55
   8   4  -9   10.13    0.54
   8   4  -9   11.53    0.57
   7  -4  -9    4.77    0.32
  -7  -4   9    4.94    0.32
   7   4  -9    5.58    0.29
  -7   4   9    5.71    0.30
  -7   4   9    5.47    0.29
   7   4  -9    5.62    0.29
  -7   4   9    5.63    0.30
   7   4  -9    5.69    0.30
   7   4  -9    5.77    0.32
   7   4  -9    5.63    0.33
  -6  -4   9    0.33    0.09
  -6  -4   9    0.46    0.11
   6  -4  -9    0.35    0.10
   6  -4  -9    0.30    0.08
  -6  -4   9    0.35    0.09
   6   4  -9    0.40    0.11
   6   4  -9    0.39    0.10
  -6   4   9    0.33    0.07
   6   4  -9    0.45    0.10
  -6   4   9    0.41    0.09
   6   4  -9    0.38    0.08
  -6   4   9    0.43    0.09
   6   4  -9    0.44    0.09
   5  -4  -9    5.46    0.35
   5  -4  -9    4.92    0.35
  -5  -4   9    4.76    0.36
   5  -4  -9    4.87    0.32
  -5  -4   9    5.42    0.32
   5  -4  -9    4.69    0.32
  -5   4   9    4.58    0.32
  -5   4   9    4.84    0.39
   5   4  -9    4.75    0.29
  -5   4   9    4.72    0.30
   5   4  -9    4.93    0.32
   5   4  -9    4.95    0.34
   5   4  -9    4.59    0.27
  -5   4   9    5.02    0.30
   5   4  -9    4.68    0.27
   5   4  -9    4.77    0.29
  -5   4   9    4.64    0.30
   4  -4  -9    7.16    0.52
   4  -4  -9    7.45    0.46
   4  -4  -9    7.62    0.45
   4  -4  -9    7.58    0.46
  -4  -4   9    8.05    0.45
  -4  -4   9    8.16    0.48
  -4  -4   9    6.44    0.45
   4  -4  -9    7.70    0.49
  -4   4   9    7.57    0.43
   4   4  -9    7.27    0.47
   4   4  -9    7.78    0.42
   4   4  -9    7.31    0.45
   4   4  -9    7.50    0.42
   4   4  -9    7.35    0.41
  -4   4   9    7.80    0.57
   4   4  -9    7.20    0.55
   4   4  -9    7.51    0.41
  -4   4   9    7.61    0.44
  -4   4   9    7.39    0.45
  -4   4   9    7.56    0.44
   4   4  -9    7.86    0.42
  -3  -4   9   11.88    0.65
   3  -4  -9   11.27    0.69
  -3  -4   9   11.94    0.65
   3  -4  -9   11.78    0.66
   3  -4  -9   11.21    0.67
   3  -4  -9   12.83    0.85
  -3  -4   9   12.27    0.77
   3   4  -9   10.72    0.82
   3   4  -9   12.24    0.64
  -3   4   9   10.68    0.75
  -3   4   9   13.32    0.69
  -3   4   9   12.54    0.84
   3   4  -9   11.57    0.64
  -3   4   9   11.36    0.63
   3   4  -9   13.49    0.65
   3   4  -9   11.60    0.64
   3   4  -9   13.11    0.65
  -3   4   9   12.04    0.68
  -3   4   9   12.54    0.69
  -3   4   9   11.96    0.68
   3   4  -9   10.62    0.65
   2  -4  -9    0.23    0.11
   2  -4  -9    0.20    0.07
  -2  -4   9    0.15    0.08
  -2  -4   9    0.10    0.07
  -2  -4   9    0.11    0.06
  -2  -4   9    0.17    0.11
   2  -4  -9    0.16    0.08
   2  -4  -9    0.13    0.06
  -2   4   9    0.10    0.07
   2   4  -9    0.06    0.05
   2   4  -9    0.22    0.08
  -2   4   9    0.17    0.09
  -2   4   9    0.13    0.07
   2   4  -9    0.12    0.07
   2   4  -9    0.13    0.06
  -2   4   9    0.12    0.08
  -2   4   9    0.14    0.12
   2   4  -9    0.18    0.10
  -2   4   9    0.10    0.05
   2   4  -9    0.23    0.08
  -2   4   9    0.13    0.07
   2   4  -9    0.22    0.07
   1  -4  -9    0.43    0.10
   1  -4  -9    0.36    0.12
   1  -4  -9    0.37    0.11
   1  -4  -9    0.44    0.14
  -1  -4   9    0.42    0.10
  -1  -4   9    0.43    0.13
   1  -4  -9    0.37    0.10
  -1  -4   9    0.40    0.12
  -1  -4   9    0.50    0.10
   1   4  -9    0.29    0.07
   1   4  -9    0.36    0.15
   1   4  -9    0.39    0.09
   1   4  -9    0.33    0.11
   1   4  -9    0.31    0.09
   1   4  -9    0.40    0.09
  -1   4   9    0.40    0.10
  -1   4   9    0.40    0.13
  -1   4   9    0.37    0.09
   1   4  -9    0.29    0.07
  -1   4   9    0.39    0.10
  -1   4   9    0.39    0.09
  -1   4   9    0.41    0.12
  -1   4   9    0.37    0.17
   1   4  -9    0.47    0.10
  -1   4   9    0.30    0.08
   0  -4   9    2.99    0.22
   0  -4  -9    2.89    0.27
   0  -4   9    2.94    0.26
   0  -4   9    2.62    0.29
   0  -4   9    3.11    0.23
   0  -4  -9    2.90    0.22
   0  -4  -9    3.15    0.23
   0   4  -9    2.87    0.20
   0   4   9    3.17    0.26
   0   4  -9    2.62    0.22
   0   4   9    3.07    0.21
   0   4  -9    2.86    0.20
   0   4  -9    2.83    0.21
   0   4  -9    2.89    0.21
   0   4   9    2.87    0.23
   0   4   9    2.97    0.24
   0   4   9    2.91    0.33
   0   4  -9    3.06    0.29
   0   4  -9    2.70    0.25
   0   4   9    2.74    0.22
   0   4  -9    2.88    0.21
   0   4   9    2.92    0.24
   0   4   9    2.87    0.27
   0   4   9    3.22    0.26
   1  -4   9    1.03    0.17
   1  -4   9    1.15    0.16
  -1  -4  -9    1.06    0.13
  -1  -4  -9    0.86    0.15
   1  -4   9    1.04    0.16
  -1  -4  -9    1.09    0.15
  -1  -4  -9    1.11    0.19
   1  -4   9    1.15    0.14
  -1   4  -9    1.17    0.12
  -1   4  -9    1.25    0.20
   1   4   9    1.08    0.15
   1   4   9    1.13    0.15
   1   4   9    1.15    0.15
  -1   4  -9    1.05    0.14
  -1   4  -9    1.11    0.13
   1   4   9    1.08    0.14
   1   4   9    1.21    0.18
  -1   4  -9    1.14    0.12
   1   4   9    1.07    0.12
  -1   4  -9    1.06    0.13
   1   4   9    1.18    0.23
  -2  -4  -9   57.89    2.78
   2  -4   9   56.68    2.82
  -2  -4  -9   57.35    2.75
   2  -4   9   57.91    2.75
   2  -4   9   55.04    2.76
  -2  -4  -9   57.60    2.74
   2  -4   9   57.89    2.75
   2   4   9   52.97    2.73
  -2   4  -9   56.41    2.76
   2   4   9   53.84    2.85
   2   4   9   55.52    2.81
  -2   4  -9   56.57    2.71
   2   4   9   56.04    2.75
  -2   4  -9   55.17    2.72
  -2   4  -9   59.87    2.85
   2   4   9   55.88    2.76
   2   4   9   53.99    2.74
   2   4   9   57.87    2.73
  -2   4  -9   56.04    2.72
   2   4   9   54.40    2.74
  -2   4  -9   55.86    2.72
  -2   4  -9   56.03    2.71
   3  -4   9    4.18    0.31
   3  -4   9    3.66    0.27
  -3  -4  -9    2.96    0.28
  -3  -4  -9    3.98    0.25
   3  -4   9    3.65    0.26
   3  -4   9    3.68    0.31
   3  -4   9    3.30    0.27
  -3  -4  -9    3.66    0.25
  -3  -4  -9    3.81    0.28
  -3   4  -9    3.70    0.23
   3   4   9    3.54    0.29
   3   4   9    3.48    0.26
   3   4   9    3.52    0.24
   3   4   9    3.79    0.24
   3   4   9    3.81    0.26
   3   4   9    3.68    0.26
  -3   4  -9    3.64    0.23
  -3   4  -9    3.80    0.27
  -3   4  -9    3.92    0.32
  -4  -4  -9    0.62    0.09
   4  -4   9    0.60    0.12
   4  -4   9    0.62    0.11
   4  -4   9    0.62    0.11
  -4  -4  -9    0.69    0.11
  -4  -4  -9    0.69    0.12
  -4  -4  -9    0.62    0.12
   4  -4   9    0.55    0.11
  -4  -4  -9    0.68    0.12
   4   4   9    0.68    0.12
   4   4   9    0.48    0.08
   4   4   9    0.70    0.10
  -4   4  -9    0.65    0.09
   4   4   9    0.63    0.12
  -4   4  -9    0.62    0.18
  -4   4  -9    0.64    0.08
   4   4   9    0.65    0.10
   4   4   9    0.68    0.09
   4   4   9    0.70    0.11
  -5  -4  -9    4.38    0.30
   5  -4   9    4.02    0.24
  -5  -4  -9    3.53    0.24
   5  -4   9    4.02    0.26
  -5  -4  -9    4.50    0.26
   5   4   9    3.94    0.24
  -5   4  -9    4.15    0.23
   5   4   9    4.06    0.24
  -5   4  -9    4.05    0.23
   5   4   9    3.52    0.29
   5   4   9    4.01    0.24
   5   4   9    4.53    0.26
  -6  -4  -9    2.71    0.17
   6   4   9    2.37    0.16
   6   4   9    2.31    0.15
   6   4   9    2.73    0.18
  -6   4  -9    2.89    0.15
   6  -5  -9    1.23    0.10
  -6   5   9    1.02    0.07
   6   5  -9    1.10    0.07
  -6   5   9    1.02    0.07
   6   5  -9    1.08    0.07
   5  -5  -9    3.44    0.21
   5  -5  -9    3.60    0.22
   5   5  -9    3.53    0.20
   5   5  -9    3.52    0.20
   5   5  -9    2.91    0.23
  -5   5   9    3.34    0.20
   5   5  -9    3.24    0.19
  -5   5   9    3.40    0.20
  -4  -5   9    3.47    0.26
   4  -5  -9    4.09    0.32
   4  -5  -9    3.56    0.25
   4  -5  -9    3.90    0.26
   4  -5  -9    4.04    0.26
  -4   5   9    4.07    0.23
   4   5  -9    4.26    0.24
   4   5  -9    4.09    0.25
  -4   5   9    4.01    0.23
  -4   5   9    4.06    0.31
   4   5  -9    3.88    0.22
   4   5  -9    3.90    0.22
  -4   5   9    4.03    0.24
   4   5  -9    3.63    0.24
   3  -5  -9    5.01    0.29
   3  -5  -9    3.85    0.30
  -3  -5   9    4.62    0.28
   3  -5  -9    5.25    0.31
  -3  -5   9    4.31    0.28
   3   5  -9    4.54    0.28
  -3   5   9    4.41    0.28
   3   5  -9    4.86    0.26
   3   5  -9    4.76    0.29
  -3   5   9    3.97    0.26
  -3   5   9    4.53    0.26
   3   5  -9    4.25    0.30
   3   5  -9    4.78    0.26
  -3   5   9    4.41    0.26
  -2  -5   9    0.17    0.06
  -2  -5   9    0.21    0.07
   2  -5  -9    0.18    0.07
   2  -5  -9    0.27    0.08
  -2  -5   9    0.12    0.05
   2  -5  -9    0.15    0.05
   2  -5  -9    0.22    0.07
  -2   5   9    0.19    0.06
  -2   5   9    0.22    0.07
   2   5  -9    0.24    0.10
  -2   5   9    0.32    0.06
  -2   5   9    0.29    0.12
   2   5  -9    0.23    0.06
   2   5  -9    0.33    0.07
  -2   5   9    0.24    0.06
  -2   5   9    0.29    0.06
   2   5  -9    0.15    0.05
   2   5  -9    0.22    0.06
  -1  -5   9    1.06    0.12
   1  -5  -9    1.47    0.15
  -1  -5   9    1.12    0.13
   1  -5  -9    1.37    0.19
  -1  -5   9    1.13    0.13
  -1  -5   9    1.15    0.13
   1  -5  -9    1.38    0.14
   1  -5  -9    1.50    0.14
   1  -5  -9    1.50    0.16
   1   5  -9    1.26    0.12
   1   5  -9    1.34    0.11
  -1   5   9    1.15    0.15
   1   5  -9    1.11    0.11
   1   5  -9    1.13    0.16
  -1   5   9    1.31    0.14
  -1   5   9    1.15    0.10
  -1   5   9    1.24    0.13
  -1   5   9    1.26    0.11
   1   5  -9    1.34    0.11
  -1   5   9    1.27    0.19
   1   5  -9    1.27    0.12
  -1   5   9    1.23    0.10
   0  -5  -9    3.75    0.28
   0  -5  -9    3.68    0.29
   0  -5   9    5.10    0.29
   0  -5   9    3.86    0.27
   0  -5  -9    4.84    0.29
   0  -5   9    3.76    0.29
   0   5   9    4.11    0.27
   0   5   9    4.45    0.31
   0   5  -9    4.93    0.26
   0   5   9    4.70    0.29
   0   5   9    4.75    0.26
   0   5   9    4.59    0.36
   0   5  -9    4.99    0.26
   0   5  -9    4.60    0.26
   0   5  -9    4.77    0.34
   0   5  -9    3.78    0.29
   0   5   9    4.62    0.28
   0   5  -9    4.40    0.26
   0   5  -9    4.69    0.26
  -1  -5  -9    5.03    0.33
   1  -5   9    5.96    0.36
  -1  -5  -9    4.89    0.35
   1  -5   9    4.82    0.33
   1  -5   9    4.79    0.32
   1   5   9    6.13    0.54
   1   5   9    5.69    0.33
   1   5   9    5.19    0.33
   1   5   9    5.93    0.37
  -1   5  -9    5.80    0.31
  -1   5  -9    6.08    0.35
  -1   5  -9    5.94    0.39
   1   5   9    6.06    0.32
   1   5   9    5.86    0.33
  -1   5  -9    5.54    0.33
  -1   5  -9    6.31    0.32
  -2  -5  -9    2.19    0.18
   2  -5   9    2.79    0.26
  -2  -5  -9    3.03    0.20
   2  -5   9    2.62    0.20
  -2  -5  -9    2.16    0.21
  -2  -5  -9    2.32    0.27
  -2   5  -9    2.75    0.23
   2   5   9    2.87    0.22
  -2   5  -9    2.90    0.18
   2   5   9    2.69    0.18
   2   5   9    2.50    0.19
  -2   5  -9    2.72    0.17
  -2   5  -9    2.55    0.17
  -2   5  -9    2.73    0.16
   2   5   9    2.82    0.23
   2   5   9    2.72    0.21
   2   5   9    2.68    0.17
  -2   5  -9    2.76    0.16
  -2   5  -9    2.86    0.22
   3  -5   9    0.76    0.10
  -3  -5  -9    0.76    0.09
  -3  -5  -9    0.80    0.13
  -3   5  -9    0.83    0.08
   3   5   9    0.79    0.09
  -3   5  -9    0.81    0.07
  -3   5  -9    0.62    0.08
   3   5   9    0.84    0.08
   3   5   9    0.78    0.09
  -3   5  -9    0.77    0.11
   3   5   9    0.77    0.10
   3   5   9    0.76    0.09
   4  -5   9    2.10    0.14
   4   5   9    1.89    0.13
   4   5   9    1.76    0.13
  -4   5  -9    1.96    0.12
   4   5   9    2.32    0.12
   4   5   9    2.28    0.14
   2   6  -9    4.20    0.21
  -2   6   9    3.64    0.20
  -2   6   9    3.94    0.24
  -1   6   9    2.22    0.17
   1   6  -9    2.10    0.12
  -1   6   9    1.91    0.12
   1   6  -9    2.29    0.12
   1   6  -9    1.86    0.12
   1   6  -9    1.99    0.12
   0   6  -9    0.08    0.03
   0   6  -9    0.15    0.04
   0   6   9    0.09    0.03
   0   6  -9    0.11    0.03
  10   0 -10    5.67    0.31
   9   0 -10    0.00    0.03
   8   0 -10   11.83    0.66
  -8   0  10   11.09    0.61
  -8   0  10   11.66    0.62
  -7   0  10   18.22    1.11
  -7   0  10   18.00    0.95
  -7   0  10   18.73    0.97
  -7   0  10   18.41    0.97
   6   0 -10   17.72    0.96
  -6   0  10   17.65    0.93
   6   0 -10   18.11    0.97
  -6   0  10   18.14    0.94
  -6   0  10   17.16    0.96
   6   0 -10   14.91    0.91
  -6   0  10   17.74    0.93
  -5   0  10   25.02    1.39
  -5   0  10   24.65    1.34
  -5   0  10   24.85    1.31
  -5   0  10   26.56    1.36
  -5   0  10   25.79    1.32
  -5   0  10   26.26    1.34
   5   0 -10   25.45    1.34
   5   0 -10   26.47    1.33
  -5   0  10   24.30    1.30
   5   0 -10   26.31    1.28
   4   0 -10   13.09    0.68
  -4   0  10   10.68    0.62
  -4   0  10   11.04    0.63
   4   0 -10   11.09    0.62
  -4   0  10   10.94    0.62
  -4   0  10   10.94    0.69
   4   0 -10   11.14    0.65
  -4   0  10   13.24    0.76
  -4   0  10   10.58    0.64
  -4   0  10   10.39    0.94
   4   0 -10   11.41    0.60
  -4   0  10   10.89    0.65
  -3   0  10   36.04    2.33
  -3   0  10   33.72    2.07
   3   0 -10   38.05    1.78
   3   0 -10   35.93    1.80
  -3   0  10   33.80    1.79
  -3   0  10   34.86    1.76
  -3   0  10   36.04    1.79
  -3   0  10   35.65    1.84
  -3   0  10   37.31    1.81
  -3   0  10   34.86    1.77
  -2   0  10   55.99    3.01
   2   0 -10   54.53    2.90
   2   0 -10   55.54    2.69
  -2   0  10   49.70    2.67
  -2   0  10   58.56    6.33
  -2   0  10   54.40    2.67
  -2   0  10   58.00    2.70
  -2   0  10   56.60    2.70
  -2   0  10   53.44    2.67
   2   0 -10   58.99    2.71
  -2   0  10   48.69    5.04
  -2   0  10   55.35    2.73
  -2   0  10   53.62    2.69
  -1   0  10   26.58    3.56
   1   0 -10   25.51    1.52
   1   0 -10   26.68    1.32
   1   0 -10   23.69    1.27
  -1   0  10   25.38    1.56
  -1   0  10   27.40    6.75
  -1   0  10   24.92    1.25
   1   0 -10   23.76    1.24
   1   0 -10   26.34    1.28
   1   0 -10   24.13    1.25
  -1   0  10   24.77    1.27
  -1   0  10   24.44    1.25
  -1   0  10   27.49    1.32
  -1   0  10   26.11    1.29
   1   0 -10   25.20    1.27
  -1   0  10   20.74    1.27
   0   0  10    1.30    0.14
   0   0 -10    0.37    0.90
   0   0 -10    1.46    0.13
   0   0  10    1.92    0.33
   0   0  10    1.34    0.13
   0   0  10    1.58    0.17
   0   0  10    0.63    4.35
   0   0 -10    1.58    0.15
   0   0 -10    1.66    2.66
   0   0 -10    1.65    0.16
   0   0 -10    1.45    0.13
   0   0  10    1.26    1.64
   0   0  10    1.39    0.13
   0   0 -10    1.34    0.14
   0   0  10    1.71    0.19
   0   0 -10    1.34    0.29
   0   0 -10    1.44    0.16
   0   0 -10    1.68    0.17
  -1   0 -10    0.09    0.04
  -1   0 -10    0.22    0.16
  -1   0 -10    0.12    0.04
  -1   0 -10    0.17    0.05
   1   0  10    0.15    0.08
   1   0  10    0.13    0.06
   1   0  10    0.19    0.07
   1   0  10    0.10    0.04
  -1   0 -10    0.12    0.05
  -1   0 -10    0.02    0.06
  -1   0 -10    0.11    0.04
  -1   0 -10    0.19    0.07
   1   0  10    0.14    0.08
   1   0  10   -1.83    2.08
   1   0  10    0.08    0.25
   1   0  10    2.76    5.34
  -2   0 -10    0.92    0.13
   2   0  10    1.07    0.13
  -2   0 -10    0.88    0.10
  -2   0 -10    0.85    0.11
  -2   0 -10    0.88    0.11
  -2   0 -10    0.85    0.16
   2   0  10    0.78    0.15
  -2   0 -10    0.91    0.12
  -2   0 -10    0.96    0.13
  -2   0 -10    0.92    0.14
   2   0  10    0.89    0.12
  -3   0 -10    6.65    0.43
  -3   0 -10    6.18    0.38
  -3   0 -10    6.11    0.43
  -3   0 -10    6.76    0.42
  -3   0 -10    7.59    0.56
  -3   0 -10    6.73    0.42
  -3   0 -10    6.18    0.40
  -3   0 -10    6.15    0.37
   3   0  10    6.67    0.48
  -3   0 -10    6.26    0.38
  -4   0 -10   20.39    1.05
  -4   0 -10   19.32    1.16
  -4   0 -10   22.71    1.14
  -4   0 -10   20.07    1.08
  -4   0 -10   20.75    1.10
  -4   0 -10   20.26    1.05
  -4   0 -10   20.28    1.05
  -5   0 -10    2.08    0.17
  -5   0 -10    2.13    0.23
  -5   0 -10    2.29    0.22
  -5   0 -10    2.09    0.21
  -5   0 -10    2.11    0.18
  -6   0 -10    0.06    0.04
  -6   0 -10   -0.02    0.10
  -7   0 -10   -0.01    0.05
  -8   0 -10    0.16    0.06
  10  -1 -10    1.42    0.11
  10   1 -10    1.98    0.12
  -9  -1  10    1.38    0.12
  -9  -1  10    1.61    0.14
   9   1 -10    1.52    0.14
   9   1 -10    1.73    0.15
  -8  -1  10    9.03    0.54
  -8  -1  10    8.74    0.53
  -8  -1  10    9.54    0.54
  -8  -1  10    9.29    0.67
   8   1 -10   10.10    0.57
   8   1 -10    9.69    0.48
  -7  -1  10    2.37    0.21
  -7  -1  10    2.30    0.21
  -7  -1  10    2.35    0.23
  -7  -1  10    2.84    0.30
  -7  -1  10    2.11    0.26
   7   1 -10    2.47    0.18
   7   1 -10    2.92    0.31
   7   1 -10    2.89    0.24
  -6  -1  10   12.69    0.71
  -6  -1  10   12.94    0.74
  -6  -1  10   12.41    0.69
  -6  -1  10   13.11    0.72
  -6  -1  10   12.35    0.78
   6   1 -10   12.12    0.64
   6   1 -10   12.63    0.66
  -6   1  10   11.18    0.65
   6   1 -10   12.92    0.73
  -5  -1  10   14.26    0.77
  -5  -1  10   14.23    0.76
  -5  -1  10   14.03    0.78
  -5  -1  10   13.95    0.80
   5  -1 -10   13.11    0.73
   5   1 -10   14.80    0.80
  -5   1  10   12.86    0.74
   5   1 -10   13.58    0.81
   5   1 -10   14.48    0.78
  -5   1  10   15.30    0.84
   5   1 -10   13.52    0.80
  -4  -1  10   31.73    1.65
   4  -1 -10   32.07    1.65
  -4  -1  10   31.04    1.59
  -4  -1  10   33.73    2.14
  -4  -1  10   33.22    2.56
  -4  -1  10   33.66    1.60
  -4  -1  10   32.46    1.58
   4  -1 -10   30.58    1.60
   4  -1 -10   31.29    1.57
   4  -1 -10   29.24    1.58
   4  -1 -10   28.97    1.56
   4  -1 -10   29.13    1.55
  -4  -1  10   32.13    1.57
   4   1 -10   31.71    1.54
  -4   1  10   32.39    1.64
   4   1 -10   31.32    1.54
  -4   1  10   27.54    1.55
   4   1 -10   31.32    1.54
   4   1 -10   29.33    1.60
   4   1 -10   32.48    1.61
  -3  -1  10   16.81    0.84
  -3  -1  10   15.92    0.86
   3  -1 -10   15.08    1.12
   3  -1 -10   15.91    0.91
  -3  -1  10   16.96    0.87
  -3  -1  10   15.04    1.24
   3  -1 -10   15.96    0.86
  -3  -1  10   15.62    1.28
   3  -1 -10   14.99    0.86
  -3  -1  10   16.10    0.85
  -3  -1  10   16.38    0.84
   3  -1 -10   15.00    0.84
   3  -1 -10   15.62    0.84
  -3  -1  10   16.19    0.90
  -3   1  10   16.54    0.89
   3   1 -10   16.26    0.81
   3   1 -10   15.35    0.85
   3   1 -10   16.01    0.81
   3   1 -10   16.77    0.86
   3   1 -10   15.50    0.81
  -3   1  10   13.78    0.81
   3   1 -10   17.44    0.84
  -2  -1  10   16.03    0.85
   2  -1 -10   14.68    0.80
  -2  -1  10   14.51    0.78
   2  -1 -10   14.71    0.78
  -2  -1  10   15.03    0.80
   2  -1 -10   15.56    1.07
   2  -1 -10   13.74    0.79
   2  -1 -10   14.32    0.78
  -2  -1  10   14.39    0.79
   2  -1 -10   15.80    0.87
  -2  -1  10   15.00    1.12
   2  -1 -10   14.23    0.80
  -2  -1  10   15.16    0.81
   2   1 -10   15.52    0.76
   2   1 -10   13.44    0.79
   2   1 -10   15.50    0.80
   2   1 -10   13.85    0.81
  -2   1  10   14.72    0.85
  -2   1  10   15.27    0.83
   2   1 -10   15.66    0.76
   1  -1 -10   28.01    1.45
   1  -1 -10   27.16    1.39
   1  -1 -10   28.73    1.41
   1  -1 -10   27.89    1.38
  -1  -1  10   28.76    1.39
   1  -1 -10   28.55    1.74
  -1  -1  10   26.41    1.39
   1  -1 -10   26.87    1.41
  -1  -1  10   28.10    1.41
  -1  -1  10   28.59    1.44
  -1  -1  10   26.91    1.77
  -1  -1  10   28.65    1.41
   1  -1 -10   24.83    1.39
  -1  -1  10   26.94    1.38
   1   1 -10   28.05    1.48
   1   1 -10   24.22    1.61
   1   1 -10   27.47    1.42
  -1   1  10   31.93    1.43
  -1   1  10   24.78    1.59
   1   1 -10   28.95    1.37
  -1   1  10   27.74    1.47
   1   1 -10   26.85    1.41
   1   1 -10   27.84    1.41
  -1   1  10   26.55    1.43
   1   1 -10   29.98    1.37
   0  -1 -10   10.18    0.57
   0  -1 -10   10.35    0.59
   0  -1  10   10.14    0.91
   0  -1  10   10.44    0.59
   0  -1  10    9.77    0.57
   0  -1 -10   10.31    0.58
   0  -1 -10   10.11    0.88
   0  -1  10   11.07    0.62
   0  -1  10   10.13    0.58
   0  -1 -10   10.45    0.62
   0  -1 -10   10.25    0.56
   0  -1 -10    9.59    0.56
   0  -1  10   10.19    0.56
   0  -1  10   10.86    0.58
   0  -1 -10   10.10    0.56
   0   1 -10   10.21    0.83
   0   1  10   11.04    0.59
   0   1  10    9.07    0.78
   0   1 -10    9.75    0.59
   0   1 -10   10.43    0.60
   0   1 -10   10.99    0.66
   0   1  10   10.11    0.60
   0   1  10   10.05    0.64
   0   1 -10   10.69    0.60
   1  -1  10   19.88    1.04
  -1  -1 -10   19.13    1.05
  -1  -1 -10   20.90    1.11
   1  -1  10   20.49    1.11
   1  -1  10   20.60    1.04
  -1  -1 -10   19.85    1.04
  -1  -1 -10   22.02    1.49
   1  -1  10   20.22    1.06
   1  -1  10   20.57    1.08
  -1  -1 -10   19.05    1.06
   1  -1  10   20.85    1.10
   1  -1  10   19.90    1.05
   1  -1  10   22.19    1.54
  -1  -1 -10   20.36    1.04
  -1  -1 -10   20.04    1.07
  -1   1 -10   20.62    1.09
   1   1  10   20.05    1.15
  -1   1 -10   22.17    1.09
  -1   1 -10   20.15    1.05
   1   1  10   18.51    1.34
  -1   1 -10   20.82    1.44
  -1   1 -10   21.42    1.09
   2  -1  10   33.58    1.68
   2  -1  10   32.24    1.69
   2  -1  10   34.38    1.74
  -2  -1 -10   34.09    1.75
  -2  -1 -10   32.39    1.81
   2  -1  10   33.36    2.24
  -2  -1 -10   34.40    1.68
   2  -1  10   34.91    1.74
   2  -1  10   33.15    1.67
  -2  -1 -10   34.65    1.71
  -2  -1 -10   33.49    1.70
   2  -1  10   31.85    1.67
  -2  -1 -10   33.37    1.67
  -2  -1 -10   32.63    1.68
  -2   1 -10   34.52    1.72
  -2   1 -10   33.56    2.18
  -2   1 -10   34.43    1.74
  -2   1 -10   33.90    1.69
   2   1  10   37.84    1.71
   2   1  10   29.23    2.07
   2   1  10   33.47    1.81
   2   1  10   34.93    1.69
  -3  -1 -10   11.42    0.62
   3  -1  10   11.12    0.62
   3  -1  10   10.84    0.70
  -3  -1 -10   11.19    0.67
   3  -1  10   10.76    0.60
   3  -1  10   11.19    0.68
  -3  -1 -10   11.58    0.65
  -3  -1 -10   10.44    0.63
  -3  -1 -10   11.42    0.66
  -3  -1 -10   11.64    0.63
  -3  -1 -10   12.17    0.70
  -3  -1 -10   11.04    0.63
   3  -1  10   10.65    0.61
   3   1  10   11.63    0.63
  -3   1 -10   11.29    0.68
  -3   1 -10   11.66    0.67
   3   1  10   10.74    0.74
  -3   1 -10   11.39    0.64
   3   1  10   12.34    0.64
  -4  -1 -10   60.90    3.14
  -4  -1 -10   62.47    3.07
   4  -1  10   59.20    3.04
  -4  -1 -10   70.88    3.18
  -4  -1 -10   60.98    3.16
  -4  -1 -10   63.97    3.10
  -4  -1 -10   62.91    3.06
  -4  -1 -10   63.37    3.07
  -4  -1 -10   56.80    3.10
  -4  -1 -10   59.43    3.14
  -4   1 -10   70.95    3.23
  -4   1 -10   62.55    3.15
   4   1  10   64.01    3.08
   4   1  10   60.00    3.23
  -4   1 -10   64.97    3.12
  -5  -1 -10   30.63    1.51
  -5  -1 -10   29.14    1.47
  -5  -1 -10   29.86    1.50
  -5  -1 -10   30.05    1.61
  -5  -1 -10   25.97    1.50
  -5  -1 -10   28.64    1.48
   5   1  10   28.78    1.48
  -5   1 -10   29.73    1.51
  -5   1 -10   30.84    1.53
  -6  -1 -10    8.67    0.60
  -6  -1 -10    7.40    0.49
  -6  -1 -10    7.76    0.45
  -6  -1 -10    7.91    0.51
  -6  -1 -10    7.45    0.45
  -6   1 -10    7.46    0.48
   6   1  10    7.78    0.43
  -7  -1 -10    0.05    0.04
  -7  -1 -10    0.10    0.05
  -7  -1 -10    0.07    0.05
  -7   1 -10    0.09    0.06
   7   1  10    0.11    0.04
   7   1  10    0.11    0.08
   8   1  10    4.39    0.23
  -9  -2  10    7.89    0.44
   9   2 -10    8.61    0.45
   9   2 -10    7.78    0.42
  -8  -2  10    6.13    0.37
  -8  -2  10    5.96    0.36
  -8  -2  10    5.76    0.39
  -8  -2  10    5.79    0.37
   8   2 -10    5.78    0.38
   8   2 -10    5.81    0.32
  -7  -2  10    5.32    0.36
  -7  -2  10    5.29    0.35
  -7  -2  10    5.13    0.37
  -7  -2  10    4.79    0.40
  -7  -2  10    5.89    0.41
   7   2 -10    5.04    0.33
   7   2 -10    5.09    0.37
   7   2 -10    5.05    0.31
   7   2 -10    5.18    0.30
   7   2 -10    5.25    0.36
  -6  -2  10   47.98    2.25
  -6  -2  10   43.14    2.17
   6  -2 -10   42.66    2.13
  -6  -2  10   43.10    2.15
  -6  -2  10   42.33    2.25
   6  -2 -10   42.09    2.12
  -6  -2  10   42.46    2.18
   6   2 -10   47.51    2.20
   6   2 -10   42.21    2.19
   6   2 -10   43.96    2.12
   6   2 -10   44.55    2.10
   6   2 -10   38.88    2.09
   6   2 -10   40.90    2.19
   5  -2 -10   28.79    1.50
   5  -2 -10   29.64    1.52
   5  -2 -10   29.16    1.55
  -5  -2  10   31.27    1.53
  -5  -2  10   30.58    1.54
  -5  -2  10   28.76    1.60
   5  -2 -10   33.90    1.68
   5  -2 -10   29.61    1.52
  -5  -2  10   30.04    1.52
   5  -2 -10   28.29    1.62
  -5  -2  10   30.15    1.56
   5   2 -10   29.60    1.48
   5   2 -10   29.97    1.63
   5   2 -10   30.75    1.48
   5   2 -10   29.97    1.48
   5   2 -10   29.32    1.56
   5   2 -10   30.76    1.49
   5   2 -10   29.82    1.67
   5   2 -10   28.73    1.48
   4  -2 -10   29.49    1.64
  -4  -2  10   31.07    1.69
   4  -2 -10   30.55    1.58
  -4  -2  10   28.46    1.55
   4  -2 -10   32.13    1.55
  -4  -2  10   30.03    1.57
   4  -2 -10   30.01    1.57
  -4  -2  10   32.18    1.55
   4  -2 -10   29.75    1.53
   4  -2 -10   29.98    1.64
  -4  -2  10   32.02    1.58
  -4  -2  10   32.22    1.55
   4   2 -10   29.67    1.58
   4   2 -10   29.56    1.60
   4   2 -10   32.37    1.51
  -4   2  10   29.59    1.62
  -4   2  10   30.01    1.62
   4   2 -10   29.04    1.51
  -3  -2  10    5.87    0.42
   3  -2 -10    6.28    0.38
   3  -2 -10    6.00    0.37
  -3  -2  10    5.84    0.37
   3  -2 -10    6.00    0.44
  -3  -2  10    5.77    0.38
  -3  -2  10    6.10    0.40
   3  -2 -10    5.88    0.40
   3  -2 -10    6.25    0.39
  -3  -2  10    5.14    0.37
  -3  -2  10    6.26    0.38
   3  -2 -10    5.56    0.38
   3   2 -10    5.46    0.34
   3   2 -10    5.65    0.39
  -3   2  10    6.65    0.39
   3   2 -10    5.66    0.33
  -3   2  10    5.72    0.42
   3   2 -10    6.03    0.34
   3   2 -10    5.33    0.41
  -3   2  10    5.23    0.42
   3   2 -10    5.54    0.40
   3   2 -10    6.04    0.34
   3   2 -10    5.68    0.34
  -2  -2  10   10.44    0.65
  -2  -2  10    9.93    0.53
   2  -2 -10    7.88    0.87
  -2  -2  10    9.29    0.58
   2  -2 -10    9.81    0.54
   2  -2 -10    9.54    0.55
   2  -2 -10    9.80    0.54
  -2  -2  10    9.75    0.55
   2  -2 -10    9.42    0.60
  -2  -2  10   10.05    0.53
   2  -2 -10    9.17    0.54
   2  -2 -10    9.31    0.91
  -2  -2  10    9.33    0.54
   2  -2 -10    9.56    0.57
   2   2 -10    9.27    0.50
   2   2 -10    8.25    0.58
   2   2 -10    9.33    0.50
   2   2 -10    8.73    0.50
   2   2 -10    9.11    0.51
   2   2 -10    9.35    0.56
  -2   2  10    7.79    0.55
  -2   2  10    9.12    0.61
   2   2 -10    9.22    0.58
   2   2 -10    8.56    0.55
  -2   2  10   10.20    0.57
  -2   2  10   10.12    0.54
   1  -2 -10    1.56    0.18
  -1  -2  10    1.80    0.18
   1  -2 -10    1.82    0.17
   1  -2 -10    1.86    0.21
   1  -2 -10    1.74    0.17
  -1  -2  10    1.85    0.17
  -1  -2  10    1.86    0.20
  -1  -2  10    1.72    0.18
  -1  -2  10    1.69    0.16
   1  -2 -10    1.75    0.19
  -1  -2  10    1.90    0.17
   1  -2 -10    1.75    0.16
   1  -2 -10    1.98    0.44
   1   2 -10    1.84    0.13
   1   2 -10    1.57    0.14
   1   2 -10    1.80    0.16
  -1   2  10    1.96    0.18
  -1   2  10    1.80    0.20
   1   2 -10    1.98    0.15
   1   2 -10    2.02    0.20
  -1   2  10    1.76    0.22
   1   2 -10    1.94    0.14
   1   2 -10    1.83    0.19
  -1   2  10    1.87    0.19
   1   2 -10    1.83    0.20
   1   2 -10    1.52    0.13
   0  -2 -10    1.05    0.16
   0  -2  10    1.15    0.14
   0  -2  10    1.17    0.16
   0  -2 -10    1.21    0.16
   0  -2  10    1.26    0.17
   0  -2 -10    1.18    0.13
   0  -2 -10    1.05    0.14
   0  -2 -10    1.22    0.14
   0  -2  10    0.88    0.14
   0  -2  10    1.30    0.14
   0  -2  10    1.37    0.14
   0  -2 -10    1.24    0.16
   0   2 -10    1.11    0.11
   0   2 -10    1.14    0.16
   0   2 -10    1.07    0.11
   0   2  10    1.08    0.17
   0   2 -10    1.23    0.19
   0   2  10    1.27    0.19
   0   2 -10    1.07    0.16
   0   2 -10    0.86    0.13
   0   2 -10    1.27    0.10
   0   2  10    1.05    0.14
   0   2  10    1.23    0.16
   0   2 -10    1.14    0.16
  -1  -2 -10   23.85    1.28
   1  -2  10   25.07    1.26
   1  -2  10   25.87    1.30
   1  -2  10   25.65    1.27
  -1  -2 -10   24.49    1.29
   1  -2  10   25.70    1.33
  -1  -2 -10   24.90    1.27
  -1  -2 -10   24.28    1.33
  -1  -2 -10   24.79    1.29
  -1  -2 -10   24.86    1.27
   1  -2  10   25.65    1.31
  -1  -2 -10   24.91    1.30
   1  -2  10   25.36    1.28
   1   2  10   24.05    1.40
  -1   2 -10   26.48    1.32
   1   2  10   23.94    1.27
  -1   2 -10   25.05    1.33
   1   2  10   23.06    1.26
  -1   2 -10   24.65    1.24
  -1   2 -10   27.34    1.38
   1   2  10   22.34    1.24
   1   2  10   25.03    1.34
   1   2  10   27.06    1.30
  -1   2 -10   25.24    1.34
   2  -2  10  127.03    5.99
  -2  -2 -10  122.25    5.93
  -2  -2 -10  124.71    5.96
  -2  -2 -10  119.17    5.93
   2  -2  10  121.51    5.99
  -2  -2 -10  122.23    6.02
   2  -2  10  122.61    5.95
  -2  -2 -10  120.84    5.95
   2  -2  10  124.74    5.95
  -2  -2 -10  120.77    5.92
   2  -2  10  121.51    5.92
   2  -2  10  121.86    5.92
   2   2  10  124.86    5.90
  -2   2 -10  116.01    5.88
   2   2  10  117.43    5.91
  -2   2 -10  133.14    6.03
   2   2  10  120.14    6.09
  -2   2 -10  121.73    6.01
   2   2  10  127.44    5.94
   2   2  10  130.38    5.95
  -2   2 -10  124.02    5.91
  -2   2 -10  126.97    5.98
   3  -2  10    2.63    0.24
  -3  -2 -10    2.51    0.25
  -3  -2 -10    2.58    0.21
  -3  -2 -10    2.37    0.21
   3  -2  10    3.12    0.29
   3  -2  10    2.59    0.21
  -3  -2 -10    2.52    0.22
  -3  -2 -10    2.63    0.24
   3  -2  10    2.57    0.22
   3  -2  10    2.70    0.27
  -3   2 -10    3.01    0.28
  -3   2 -10    2.19    0.17
  -3   2 -10    2.71    0.28
   3   2  10    2.50    0.19
  -3   2 -10    2.28    0.26
   3   2  10    2.49    0.22
   3   2  10    2.74    0.33
  -3   2 -10    2.47    0.20
   3   2  10    2.74    0.23
  -4  -2 -10    2.61    0.22
   4  -2  10    2.45    0.19
  -4  -2 -10    1.89    0.24
  -4  -2 -10    2.38    0.23
   4  -2  10    2.35    0.25
   4  -2  10    2.45    0.20
  -4  -2 -10    2.51    0.25
  -4  -2 -10    2.54    0.21
  -4  -2 -10    2.52    0.21
   4  -2  10    2.42    0.26
   4   2  10    2.49    0.21
  -4   2 -10    2.42    0.24
   4   2  10    2.45    0.18
   4   2  10    2.57    0.22
  -4   2 -10    2.28    0.17
  -5  -2 -10   20.87    1.08
  -5  -2 -10   19.83    1.15
  -5  -2 -10   21.45    1.08
   5  -2  10   20.70    1.06
  -5  -2 -10   21.67    1.11
  -5  -2 -10   20.88    1.09
   5   2  10   21.10    1.08
  -5   2 -10   19.17    1.04
  -5   2 -10   21.24    1.12
   5   2  10   21.73    1.06
   5   2  10   22.33    1.08
  -6  -2 -10    1.62    0.15
  -6  -2 -10    1.75    0.17
  -6  -2 -10    1.56    0.15
  -6  -2 -10    1.68    0.16
   6   2  10    1.66    0.13
   6   2  10    1.73    0.15
   6   2  10    1.40    0.15
  -6   2 -10    1.70    0.17
   6   2  10    1.74    0.18
  -7  -2 -10    2.90    0.19
  -7  -2 -10    3.25    0.20
   7   2  10    3.32    0.19
  -7   2 -10    3.03    0.22
  -8  -3  10    0.47    0.07
  -8  -3  10    0.53    0.09
  -8   3  10    0.40    0.08
   8   3 -10    0.49    0.09
  -8   3  10    0.44    0.08
   8   3 -10    0.48    0.06
   8   3 -10    0.36    0.05
  -7  -3  10    2.39    0.19
  -7  -3  10    2.50    0.22
  -7  -3  10    1.84    0.20
   7  -3 -10    2.16    0.16
   7   3 -10    2.43    0.21
   7   3 -10    2.17    0.15
  -7   3  10    2.57    0.19
  -7   3  10    2.59    0.19
   7   3 -10    2.34    0.17
   7   3 -10    2.16    0.17
   7   3 -10    2.11    0.20
  -6  -3  10    0.16    0.06
  -6  -3  10    0.19    0.06
   6  -3 -10    0.15    0.06
   6  -3 -10    0.20    0.07
  -6  -3  10    0.20    0.09
   6  -3 -10    0.07    0.08
  -6  -3  10    0.17    0.07
  -6  -3  10    0.18    0.08
   6   3 -10    0.18    0.07
   6   3 -10    0.21    0.06
   6   3 -10    0.15    0.06
  -6   3  10    0.18    0.08
   6   3 -10    0.19    0.08
   6   3 -10    0.20    0.06
  -5  -3  10    2.32    0.24
   5  -3 -10    2.47    0.29
  -5  -3  10    2.42    0.21
  -5  -3  10    2.12    0.23
   5  -3 -10    2.31    0.26
  -5  -3  10    2.19    0.20
   5  -3 -10    1.99    0.20
   5  -3 -10    2.05    0.19
  -5   3  10    2.26    0.28
   5   3 -10    2.58    0.29
  -5   3  10    2.46    0.21
   5   3 -10    2.39    0.32
   4  -3 -10    0.06    0.07
  -4  -3  10    0.12    0.06
  -4  -3  10    0.08    0.07
  -4  -3  10    0.10    0.07
   4  -3 -10    0.09    0.06
   4  -3 -10    0.10    0.07
   4  -3 -10    0.08    0.07
  -4  -3  10    0.06    0.06
  -4  -3  10    0.08    0.06
   4   3 -10    0.13    0.06
   4   3 -10    0.16    0.07
   4   3 -10    0.18    0.07
  -4   3  10    0.09    0.08
  -4   3  10    0.15    0.10
   4   3 -10    0.23    0.08
   4   3 -10    0.12    0.07
  -4   3  10    0.19    0.09
   4   3 -10    0.12    0.06
   4   3 -10    0.07    0.05
  -4   3  10    0.02    0.05
  -3  -3  10   42.29    2.38
  -3  -3  10   50.33    2.38
   3  -3 -10   45.70    2.46
  -3  -3  10   47.30    2.44
   3  -3 -10   48.89    2.39
  -3  -3  10   51.50    2.38
   3  -3 -10   48.52    2.38
   3  -3 -10   49.62    2.40
   3  -3 -10   48.07    2.42
  -3  -3  10   50.59    2.41
   3   3 -10   47.79    2.34
   3   3 -10   47.63    2.35
   3   3 -10   49.93    2.34
   3   3 -10   48.08    2.34
  -3   3  10   50.15    2.38
   3   3 -10   44.40    2.41
  -3   3  10   48.51    2.35
   3   3 -10   44.75    2.40
   3   3 -10   49.85    2.34
  -3   3  10   47.61    2.56
   2  -3 -10   54.98    2.71
   2  -3 -10   54.87    2.74
  -2  -3  10   56.55    2.71
  -2  -3  10   56.12    2.87
  -2  -3  10   59.08    2.73
   2  -3 -10   56.33    2.71
  -2  -3  10   54.29    2.71
  -2  -3  10   59.56    2.70
   2  -3 -10   51.14    2.71
  -2   3  10   52.52    2.71
  -2   3  10   52.61    2.67
   2   3 -10   55.03    2.66
   2   3 -10   54.00    2.75
  -2   3  10   54.61    2.75
  -2   3  10   52.39    2.79
  -2   3  10   57.95    2.71
   2   3 -10   48.01    2.75
   2   3 -10   55.07    2.67
   2   3 -10   54.07    2.66
   2   3 -10   53.31    2.72
   2   3 -10   53.97    2.78
   2   3 -10   60.96    2.81
   2   3 -10   51.21    2.73
   2   3 -10   56.07    2.66
   2   3 -10   56.94    2.66
   1  -3 -10   16.50    0.90
  -1  -3  10   16.18    0.86
  -1  -3  10   16.21    0.85
  -1  -3  10   15.89    0.83
   1  -3 -10   15.72    0.84
   1  -3 -10   15.39    0.86
  -1  -3  10   16.20    0.83
  -1  -3  10   15.61    0.89
   1  -3 -10   15.82    0.84
  -1  -3  10   16.56    0.88
   1  -3 -10   14.85    0.90
   1  -3 -10   14.80    0.84
  -1   3  10   13.89    0.94
  -1   3  10   14.22    0.80
  -1   3  10   14.99    0.84
   1   3 -10   14.74    0.91
   1   3 -10   17.87    1.02
   1   3 -10   16.29    0.80
   1   3 -10   15.77    0.81
   1   3 -10   14.84    0.80
  -1   3  10   15.07    0.81
  -1   3  10   16.22    0.84
   1   3 -10   15.62    0.80
  -1   3  10   14.97    0.88
   1   3 -10   16.36    0.80
   0  -3  10   11.39    0.65
   0  -3 -10   10.05    0.57
   0  -3 -10    9.30    0.57
   0  -3  10   10.50    0.59
   0  -3 -10    9.21    0.58
   0  -3  10    9.62    0.59
   0  -3  10   10.24    0.58
   0  -3 -10    9.19    0.63
   0  -3  10   10.31    0.57
   0  -3  10    9.63    0.64
   0  -3 -10   10.28    0.64
   0  -3 -10   10.11    0.60
   0   3  10    9.59    0.65
   0   3 -10    9.55    0.53
   0   3 -10   10.21    0.53
   0   3  10   10.36    0.63
   0   3 -10    9.27    0.56
   0   3  10   10.19    0.57
   0   3  10    9.85    0.70
   0   3  10   10.00    0.58
   0   3 -10   10.59    0.70
   0   3 -10   10.39    0.53
   0   3 -10    9.94    0.54
   0   3 -10   10.16    0.55
   0   3  10   10.02    0.54
   0   3  10   10.00    0.55
   0   3 -10    9.60    0.63
   0   3 -10   10.09    0.64
   0   3 -10    9.89    0.65
  -1  -3 -10   19.81    1.06
  -1  -3 -10   21.08    1.16
  -1  -3 -10   20.19    1.04
   1  -3  10   19.63    1.04
  -1  -3 -10   20.25    1.03
   1  -3  10   19.14    1.03
   1  -3  10   20.14    1.06
   1  -3  10   19.48    1.09
  -1  -3 -10   19.18    1.04
   1  -3  10   20.40    1.11
   1  -3  10   19.72    1.03
  -1  -3 -10   19.33    1.10
   1   3  10   19.86    1.10
  -1   3 -10   19.44    1.04
  -1   3 -10   20.04    1.00
  -1   3 -10   23.41    1.21
   1   3  10   19.71    1.01
  -1   3 -10   20.89    1.13
  -1   3 -10   17.96    0.99
  -1   3 -10   20.51    1.18
  -1   3 -10   19.78    1.01
   1   3  10   18.65    1.02
   1   3  10   20.43    1.04
   1   3  10   18.09    1.16
   1   3  10   20.14    1.05
   1   3  10   19.21    1.02
  -1   3 -10   19.97    1.00
  -1   3 -10   19.62    1.00
   1   3  10   20.88    1.23
   2  -3  10    1.67    0.17
  -2  -3 -10    1.56    0.18
   2  -3  10    1.64    0.20
  -2  -3 -10    1.64    0.17
  -2  -3 -10    1.64    0.22
  -2  -3 -10    1.65    0.20
  -2  -3 -10    1.63    0.17
   2  -3  10    1.20    0.22
   2  -3  10    1.64    0.19
   2  -3  10    1.46    0.21
   2   3  10    1.49    0.20
   2   3  10    1.45    0.18
  -2   3 -10    1.26    0.12
  -2   3 -10    1.48    0.19
  -2   3 -10    1.32    0.12
   2   3  10    1.53    0.17
   2   3  10    1.49    0.16
  -2   3 -10    1.45    0.14
  -2   3 -10    1.66    0.18
  -2   3 -10    1.73    0.23
   2   3  10    1.64    0.15
   2   3  10    1.49    0.16
   2   3  10    1.61    0.24
  -3  -3 -10    7.30    0.47
  -3  -3 -10    7.40    0.44
   3  -3  10    7.14    0.45
   3  -3  10    6.81    0.43
  -3  -3 -10    7.31    0.50
  -3  -3 -10    8.15    0.48
   3  -3  10    6.78    0.46
   3  -3  10    6.70    0.43
  -3  -3 -10    7.33    0.46
   3   3  10    7.07    0.51
  -3   3 -10    7.47    0.48
   3   3  10    7.36    0.44
  -3   3 -10    7.59    0.42
   3   3  10    8.10    0.46
   3   3  10    7.56    0.49
  -3   3 -10    7.90    0.52
   3   3  10    7.46    0.46
   4  -3  10    8.49    0.50
   4  -3  10    7.86    0.46
  -4  -3 -10    6.72    0.50
   4  -3  10    7.62    0.48
   4  -3  10    7.61    0.46
  -4  -3 -10    8.47    0.48
  -4  -3 -10    8.06    0.46
   4  -3  10    7.39    0.52
  -4  -3 -10    8.36    0.49
   4   3  10    7.75    0.50
   4   3  10    8.01    0.45
   4   3  10    8.08    0.47
   4   3  10    8.45    0.47
  -4   3 -10    8.28    0.43
   4   3  10    8.40    0.44
  -4   3 -10    8.25    0.51
   4   3  10    7.95    0.45
  -5  -3 -10    2.21    0.19
   5  -3  10    2.45    0.18
  -5  -3 -10    2.80    0.21
  -5  -3 -10    2.56    0.21
  -5  -3 -10    2.52    0.29
   5  -3  10    2.20    0.19
  -5  -3 -10    2.53    0.19
   5   3  10    2.55    0.17
   5   3  10    2.49    0.19
  -5   3 -10    2.47    0.21
   5   3  10    2.55    0.19
  -5   3 -10    2.77    0.19
   5   3  10    2.71    0.28
  -6  -3 -10    0.35    0.09
  -6  -3 -10    0.29    0.07
  -6  -3 -10    0.34    0.08
   6   3  10    0.34    0.06
   6   3  10    0.25    0.06
  -6   3 -10    0.26    0.06
  -6   3 -10    0.32    0.08
   6   3  10    0.37    0.06
   6   3  10    0.27    0.07
  -7  -3 -10    1.28    0.09
   7   3  10    1.07    0.07
  -7  -4  10    0.84    0.10
   7   4 -10    0.82    0.08
   7   4 -10    1.06    0.08
   7   4 -10    0.83    0.08
   7   4 -10    0.73    0.13
  -7   4  10    1.04    0.09
  -7   4  10    1.06    0.09
   7   4 -10    0.99    0.09
  -6  -4  10    3.26    0.25
  -6  -4  10    3.42    0.24
  -6  -4  10    3.34    0.36
  -6  -4  10    4.14    0.28
   6  -4 -10    4.02    0.29
   6  -4 -10    3.68    0.23
  -6   4  10    3.72    0.21
  -6   4  10    4.14    0.28
   6   4 -10    3.84    0.25
  -6   4  10    4.29    0.28
  -5  -4  10    1.53    0.20
   5  -4 -10    1.37    0.15
   5  -4 -10    1.67    0.16
   5  -4 -10    1.50    0.17
  -5  -4  10    1.37    0.16
   5  -4 -10    1.67    0.15
   5   4 -10    1.49    0.16
   5   4 -10    1.86    0.17
  -5   4  10    1.31    0.13
  -5   4  10    1.63    0.14
   5   4 -10    1.45    0.15
   5   4 -10    1.42    0.13
  -5   4  10    1.57    0.14
   5   4 -10    1.44    0.12
   5   4 -10    1.34    0.12
   5   4 -10    1.78    0.17
  -4  -4  10    0.82    0.13
   4  -4 -10    0.81    0.14
   4  -4 -10    0.90    0.13
  -4  -4  10    0.89    0.12
   4  -4 -10    0.85    0.17
   4  -4 -10    0.73    0.15
  -4  -4  10    1.00    0.15
   4  -4 -10    0.90    0.14
  -4  -4  10    0.73    0.13
   4   4 -10    0.88    0.11
   4   4 -10    0.78    0.10
   4   4 -10    0.85    0.14
   4   4 -10    0.88    0.10
  -4   4  10    0.86    0.11
   4   4 -10    0.82    0.12
  -4   4  10    0.91    0.12
   4   4 -10    0.89    0.10
  -4   4  10    0.90    0.12
   4   4 -10    0.91    0.11
  -4   4  10    0.92    0.18
  -3  -4  10    9.93    0.57
   3  -4 -10    9.11    0.61
  -3  -4  10    9.55    0.60
   3  -4 -10    9.71    0.58
  -3  -4  10   10.11    0.54
  -3  -4  10    8.27    0.54
   3  -4 -10    9.53    0.55
   3  -4 -10    9.47    0.54
   3  -4 -10    9.59    0.55
  -3   4  10    8.95    0.52
   3   4 -10    9.21    0.56
  -3   4  10    9.64    0.54
   3   4 -10    9.42    0.51
   3   4 -10    9.39    0.51
   3   4 -10    9.89    0.51
  -3   4  10    9.08    0.55
  -3   4  10    9.57    0.52
  -3   4  10    9.62    0.52
  -3   4  10    9.30    0.66
   3   4 -10    9.64    0.51
   3   4 -10    9.59    0.51
   2  -4 -10    0.01    0.05
   2  -4 -10    0.04    0.06
   2  -4 -10    0.03    0.05
   2  -4 -10    0.09    0.07
  -2  -4  10    0.06    0.05
  -2  -4  10    0.04    0.05
   2  -4 -10    0.04    0.06
  -2  -4  10    0.07    0.06
  -2  -4  10    0.01    0.04
  -2  -4  10    0.05    0.06
  -2   4  10   -0.02    0.05
  -2   4  10    0.01    0.07
  -2   4  10    0.03    0.07
   2   4 -10    0.02    0.06
  -2   4  10    0.00    0.04
   2   4 -10    0.09    0.08
   2   4 -10    0.01    0.05
   2   4 -10    0.05    0.06
  -2   4  10    0.03    0.09
  -2   4  10    0.11    0.08
   2   4 -10    0.02    0.05
   2   4 -10    0.00    0.05
  -2   4  10   -0.03    0.04
   1  -4 -10    2.93    0.32
  -1  -4  10    2.40    0.22
  -1  -4  10    3.13    0.23
   1  -4 -10    3.04    0.23
   1  -4 -10    2.80    0.24
  -1  -4  10    3.07    0.23
   1  -4 -10    3.18    0.23
   1   4 -10    2.74    0.23
   1   4 -10    2.50    0.23
  -1   4  10    3.15    0.29
  -1   4  10    2.61    0.23
  -1   4  10    2.86    0.19
  -1   4  10    2.70    0.40
   1   4 -10    2.59    0.23
  -1   4  10    2.80    0.19
  -1   4  10    2.76    0.19
   1   4 -10    3.12    0.24
   1   4 -10    3.01    0.31
   1   4 -10    2.79    0.23
  -1   4  10    2.75    0.22
   0  -4 -10    3.73    0.28
   0  -4  10    3.89    0.28
   0  -4 -10    3.74    0.32
   0  -4  10    4.28    0.28
   0  -4  10    3.76    0.31
   0  -4 -10    4.19    0.28
   0  -4  10    4.15    0.27
   0  -4 -10    3.93    0.27
   0   4  10    3.83    0.38
   0   4  10    3.70    0.26
   0   4  10    3.88    0.25
   0   4 -10    3.54    0.26
   0   4  10    3.92    0.29
   0   4 -10    4.27    0.27
   0   4 -10    3.57    0.28
   0   4 -10    3.65    0.25
   0   4 -10    3.69    0.24
   0   4 -10    4.25    0.25
   0   4  10    4.70    0.35
   0   4 -10    4.23    0.37
   0   4  10    3.64    0.27
   0   4 -10    4.31    0.25
  -1  -4 -10   48.62    2.34
   1  -4  10   47.86    2.35
   1  -4  10   46.86    2.36
   1  -4  10   45.34    2.40
  -1  -4 -10   49.63    2.35
   1  -4  10   48.58    2.34
   1  -4  10   47.56    2.34
  -1  -4 -10   48.25    2.35
  -1  -4 -10   49.34    2.38
   1   4  10   44.64    2.34
  -1   4 -10   47.34    2.34
   1   4  10   45.58    2.33
   1   4  10   47.38    2.31
  -1   4 -10   46.39    2.31
  -1   4 -10   49.22    2.31
   1   4  10   49.51    2.40
  -1   4 -10   50.91    2.44
   1   4  10   46.64    2.47
   1   4  10   45.61    2.32
  -1   4 -10   47.86    2.30
  -1   4 -10   45.98    2.30
  -1   4 -10   47.75    2.31
   2  -4  10    7.06    0.41
  -2  -4 -10    7.25    0.42
   2  -4  10    7.17    0.44
   2  -4  10    7.03    0.42
  -2  -4 -10    7.69    0.42
  -2  -4 -10    6.78    0.41
   2  -4  10    7.28    0.42
  -2  -4 -10    7.67    0.45
   2  -4  10    6.78    0.47
  -2   4 -10    6.74    0.42
  -2   4 -10    7.03    0.38
   2   4  10    6.87    0.40
  -2   4 -10    7.17    0.38
  -2   4 -10    5.83    0.37
   2   4  10    7.04    0.39
  -2   4 -10    7.48    0.39
  -2   4 -10    7.69    0.50
  -2   4 -10    7.11    0.39
   2   4  10    6.76    0.42
   2   4  10    6.73    0.41
   2   4  10    6.78    0.45
   2   4  10    6.89    0.48
   3  -4  10    0.16    0.09
   3  -4  10    0.09    0.06
  -3  -4 -10    0.18    0.07
  -3  -4 -10    0.11    0.04
   3  -4  10    0.12    0.08
  -3  -4 -10    0.11    0.06
  -3  -4 -10    0.10    0.07
   3  -4  10    0.14    0.06
   3  -4  10    0.16    0.06
  -3  -4 -10    0.15    0.06
  -3   4 -10    0.05    0.05
  -3   4 -10    0.15    0.08
   3   4  10    0.14    0.06
   3   4  10    0.13    0.05
   3   4  10    0.17    0.08
  -3   4 -10    0.10    0.05
   3   4  10    0.15    0.07
   3   4  10    0.10    0.06
  -3   4 -10    0.13    0.05
   3   4  10    0.14    0.06
  -3   4 -10    0.04    0.06
   3   4  10    0.14    0.05
  -3   4 -10    0.14    0.06
   4  -4  10    0.10    0.06
   4  -4  10    0.11    0.07
  -4  -4 -10    0.10    0.07
   4  -4  10    0.13    0.05
  -4  -4 -10    0.18    0.09
  -4  -4 -10    0.15    0.05
   4   4  10    0.14    0.06
   4   4  10    0.17    0.05
  -4   4 -10    0.14    0.06
  -4   4 -10    0.11    0.06
   4   4  10    0.20    0.07
   4   4  10    0.13    0.06
   4   4  10    0.10    0.05
   4   4  10    0.16    0.06
  -4   4 -10    0.11    0.05
   4   4  10    0.17    0.07
  -5  -4 -10    0.62    0.12
   5  -4  10    0.60    0.10
  -5  -4 -10    0.61    0.08
   5   4  10    0.70    0.10
   5   4  10    0.61    0.07
  -5   4 -10    0.46    0.06
  -5   4 -10    0.65    0.07
   5   4  10    0.62    0.08
   5  -5 -10    1.45    0.11
   5   5 -10    1.48    0.10
   5   5 -10    1.14    0.09
  -5   5  10    1.41    0.09
   5   5 -10    1.39    0.10
   5   5 -10    1.39    0.11
  -5   5  10    1.36    0.09
   4  -5 -10    4.05    0.27
   4   5 -10    4.84    0.26
  -4   5  10    4.68    0.25
  -4   5  10    4.55    0.25
   4   5 -10    4.88    0.25
   4   5 -10    4.62    0.25
  -3  -5  10    0.56    0.10
   3  -5 -10    0.54    0.09
   3  -5 -10    0.44    0.15
   3  -5 -10    0.45    0.10
   3  -5 -10    0.62    0.10
   3   5 -10    0.71    0.09
  -3   5  10    0.62    0.07
  -3   5  10    0.68    0.14
  -3   5  10    0.65    0.09
   3   5 -10    0.67    0.08
   3   5 -10    0.67    0.08
   3   5 -10    0.67    0.09
  -3   5  10    0.69    0.07
   3   5 -10    0.71    0.12
   3   5 -10    0.66    0.08
   2  -5 -10    0.65    0.11
  -2  -5  10    0.86    0.12
   2  -5 -10    0.77    0.12
   2  -5 -10    1.02    0.16
  -2  -5  10    0.83    0.13
  -2  -5  10    0.67    0.09
   2  -5 -10    0.61    0.15
   2   5 -10    0.72    0.09
  -2   5  10    0.81    0.11
   2   5 -10    0.74    0.09
   2   5 -10    0.72    0.11
   2   5 -10    0.81    0.08
  -2   5  10    0.81    0.07
   2   5 -10    0.84    0.09
  -2   5  10    0.82    0.15
  -2   5  10    0.85    0.07
   2   5 -10    0.88    0.09
  -2   5  10    0.85    0.12
   2   5 -10    0.72    0.08
  -2   5  10    0.85    0.09
   1  -5 -10    1.64    0.15
  -1  -5  10    1.32    0.14
  -1  -5  10    1.29    0.13
   1  -5 -10    1.22    0.15
   1  -5 -10    1.26    0.14
  -1  -5  10    1.35    0.16
  -1   5  10    1.49    0.13
   1   5 -10    1.56    0.12
  -1   5  10    1.25    0.14
  -1   5  10    1.52    0.19
  -1   5  10    1.71    0.15
   1   5 -10    1.56    0.18
   1   5 -10    1.51    0.12
   1   5 -10    1.66    0.12
   1   5 -10    1.72    0.12
  -1   5  10    1.63    0.15
   1   5 -10    1.67    0.12
   0  -5  10    0.51    0.09
   0  -5 -10    0.65    0.11
   0   5  10    0.49    0.16
   0   5 -10    0.70    0.08
   0   5 -10    0.65    0.13
   0   5 -10    0.72    0.08
   0   5  10    0.68    0.10
   0   5  10    0.70    0.10
   0   5  10    0.65    0.10
   0   5 -10    0.74    0.09
   0   5 -10    0.74    0.08
   0   5  10    0.69    0.11
   0   5 -10    0.74    0.09
   1  -5  10   10.11    0.66
  -1  -5 -10    9.45    0.66
   1  -5  10   12.16    0.59
  -1  -5 -10   12.36    0.65
  -1  -5 -10   10.13    0.59
   1  -5  10   12.17    0.60
  -1  -5 -10   10.02    0.59
   1  -5  10   12.02    0.60
   1   5  10   10.54    0.58
  -1   5 -10   11.96    0.57
   1   5  10   11.42    0.64
  -1   5 -10   11.69    0.57
   1   5  10   11.12    0.58
  -1   5 -10   11.93    0.57
   1   5  10   12.53    0.57
  -1   5 -10   11.77    0.57
  -1   5 -10    9.72    0.58
  -2  -5 -10    2.64    0.19
  -2  -5 -10    2.84    0.19
   2  -5  10    3.00    0.20
   2  -5  10    2.74    0.19
   2   5  10    2.93    0.18
  -2   5 -10    2.69    0.17
   2   5  10    2.86    0.19
  -2   5 -10    3.27    0.23
  -2   5 -10    3.05    0.17
  -2   5 -10    3.08    0.18
  -2   5 -10    2.70    0.17
   2   5  10    3.02    0.19
   2   5  10    3.04    0.20
   2   5  10    3.14    0.17
  -3  -5 -10    4.26    0.27
   3  -5  10    3.32    0.23
   3  -5  10    4.51    0.24
  -3   5 -10    3.51    0.22
   3   5  10    4.20    0.23
   3   5  10    4.54    0.22
   3   5  10    4.44    0.24
  -3   5 -10    4.18    0.22
   3   5  10    3.60    0.22
   4   5  10    0.01    0.03
   4   5  10    0.01    0.02
   9   0 -11    2.23    0.16
   8   0 -11    1.39    0.16
  -8   0  11    1.47    0.18
  -7   0  11    8.97    0.57
  -7   0  11    9.63    0.53
  -7   0  11    9.28    0.56
  -6   0  11    0.44    0.10
  -6   0  11    0.52    0.11
  -6   0  11    0.48    0.11
  -6   0  11    0.50    0.10
  -5   0  11    4.59    0.32
  -5   0  11    5.39    0.51
   5   0 -11    5.53    0.39
  -5   0  11    4.64    0.33
  -5   0  11    4.68    0.39
  -5   0  11    4.91    0.35
  -5   0  11    5.14    0.39
   5   0 -11    4.84    0.30
  -5   0  11    4.57    0.32
   4   0 -11    7.57    0.47
   4   0 -11    6.53    0.37
  -4   0  11    6.61    0.44
  -4   0  11    6.21    0.40
   4   0 -11    6.39    0.42
  -4   0  11    6.32    0.46
  -4   0  11    5.97    0.41
  -4   0  11    5.92    0.39
  -4   0  11    6.85    0.43
   4   0 -11    6.18    0.40
  -4   0  11    6.20    0.39
  -3   0  11    0.44    0.09
  -3   0  11    0.42    0.10
  -3   0  11    0.45    0.11
   3   0 -11    0.57    0.11
  -3   0  11    0.46    0.13
  -3   0  11    0.42    0.09
  -3   0  11    0.42    0.09
   3   0 -11    0.34    0.09
  -3   0  11    0.80    0.48
  -2   0  11  131.67    6.33
   2   0 -11  112.38    5.88
  -2   0  11  102.77    5.92
  -2   0  11  122.69    5.89
  -2   0  11  122.98    5.91
  -2   0  11  139.77    5.95
  -2   0  11  121.90    5.92
  -2   0  11  128.75    5.98
  -2   0  11  123.92    5.90
  -1   0  11   -0.03    0.06
   1   0 -11    0.03    0.04
   1   0 -11    0.01    0.21
   1   0 -11    0.11    0.06
  -1   0  11    0.09    0.04
   1   0 -11   -0.05    0.11
  -1   0  11    0.54    0.34
   0   0  11   24.09    1.27
   0   0 -11   24.73    1.63
   0   0 -11   25.16    1.27
   0   0  11   24.09    1.27
   0   0 -11   25.17    1.29
   0   0  11   25.93    1.67
   0   0 -11   27.37    1.31
   0   0 -11   25.79    1.31
   0   0 -11   24.24    1.26
   0   0  11   24.39    1.29
   0   0  11   26.15    1.47
   0   0 -11   26.77    1.29
   0   0 -11   24.55    1.26
   0   0  11   23.24    1.26
   0   0  11   25.64    1.34
   0   0  11   26.69    1.32
   0   0 -11   25.80    1.34
  -1   0 -11   22.97    1.12
  -1   0 -11   21.70    1.52
  -1   0 -11   20.39    1.12
  -1   0 -11   20.85    1.09
   1   0  11   20.41    1.07
  -1   0 -11   22.67    1.11
  -1   0 -11   20.54    1.07
   1   0  11   22.00    1.19
  -1   0 -11   21.43    1.08
   1   0  11   20.98    1.50
  -1   0 -11   20.67    1.06
   1   0  11   18.40    1.06
  -1   0 -11   21.34    1.14
  -2   0 -11    5.11    0.31
  -2   0 -11    4.76    0.35
  -2   0 -11    5.41    0.36
  -2   0 -11    5.70    0.35
  -2   0 -11    5.38    0.38
  -2   0 -11    4.98    0.34
  -2   0 -11    4.94    0.36
   2   0  11    5.07    0.41
  -2   0 -11    5.24    0.32
   2   0  11    4.68    0.30
  -3   0 -11   14.04    0.75
  -3   0 -11   14.24    0.76
  -3   0 -11   15.10    0.81
  -3   0 -11   16.11    0.82
  -3   0 -11   14.19    0.78
   3   0  11   11.93    0.90
  -3   0 -11   14.25    0.76
  -4   0 -11   30.05    1.50
  -4   0 -11   28.62    1.47
  -4   0 -11   27.34    1.41
  -4   0 -11   27.00    1.40
  -5   0 -11    0.12    0.09
  -5   0 -11    0.19    0.05
  -6   0 -11    0.58    0.11
  -7   0 -11    0.17    0.06
   7   0  11    0.30    0.07
  -9  -1  11   44.98    2.22
   9   1 -11   45.79    2.22
   8  -1 -11   12.16    0.78
  -8  -1  11   13.66    0.80
  -8  -1  11   15.18    0.77
  -8  -1  11   14.91    0.76
  -8  -1  11   14.36    0.79
   8   1 -11   15.12    0.84
   8   1 -11   15.57    0.80
  -7  -1  11    8.14    0.46
  -7  -1  11    8.13    0.49
  -7  -1  11    7.58    0.45
  -7  -1  11    7.29    0.53
   7   1 -11    7.74    0.48
   7   1 -11    6.63    0.44
   7   1 -11    6.53    0.39
  -6  -1  11    1.37    0.17
  -6  -1  11    1.29    0.26
  -6  -1  11    1.39    0.16
  -6  -1  11    1.30    0.20
  -6  -1  11    1.29    0.15
   6   1 -11    1.21    0.13
   6   1 -11    1.22    0.16
  -5  -1  11   25.04    1.28
  -5  -1  11   24.94    1.29
   5  -1 -11   23.31    1.27
  -5  -1  11   24.61    1.26
   5  -1 -11   23.12    1.21
  -5  -1  11   25.44    1.27
   5  -1 -11   23.86    1.29
  -5  -1  11   25.99    1.42
  -5  -1  11   24.47    1.26
  -5  -1  11   23.42    1.29
   5   1 -11   23.78    1.29
   5   1 -11   25.54    1.30
   5   1 -11   23.60    1.30
  -5   1  11   25.09    1.33
   5   1 -11   23.32    1.18
   5   1 -11   25.65    1.22
  -5   1  11   21.02    1.20
   4  -1 -11    9.44    0.55
   4  -1 -11    8.27    0.49
  -4  -1  11    8.88    0.55
  -4  -1  11    9.35    0.60
  -4  -1  11    9.54    0.62
  -4  -1  11    9.05    0.52
  -4  -1  11    8.17    0.54
   4  -1 -11    8.56    0.50
  -4  -1  11    9.24    0.52
   4   1 -11    8.53    0.47
  -4   1  11    8.98    0.57
  -4   1  11    7.88    0.48
   4   1 -11    9.93    0.52
   4   1 -11    8.64    0.56
   4   1 -11   10.06    0.52
   4   1 -11    8.72    0.54
   4   1 -11    8.74    0.49
   3  -1 -11    4.50    0.32
  -3  -1  11    4.94    0.37
   3  -1 -11    4.36    0.32
   3  -1 -11    4.49    0.30
   3  -1 -11    4.72    0.37
   3  -1 -11    4.39    0.35
  -3  -1  11    4.77    0.32
   3  -1 -11    4.60    0.33
   3  -1 -11    4.50    0.30
  -3  -1  11    4.88    0.31
  -3  -1  11    4.68    0.33
  -3  -1  11    4.78    0.31
  -3  -1  11    4.76    0.34
   3   1 -11    4.96    0.29
  -3   1  11    4.97    0.37
   3   1 -11    4.59    0.34
   3   1 -11    4.67    0.28
   3   1 -11    5.05    0.33
  -3   1  11    5.07    0.36
  -3   1  11    4.13    0.28
   3   1 -11    4.92    0.33
   3   1 -11    4.88    0.29
  -2  -1  11    5.58    0.65
  -2  -1  11    4.29    0.33
   2  -1 -11    4.37    0.29
  -2  -1  11    4.74    0.31
  -2  -1  11    4.75    0.36
   2  -1 -11    4.66    0.33
  -2  -1  11    4.78    0.31
   2  -1 -11    3.96    0.62
   2  -1 -11    4.60    0.31
   2  -1 -11    4.80    0.31
   2  -1 -11    4.34    0.33
   2  -1 -11    4.71    0.33
   2  -1 -11    4.66    0.36
  -2  -1  11    4.61    0.32
  -2  -1  11    4.71    0.33
   2   1 -11    4.02    0.30
  -2   1  11    4.69    0.37
   2   1 -11    4.98    0.29
   2   1 -11    4.75    0.34
   2   1 -11    4.68    0.29
  -2   1  11    4.07    0.30
   2   1 -11    5.04    0.29
   2   1 -11    5.06    0.34
  -2   1  11    5.05    0.37
  -1  -1  11    2.65    0.25
   1  -1 -11    2.47    0.21
  -1  -1  11    2.95    0.27
  -1  -1  11    3.36    0.53
  -1  -1  11    2.61    0.22
   1  -1 -11    2.80    0.26
   1  -1 -11    2.85    0.24
   1  -1 -11    2.68    0.21
   1  -1 -11    2.79    0.23
  -1  -1  11    2.73    0.21
  -1  -1  11    2.64    0.23
   1  -1 -11    2.68    0.20
   1   1 -11    2.67    0.19
   1   1 -11    2.63    0.22
  -1   1  11    2.84    0.27
  -1   1  11    2.15    0.23
   1   1 -11    2.83    0.24
   1   1 -11    2.71    0.20
   1   1 -11    2.78    0.19
  -1   1  11    2.57    0.24
   0  -1  11   39.58    2.01
   0  -1 -11   40.99    2.04
   0  -1  11   40.19    2.09
   0  -1 -11   38.74    2.01
   0  -1 -11   41.50    2.08
   0  -1  11   40.18    2.00
   0  -1  11   41.19    2.07
   0  -1 -11   42.03    2.03
   0  -1 -11   41.16    2.04
   0  -1  11   39.75    2.03
   0  -1 -11   39.07    2.00
   0  -1 -11   40.54    2.46
   0  -1  11   40.72    2.49
   0  -1  11   45.03    2.10
   0   1 -11   41.32    2.01
   0   1 -11   36.56    2.41
   0   1 -11   39.56    2.05
   0   1  11   34.39    2.04
   0   1 -11   42.51    2.11
   0   1  11   45.39    2.04
   0   1  11   40.28    2.12
   0   1 -11   42.67    2.06
   1  -1  11   49.77    2.54
   1  -1  11   52.73    2.55
  -1  -1 -11   53.48    2.62
  -1  -1 -11   53.61    2.54
   1  -1  11   50.86    2.63
   1  -1  11   59.09    2.63
   1  -1  11   51.25    2.57
  -1  -1 -11   52.66    2.57
  -1  -1 -11   52.33    2.55
  -1  -1 -11   53.08    2.59
  -1  -1 -11   54.06    2.55
   1  -1  11   52.04    2.54
   1  -1  11   54.21    2.62
  -1   1 -11   52.94    2.56
  -1   1 -11   48.36    3.03
   1   1  11   52.59    2.69
   1   1  11   43.67    2.67
  -1   1 -11   42.57    2.57
  -1   1 -11   53.54    2.61
  -1   1 -11   56.24    2.60
   2  -1  11   11.85    0.70
  -2  -1 -11   11.83    0.65
  -2  -1 -11   11.92    0.64
  -2  -1 -11   11.51    0.65
   2  -1  11   11.17    0.64
  -2  -1 -11   11.72    0.71
   2  -1  11   11.08    0.66
  -2  -1 -11   12.29    0.68
   2  -1  11   11.16    0.63
   2  -1  11   11.43    0.64
   2  -1  11   11.62    0.72
  -2  -1 -11   11.59    0.69
  -2  -1 -11   11.58    0.67
   2   1  11   11.58    0.62
  -2   1 -11   11.91    0.66
  -2   1 -11   12.58    0.70
   2   1  11   11.99    0.78
   2   1  11   12.87    0.66
  -2   1 -11   12.48    0.71
  -3  -1 -11   18.82    1.03
  -3  -1 -11   18.32    0.98
  -3  -1 -11   17.83    0.99
  -3  -1 -11   19.45    1.03
   3  -1  11   17.94    0.96
  -3  -1 -11   18.32    1.04
  -3  -1 -11   18.14    1.00
  -3  -1 -11   18.76    0.98
  -3   1 -11   19.12    1.01
   3   1  11   19.71    0.99
   3   1  11   18.87    0.95
  -3   1 -11   18.62    1.05
   3   1  11   18.34    1.13
  -3   1 -11   20.52    1.06
  -4  -1 -11   27.26    1.41
  -4  -1 -11   26.67    1.48
  -4  -1 -11   28.42    1.41
   4  -1  11   26.79    1.37
  -4  -1 -11   28.23    1.40
  -4  -1 -11   28.33    1.47
  -4   1 -11   28.40    1.44
  -4   1 -11   28.37    1.46
   4   1  11   28.03    1.38
  -5  -1 -11    6.83    0.44
  -5  -1 -11    6.77    0.49
  -5  -1 -11    7.47    0.46
  -5  -1 -11    6.88    0.50
  -5  -1 -11    7.64    0.43
   5   1  11    7.96    0.42
  -5   1 -11    7.61    0.46
  -5   1 -11    7.80    0.48
  -6  -1 -11    3.75    0.28
  -6  -1 -11    3.94    0.25
   6   1  11    3.75    0.23
  -6   1 -11    3.87    0.28
   7   1  11    7.56    0.36
  -7   1 -11    6.09    0.39
  -9  -2  11   19.15    0.86
   9   2 -11   15.16    0.86
  -8  -2  11    5.03    0.42
  -8  -2  11    6.23    0.37
  -8  -2  11    6.54    0.45
  -8  -2  11    6.24    0.36
   8   2 -11    5.86    0.35
  -7  -2  11    7.49    0.48
  -7  -2  11    7.86    0.46
  -7  -2  11    7.87    0.46
  -7  -2  11    7.78    0.60
   7   2 -11    7.88    0.46
   7   2 -11    7.44    0.42
   7   2 -11    7.22    0.47
   7   2 -11    7.41    0.40
   7   2 -11    7.15    0.48
  -6  -2  11   13.28    0.73
  -6  -2  11   12.88    0.75
   6  -2 -11   12.44    0.67
  -6  -2  11   12.88    0.72
  -6  -2  11   12.63    0.80
  -6  -2  11   13.01    0.71
   6   2 -11   12.27    0.74
   6   2 -11   12.54    0.68
   6   2 -11   13.38    0.68
   6   2 -11   13.04    0.66
   6   2 -11   12.99    0.74
   5  -2 -11    6.98    0.41
  -5  -2  11    6.87    0.43
   5  -2 -11    6.53    0.40
  -5  -2  11    7.20    0.43
  -5  -2  11    6.93    0.44
  -5  -2  11    6.91    0.45
  -5  -2  11    6.65    0.49
   5   2 -11    6.60    0.37
   5   2 -11    6.87    0.46
   5   2 -11    6.84    0.38
   5   2 -11    6.92    0.39
   5   2 -11    6.92    0.38
   5   2 -11    6.03    0.37
  -5   2  11    5.93    0.51
  -4  -2  11   22.33    1.28
   4  -2 -11   23.41    1.23
  -4  -2  11   23.91    1.28
  -4  -2  11   24.17    1.26
  -4  -2  11   23.87    1.24
  -4  -2  11   24.79    1.25
   4  -2 -11   26.52    1.44
   4  -2 -11   22.34    1.28
   4  -2 -11   24.41    1.25
  -4  -2  11   22.29    1.31
   4  -2 -11   24.07    1.25
   4  -2 -11   23.19    1.27
  -4   2  11   27.14    1.40
   4   2 -11   23.74    1.32
   4   2 -11   23.41    1.29
   4   2 -11   23.43    1.20
   4   2 -11   27.69    1.35
   4   2 -11   24.69    1.21
  -4   2  11   22.95    1.34
   4   2 -11   24.93    1.21
   4   2 -11   23.54    1.20
   4   2 -11   23.44    1.19
  -3  -2  11   21.07    1.13
   3  -2 -11   21.33    1.11
  -3  -2  11   20.84    1.10
   3  -2 -11   20.85    1.14
  -3  -2  11   21.70    1.10
   3  -2 -11   21.62    1.11
  -3  -2  11   20.71    1.17
  -3  -2  11   23.23    1.15
   3  -2 -11   20.47    1.09
  -3  -2  11   20.94    1.12
   3  -2 -11   19.34    1.12
   3   2 -11   18.70    1.14
   3   2 -11   20.21    1.13
   3   2 -11   22.41    1.08
  -3   2  11   23.24    1.11
  -3   2  11   21.99    1.25
   3   2 -11   22.24    1.07
   3   2 -11   19.04    1.13
   3   2 -11   22.22    1.07
  -3   2  11   19.86    1.19
  -2  -2  11   13.90    0.80
  -2  -2  11   15.24    0.79
  -2  -2  11   14.92    0.80
   2  -2 -11   14.74    0.79
   2  -2 -11   13.59    0.81
   2  -2 -11   15.28    0.80
  -2  -2  11   15.07    0.79
  -2  -2  11   14.76    0.89
   2  -2 -11   14.78    0.82
   2  -2 -11   14.38    0.80
   2  -2 -11   14.46    0.87
  -2  -2  11   15.08    0.82
   2   2 -11   15.65    0.76
   2   2 -11   14.30    0.85
  -2   2  11   13.30    0.81
   2   2 -11   13.50    0.85
   2   2 -11   13.72    0.75
  -2   2  11   14.58    0.86
   2   2 -11   15.75    0.76
  -2   2  11   15.38    0.79
   2   2 -11   14.06    0.82
   2   2 -11   15.02    0.76
  -2   2  11   14.20    0.88
  -1  -2  11   10.58    0.65
   1  -2 -11   10.69    0.67
  -1  -2  11   11.04    0.61
   1  -2 -11   10.11    0.60
  -1  -2  11   10.80    0.62
   1  -2 -11   10.82    0.63
  -1  -2  11   11.10    0.60
  -1  -2  11   11.11    0.59
   1  -2 -11   10.64    0.59
   1  -2 -11   10.86    0.60
  -1  -2  11   10.04    0.62
   1  -2 -11   10.27    0.62
  -1   2  11   10.27    0.66
  -1   2  11   10.32    0.70
  -1   2  11   10.57    0.64
   1   2 -11   10.63    0.56
   1   2 -11   10.48    0.57
  -1   2  11   10.92    0.62
  -1   2  11   11.53    0.60
   1   2 -11    9.88    0.64
   1   2 -11   10.53    0.66
   1   2 -11   10.62    0.56
   1   2 -11   10.41    0.67
   0  -2 -11   27.99    1.48
   0  -2 -11   29.73    1.49
   0  -2  11   27.91    1.44
   0  -2  11   28.88    1.52
   0  -2 -11   28.40    1.52
   0  -2  11   29.54    1.45
   0  -2  11   29.00    1.48
   0  -2 -11   29.67    1.46
   0  -2  11   28.31    1.48
   0  -2 -11   27.70    1.44
   0  -2  11   28.38    1.46
   0  -2 -11   26.29    1.45
   0   2 -11   27.99    1.41
   0   2 -11   28.84    1.52
   0   2 -11   27.87    1.42
   0   2  11   27.85    1.58
   0   2  11   30.40    1.48
   0   2 -11   28.10    1.49
   0   2  11   29.78    1.45
   0   2 -11   31.85    1.57
   0   2 -11   28.23    1.41
   0   2 -11   27.34    1.40
   0   2 -11   29.62    1.52
   0   2  11   27.92    1.52
  -1  -2 -11   11.13    0.67
   1  -2  11   11.88    0.72
   1  -2  11   11.25    0.64
   1  -2  11   11.52    0.64
  -1  -2 -11   11.08    0.70
  -1  -2 -11   11.83    0.67
   1  -2  11   11.71    0.65
  -1  -2 -11   11.60    0.64
  -1  -2 -11   11.97    0.67
   1  -2  11   11.05    0.66
   1  -2  11   10.92    0.68
  -1  -2 -11   11.76    0.65
  -1  -2 -11   11.42    0.65
   1   2  11   12.16    0.81
  -1   2 -11   12.71    0.64
   1   2  11   11.50    0.66
  -1   2 -11   12.10    0.75
  -1   2 -11   11.25    0.61
  -1   2 -11   12.93    0.75
  -1   2 -11    9.39    0.67
   1   2  11   12.20    0.73
  -1   2 -11   11.57    0.69
   1   2  11   10.46    0.66
  -1   2 -11   12.87    0.66
  -2  -2 -11    0.93    0.15
  -2  -2 -11    1.18    0.16
   2  -2  11    1.22    0.15
  -2  -2 -11    0.99    0.17
   2  -2  11    1.22    0.22
   2  -2  11    1.31    0.25
  -2  -2 -11    1.21    0.15
   2  -2  11    1.29    0.17
   2  -2  11    1.24    0.15
  -2  -2 -11    1.28    0.15
   2  -2  11    1.24    0.16
  -2  -2 -11    1.40    0.20
  -2  -2 -11    1.24    0.17
   2   2  11    1.21    0.24
   2   2  11    1.37    0.17
   2   2  11    1.02    0.15
  -2   2 -11    1.37    0.18
  -2   2 -11    1.12    0.12
  -2   2 -11    1.39    0.19
   2   2  11    1.21    0.12
   2   2  11    0.97    0.11
  -2   2 -11    1.38    0.22
   3  -2  11    2.23    0.20
  -3  -2 -11    2.37    0.25
   3  -2  11    2.24    0.24
  -3  -2 -11    2.37    0.20
   3  -2  11    2.40    0.20
  -3  -2 -11    2.16    0.22
  -3  -2 -11    2.27    0.20
   3  -2  11    2.30    0.20
   3  -2  11    2.24    0.22
  -3  -2 -11    2.48    0.21
   3   2  11    2.39    0.18
   3   2  11    2.44    0.21
  -3   2 -11    2.50    0.27
  -3   2 -11    2.21    0.23
   3   2  11    2.58    0.22
   4  -2  11   12.02    0.74
  -4  -2 -11   13.92    0.73
  -4  -2 -11   12.60    0.76
  -4  -2 -11   12.96    0.79
  -4  -2 -11   13.91    0.72
   4  -2  11   13.14    0.71
   4  -2  11   12.78    0.75
  -4  -2 -11   13.47    0.72
   4   2  11   13.58    0.72
   4   2  11   13.90    0.69
  -4   2 -11   13.91    0.76
   4   2  11   12.60    0.74
   4   2  11   14.17    0.73
  -5  -2 -11   10.84    0.71
  -5  -2 -11   11.89    0.63
  -5  -2 -11   12.42    0.63
   5  -2  11   10.73    0.63
  -5  -2 -11   12.15    0.66
   5   2  11   12.37    0.60
  -5   2 -11    9.62    0.71
   5   2  11   12.00    0.66
  -6  -2 -11    1.40    0.13
  -6  -2 -11    1.16    0.14
  -6  -2 -11    1.21    0.12
   6   2  11    1.34    0.13
  -6   2 -11    1.67    0.20
   6   2  11    1.61    0.12
  -7  -2 -11    1.14    0.08
   7   2  11    0.90    0.07
  -8  -3  11    3.07    0.20
  -8  -3  11    3.37    0.19
   8   3 -11    2.64    0.18
  -8   3  11    3.40    0.19
   8   3 -11    2.62    0.16
  -8   3  11    2.89    0.17
  -8   3  11    2.91    0.17
  -7  -3  11    1.55    0.21
  -7  -3  11    1.51    0.16
  -7   3  11    1.17    0.17
   7   3 -11    1.40    0.10
  -7   3  11    1.20    0.17
   7   3 -11    1.42    0.20
  -6  -3  11    2.20    0.20
   6  -3 -11    2.06    0.17
  -6  -3  11    2.21    0.19
  -6  -3  11    2.06    0.25
   6  -3 -11    2.13    0.21
  -6  -3  11    2.03    0.19
   6   3 -11    2.01    0.15
   6   3 -11    2.23    0.20
   6   3 -11    2.06    0.15
   6   3 -11    2.11    0.16
   6   3 -11    1.93    0.19
   5  -3 -11    3.40    0.28
  -5  -3  11    3.82    0.27
   5  -3 -11    3.48    0.28
   5  -3 -11    3.54    0.27
  -5  -3  11    4.07    0.29
   5  -3 -11    3.91    0.28
  -5  -3  11    3.70    0.29
  -5  -3  11    3.61    0.27
   5   3 -11    3.55    0.29
  -5   3  11    3.70    0.34
   5   3 -11    3.46    0.23
   5   3 -11    3.84    0.24
   5   3 -11    3.40    0.23
   5   3 -11    3.46    0.27
   5   3 -11    3.58    0.23
   5   3 -11    3.53    0.23
   4  -3 -11    7.09    0.46
  -4  -3  11    7.56    0.46
   4  -3 -11    6.99    0.46
  -4  -3  11    8.48    0.57
  -4  -3  11    7.14    0.45
   4  -3 -11    7.48    0.58
  -4  -3  11    7.31    0.48
   4  -3 -11    7.18    0.45
  -4  -3  11    8.41    0.67
   4  -3 -11    7.75    0.54
   4   3 -11    8.08    0.52
   4   3 -11    7.63    0.43
   4   3 -11    7.87    0.51
   3  -3 -11   10.24    0.57
   3  -3 -11    9.84    0.58
  -3  -3  11   10.66    0.59
  -3  -3  11    9.93    0.64
  -3  -3  11   10.15    0.60
   3  -3 -11    9.55    0.65
  -3  -3  11   10.40    0.57
   3  -3 -11   10.15    0.58
   3  -3 -11    9.96    0.64
  -3  -3  11   10.88    0.58
   3   3 -11    9.67    0.60
   3   3 -11   10.25    0.54
  -3   3  11   10.56    0.58
   3   3 -11    9.84    0.53
  -3   3  11    8.30    0.53
   3   3 -11    9.76    0.54
   3   3 -11    9.92    0.53
   3   3 -11    8.30    0.60
  -3   3  11    9.85    0.72
   3   3 -11    9.72    0.58
   3   3 -11   10.19    0.53
  -2  -3  11    5.89    0.44
   2  -3 -11    5.87    0.41
   2  -3 -11    5.95    0.48
  -2  -3  11    6.08    0.39
   2  -3 -11    5.68    0.39
   2  -3 -11    5.95    0.38
   2  -3 -11    5.47    0.44
  -2  -3  11    6.35    0.38
  -2  -3  11    6.25    0.40
   2   3 -11    6.09    0.35
   2   3 -11    5.32    0.43
   2   3 -11    5.81    0.34
   2   3 -11    5.68    0.41
  -2   3  11    5.90    0.38
   2   3 -11    6.22    0.34
   2   3 -11    5.15    0.45
  -2   3  11    6.06    0.41
  -2   3  11    5.18    0.34
   2   3 -11    6.17    0.34
   2   3 -11    6.02    0.34
  -1  -3  11   22.84    1.13
   1  -3 -11   21.20    1.22
   1  -3 -11   22.87    1.14
  -1  -3  11   20.60    1.19
  -1  -3  11   23.26    1.14
   1  -3 -11   23.39    1.16
  -1  -3  11   22.62    1.15
   1  -3 -11   23.18    1.18
  -1  -3  11   23.05    1.17
   1  -3 -11   20.90    1.14
   1   3 -11   22.61    1.10
  -1   3  11   22.16    1.19
   1   3 -11   21.06    1.21
   1   3 -11   21.04    1.09
   1   3 -11   19.81    1.16
   1   3 -11   22.32    1.10
  -1   3  11   19.83    1.10
   1   3 -11   22.14    1.11
  -1   3  11   22.87    1.14
  -1   3  11   20.33    1.14
   1   3 -11   22.45    1.10
   0  -3 -11    4.76    0.33
   0  -3 -11    4.83    0.35
   0  -3 -11    4.83    0.32
   0  -3  11    5.44    0.43
   0  -3 -11    4.85    0.38
   0  -3  11    4.70    0.38
   0  -3  11    4.98    0.33
   0  -3  11    4.96    0.34
   0  -3  11    4.88    0.35
   0   3 -11    5.07    0.40
   0   3 -11    4.97    0.30
   0   3 -11    5.10    0.29
   0   3  11    4.41    0.30
   0   3  11    4.83    0.29
   0   3  11    4.91    0.33
   0   3 -11    5.25    0.29
   0   3  11    5.09    0.38
   0   3 -11    4.33    0.28
   0   3 -11    5.17    0.31
   0   3  11    4.59    0.33
  -1  -3 -11   15.95    0.87
  -1  -3 -11   16.58    0.87
   1  -3  11   16.88    0.87
  -1  -3 -11   15.40    0.93
   1  -3  11   16.86    0.87
  -1  -3 -11   17.33    0.91
   1  -3  11   16.22    0.86
   1  -3  11   16.15    0.93
  -1  -3 -11   16.39    0.86
   1  -3  11   15.76    0.89
  -1   3 -11   17.55    0.96
  -1   3 -11   16.04    0.82
  -1   3 -11   15.86    0.83
   1   3  11   14.66    0.83
  -1   3 -11   16.68    0.84
   1   3  11   15.95    0.83
  -1   3 -11   16.39    0.82
   1   3  11   15.83    0.87
   1   3  11   16.62    0.92
   1   3  11   15.91    0.86
   2  -3  11   36.69    1.83
   2  -3  11   32.90    1.83
  -2  -3 -11   37.24    1.83
  -2  -3 -11   39.94    1.99
  -2  -3 -11   36.75    1.82
  -2  -3 -11   37.47    1.86
   2  -3  11   35.83    1.85
  -2  -3 -11   38.96    1.87
   2  -3  11   35.88    1.82
   2   3  11   37.27    1.84
  -2   3 -11   35.00    1.80
   2   3  11   33.64    1.84
   2   3  11   41.44    2.17
  -2   3 -11   34.05    1.86
   2   3  11   36.87    1.89
  -3  -3 -11    8.60    0.51
   3  -3  11    8.12    0.48
  -3  -3 -11    8.21    0.54
  -3  -3 -11    8.74    0.49
   3  -3  11    7.73    0.53
  -3  -3 -11    8.48    0.48
   3  -3  11    8.10    0.50
  -3  -3 -11    8.65    0.48
   3  -3  11    8.00    0.50
   3  -3  11    8.21    0.48
   3   3  11    8.21    0.47
  -3   3 -11    8.84    0.55
  -3   3 -11    8.27    0.44
   3   3  11    8.31    0.49
   3   3  11    8.44    0.47
   3   3  11    8.28    0.54
   3   3  11    7.92    0.45
   3   3  11    8.38    0.45
   3   3  11    8.32    0.52
  -3   3 -11    7.54    0.51
   4  -3  11    2.47    0.20
  -4  -3 -11    2.63    0.20
   4  -3  11    2.58    0.19
  -4  -3 -11    2.93    0.26
  -4  -3 -11    2.55    0.20
   4  -3  11    2.64    0.20
   4  -3  11    2.27    0.21
  -4  -3 -11    2.84    0.21
  -4  -3 -11    2.58    0.25
   4   3  11    2.20    0.20
   4   3  11    2.66    0.18
  -4   3 -11    2.57    0.22
   4   3  11    2.71    0.23
   4   3  11    2.61    0.20
  -4   3 -11    2.71    0.17
   4   3  11    2.52    0.20
   5  -3  11    0.61    0.08
  -5  -3 -11    0.59    0.11
  -5  -3 -11    0.65    0.10
  -5  -3 -11    0.65    0.10
  -5  -3 -11    0.65    0.11
  -5   3 -11    0.60    0.11
  -5   3 -11    0.45    0.06
   5   3  11    0.53    0.08
   5   3  11    0.63    0.08
   5   3  11    0.56    0.10
  -6  -3 -11    1.79    0.16
  -6  -3 -11    2.10    0.14
   6   3  11    1.77    0.13
  -6   3 -11    2.12    0.13
   7   4 -11    2.69    0.17
  -7   4  11    2.70    0.15
  -7   4  11    2.75    0.15
   7   4 -11    2.60    0.15
  -6  -4  11    3.54    0.25
  -6  -4  11    3.73    0.26
   6  -4 -11    4.28    0.25
   6   4 -11    4.46    0.27
   6   4 -11    4.38    0.25
   6   4 -11    4.06    0.23
  -6   4  11    4.45    0.24
   6   4 -11    4.37    0.24
  -6   4  11    4.40    0.24
   5  -4 -11    4.86    0.31
  -5  -4  11    5.06    0.39
  -5  -4  11    4.62    0.32
   5  -4 -11    5.13    0.34
  -5  -4  11    4.85    0.40
  -5   4  11    5.36    0.30
   5   4 -11    5.18    0.29
   5   4 -11    5.22    0.30
   5   4 -11    4.64    0.28
   5   4 -11    5.28    0.30
  -5   4  11    5.00    0.36
   5   4 -11    5.10    0.30
   5   4 -11    5.46    0.34
  -5   4  11    5.25    0.30
   5   4 -11    5.48    0.30
  -4  -4  11    6.30    0.38
   4  -4 -11    6.09    0.37
   4  -4 -11    5.65    0.37
  -4  -4  11    5.55    0.38
   4  -4 -11    6.31    0.38
   4  -4 -11    6.03    0.40
  -4  -4  11    6.72    0.38
  -4  -4  11    6.44    0.40
  -4  -4  11    5.92    0.43
   4   4 -11    6.38    0.40
  -4   4  11    6.36    0.36
   4   4 -11    6.25    0.36
   4   4 -11    6.37    0.35
  -4   4  11    6.13    0.36
   4   4 -11    6.23    0.34
   4   4 -11    6.78    0.35
  -4   4  11    6.44    0.37
  -4   4  11    6.45    0.47
   4   4 -11    6.30    0.34
   4   4 -11    6.25    0.34
   3  -4 -11   10.47    0.57
  -3  -4  11   11.06    0.58
  -3  -4  11   10.43    0.62
  -3  -4  11    8.97    0.56
   3  -4 -11    8.61    0.63
   3  -4 -11   10.20    0.59
  -3  -4  11    9.70    0.57
   3  -4 -11   10.31    0.57
  -3   4  11    9.49    0.55
  -3   4  11    9.56    0.53
   3   4 -11    9.56    0.52
  -3   4  11   10.20    0.67
   3   4 -11    9.60    0.52
   3   4 -11   10.26    0.53
   3   4 -11   10.10    0.52
  -3   4  11    9.93    0.53
   3   4 -11   10.06    0.52
   3   4 -11    9.51    0.57
  -3   4  11   10.07    0.53
  -2  -4  11   14.71    0.73
   2  -4 -11   12.69    0.80
   2  -4 -11   13.83    0.74
   2  -4 -11   13.81    0.76
   2  -4 -11   13.00    0.74
  -2  -4  11   14.53    0.73
  -2  -4  11   14.54    0.76
   2  -4 -11   13.36    0.73
  -2   4  11   13.60    0.75
   2   4 -11   13.14    0.69
   2   4 -11   13.02    0.69
  -2   4  11   13.00    0.69
   2   4 -11   13.79    0.69
  -2   4  11   13.04    0.72
   2   4 -11   11.93    0.76
   2   4 -11   13.69    0.69
  -2   4  11   13.76    0.86
   2   4 -11   13.39    0.75
  -2   4  11   13.55    0.69
   2   4 -11   12.97    0.69
  -2   4  11   12.80    0.70
   1  -4 -11    0.88    0.15
   1  -4 -11    0.69    0.14
  -1  -4  11    0.98    0.13
  -1  -4  11    0.89    0.14
  -1  -4  11    0.95    0.15
  -1  -4  11    0.65    0.13
   1  -4 -11    0.94    0.13
   1  -4 -11    0.90    0.14
  -1  -4  11    0.98    0.13
  -1   4  11    0.85    0.09
  -1   4  11    0.86    0.09
   1   4 -11    0.94    0.13
   1   4 -11    0.92    0.11
   1   4 -11    0.78    0.16
   1   4 -11    0.86    0.11
  -1   4  11    0.73    0.09
  -1   4  11    0.96    0.15
   1   4 -11    0.79    0.11
  -1   4  11    0.81    0.14
   1   4 -11    0.79    0.10
   1   4 -11    0.90    0.10
  -1   4  11    0.91    0.20
  -1   4  11    0.76    0.12
   0  -4 -11   32.64    1.59
   0  -4 -11   32.89    1.60
   0  -4  11   32.52    1.59
   0  -4 -11   32.56    1.62
   0  -4  11   32.80    1.58
   0  -4  11   33.02    1.61
   0  -4  11   32.86    1.59
   0  -4 -11   33.41    1.59
   0   4 -11   31.27    1.55
   0   4 -11   31.80    1.59
   0   4  11   30.84    1.58
   0   4 -11   31.61    1.55
   0   4  11   33.46    1.64
   0   4 -11   28.97    1.54
   0   4  11   28.49    1.58
   0   4 -11   30.32    1.65
   0   4  11   30.98    1.55
   0   4  11   31.13    1.71
   0   4  11   29.68    1.56
   0   4 -11   32.09    1.56
   0   4 -11   31.55    1.55
   1  -4  11    5.83    0.42
   1  -4  11    6.33    0.40
  -1  -4 -11    6.65    0.41
  -1  -4 -11    6.42    0.38
   1  -4  11    6.32    0.38
   1  -4  11    6.15    0.38
  -1   4 -11    6.53    0.44
  -1   4 -11    6.32    0.34
   1   4  11    6.29    0.46
  -1   4 -11    6.31    0.35
  -1   4 -11    5.82    0.34
   1   4  11    5.94    0.37
  -1   4 -11    6.20    0.35
   1   4  11    6.04    0.34
   1   4  11    5.88    0.38
   1   4  11    6.12    0.35
   1   4  11    6.19    0.41
  -1   4 -11    6.40    0.34
  -2  -4 -11    0.62    0.12
   2  -4  11    0.65    0.11
   2  -4  11    0.65    0.11
   2  -4  11    0.66    0.11
  -2  -4 -11    0.67    0.11
  -2  -4 -11    0.62    0.11
  -2  -4 -11    0.59    0.10
   2  -4  11    0.72    0.13
   2  -4  11    0.56    0.13
  -2  -4 -11    0.57    0.12
   2   4  11    0.61    0.10
  -2   4 -11    0.60    0.14
  -2   4 -11    0.69    0.10
   2   4  11    0.54    0.11
   2   4  11    0.59    0.08
   2   4  11    0.64    0.12
  -2   4 -11    0.48    0.07
   2   4  11    0.65    0.20
  -2   4 -11    0.62    0.09
   2   4  11    0.58    0.11
  -3  -4 -11    3.64    0.23
  -3  -4 -11    3.40    0.31
   3  -4  11    3.28    0.25
   3  -4  11    3.96    0.27
   3  -4  11    3.45    0.24
   3  -4  11    3.28    0.22
   3   4  11    3.61    0.25
  -3   4 -11    3.61    0.21
   3   4  11    3.36    0.22
  -3   4 -11    3.43    0.22
   3   4  11    3.41    0.21
  -3   4 -11    3.44    0.31
  -4  -4 -11    0.52    0.08
   4  -4  11    0.64    0.10
  -4  -4 -11    0.55    0.09
   4  -4  11    0.60    0.09
   4   4  11    0.59    0.08
  -4   4 -11    0.51    0.06
  -4   4 -11    0.61    0.07
   4   4  11    0.58    0.09
   4   4  11    0.60    0.07
  -5  -4 -11    0.10    0.03
   5   4  11    0.06    0.03
   5   4  11    0.08    0.02
   5   5 -11    2.88    0.15
   5   5 -11    2.54    0.15
   4  -5 -11    3.66    0.21
  -4   5  11    3.48    0.19
   4   5 -11    3.20    0.18
   4   5 -11    3.30    0.18
  -4   5  11    3.52    0.19
   4   5 -11    3.71    0.19
   4   5 -11    3.48    0.19
   4   5 -11    3.69    0.22
  -4   5  11    2.83    0.22
   3  -5 -11    4.03    0.24
   3   5 -11    3.91    0.21
  -3   5  11    3.57    0.20
   3   5 -11    3.73    0.21
   3   5 -11    3.76    0.23
   3   5 -11    3.53    0.21
  -3   5  11    3.86    0.28
  -3   5  11    3.57    0.20
   3   5 -11    3.63    0.21
   3   5 -11    3.73    0.21
   2  -5 -11    0.84    0.11
   2  -5 -11    0.80    0.09
  -2  -5  11    0.66    0.09
  -2  -5  11    0.68    0.09
   2   5 -11    0.85    0.08
  -2   5  11    0.84    0.13
   2   5 -11    0.81    0.08
  -2   5  11    0.70    0.09
  -2   5  11    0.69    0.08
  -2   5  11    0.67    0.09
   2   5 -11    0.84    0.08
   2   5 -11    0.78    0.08
   2   5 -11    0.85    0.08
   1  -5 -11   13.69    0.65
   1  -5 -11   12.78    0.68
  -1  -5  11   11.43    0.64
   1  -5 -11   10.70    0.63
  -1   5  11   12.88    0.71
   1   5 -11   11.63    0.66
   1   5 -11   13.19    0.62
   1   5 -11   12.50    0.62
  -1   5  11   13.23    0.65
  -1   5  11   11.66    0.63
   1   5 -11   12.51    0.61
   1   5 -11   12.52    0.61
   1   5 -11   12.18    0.61
  -1   5  11   11.34    0.62
   0  -5  11   11.89    0.71
   0  -5 -11   11.59    0.66
   0  -5 -11   11.93    0.66
   0  -5  11   11.65    0.65
   0   5 -11   14.16    0.64
   0   5 -11   12.79    0.69
   0   5 -11   14.50    0.64
   0   5 -11   13.83    0.64
   0   5  11   11.41    0.63
   0   5  11   11.40    0.64
   0   5 -11   11.59    0.63
   0   5  11   12.98    0.65
   0   5  11   14.21    0.68
   0   5  11   13.32    0.71
   0   5 -11   13.74    0.64
   1  -5  11    4.29    0.28
  -1  -5 -11    4.64    0.29
  -1  -5 -11    4.58    0.29
   1   5  11    5.52    0.30
  -1   5 -11    5.39    0.32
  -1   5 -11    4.56    0.26
   1   5  11    5.45    0.31
   1   5  11    5.28    0.29
  -1   5 -11    5.62    0.27
   1   5  11    4.99    0.28
  -1   5 -11    5.38    0.27
  -1   5 -11    4.48    0.26
  -2  -5 -11    0.70    0.08
   2  -5  11    0.72    0.08
   2  -5  11    0.76    0.09
  -2   5 -11    0.66    0.09
   2   5  11    0.62    0.07
  -2   5 -11    0.77    0.06
   2   5  11    0.81    0.06
  -2   5 -11    0.88    0.07
   3  -5  11    0.91    0.08
   3   5  11    0.76    0.06
   9   0 -12    7.10    0.44
   9   0 -12    8.45    0.42
   8   0 -12    4.39    0.33
  -7   0  12    0.61    0.10
  -7   0  12    0.67    0.10
  -6   0  12    4.89    0.34
  -6   0  12    5.07    0.31
  -6   0  12    4.65    0.41
  -5   0  12    1.04    0.13
  -5   0  12    1.01    0.15
  -5   0  12    1.21    0.14
  -5   0  12    1.08    0.19
  -4   0  12    1.91    0.20
   4   0 -12    1.87    0.15
   4   0 -12    2.44    0.29
  -4   0  12    1.92    0.26
  -4   0  12    1.80    0.32
  -4   0  12    1.93    0.18
  -4   0  12    2.02    0.17
  -4   0  12    2.18    0.19
   4   0 -12    2.36    0.20
  -3   0  12    0.43    0.11
  -3   0  12    0.41    0.10
   3   0 -12    0.39    0.10
  -3   0  12    0.39    0.10
  -3   0  12    0.43    0.09
  -3   0  12    0.34    0.11
   3   0 -12    0.53    0.11
  -2   0  12   44.81    2.25
  -2   0  12   45.57    2.24
  -2   0  12   39.25    2.18
  -2   0  12   41.54    2.16
  -2   0  12   44.00    2.16
  -2   0  12   42.03    2.14
   2   0 -12   48.26    2.22
   2   0 -12   46.61    2.20
  -2   0  12   41.51    2.17
  -1   0  12   31.96    1.65
  -1   0  12   32.48    1.66
  -1   0  12   31.42    1.68
   1   0 -12   36.63    1.72
  -1   0  12   31.73    2.40
   1   0 -12   32.91    1.65
  -1   0  12   34.03    1.78
   1   0 -12   36.96    1.69
  -1   0  12   30.74    1.66
  -1   0  12   35.44    1.79
   0   0 -12   27.17    1.47
   0   0  12   27.37    1.43
   0   0 -12   29.79    1.49
   0   0 -12   31.24    1.48
   0   0  12   26.99    1.42
   0   0 -12   25.49    1.46
   0   0 -12   28.76    1.43
   0   0  12   30.24    1.56
   0   0 -12   31.03    1.47
   1   0  12    0.03    0.04
  -1   0 -12    0.07    0.04
  -1   0 -12    0.02    0.06
  -1   0 -12    0.03    0.07
  -1   0 -12    0.08    0.06
   1   0  12   -0.01    0.07
  -1   0 -12    0.02    0.04
   2   0  12   15.27    0.97
  -2   0 -12   15.26    0.80
  -2   0 -12   16.59    0.86
  -2   0 -12   15.46    0.88
  -2   0 -12   14.38    0.79
  -2   0 -12   15.58    0.88
  -3   0 -12    4.83    0.33
  -3   0 -12    5.34    0.37
  -3   0 -12    5.03    0.31
  -3   0 -12    5.58    0.37
  -4   0 -12    8.18    0.52
  -4   0 -12    7.99    0.45
  -4   0 -12    8.92    0.52
  -5   0 -12    0.20    0.10
  -6   0 -12    5.72    0.36
   7   0  12    2.21    0.13
   9   1 -12    6.44    0.33
   9   1 -12    5.41    0.33
  -8  -1  12    9.93    0.55
  -8  -1  12    9.07    0.50
   8   1 -12    9.62    0.51
  -7  -1  12    5.29    0.35
  -7  -1  12    5.82    0.35
  -7  -1  12    5.74    0.36
  -7  -1  12    5.46    0.38
   7   1 -12    5.55    0.38
  -6  -1  12    7.92    0.51
  -6  -1  12    7.98    0.48
  -6  -1  12    7.44    0.55
  -6  -1  12    7.73    0.51
  -6  -1  12    8.10    0.49
   6   1 -12    8.23    0.45
   6   1 -12    8.58    0.51
  -5  -1  12    6.87    0.43
  -5  -1  12    6.77    0.43
  -5  -1  12    6.97    0.46
  -5  -1  12    7.21    0.45
  -5  -1  12    7.11    0.52
   5   1 -12    7.26    0.46
   5   1 -12    6.89    0.40
  -4  -1  12   16.88    0.89
  -4  -1  12   16.92    0.93
  -4  -1  12   16.91    0.90
  -4  -1  12   17.01    0.91
   4  -1 -12   16.17    0.87
   4  -1 -12   15.52    0.93
  -4  -1  12   19.44    1.08
  -4  -1  12   17.00    0.93
  -4   1  12   16.44    0.98
   4   1 -12   17.02    0.86
   4   1 -12   17.29    0.94
   4   1 -12   16.87    0.87
   4   1 -12   16.59    0.85
  -4   1  12   16.39    0.99
   4   1 -12   16.04    0.94
   3  -1 -12   10.16    0.63
  -3  -1  12   10.78    0.63
  -3  -1  12   11.48    0.72
  -3  -1  12   11.24    0.61
  -3  -1  12   10.80    0.64
   3  -1 -12    9.56    0.62
   3  -1 -12    9.96    0.58
   3  -1 -12   11.56    0.65
  -3  -1  12   11.23    0.62
  -3  -1  12   11.14    0.61
   3  -1 -12    9.98    0.62
   3   1 -12   11.58    0.59
   3   1 -12   11.53    0.68
   3   1 -12   11.48    0.58
   3   1 -12   10.72    0.58
   3   1 -12   11.36    0.58
   3   1 -12   10.62    0.63
  -3   1  12    9.40    0.66
  -3   1  12   11.26    0.71
   2  -1 -12    9.37    0.64
  -2  -1  12   10.91    0.59
  -2  -1  12   10.92    0.63
   2  -1 -12   10.25    0.59
  -2  -1  12   10.76    0.66
   2  -1 -12   10.19    0.57
  -2  -1  12   10.41    0.59
   2  -1 -12   10.57    0.62
  -2  -1  12   10.85    0.62
   2  -1 -12   10.85    0.66
   2  -1 -12   10.45    0.61
  -2  -1  12   10.42    0.61
   2  -1 -12   10.63    0.59
   2   1 -12    9.88    0.61
   2   1 -12   11.04    0.57
   2   1 -12   10.22    0.63
   2   1 -12   10.93    0.56
  -2   1  12   10.40    0.68
   2   1 -12    8.48    0.70
   2   1 -12   10.84    0.56
  -1  -1  12   19.56    1.04
   1  -1 -12   18.07    1.02
   1  -1 -12   19.03    0.99
   1  -1 -12   19.30    0.98
   1  -1 -12   18.67    1.03
   1  -1 -12   18.87    1.02
   1  -1 -12   19.07    1.07
   1  -1 -12   19.00    0.99
  -1  -1  12   18.93    0.99
  -1  -1  12   19.21    1.00
  -1  -1  12   19.09    1.06
  -1  -1  12   18.17    1.01
  -1  -1  12   18.59    0.99
   1   1 -12   20.10    1.05
   1   1 -12   20.11    0.99
   1   1 -12   18.82    0.96
   1   1 -12   18.65    0.96
   1   1 -12   18.24    1.03
  -1   1  12   19.36    1.11
   0  -1  12   31.96    1.59
   0  -1 -12   31.75    1.67
   0  -1 -12   33.22    1.62
   0  -1  12   30.72    1.69
   0  -1 -12   31.70    1.63
   0  -1  12   33.66    1.68
   0  -1 -12   32.56    1.62
   0  -1 -12   32.00    1.58
   0  -1 -12   28.65    1.61
   0  -1  12   31.23    1.64
   0  -1  12   33.45    1.63
   0  -1  12   31.56    1.61
   0  -1 -12   32.12    1.59
   0  -1  12   29.88    1.58
   0   1 -12   33.79    1.64
   0   1 -12   31.86    1.65
   0   1  12   30.78    1.71
   0   1 -12   32.20    1.56
   0   1 -12   31.74    1.56
   0   1 -12   26.77    1.63
   0   1 -12   33.40    1.59
   1  -1  12    2.08    0.20
  -1  -1 -12    2.13    0.19
  -1  -1 -12    2.19    0.19
  -1  -1 -12    2.37    0.27
   1  -1  12    2.22    0.28
   1  -1  12    1.65    0.24
  -1  -1 -12    2.18    0.18
   1  -1  12    2.10    0.26
   1  -1  12    2.10    0.18
  -1  -1 -12    2.28    0.21
  -1  -1 -12    2.21    0.21
   1  -1  12    1.98    0.18
   1  -1  12    2.22    0.19
   1   1  12    2.50    0.22
  -1   1 -12    2.30    0.22
   1   1  12    2.60    0.39
  -1   1 -12    2.24    0.19
  -1   1 -12    2.49    0.29
  -1   1 -12    1.73    0.20
  -2  -1 -12    3.88    0.27
  -2  -1 -12    3.76    0.33
   2  -1  12    3.60    0.28
   2  -1  12    3.97    0.26
  -2  -1 -12    3.61    0.37
  -2  -1 -12    3.24    0.33
  -2  -1 -12    4.18    0.30
  -2  -1 -12    4.08    0.28
   2  -1  12    4.01    0.27
  -2  -1 -12    4.10    0.27
   2  -1  12    3.46    0.27
   2   1  12    3.96    0.41
  -2   1 -12    4.20    0.32
  -3  -1 -12   23.25    1.17
   3  -1  12   21.85    1.15
  -3  -1 -12   23.34    1.19
  -3  -1 -12   21.66    1.25
  -3  -1 -12   24.26    1.24
  -3  -1 -12   23.56    1.18
  -3   1 -12   24.86    1.23
   3   1  12   19.58    1.17
   3   1  12   23.69    1.15
  -3   1 -12   24.06    1.21
  -4  -1 -12    2.58    0.22
  -4  -1 -12    2.70    0.27
  -4  -1 -12    3.38    0.27
  -4  -1 -12    2.86    0.24
  -4  -1 -12    3.05    0.22
  -4  -1 -12    2.98    0.21
  -4  -1 -12    2.52    0.26
  -4   1 -12    2.96    0.26
   4   1  12    3.13    0.20
  -5  -1 -12    7.43    0.49
  -5  -1 -12    8.09    0.45
  -5  -1 -12    8.54    0.46
  -5   1 -12    9.08    0.52
   5   1  12    8.19    0.44
  -6  -1 -12    0.51    0.08
  -6  -1 -12    0.30    0.09
  -6   1 -12    0.35    0.08
   6   1  12    0.43    0.07
   7   1  12    0.36    0.04
  -8  -2  12    2.59    0.18
  -8  -2  12    2.85    0.19
  -7  -2  12    0.47    0.11
  -7  -2  12    0.37    0.11
  -7  -2  12    0.55    0.10
  -7  -2  12    0.43    0.10
   7   2 -12    0.48    0.11
   7   2 -12    0.47    0.10
   7   2 -12    0.34    0.05
   7   2 -12    0.43    0.08
  -6  -2  12    3.98    0.28
  -6  -2  12    3.62    0.34
  -6  -2  12    4.10    0.30
  -6  -2  12    3.86    0.31
  -6  -2  12    4.31    0.32
   6   2 -12    3.82    0.25
   6   2 -12    3.90    0.30
   6   2 -12    4.15    0.31
  -5  -2  12    2.72    0.23
   5  -2 -12    2.80    0.21
  -5  -2  12    2.78    0.29
  -5  -2  12    2.96    0.31
  -5  -2  12    2.83    0.23
   5   2 -12    2.32    0.22
   5   2 -12    3.16    0.26
   5   2 -12    2.90    0.37
  -5   2  12    2.76    0.31
   5   2 -12    2.17    0.22
   4  -2 -12   10.27    0.71
  -4  -2  12   10.71    0.71
  -4  -2  12   11.42    0.64
  -4  -2  12   11.39    0.67
   4  -2 -12   11.33    0.62
  -4  -2  12   11.81    0.64
   4  -2 -12   11.23    0.65
  -4  -2  12   11.83    0.65
   4  -2 -12   11.31    0.63
   4   2 -12   11.60    0.68
   4   2 -12   11.83    0.60
   4   2 -12   11.42    0.60
   4   2 -12   10.41    0.59
   4   2 -12   11.67    0.60
  -3  -2  12   38.64    1.86
   3  -2 -12   37.67    1.87
   3  -2 -12   37.68    1.85
  -3  -2  12   38.49    1.90
  -3  -2  12   37.87    1.87
  -3  -2  12   36.37    1.94
   3  -2 -12   34.23    1.94
   3  -2 -12   37.75    1.90
  -3  -2  12   39.30    1.88
   3  -2 -12   36.38    1.86
   3   2 -12   36.77    1.82
   3   2 -12   36.96    1.82
   3   2 -12   34.27    1.81
  -3   2  12   39.16    1.86
   3   2 -12   35.92    1.82
   2  -2 -12   32.68    1.76
   2  -2 -12   30.30    1.51
  -2  -2  12   28.69    1.46
  -2  -2  12   29.98    1.46
  -2  -2  12   28.78    1.55
   2  -2 -12   28.95    1.47
   2  -2 -12   27.84    1.50
   2  -2 -12   29.47    1.47
   2  -2 -12   28.61    1.45
  -2  -2  12   30.70    1.48
  -2  -2  12   28.32    1.49
  -2  -2  12   27.62    1.49
   2   2 -12   26.41    1.41
   2   2 -12   26.62    1.50
  -2   2  12   26.28    1.54
  -2   2  12   27.19    1.58
  -2   2  12   30.31    1.46
   2   2 -12   28.28    1.42
   2   2 -12   28.61    1.42
   2   2 -12   28.94    1.43
   2   2 -12   26.60    1.49
   2   2 -12   30.33    1.57
  -1  -2  12   20.25    1.09
  -1  -2  12   20.67    1.08
  -1  -2  12   20.07    1.10
   1  -2 -12   18.54    1.08
   1  -2 -12   20.60    1.07
   1  -2 -12   20.73    1.07
  -1  -2  12   20.23    1.06
  -1  -2  12   21.15    1.07
   1  -2 -12   18.84    1.09
   1  -2 -12   21.49    1.09
   1  -2 -12   20.65    1.10
   1   2 -12   20.89    1.14
  -1   2  12   20.95    1.06
   1   2 -12   20.99    1.03
  -1   2  12   21.23    1.12
   1   2 -12   19.82    1.15
  -1   2  12   19.31    1.13
   1   2 -12   21.06    1.04
   1   2 -12   20.91    1.03
  -1   2  12   20.32    1.20
   1   2 -12   19.52    1.12
   0  -2 -12   23.03    1.33
   0  -2  12   22.68    1.38
   0  -2 -12   26.44    1.35
   0  -2  12   26.14    1.30
   0  -2 -12   29.45    1.38
   0  -2 -12   25.34    1.31
   0  -2  12   26.14    1.32
   0  -2 -12   25.85    1.31
   0  -2  12   26.17    1.34
   0  -2  12   23.41    1.38
   0  -2 -12   25.17    1.40
   0  -2  12   25.92    1.31
   0  -2 -12   26.18    1.30
   0  -2  12   24.46    1.35
   0   2 -12   25.54    1.27
   0   2  12   24.51    1.45
   0   2 -12   27.58    1.42
   0   2 -12   25.32    1.40
   0   2  12   26.33    1.30
   0   2 -12   24.40    1.25
   0   2 -12   25.95    1.28
   0   2  12   25.62    1.32
   0   2 -12   27.35    1.42
   0   2 -12   26.02    1.27
   0   2  12   23.90    1.39
  -1  -2 -12   49.34    2.68
   1  -2  12   53.04    2.62
   1  -2  12   53.51    2.64
  -1  -2 -12   54.54    2.62
  -1  -2 -12   51.56    2.61
   1  -2  12   53.44    2.62
   1  -2  12   52.16    2.69
   1  -2  12   52.89    2.61
  -1  -2 -12   52.44    2.62
  -1  -2 -12   55.60    2.66
  -1   2 -12   52.05    2.57
   1   2  12   55.42    2.63
  -1   2 -12   50.87    2.66
  -1   2 -12   58.36    2.74
  -2  -2 -12   12.65    0.78
  -2  -2 -12   13.66    0.72
   2  -2  12   12.93    0.72
  -2  -2 -12   13.59    0.71
  -2  -2 -12   10.84    0.74
  -2  -2 -12   13.48    0.72
   2  -2  12   13.10    0.78
   2  -2  12   13.16    0.70
   2  -2  12   13.41    0.72
   2   2  12   13.49    0.68
  -2   2 -12   13.35    0.80
   2   2  12   13.44    0.72
  -2   2 -12   12.83    0.75
  -3  -2 -12    9.76    0.54
   3  -2  12    9.09    0.52
   3  -2  12    8.95    0.53
  -3  -2 -12    9.46    0.53
  -3  -2 -12    9.31    0.59
  -3  -2 -12    8.58    0.59
   3  -2  12    9.33    0.52
  -3  -2 -12    9.84    0.57
  -3  -2 -12    9.21    0.56
   3  -2  12    9.06    0.54
  -3   2 -12    9.67    0.58
   3   2  12    9.44    0.53
   3   2  12    9.97    0.51
  -4  -2 -12    4.75    0.31
   4  -2  12    4.54    0.28
  -4  -2 -12    4.87    0.30
  -4  -2 -12    4.34    0.32
  -4  -2 -12    4.72    0.33
   4   2  12    4.93    0.28
  -4   2 -12    4.64    0.33
   4   2  12    4.72    0.30
  -5  -2 -12    3.47    0.26
  -5  -2 -12    3.85    0.24
  -5  -2 -12    3.61    0.27
  -5  -2 -12    4.41    0.28
   5   2  12    4.03    0.28
  -5   2 -12    3.64    0.27
  -6  -2 -12    3.10    0.20
   6   2  12    2.98    0.19
   6   2  12    3.18    0.18
   8   3 -12    0.55    0.09
  -7  -3  12    5.21    0.30
   7   3 -12    4.72    0.26
   7   3 -12    4.71    0.29
  -7   3  12    4.93    0.27
   7   3 -12    4.04    0.28
  -7   3  12    4.95    0.27
  -6  -3  12    7.64    0.51
  -6  -3  12    7.60    0.49
   6  -3 -12    9.40    0.46
   6   3 -12    9.69    0.51
   6   3 -12    9.25    0.45
   6   3 -12    8.97    0.47
  -5  -3  12    1.97    0.19
   5  -3 -12    1.67    0.20
  -5  -3  12    1.87    0.19
  -5  -3  12    1.76    0.18
   5  -3 -12    1.73    0.16
  -5  -3  12    1.68    0.22
   5  -3 -12    1.71    0.16
  -5   3  12    1.87    0.23
   5   3 -12    1.93    0.19
   5   3 -12    1.71    0.14
   5   3 -12    1.97    0.18
   5   3 -12    1.79    0.15
   5   3 -12    1.86    0.14
   5   3 -12    1.87    0.13
   5   3 -12    1.75    0.14
  -4  -3  12   18.56    0.91
  -4  -3  12   17.56    0.90
   4  -3 -12   16.65    0.95
   4  -3 -12   15.13    0.90
   4  -3 -12   14.45    0.95
  -4  -3  12   17.09    0.91
   4  -3 -12   16.34    0.88
   4  -3 -12   16.03    0.90
  -4  -3  12   16.92    0.88
   4   3 -12   16.56    0.91
   4   3 -12   16.19    0.89
   4   3 -12   16.25    0.83
   4   3 -12   16.65    0.84
  -4   3  12   17.05    1.01
   4   3 -12   16.94    0.84
   4   3 -12   16.77    0.84
   4   3 -12   16.36    0.84
   3  -3 -12    6.09    0.41
  -3  -3  12    6.27    0.41
   3  -3 -12    6.16    0.40
   3  -3 -12    5.53    0.45
   3  -3 -12    6.06    0.39
  -3  -3  12    6.23    0.39
  -3  -3  12    5.73    0.44
   3  -3 -12    5.87    0.42
  -3  -3  12    6.35    0.39
  -3  -3  12    7.18    0.51
   3   3 -12    5.96    0.42
  -3   3  12    6.80    0.56
  -3   3  12    6.22    0.40
   3   3 -12    6.10    0.35
   3   3 -12    6.95    0.37
   3   3 -12    6.11    0.35
   3   3 -12    5.75    0.39
   3   3 -12    6.92    0.37
   3   3 -12    6.00    0.36
   2  -3 -12    1.76    0.18
   2  -3 -12    1.96    0.21
  -2  -3  12    1.83    0.18
  -2  -3  12    1.92    0.18
   2  -3 -12    1.85    0.19
  -2  -3  12    1.80    0.24
  -2  -3  12    1.94    0.21
  -2  -3  12    2.02    0.26
   2  -3 -12    1.91    0.19
   2   3 -12    2.15    0.31
   2   3 -12    1.95    0.16
  -2   3  12    1.85    0.20
   2   3 -12    2.06    0.16
   2   3 -12    1.94    0.22
   2   3 -12    2.20    0.17
   2   3 -12    1.50    0.20
  -1  -3  12    9.03    0.51
  -1  -3  12    8.70    0.53
   1  -3 -12    7.88    0.59
  -1  -3  12    9.05    0.52
   1  -3 -12    8.72    0.51
   1  -3 -12    9.05    0.53
   1  -3 -12    8.67    0.52
   1  -3 -12    8.99    0.55
  -1  -3  12    8.11    0.56
  -1   3  12    8.62    0.55
   1   3 -12    8.53    0.47
  -1   3  12    8.35    0.50
   1   3 -12    8.61    0.47
   1   3 -12    8.39    0.57
   1   3 -12    9.01    0.48
   1   3 -12    9.93    0.54
   1   3 -12    8.43    0.54
   1   3 -12    9.15    0.53
   0  -3 -12    4.74    0.35
   0  -3  12    4.91    0.34
   0  -3  12    4.85    0.32
   0  -3 -12    4.70    0.32
   0  -3  12    4.73    0.34
   0  -3  12    4.74    0.31
   0  -3 -12    4.41    0.33
   0  -3 -12    4.36    0.43
   0  -3  12    4.47    0.41
   0  -3 -12    4.74    0.32
   0   3 -12    4.65    0.30
   0   3  12    5.20    0.38
   0   3  12    4.60    0.33
   0   3 -12    5.12    0.41
   0   3 -12    5.07    0.32
   0   3  12    4.36    0.38
   1  -3  12   12.53    0.73
  -1  -3 -12   12.97    0.70
   1  -3  12   11.61    0.75
   1  -3  12   12.60    0.69
   1  -3  12   12.33    0.69
  -1  -3 -12   13.58    0.76
  -1  -3 -12   12.92    0.69
   1  -3  12   12.48    0.70
  -1  -3 -12   12.06    0.76
  -1  -3 -12   12.89    0.70
   1   3  12   12.23    0.70
  -1   3 -12   13.16    0.67
  -1   3 -12   12.47    0.65
  -1   3 -12   12.14    0.65
   1   3  12   13.04    0.75
   1   3  12   12.42    0.65
  -1   3 -12   13.91    0.79
   1   3  12   12.45    0.68
   1   3  12   12.97    0.82
  -1   3 -12   12.23    0.65
   2  -3  12    4.18    0.35
  -2  -3 -12    4.31    0.35
  -2  -3 -12    4.61    0.31
   2  -3  12    4.54    0.31
   2  -3  12    4.46    0.32
  -2  -3 -12    4.71    0.31
   2  -3  12    4.43    0.31
  -2  -3 -12    4.88    0.34
  -2   3 -12    5.06    0.38
   2   3  12    4.85    0.28
   2   3  12    4.50    0.31
  -2   3 -12    5.10    0.29
   2   3  12    4.85    0.35
   2   3  12    4.74    0.29
  -2   3 -12    3.98    0.26
   2   3  12    4.79    0.39
  -3  -3 -12    1.29    0.14
   3  -3  12    1.08    0.14
  -3  -3 -12    1.17    0.17
   3  -3  12    1.07    0.14
  -3  -3 -12    1.24    0.13
   3  -3  12    1.09    0.13
   3  -3  12    1.14    0.12
  -3  -3 -12    1.27    0.13
   3   3  12    1.17    0.16
  -3   3 -12    1.22    0.12
   3   3  12    1.24    0.11
   3   3  12    1.14    0.13
  -4  -3 -12    2.74    0.22
  -4  -3 -12    2.61    0.21
   4  -3  12    2.37    0.21
  -4  -3 -12    2.47    0.21
  -4  -3 -12    2.56    0.18
   4  -3  12    2.14    0.16
   4   3  12    2.46    0.19
   4   3  12    2.33    0.20
   4   3  12    2.35    0.16
  -5  -3 -12    2.02    0.15
  -5  -3 -12    2.04    0.14
  -5   3 -12    1.83    0.13
   5   3  12    1.83    0.12
   5   3  12    1.98    0.16
  -6  -4  12    2.27    0.18
  -6   4  12    2.88    0.16
  -6   4  12    2.84    0.16
   6   4 -12    2.82    0.16
   6   4 -12    2.98    0.19
  -5  -4  12    1.54    0.20
  -5  -4  12    1.40    0.13
   5  -4 -12    1.68    0.17
   5  -4 -12    1.55    0.13
   5   4 -12    1.47    0.12
   5   4 -12    1.53    0.14
   5   4 -12    1.58    0.11
  -5   4  12    1.54    0.12
  -5   4  12    1.53    0.12
   5   4 -12    1.42    0.11
   4  -4 -12    6.59    0.46
   4  -4 -12    7.28    0.41
  -4  -4  12    5.89    0.41
  -4  -4  12    7.35    0.49
  -4  -4  12    6.12    0.43
   4  -4 -12    6.72    0.46
  -4  -4  12    7.87    0.42
   4   4 -12    6.94    0.37
  -4   4  12    7.70    0.51
   4   4 -12    6.92    0.37
   4   4 -12    7.39    0.38
   4   4 -12    7.38    0.43
  -4   4  12    7.05    0.44
  -4   4  12    7.78    0.44
   4   4 -12    7.12    0.38
   3  -4 -12    2.33    0.21
  -3  -4  12    1.96    0.18
   3  -4 -12    2.37    0.19
   3  -4 -12    2.39    0.20
  -3  -4  12    1.96    0.19
  -3  -4  12    2.56    0.19
   3  -4 -12    2.49    0.19
  -3  -4  12    2.60    0.20
   3   4 -12    2.05    0.18
   3   4 -12    2.45    0.17
   3   4 -12    2.85    0.24
   3   4 -12    2.43    0.17
  -3   4  12    2.41    0.16
   3   4 -12    2.51    0.17
   3   4 -12    2.65    0.17
  -3   4  12    2.46    0.17
  -3   4  12    2.40    0.26
   2  -4 -12    7.97    0.57
  -2  -4  12    9.24    0.49
  -2  -4  12    8.93    0.51
   2  -4 -12    8.70    0.49
   2  -4 -12    8.62    0.49
  -2  -4  12    8.08    0.54
   2  -4 -12    8.41    0.49
   2  -4 -12    8.58    0.52
   2   4 -12    8.67    0.45
  -2   4  12    9.55    0.50
   2   4 -12    7.42    0.51
  -2   4  12    7.81    0.48
  -2   4  12    9.61    0.50
   2   4 -12    8.23    0.45
   2   4 -12    8.40    0.46
   2   4 -12    8.47    0.45
  -2   4  12    9.79    0.55
   2   4 -12    8.71    0.46
   2   4 -12    9.07    0.51
  -2   4  12    7.57    0.47
  -2   4  12    8.79    0.60
  -1  -4  12    0.87    0.12
   1  -4 -12    0.99    0.12
  -1  -4  12    0.99    0.13
   1  -4 -12    0.83    0.19
  -1  -4  12    0.95    0.16
   1  -4 -12    1.10    0.13
  -1  -4  12    0.92    0.14
   1  -4 -12    0.88    0.16
   1  -4 -12    1.08    0.14
   1   4 -12    0.92    0.10
  -1   4  12    0.92    0.13
   1   4 -12    0.96    0.11
  -1   4  12    0.71    0.16
   1   4 -12    0.84    0.10
   1   4 -12    0.94    0.16
  -1   4  12    0.93    0.19
   1   4 -12    0.92    0.10
  -1   4  12    1.06    0.14
   1   4 -12    0.77    0.18
   1   4 -12    0.91    0.10
   0  -4 -12    5.33    0.40
   0  -4  12    5.57    0.37
   0  -4  12    5.42    0.34
   0  -4 -12    6.02    0.36
   0  -4  12    5.91    0.35
   0  -4 -12    5.55    0.35
   0  -4 -12    6.20    0.36
   0  -4  12    5.78    0.36
   0  -4 -12    5.79    0.39
   0  -4  12    5.13    0.39
   0   4 -12    5.81    0.33
   0   4 -12    5.82    0.32
   0   4 -12    5.81    0.32
   0   4  12    6.11    0.38
   0   4  12    4.94    0.32
   0   4  12    5.71    0.36
   0   4 -12    5.83    0.35
   0   4 -12    5.60    0.32
   0   4 -12    6.05    0.41
   0   4  12    6.29    0.36
   0   4  12    5.88    0.44
   0   4 -12    6.35    0.34
   0   4  12    5.42    0.34
  -1  -4 -12    6.02    0.40
  -1  -4 -12    5.81    0.34
   1  -4  12    5.45    0.33
  -1  -4 -12    5.08    0.35
   1  -4  12    5.45    0.35
   1  -4  12    5.49    0.33
   1  -4  12    5.34    0.34
   1   4  12    5.64    0.36
  -1   4 -12    5.36    0.38
  -1   4 -12    5.60    0.30
  -1   4 -12    5.41    0.31
   1   4  12    5.43    0.36
   1   4  12    4.79    0.34
   1   4  12    5.43    0.30
   1   4  12    5.53    0.40
  -1   4 -12    5.71    0.31
   1   4  12    5.57    0.34
  -1   4 -12    5.57    0.30
  -2  -4 -12    7.29    0.48
  -2  -4 -12    5.73    0.44
  -2  -4 -12    7.03    0.38
   2  -4  12    6.63    0.38
   2  -4  12    6.39    0.39
  -2  -4 -12    5.46    0.38
   2  -4  12    6.66    0.38
   2  -4  12    6.51    0.38
  -2   4 -12    5.44    0.34
  -2   4 -12    6.76    0.35
   2   4  12    7.19    0.36
   2   4  12    6.81    0.40
  -2   4 -12    7.56    0.44
  -2   4 -12    5.43    0.34
  -2   4 -12    6.87    0.36
   2   4  12    7.39    0.48
   2   4  12    6.16    0.36
   2   4  12    6.17    0.37
  -3  -4 -12    2.62    0.19
   3  -4  12    3.01    0.20
   3  -4  12    2.88    0.19
  -3  -4 -12    3.17    0.20
   3   4  12    2.78    0.17
   3   4  12    3.05    0.20
  -3   4 -12    3.22    0.18
   3   4  12    3.10    0.21
   4  -4  12    6.63    0.34
  -4  -4 -12    6.45    0.34
   4   4  12    6.81    0.35
   4   4  12    5.80    0.32
  -4   4 -12    7.14    0.33
   4   4  12    5.47    0.34
   4   5 -12    0.01    0.01
   3  -5 -12    0.99    0.08
   3   5 -12    1.08    0.07
  -3   5  12    0.95    0.11
   3   5 -12    0.90    0.07
   3   5 -12    0.78    0.07
   2  -5 -12    2.02    0.15
  -2  -5  12    2.32    0.20
   2  -5 -12    2.41    0.16
   2   5 -12    1.84    0.12
   2   5 -12    1.88    0.12
   2   5 -12    2.32    0.13
  -2   5  12    1.77    0.16
   2   5 -12    2.31    0.13
  -2   5  12    2.25    0.18
   2   5 -12    2.22    0.13
  -1  -5  12    4.04    0.24
   1   5 -12    3.80    0.21
   1   5 -12    3.76    0.21
   1   5 -12    3.84    0.21
  -1   5  12    4.56    0.28
   1   5 -12    3.64    0.21
  -1   5  12    3.66    0.23
   0  -5 -12   14.41    0.64
   0  -5  12   13.44    0.64
   0   5  12   12.86    0.64
   0   5 -12   12.01    0.61
   0   5 -12   12.11    0.61
   0   5 -12   12.32    0.61
   0   5 -12   12.39    0.61
   0   5  12   11.50    0.62
   0   5  12   11.09    0.62
  -1  -5 -12    5.77    0.30
   1  -5  12    5.41    0.29
   1   5  12    5.62    0.30
   1   5  12    4.78    0.28
  -1   5 -12    5.11    0.27
   8   0 -13   11.41    0.62
  -7   0  13    0.03    0.05
   6   0 -13    0.87    0.12
  -6   0  13    1.25    0.13
  -5   0  13    8.54    0.55
  -5   0  13    8.45    0.48
   5   0 -13    8.84    0.62
  -4   0  13    0.84    0.12
  -4   0  13    0.63    0.13
  -4   0  13    0.85    0.11
   3   0 -13    3.12    0.29
   3   0 -13    2.80    0.28
  -3   0  13    2.72    0.21
  -3   0  13    2.63    0.23
  -3   0  13    2.53    0.26
  -3   0  13    2.69    0.20
  -2   0  13   30.92    1.63
  -2   0  13   34.18    1.77
   2   0 -13   34.70    1.65
   2   0 -13   32.88    1.68
   2   0 -13   33.08    1.70
  -2   0  13   30.67    1.62
   1   0 -13   90.72    4.49
  -1   0  13  100.65    4.66
  -1   0  13   78.45    4.46
   1   0 -13   98.66    4.66
   1   0 -13   96.14    4.55
   0   0 -13   10.51    0.57
   0   0  13   11.59    0.73
   0   0 -13   11.59    0.63
   0   0 -13   11.67    0.66
   0   0  13   10.27    0.58
   0   0 -13    9.52    0.66
  -1   0 -13    3.29    0.27
  -1   0 -13    3.16    0.26
  -1   0 -13    3.07    0.21
  -2   0 -13    6.50    0.41
  -2   0 -13    6.35    0.41
  -2   0 -13    5.76    0.35
  -3   0 -13   39.00    1.88
  -3   0 -13   35.03    1.80
  -3   0 -13   37.38    1.88
  -4   0 -13   -0.03    0.07
   4   0  13   -0.01    0.02
   5   0  13    2.52    0.16
  -5   0 -13    1.88    0.21
  -6   0 -13    0.30    0.08
   6   0  13    0.25    0.04
  -8  -1  13    8.50    0.47
   8   1 -13    9.31    0.49
   8   1 -13    8.14    0.45
  -7  -1  13    1.49    0.16
  -7  -1  13    1.35    0.20
   7   1 -13    1.59    0.16
   7   1 -13    1.22    0.13
   7   1 -13    1.40    0.12
  -6  -1  13    3.89    0.29
  -6  -1  13    4.06    0.28
  -6  -1  13    3.74    0.27
  -6  -1  13    3.99    0.38
  -6  -1  13    3.72    0.31
   6   1 -13    3.79    0.28
  -5  -1  13    2.90    0.30
  -5  -1  13    2.76    0.26
  -5  -1  13    3.14    0.23
  -5  -1  13    2.98    0.24
   5   1 -13    2.80    0.20
   5   1 -13    3.18    0.26
  -4  -1  13   34.35    1.67
  -4  -1  13   33.33    1.75
  -4  -1  13   33.87    1.67
  -4  -1  13   34.95    1.66
   4  -1 -13   30.79    1.64
   4   1 -13   31.62    1.60
   4   1 -13   32.00    1.62
  -3  -1  13    0.83    0.16
   3  -1 -13    0.78    0.11
  -3  -1  13    0.85    0.12
  -3  -1  13    0.93    0.14
  -3  -1  13    0.82    0.14
  -3  -1  13    0.82    0.13
   3   1 -13    0.69    0.10
   3   1 -13    0.68    0.10
   2  -1 -13   19.59    1.02
  -2  -1  13   19.39    1.02
  -2  -1  13   19.04    1.03
  -2  -1  13   18.72    1.11
  -2  -1  13   19.81    1.04
  -2  -1  13   18.74    1.05
   2  -1 -13   18.05    1.05
  -2  -1  13   19.32    1.11
   2  -1 -13   20.60    1.10
   2  -1 -13   19.34    1.02
   2   1 -13   22.13    1.12
   2   1 -13   20.20    1.00
  -2   1  13   22.15    1.21
  -2   1  13   19.13    1.13
   2   1 -13   19.11    1.09
   2   1 -13   20.34    1.00
  -1  -1  13   21.81    1.18
   1  -1 -13   22.21    1.22
  -1  -1  13   23.16    1.19
   1  -1 -13   22.67    1.18
   1  -1 -13   22.39    1.17
   1  -1 -13   22.58    1.18
  -1  -1  13   23.40    1.24
   1  -1 -13   25.03    1.23
  -1  -1  13   22.26    1.20
   1  -1 -13   22.19    1.20
  -1  -1  13   21.88    1.17
  -1  -1  13   22.86    1.30
   1   1 -13   23.82    1.19
   1   1 -13   23.39    1.15
  -1   1  13   22.61    1.32
   1   1 -13   24.73    1.26
   1   1 -13   23.89    1.15
   1   1 -13   21.85    1.23
   0  -1  13   15.80    0.81
   0  -1 -13   14.30    0.91
   0  -1  13   13.91    1.03
   0  -1  13   15.28    0.80
   0  -1 -13   15.75    0.83
   0  -1 -13   15.90    0.81
   0  -1  13   15.13    0.89
   0  -1  13   14.96    0.83
   0  -1  13   15.30    0.80
   0  -1 -13   15.86    0.81
   0  -1 -13   16.10    0.80
   0   1 -13   12.16    0.93
   0   1 -13   14.60    0.77
  -1  -1 -13    9.38    0.52
   1  -1  13    8.91    0.51
   1  -1  13    9.04    0.52
  -1  -1 -13    9.37    0.53
  -1  -1 -13    8.77    0.59
   1  -1  13    8.65    0.54
  -1  -1 -13    9.87    0.57
  -1  -1 -13    9.61    0.55
  -1   1 -13    9.33    0.53
  -1   1 -13    9.54    0.57
  -2  -1 -13   28.11    1.45
   2  -1  13   26.78    1.41
  -2  -1 -13   28.79    1.42
  -2  -1 -13   28.15    1.46
  -2  -1 -13   28.10    1.47
  -2  -1 -13   28.01    1.43
  -2   1 -13   30.24    1.48
  -2   1 -13   28.80    1.45
  -3  -1 -13    1.36    0.14
  -3  -1 -13    1.16    0.15
  -3  -1 -13    1.25    0.16
  -3  -1 -13    1.32    0.19
  -3  -1 -13    1.34    0.18
  -3   1 -13    1.36    0.17
   3   1  13    1.09    0.10
  -4  -1 -13    0.33    0.09
  -4  -1 -13    0.30    0.08
  -4  -1 -13    0.21    0.11
  -4   1 -13    0.26    0.12
  -5  -1 -13    2.40    0.16
  -5   1 -13    2.30    0.20
   5   1  13    2.53    0.16
   6   1  13    0.43    0.05
  -6   1 -13    0.54    0.09
  -8  -2  13    2.07    0.13
   8   2 -13    2.08    0.15
  -8   2  13    1.69    0.12
  -8   2  13    1.59    0.11
  -7  -2  13    1.01    0.15
  -7  -2  13    1.17    0.18
  -7  -2  13    1.18    0.12
   7   2 -13    0.96    0.11
   7   2 -13    1.04    0.17
  -6  -2  13    1.07    0.14
  -6  -2  13    1.09    0.13
  -6  -2  13    1.08    0.15
  -6  -2  13    1.02    0.13
   6   2 -13    1.14    0.15
   6   2 -13    1.04    0.11
   6   2 -13    1.25    0.15
  -5  -2  13    2.75    0.23
   5  -2 -13    2.54    0.18
  -5  -2  13    2.43    0.26
  -5  -2  13    2.74    0.22
  -5  -2  13    2.71    0.24
   5   2 -13    2.65    0.19
   5   2 -13    2.54    0.23
   5   2 -13    2.83    0.25
  -4  -2  13    9.03    0.63
  -4  -2  13    9.58    0.60
  -4  -2  13    9.68    0.57
   4  -2 -13    9.29    0.55
  -4  -2  13    9.55    0.57
  -4  -2  13   11.36    0.70
   4   2 -13   11.23    0.64
   4   2 -13   10.85    0.55
   4   2 -13    9.34    0.53
   4   2 -13   10.63    0.55
   3  -2 -13    0.74    0.13
  -3  -2  13    0.78    0.14
  -3  -2  13    0.83    0.15
   3  -2 -13    0.79    0.12
   3  -2 -13    0.74    0.12
   3  -2 -13    0.93    0.19
   3  -2 -13    0.89    0.21
  -3  -2  13    0.78    0.15
  -3  -2  13    0.86    0.13
   3   2 -13    0.73    0.10
   3   2 -13    0.77    0.10
   3   2 -13    0.72    0.10
   3   2 -13    0.65    0.10
   3   2 -13    0.77    0.14
  -2  -2  13   10.76    0.59
  -2  -2  13   11.27    0.62
  -2  -2  13   10.49    0.65
   2  -2 -13   10.68    0.59
  -2  -2  13   10.20    0.59
   2  -2 -13   10.02    0.61
   2  -2 -13   10.66    0.60
   2  -2 -13   10.09    0.67
  -2  -2  13   10.23    0.67
   2   2 -13   10.24    0.56
   2   2 -13   10.97    0.56
  -2   2  13   10.02    0.58
   2   2 -13   10.81    0.56
   1  -2 -13   24.55    1.43
  -1  -2  13   25.00    1.37
   1  -2 -13   28.29    1.42
  -1  -2  13   25.60    1.35
  -1  -2  13   26.72    1.35
   1  -2 -13   26.95    1.36
   1  -2 -13   26.41    1.35
  -1  -2  13   26.13    1.43
   1  -2 -13   27.13    1.35
  -1  -2  13   27.47    1.36
  -1   2  13   26.01    1.33
   1   2 -13   26.25    1.31
  -1   2  13   27.21    1.40
   1   2 -13   26.56    1.31
   1   2 -13   26.14    1.31
   0  -2  13   14.83    0.80
   0  -2 -13   14.71    0.84
   0  -2 -13   14.67    0.89
   0  -2  13   14.40    0.81
   0  -2  13   14.45    0.88
   0  -2 -13   15.67    0.82
   0  -2 -13   15.66    0.81
   0  -2 -13   13.90    0.97
   0  -2  13   14.96    0.81
   0  -2 -13   15.19    0.81
   0   2 -13   15.90    0.78
   0   2 -13   14.99    0.77
   0   2  13   15.72    0.86
   0   2 -13   14.88    0.77
   1  -2  13    6.16    0.48
  -1  -2 -13    5.59    0.36
  -1  -2 -13    5.86    0.36
   1  -2  13    5.06    0.41
  -1  -2 -13    4.82    0.38
  -1  -2 -13    5.92    0.39
   1  -2  13    5.48    0.36
  -1  -2 -13    5.94    0.37
   1  -2  13    5.85    0.37
   1  -2  13    5.72    0.35
   1   2  13    6.09    0.38
  -1   2 -13    6.28    0.35
   2  -2  13   10.19    0.68
  -2  -2 -13   10.27    0.67
   2  -2  13   10.46    0.62
  -2  -2 -13   11.74    0.64
  -2  -2 -13   11.60    0.61
   2  -2  13   10.27    0.60
   2  -2  13   10.53    0.62
  -2  -2 -13   11.29    0.60
   2  -2  13   11.39    0.61
  -2  -2 -13   11.15    0.61
  -2   2 -13   10.64    0.64
   2   2  13   11.66    0.62
  -3  -2 -13    5.71    0.38
  -3  -2 -13    6.12    0.36
   3  -2  13    5.89    0.34
   3  -2  13    5.50    0.33
  -3  -2 -13    5.65    0.36
   3   2  13    6.05    0.36
  -3   2 -13    5.79    0.39
   3   2  13    6.12    0.33
  -4  -2 -13    3.70    0.27
  -4  -2 -13    3.91    0.24
  -4  -2 -13    3.66    0.28
  -4  -2 -13    3.95    0.25
   4   2  13    3.80    0.22
  -4   2 -13    3.74    0.28
   4   2  13    3.88    0.28
  -5  -2 -13    0.32    0.07
  -5  -2 -13    0.26    0.07
   5   2  13    0.41    0.09
   5   2  13    0.36    0.05
  -5   2 -13    0.30    0.07
  -6   2 -13    1.92    0.12
   6   2  13    2.23    0.13
  -7  -3  13    8.90    0.46
  -7   3  13    8.79    0.44
  -7   3  13    8.75    0.44
   7   3 -13    7.69    0.44
  -6  -3  13   13.02    0.66
  -6  -3  13   12.09    0.64
  -6  -3  13   11.40    0.67
   6   3 -13   12.53    0.66
   6   3 -13   11.77    0.64
   6   3 -13   12.26    0.61
   5  -3 -13    1.15    0.15
  -5  -3  13    1.16    0.13
  -5  -3  13    1.26    0.16
  -5  -3  13    1.51    0.15
   5  -3 -13    1.52    0.15
   5   3 -13    1.55    0.16
   5   3 -13    1.04    0.14
   5   3 -13    1.38    0.11
  -4  -3  13   18.41    1.13
  -4  -3  13   20.03    1.07
  -4  -3  13   21.62    1.04
  -4  -3  13   20.07    1.03
   4  -3 -13   18.02    1.03
   4  -3 -13   20.09    1.02
  -4  -3  13   20.88    1.03
   4  -3 -13   17.67    1.02
   4  -3 -13   19.48    1.00
   4   3 -13   19.84    0.99
   4   3 -13   21.03    1.06
   4   3 -13   19.67    0.98
   4   3 -13   19.56    0.99
   4   3 -13   20.22    1.07
  -4   3  13   20.10    1.14
   4   3 -13   20.01    0.99
  -3  -3  13    3.06    0.25
   3  -3 -13    2.85    0.23
  -3  -3  13    3.19    0.24
   3  -3 -13    2.95    0.23
  -3  -3  13    3.08    0.23
   3  -3 -13    2.81    0.24
  -3  -3  13    2.76    0.27
   3  -3 -13    2.97    0.23
  -3  -3  13    3.03    0.23
   3   3 -13    3.13    0.26
   3   3 -13    2.77    0.19
   3   3 -13    2.84    0.20
  -3   3  13    3.03    0.32
   3   3 -13    2.99    0.20
   3   3 -13    2.86    0.19
  -2  -3  13   22.06    1.13
   2  -3 -13   22.31    1.11
  -2  -3  13   21.87    1.10
  -2  -3  13   22.42    1.11
  -2  -3  13   20.10    1.17
   2  -3 -13   21.47    1.11
   2  -3 -13   20.98    1.13
   2  -3 -13   19.33    1.17
  -2   3  13   18.43    1.10
   2   3 -13   22.87    1.07
   2   3 -13   20.26    1.05
  -2   3  13   20.75    1.09
  -2   3  13   22.51    1.26
   2   3 -13   20.96    1.13
   2   3 -13   21.25    1.06
   2   3 -13   22.91    1.07
  -1  -3  13    2.81    0.23
  -1  -3  13    2.95    0.23
  -1  -3  13    2.65    0.26
   1  -3 -13    3.05    0.23
  -1  -3  13    2.88    0.25
   1  -3 -13    2.63    0.27
   1  -3 -13    2.87    0.23
  -1  -3  13    3.14    0.24
   1  -3 -13    2.97    0.25
   1  -3 -13    3.08    0.23
  -1   3  13    2.55    0.21
   1   3 -13    2.68    0.19
   1   3 -13    2.64    0.27
  -1   3  13    2.88    0.19
  -1   3  13    2.92    0.19
   1   3 -13    2.87    0.20
  -1   3  13    2.95    0.25
   1   3 -13    2.73    0.19
   1   3 -13    2.71    0.24
   0  -3 -13    7.45    0.46
   0  -3 -13    7.86    0.49
   0  -3  13    7.83    0.46
   0  -3  13    8.01    0.48
   0  -3 -13    7.98    0.47
   0  -3  13    7.45    0.52
   0  -3  13    7.84    0.47
   0  -3 -13    7.33    0.52
   0   3 -13    7.97    0.43
   0   3  13    7.72    0.44
   0   3  13    7.98    0.49
   0   3  13    7.95    0.58
   0   3 -13    8.04    0.42
   0   3 -13    8.35    0.42
   0   3 -13    7.76    0.47
   0   3 -13    7.69    0.52
  -1  -3 -13   17.47    0.89
   1  -3  13   16.69    0.91
   1  -3  13   17.01    0.89
   1  -3  13   17.62    1.03
  -1  -3 -13   17.43    0.92
  -1  -3 -13   17.06    0.89
   1  -3  13   16.00    0.91
  -1  -3 -13   16.02    0.96
   1  -3  13   16.87    0.89
  -1   3 -13   17.77    0.87
  -1   3 -13   17.18    0.96
  -1   3 -13   16.85    0.90
   1   3  13   16.37    0.87
   1   3  13   16.74    0.90
   1   3  13   17.76    0.93
   1   3  13   17.89    1.01
   2  -3  13    1.14    0.14
  -2  -3 -13    1.21    0.15
  -2  -3 -13    0.99    0.21
   2  -3  13    1.07    0.14
   2  -3  13    0.97    0.12
  -2  -3 -13    1.27    0.13
   2  -3  13    1.12    0.12
  -2  -3 -13    1.14    0.13
   2   3  13    1.09    0.15
  -2   3 -13    1.00    0.12
   2   3  13    1.11    0.13
  -2   3 -13    0.88    0.10
  -2   3 -13    1.13    0.12
   2   3  13    1.28    0.18
   3  -3  13    1.97    0.15
  -3  -3 -13    2.04    0.19
  -3  -3 -13    2.26    0.17
  -3  -3 -13    2.44    0.20
   3  -3  13    2.13    0.17
   3   3  13    2.01    0.17
   3   3  13    2.43    0.21
  -3   3 -13    2.36    0.16
   3   3  13    2.25    0.15
  -4  -3 -13    1.36    0.12
  -4  -3 -13    1.34    0.11
   4   3  13    1.26    0.13
  -4   3 -13    1.26    0.10
  -5   3 -13    2.82    0.15
   5   3  13    2.60    0.15
  -6   4  13    7.01    0.37
  -6   4  13    6.91    0.37
  -5  -4  13    6.34    0.38
   5  -4 -13    7.25    0.37
   5   4 -13    6.21    0.36
  -5   4  13    7.44    0.36
  -5   4  13    7.61    0.37
  -5   4  13    6.89    0.45
   5   4 -13    7.86    0.39
  -4  -4  13    1.00    0.12
   4  -4 -13    1.22    0.11
   4  -4 -13    1.28    0.14
  -4   4  13    1.17    0.15
   4   4 -13    1.08    0.09
   4   4 -13    1.26    0.10
  -4   4  13    1.33    0.10
   4   4 -13    1.15    0.10
   4   4 -13    1.34    0.13
  -4   4  13    1.29    0.10
   4   4 -13    1.27    0.10
   4   4 -13    0.99    0.09
  -3  -4  13    1.26    0.13
   3  -4 -13    1.12    0.11
  -3  -4  13    1.11    0.12
   3  -4 -13    1.05    0.18
  -3  -4  13    0.91    0.11
  -3  -4  13    0.88    0.13
   3  -4 -13    1.02    0.13
  -3   4  13    1.20    0.09
  -3   4  13    1.23    0.09
   3   4 -13    0.83    0.11
   3   4 -13    1.14    0.10
   3   4 -13    1.06    0.09
   3   4 -13    1.06    0.09
   3   4 -13    1.29    0.13
   2  -4 -13    0.11    0.07
  -2  -4  13    0.14    0.07
   2  -4 -13    0.14    0.06
   2  -4 -13    0.15    0.05
  -2  -4  13    0.06    0.05
  -2  -4  13    0.09    0.06
  -2  -4  13    0.07    0.07
   2   4 -13    0.12    0.05
  -2   4  13    0.11    0.05
  -2   4  13    0.09    0.06
  -2   4  13    0.12    0.07
   2   4 -13    0.09    0.04
   2   4 -13    0.20    0.06
  -2   4  13    0.14    0.04
   2   4 -13    0.10    0.04
  -2   4  13    0.17    0.04
   2   4 -13    0.14    0.05
   2   4 -13    0.13    0.05
   1  -4 -13   11.55    0.59
  -1  -4  13   11.74    0.62
   1  -4 -13   11.90    0.60
  -1  -4  13   11.49    0.59
  -1  -4  13    9.52    0.60
   1  -4 -13   10.97    0.68
   1  -4 -13   11.19    0.62
  -1   4  13   10.01    0.58
   1   4 -13   11.52    0.57
   1   4 -13   10.74    0.56
   1   4 -13   11.25    0.59
  -1   4  13   11.09    0.68
   1   4 -13   11.40    0.57
   1   4 -13   10.89    0.57
   0  -4 -13    1.66    0.17
   0  -4 -13    1.48    0.16
   0  -4 -13    1.77    0.18
   0  -4  13    1.98    0.20
   0  -4  13    1.70    0.19
   0  -4 -13    1.77    0.16
   0  -4  13    1.44    0.15
   0   4  13    1.55    0.15
   0   4 -13    1.66    0.13
   0   4 -13    1.34    0.11
   0   4 -13    1.73    0.12
   0   4 -13    1.66    0.12
   0   4 -13    1.50    0.13
   0   4  13    1.53    0.18
   1  -4  13    4.78    0.29
  -1  -4 -13    5.17    0.34
   1  -4  13    4.42    0.30
  -1  -4 -13    4.96    0.29
   1  -4  13    4.75    0.28
  -1  -4 -13    5.00    0.29
   1   4  13    4.54    0.33
   1   4  13    3.98    0.27
  -1   4 -13    5.05    0.27
   1   4  13    4.91    0.31
   2  -4  13    0.83    0.09
  -2  -4 -13    0.90    0.11
   2  -4  13    0.85    0.10
  -2  -4 -13    0.69    0.09
  -2   4 -13    0.83    0.08
   2   4  13    0.88    0.11
  -3  -4 -13    5.48    0.32
   3  -4  13    5.96    0.31
  -3   4 -13    5.84    0.30
   3   4  13    6.28    0.33
   1  -5 -13   20.01    0.91
   1   5 -13   16.79    0.89
   8   0 -14    6.98    0.35
   8   0 -14    5.98    0.36
   7   0 -14    0.04    0.05
   5   0 -14    4.35    0.32
  -5   0  14    5.49    0.30
  -4   0  14    1.75    0.16
   4   0 -14    1.69    0.16
  -3   0  14   11.67    0.65
   3   0 -14   12.57    0.66
  -2   0  14   29.52    1.56
   2   0 -14   33.62    1.60
  -1   0  14   17.50    0.92
   1   0 -14   18.90    0.97
   0   0 -14    5.21    0.35
  -1   0 -14   22.98    1.20
  -2   0 -14    2.09    0.23
  -3   0 -14   20.06    1.05
   4   0  14    0.16    0.04
  -4   0 -14    0.16    0.07
  -5   0 -14   -0.04    0.05
   5   0  14    0.02    0.03
   8   1 -14    3.81    0.24
  -7  -1  14    4.57    0.27
  -6  -1  14   12.87    0.74
  -6  -1  14   11.31    0.61
  -6  -1  14   10.27    0.66
  -6  -1  14   11.10    0.61
   6   1 -14   11.18    0.63
  -5  -1  14   24.82    1.27
  -5  -1  14   22.07    1.35
  -5  -1  14   26.63    1.37
  -5  -1  14   24.45    1.28
   5   1 -14   26.92    1.31
  -4  -1  14    0.03    0.05
  -4  -1  14    0.06    0.05
  -4  -1  14    0.06    0.05
  -4  -1  14    0.00    0.06
   4   1 -14    0.02    0.03
   4   1 -14    0.12    0.07
  -3  -1  14    2.96    0.34
  -3  -1  14    2.91    0.23
  -3  -1  14    2.62    0.28
   3  -1 -14    2.59    0.21
  -3  -1  14    2.77    0.22
  -3  -1  14    2.84    0.21
   3   1 -14    2.69    0.25
  -2  -1  14   27.99    1.50
  -2  -1  14   29.69    1.49
   2  -1 -14   30.93    1.51
  -2  -1  14   30.39    1.67
   2  -1 -14   27.58    1.45
  -2  -1  14   28.56    1.47
  -2  -1  14   30.42    1.56
   2   1 -14   29.53    1.46
   1  -1 -14   22.34    1.16
  -1  -1  14   24.33    1.36
   1  -1 -14   22.91    1.17
   1  -1 -14   24.63    1.22
  -1  -1  14   22.68    1.19
  -1  -1  14   22.54    1.21
  -1  -1  14   22.09    1.17
  -1  -1  14   23.67    1.25
   1   1 -14   23.46    1.18
   0  -1  14    5.40    0.34
   0  -1 -14    5.52    0.34
   0  -1 -14    5.34    0.32
   0  -1  14    5.36    0.33
   0  -1 -14    5.64    0.38
   0   1 -14    5.13    0.36
   0   1 -14    5.44    0.34
  -1  -1 -14   31.02    1.53
   1  -1  14   29.57    1.53
  -1  -1 -14   32.40    1.59
  -1  -1 -14   28.69    1.60
  -1  -1 -14   31.50    1.56
  -1   1 -14   31.21    1.51
  -1   1 -14   30.65    1.54
   2  -1  14    0.62    0.08
  -2  -1 -14    0.70    0.15
  -2  -1 -14    0.70    0.11
  -2   1 -14    0.57    0.12
  -2   1 -14    0.78    0.16
  -3  -1 -14    1.14    0.12
  -3   1 -14    1.33    0.17
  -4  -1 -14    3.79    0.20
   4   1  14    3.25    0.19
  -4   1 -14    3.11    0.24
   5   1  14    0.30    0.04
  -5   1 -14    0.36    0.07
  -7  -2  14    3.61    0.23
   7   2 -14    3.69    0.24
  -6  -2  14    3.46    0.29
  -6  -2  14    3.92    0.28
  -6  -2  14    3.89    0.26
   6   2 -14    4.40    0.30
   6   2 -14    4.26    0.31
  -5  -2  14    9.20    0.52
  -5  -2  14    8.65    0.53
  -5  -2  14    8.97    0.50
  -5  -2  14    8.60    0.51
   5   2 -14    8.69    0.47
   5   2 -14    8.98    0.52
   5   2 -14    9.22    0.53
  -5   2  14    9.29    0.63
  -4  -2  14    8.21    0.47
  -4  -2  14    7.60    0.56
  -4  -2  14    8.48    0.48
  -4  -2  14    8.00    0.50
  -4  -2  14    8.61    0.52
   4  -2 -14    8.06    0.44
   4   2 -14    7.27    0.43
   4   2 -14    9.13    0.52
   3  -2 -14    0.60    0.15
  -3  -2  14    0.77    0.13
  -3  -2  14    0.83    0.13
  -3  -2  14    0.65    0.12
   3  -2 -14    0.73    0.11
  -3  -2  14    0.74    0.15
  -3  -2  14    0.65    0.13
   3   2 -14    0.58    0.08
   3   2 -14    0.76    0.10
   3   2 -14    0.83    0.10
   3   2 -14    0.75    0.14
  -2  -2  14    8.90    0.51
  -2  -2  14    9.21    0.52
  -2  -2  14    8.15    0.57
  -2  -2  14    8.86    0.52
   2  -2 -14    8.76    0.54
  -2  -2  14    8.87    0.54
   2  -2 -14    8.66    0.54
   2  -2 -14    9.01    0.51
   2  -2 -14    8.76    0.53
   2   2 -14    8.93    0.48
   2   2 -14    9.08    0.48
   2   2 -14    9.38    0.48
   1  -2 -14   16.89    0.90
  -1  -2  14   16.20    0.89
   1  -2 -14   16.85    0.88
  -1  -2  14   15.62    0.96
  -1  -2  14   16.48    0.92
  -1  -2  14   17.68    0.90
  -1  -2  14   17.02    0.89
   1  -2 -14   17.39    0.89
   1  -2 -14   17.48    0.93
   1  -2 -14   17.46    0.93
   1  -2 -14   15.27    0.96
   1   2 -14   17.10    0.86
   1   2 -14   16.95    0.86
   1   2 -14   17.26    0.86
  -1   2  14   18.29    0.93
   0  -2  14    1.54    0.21
   0  -2 -14    1.56    0.20
   0  -2 -14    1.61    0.18
   0  -2 -14    1.59    0.21
   0  -2  14    1.50    0.16
   0  -2  14    1.63    0.16
   0  -2  14    1.56    0.18
   0  -2 -14    1.57    0.16
   0  -2 -14    1.78    0.17
   0  -2 -14    1.64    0.17
   0  -2  14    1.62    0.17
   0   2 -14    1.63    0.13
   0   2 -14    1.61    0.13
   0   2 -14    1.65    0.14
   0   2  14    1.78    0.20
  -1  -2 -14    8.59    0.52
  -1  -2 -14    8.82    0.49
   1  -2  14    8.35    0.49
   1  -2  14    7.79    0.50
   1  -2  14    8.73    0.49
   1  -2  14    7.92    0.52
   1  -2  14    9.29    0.70
  -1  -2 -14    9.03    0.49
  -1  -2 -14    7.52    0.58
   1   2  14    9.35    0.54
  -1   2 -14    8.85    0.46
  -2  -2 -14    5.28    0.34
  -2  -2 -14    5.77    0.34
   2  -2  14    5.50    0.33
  -2  -2 -14    5.68    0.34
   2  -2  14    4.93    0.32
  -2  -2 -14    5.59    0.36
  -2   2 -14    5.95    0.32
   2   2  14    6.03    0.39
   3  -2  14    0.67    0.08
  -3  -2 -14    0.70    0.15
  -3   2 -14    0.69    0.13
   3   2  14    0.67    0.06
  -4  -2 -14    0.32    0.07
  -4  -2 -14    0.23    0.07
   4   2  14    0.27    0.09
   4   2  14    0.22    0.04
   5   2  14    4.21    0.24
  -5   2 -14    3.96    0.22
  -6  -3  14    0.65    0.08
  -6   3  14    0.45    0.09
  -6   3  14    0.49    0.09
   6   3 -14    0.62    0.09
   6   3 -14    0.64    0.07
  -5  -3  14    0.81    0.11
  -5  -3  14    0.79    0.12
  -5  -3  14    0.82    0.10
   5   3 -14    0.81    0.12
  -5   3  14    0.60    0.15
   5   3 -14    0.74    0.08
   5   3 -14    0.81    0.10
  -4  -3  14    2.50    0.21
  -4  -3  14    2.72    0.19
  -4  -3  14    2.46    0.20
  -4  -3  14    2.71    0.22
   4  -3 -14    2.27    0.18
   4   3 -14    2.33    0.19
  -4   3  14    2.88    0.27
   4   3 -14    2.16    0.27
   4   3 -14    2.30    0.15
   4   3 -14    2.86    0.22
   3  -3 -14    0.95    0.20
  -3  -3  14    1.21    0.15
  -3  -3  14    1.30    0.14
  -3  -3  14    1.20    0.13
  -3  -3  14    1.28    0.15
   3  -3 -14    0.99    0.17
   3  -3 -14    1.22    0.12
   3  -3 -14    1.19    0.13
   3   3 -14    1.30    0.14
   3   3 -14    1.15    0.10
   3   3 -14    1.34    0.12
   3   3 -14    1.21    0.15
   3   3 -14    1.30    0.11
  -3   3  14    1.27    0.20
   2  -3 -14    4.55    0.29
  -2  -3  14    4.39    0.29
   2  -3 -14    3.93    0.29
  -2  -3  14    4.73    0.32
  -2  -3  14    4.49    0.29
   2  -3 -14    4.03    0.30
   2  -3 -14    4.36    0.29
  -2  -3  14    4.49    0.30
   2   3 -14    4.47    0.26
   2   3 -14    4.68    0.26
   2   3 -14    4.60    0.26
   2   3 -14    4.62    0.31
  -2   3  14    4.99    0.40
   1  -3 -14    7.04    0.44
   1  -3 -14    7.10    0.41
  -1  -3  14    7.19    0.43
  -1  -3  14    6.99    0.42
  -1  -3  14    7.30    0.46
  -1  -3  14    7.12    0.41
   1  -3 -14    6.82    0.42
   1  -3 -14    7.40    0.42
  -1  -3  14    6.32    0.48
   1   3 -14    7.10    0.38
   1   3 -14    7.55    0.39
  -1   3  14    7.59    0.44
  -1   3  14    7.55    0.53
   1   3 -14    7.37    0.44
   1   3 -14    7.08    0.38
  -1   3  14    6.76    0.40
   0  -3 -14    2.83    0.23
   0  -3 -14    2.86    0.21
   0  -3  14    2.67    0.22
   0  -3 -14    2.57    0.21
   0  -3  14    2.76    0.21
   0  -3  14    2.70    0.20
   0  -3  14    2.85    0.22
   0  -3 -14    2.96    0.22
   0   3  14    2.96    0.24
   0   3 -14    2.91    0.19
   0   3  14    2.69    0.20
   0   3 -14    2.76    0.22
   0   3 -14    3.22    0.26
   0   3  14    2.89    0.29
   0   3 -14    2.69    0.21
  -1  -3 -14    0.49    0.09
  -1  -3 -14    0.49    0.10
   1  -3  14    0.30    0.09
   1  -3  14    0.49    0.10
  -1  -3 -14    0.44    0.11
   1  -3  14    0.48    0.09
  -1  -3 -14    0.53    0.10
   1   3  14    0.45    0.11
   1   3  14    0.40    0.06
  -1   3 -14    0.43    0.09
   1   3  14    0.42    0.13
   2  -3  14    6.19    0.36
  -2  -3 -14    7.00    0.45
  -2  -3 -14    6.89    0.39
  -2  -3 -14    6.95    0.38
   2  -3  14    6.33    0.43
   2   3  14    7.28    0.42
   2   3  14    6.03    0.46
   3  -3  14    0.54    0.06
  -3  -3 -14    0.58    0.09
  -3  -3 -14    0.54    0.08
  -3   3 -14    0.64    0.08
   3   3  14    0.58    0.10
  -4  -3 -14    4.82    0.26
   4   3  14    4.64    0.27
   5   4 -14    2.26    0.16
  -4  -4  14    0.02    0.03
   4  -4 -14    0.01    0.03
   4   4 -14    0.04    0.03
  -4   4  14    0.04    0.03
   4   4 -14    0.03    0.03
   4   4 -14    0.03    0.03
  -3  -4  14    0.94    0.10
   3  -4 -14    1.24    0.13
   3   4 -14    1.16    0.09
   3   4 -14    1.17    0.11
   3   4 -14    0.91    0.08
   3   4 -14    1.14    0.09
  -3   4  14    0.97    0.13
   2  -4 -14    2.34    0.18
  -2  -4  14    2.54    0.18
   2  -4 -14    2.58    0.17
   2   4 -14    2.51    0.17
  -2   4  14    2.59    0.23
   2   4 -14    2.31    0.15
   2   4 -14    2.46    0.15
   2   4 -14    2.53    0.15
   1  -4 -14    0.59    0.08
  -1  -4  14    0.57    0.09
  -1  -4  14    0.45    0.07
   1  -4 -14    0.63    0.09
   1   4 -14    0.46    0.06
  -1   4  14    0.68    0.12
   1   4 -14    0.45    0.06
   1   4 -14    0.62    0.07
  -1   4  14    0.51    0.09
   1   4 -14    0.43    0.06
   0  -4  14    4.44    0.25
   0  -4 -14    4.19    0.24
   0  -4  14    4.30    0.24
   0   4  14    3.46    0.33
   0   4  14    3.82    0.27
   0   4 -14    4.12    0.23
   1  -4  14    2.67    0.20
  -1  -4 -14    2.71    0.22
  -1  -4 -14    2.93    0.17
   1  -4  14    2.44    0.21
  -1   4 -14    2.59    0.18
   1   4  14    2.62    0.19
  -2  -4 -14    2.49    0.15
   2  -4  14    2.88    0.16
   2   4  14    2.37    0.16
  -2   4 -14    2.24    0.14
   7   0 -15    0.41    0.08
   5   0 -15   11.32    0.68
   4   0 -15    7.40    0.45
   3   0 -15   27.62    1.36
  -3   0  15   26.19    1.35
   0   0 -15    1.65    0.18
   7  -1 -15    1.07    0.10
  -6  -1  15    2.47    0.16
   6   1 -15    2.40    0.22
   6   1 -15    2.28    0.19
  -5  -1  15    5.60    0.34
  -5  -1  15    5.28    0.32
   5   1 -15    5.19    0.43
  -4  -1  15    6.43    0.44
  -4  -1  15    6.91    0.41
  -4  -1  15    6.94    0.40
   4   1 -15    7.70    0.45
  -3  -1  15   53.55    2.53
  -3  -1  15   51.42    2.62
  -3  -1  15   48.99    2.55
  -3  -1  15   52.60    2.60
  -2  -1  15    3.92    0.37
  -2  -1  15    4.51    0.29
   2  -1 -15    4.91    0.32
  -2  -1  15    4.31    0.31
  -1  -1  15    3.30    0.23
   1  -1 -15    3.27    0.20
   1  -1 -15    3.64    0.27
  -1  -1  15    3.04    0.27
  -1   1  15    2.86    0.24
   0  -1  15    1.11    0.12
   0  -1 -15    0.96    0.11
   0  -1 -15    1.26    0.22
   0   1 -15    1.04    0.09
  -1  -1 -15    2.23    0.15
  -1   1 -15    1.58    0.13
  -2  -1 -15    8.98    0.46
  -2   1 -15    6.82    0.42
  -3   1 -15    4.15    0.23
  -4   1 -15    2.71    0.15
   5   1  15    0.72    0.10
   7   2 -15    1.57    0.13
  -6  -2  15   10.30    0.52
   6   2 -15   10.73    0.54
   6   2 -15    8.62    0.54
  -5  -2  15    8.03    0.43
  -5  -2  15    8.37    0.46
   5   2 -15    6.54    0.49
   5   2 -15    7.99    0.45
  -4  -2  15   18.57    1.05
  -4  -2  15   19.63    1.03
  -4  -2  15   22.48    1.15
  -4  -2  15   19.66    1.04
   4   2 -15   21.22    1.08
   4   2 -15   20.52    1.07
  -3  -2  15    6.30    0.39
  -3  -2  15    6.69    0.39
  -3  -2  15    6.61    0.41
  -3  -2  15    6.56    0.39
   3   2 -15    7.22    0.43
   3   2 -15    6.45    0.39
  -2  -2  15    5.66    0.36
   2  -2 -15    5.76    0.37
   2  -2 -15    6.20    0.35
  -2  -2  15    6.18    0.36
  -2  -2  15    6.29    0.37
  -2  -2  15    5.77    0.39
   2   2 -15    6.36    0.39
   2   2 -15    5.64    0.40
   2   2 -15    5.49    0.36
  -1  -2  15    5.80    0.36
  -1  -2  15    6.19    0.37
  -1  -2  15    6.06    0.35
   1  -2 -15    6.10    0.35
   1  -2 -15    6.10    0.35
  -1  -2  15    5.82    0.38
  -1   2  15    5.99    0.38
   0  -2  15   20.04    1.09
   0  -2 -15   19.13    1.09
   0  -2 -15   20.84    1.06
   0  -2  15   20.46    1.06
   0  -2 -15   21.32    1.06
   0  -2  15   20.90    1.07
   0  -2  15   22.09    1.14
   0   2 -15   22.17    1.04
   0   2  15   22.13    1.11
  -1  -2 -15    7.30    0.40
  -1  -2 -15    7.43    0.52
  -1  -2 -15    7.14    0.42
   1  -2  15    6.44    0.38
   1  -2  15    6.32    0.42
  -1   2 -15    6.38    0.41
   1   2  15    7.74    0.44
  -2  -2 -15    3.21    0.24
  -2  -2 -15    3.19    0.21
  -2   2 -15    3.65    0.23
   2   2  15    3.69    0.26
  -3  -2 -15    0.53    0.09
  -3   2 -15    0.61    0.07
   3   2  15    0.56    0.10
  -4   2 -15    2.28    0.13
  -6  -3  15    1.25    0.09
  -6   3  15    1.11    0.08
  -6   3  15    1.10    0.08
  -5  -3  15    0.90    0.12
  -5  -3  15    0.81    0.12
  -5   3  15    0.69    0.07
   5   3 -15    0.82    0.11
  -5   3  15    0.67    0.07
  -4  -3  15    0.05    0.04
  -4  -3  15    0.04    0.04
  -4   3  15    0.04    0.05
  -4   3  15    0.08    0.05
   4   3 -15    0.03    0.05
  -4   3  15    0.11    0.06
   4   3 -15    0.06    0.03
  -3  -3  15    3.27    0.21
  -3  -3  15    2.70    0.22
   3  -3 -15    3.16    0.19
  -3   3  15    3.42    0.28
  -3   3  15    2.83    0.21
  -3   3  15    2.85    0.21
   2  -3 -15    1.87    0.14
  -2  -3  15    2.10    0.17
   2  -3 -15    2.11    0.18
  -2  -3  15    2.05    0.17
   2   3 -15    1.66    0.22
   2   3 -15    1.91    0.15
   2   3 -15    1.96    0.15
   2   3 -15    1.94    0.13
  -2   3  15    2.05    0.23
  -1  -3  15    0.66    0.10
  -1  -3  15    0.71    0.11
   1  -3 -15    0.64    0.09
   1  -3 -15    0.66    0.12
  -1  -3  15    0.71    0.16
   1   3 -15    0.62    0.07
  -1   3  15    0.50    0.09
   1   3 -15    0.64    0.07
  -1   3  15    0.62    0.15
   1   3 -15    0.65    0.08
   1   3 -15    0.74    0.13
   0  -3  15    1.16    0.11
   0  -3 -15    1.10    0.11
   0  -3 -15    1.37    0.17
   0  -3  15    0.96    0.15
   0   3  15    1.26    0.13
   0   3 -15    1.24    0.12
   0   3 -15    1.25    0.10
   0   3  15    1.23    0.17
   1  -3  15   14.08    0.82
  -1  -3 -15   15.31    0.81
   1  -3  15   15.75    0.81
  -1  -3 -15   16.35    0.81
   1   3  15   17.18    0.84
  -1   3 -15   15.97    0.81
  -1   3 -15   16.86    0.80
   1   3  15   16.93    0.90
   2  -3  15    1.37    0.11
  -2  -3 -15    1.84    0.16
  -2   3 -15    1.30    0.12
   2   3  15    1.84    0.15
   3   3  15    2.68    0.17
  -3   3 -15    2.60    0.15
  -3   4  15    0.36    0.08
  -2  -4  15    0.51    0.06
   2  -4 -15    0.57    0.07
   2   4 -15    0.62    0.05
  -2   4  15    0.53    0.08
  -1  -4  15    0.05    0.03
   1  -4 -15    0.03    0.03
  -1   4  15    0.06    0.04
   1   4 -15    0.05    0.03
   0  -4  15    3.11    0.18
   0  -4 -15    3.44    0.19
   0   4 -15    2.54    0.17
   7   0 -16    5.05    0.29
   5   0 -16    4.46    0.27
   4   0 -16    4.91    0.39
  -1   0  16    0.52    0.11
   7   1 -16    5.30    0.30
   6   1 -16    6.44    0.37
  -5  -1  16    2.40    0.16
  -5   1  16    2.08    0.19
  -4  -1  16    5.29    0.31
   4   1 -16    5.50    0.35
  -3  -1  16    6.32    0.39
   3   1 -16    6.36    0.40
  -2  -1  16    0.83    0.12
   0   1  16    2.59    0.24
   1   1  16    1.63    0.17
  -2   1 -16    3.57    0.19
   3   1  16    0.07    0.04
   4   1  16    0.28    0.05
  -5  -2  16    4.35    0.26
   5   2 -16    4.15    0.24
  -5   2  16    3.55    0.30
  -4  -2  16    6.50    0.38
  -4  -2  16    7.24    0.42
   4   2 -16    6.49    0.38
  -4   2  16    6.89    0.45
   4   2 -16    6.96    0.40
  -3  -2  16    2.52    0.18
  -3  -2  16    2.43    0.22
   3   2 -16    3.23    0.23
   3   2 -16    2.89    0.19
  -2  -2  16    0.80    0.10
  -2  -2  16    0.79    0.10
   2   2 -16    0.91    0.14
  -1  -2  16    1.67    0.13
  -1  -2  16    1.59    0.15
   1  -2 -16    1.73    0.12
  -1   2  16    1.41    0.14
   0  -2 -16    3.01    0.19
   0  -2  16    3.10    0.19
   0   2  16    3.51    0.23
  -1  -2 -16    2.70    0.17
   1   2  16    2.60    0.19
  -1   2 -16    2.18    0.17
   2   2  16    5.23    0.38
   2   2  16    5.65    0.33
  -2   2 -16    5.60    0.31
   3   2  16    0.89    0.09
  -4  -3  16    0.06    0.03
   4   3 -16    0.09    0.03
  -4   3  16    0.05    0.04
  -3  -3  16    6.76    0.38
   3   3 -16    6.94    0.40
  -2  -3  16    3.64    0.23
   2   3 -16    3.98    0.29
  -2   3  16    3.91    0.29
   1  -3 -16   13.96    0.74
  -1  -3  16   14.47    0.78
  -1   3  16   16.61    0.84
   1   3 -16   15.78    0.78
   0  -3 -16    0.60    0.06
   0  -3  16    0.62    0.07
   0   3  16    0.49    0.07
   0   3 -16    0.49    0.05
  -1   3 -16    3.02    0.17
   1   3  16    3.06    0.19
   6   0 -17    0.01    0.01
   4   0 -17   10.97    0.58
   3   0 -17    6.13    0.36
   0   0  17   22.61    1.14
   3   0  17    0.25    0.07
   6  -1 -17    1.23    0.10
   5   1 -17   11.14    0.58
   4   1 -17   13.98    0.73
   3  -1 -17    1.10    0.11
   3   1 -17    1.51    0.14
   0   1  17    1.09    0.12
   1   1  17    1.41    0.14
   2   1  17    6.17    0.34
   3   1  17    3.50    0.22
  -4   2  17    5.33    0.38
   4   2 -17    7.01    0.35
  -3  -2  17    0.31    0.09
   3   2 -17    0.40    0.07
  -3   2  17    0.30    0.12
  -2   2  17    4.71    0.34
   2   2 -17    4.78    0.29
   1   2 -17    0.29    0.08
  -1   2  17    0.32    0.10
   0   2 -17    5.16    0.32
   0   2  17    4.58    0.41
  -1   2 -17    0.97    0.10
   1   2  17    1.04    0.12
  -2   3  17    1.89    0.15
   3   0 -18    0.68    0.08
   2   0 -18   11.43    0.60
   3   1 -18    0.44    0.07
   2   1 -18    5.04    0.30
   1   1 -18    2.89    0.21
  -1   1 -18    2.71    0.19
  -2   2  18    3.36    0.26
   2   2 -18    3.33    0.22
   1   2 -18    3.26    0.19
  -1   2  18    3.35    0.23
   0   0   0    0.00    0.00
;
_shelx_hkl_checksum              14104
_olex2_submission_special_instructions 'No special instructions were received'
loop_
_space_group_symop_operation_xyz
'x, y, z'
'-x, y+1/2, -z'
loop_
_atom_site_label
_atom_site_type_symbol
_atom_site_fract_x
_atom_site_fract_y
_atom_site_fract_z
_atom_site_U_iso_or_equiv
_atom_site_adp_type
_atom_site_occupancy
_atom_site_site_symmetry_order
_atom_site_calc_flag
_atom_site_refinement_flags_posn
F1 F 0.73321(16) 0.1607(2) 0.16661(9) 0.0395(3) Uani 1 1 d .
F2 F 0.57808(13) 0.2920(3) 0.04834(8) 0.0366(3) Uani 1 1 d .
F3 F 0.95414(14) 0.4795(3) 0.12839(9) 0.0510(4) Uani 1 1 d .
F4 F 0.86937(15) 0.2356(3) 0.01812(9) 0.0502(4) Uani 1 1 d .
F5 F 0.80130(17) 0.6170(3) 0.01209(9) 0.0486(4) Uani 1 1 d .
O1 O 0.90483(14) 0.6254(3) 0.63584(9) 0.0254(3) Uani 1 1 d .
N1 N 0.51930(18) 0.6832(3) 0.30176(11) 0.0264(4) Uani 1 1 d .
C1 C 0.7296(2) 0.4748(4) 0.39972(13) 0.0228(4) Uani 1 1 d .
H1 H 0.739885 0.359297 0.352887 0.027 Uiso 1 1 calc R
C2 C 0.82724(19) 0.4575(4) 0.48236(13) 0.0220(4) Uani 1 1 d .
H2 H 0.902623 0.330433 0.491443 0.026 Uiso 1 1 calc R
C3 C 0.81485(19) 0.6250(4) 0.55148(12) 0.0207(4) Uani 1 1 d .
C4 C 0.70294(19) 0.8088(3) 0.53720(13) 0.0217(4) Uani 1 1 d .
H4 H 0.693558 0.923973 0.584272 0.026 Uiso 1 1 calc R
C5 C 0.60512(19) 0.8261(3) 0.45528(13) 0.0216(4) Uani 1 1 d .
H5 H 0.529293 0.952537 0.447040 0.026 Uiso 1 1 calc R
C6 C 0.61635(19) 0.6593(4) 0.38416(12) 0.0209(4) Uani 1 1 d .
C7 C 1.0147(2) 0.4310(4) 0.65313(14) 0.0278(4) Uani 1 1 d .
H7A H 1.090139 0.444755 0.611046 0.042 Uiso 1 1 calc GR
H7B H 0.962055 0.271237 0.644392 0.042 Uiso 1 1 calc GR
H7C H 1.067650 0.443325 0.715832 0.042 Uiso 1 1 calc GR
C8 C 0.3830(2) 0.8396(4) 0.29123(13) 0.0244(4) Uani 1 1 d .
H8A H 0.411033 1.014968 0.303430 0.029 Uiso 1 1 calc R
H8B H 0.310757 0.787084 0.332630 0.029 Uiso 1 1 calc R
C9 C 0.3132(2) 0.8019(4) 0.19252(14) 0.0289(4) Uani 1 1 d .
H9A H 0.359414 0.915838 0.152071 0.035 Uiso 1 1 calc R
H9B H 0.200336 0.827008 0.183670 0.035 Uiso 1 1 calc R
C10 C 0.3537(2) 0.5323(4) 0.17482(15) 0.0278(4) Uani 1 1 d .
H10A H 0.352387 0.501508 0.109098 0.033 Uiso 1 1 calc R
H10B H 0.281269 0.417084 0.198136 0.033 Uiso 1 1 calc R
C11 C 0.5171(2) 0.5052(4) 0.22767(12) 0.0228(4) Uani 1 1 d .
H11 H 0.532897 0.333945 0.252609 0.027 Uiso 1 1 calc R
C12 C 0.6456(2) 0.5719(4) 0.17136(13) 0.0232(4) Uani 1 1 d .
H12A H 0.609734 0.711466 0.130603 0.028 Uiso 1 1 calc R
H12B H 0.736896 0.629043 0.213422 0.028 Uiso 1 1 calc R
C13 C 0.6934(2) 0.3646(4) 0.11502(14) 0.0261(4) Uani 1 1 d .
C14 C 0.8326(2) 0.4246(5) 0.06716(14) 0.0347(5) Uani 1 1 d .
loop_
_atom_site_aniso_label
_atom_site_aniso_U_11
_atom_site_aniso_U_22
_atom_site_aniso_U_33
_atom_site_aniso_U_23
_atom_site_aniso_U_13
_atom_site_aniso_U_12
F1 0.0480(7) 0.0296(6) 0.0418(7) 0.0025(5) 0.0099(6) 0.0091(6)
F2 0.0259(6) 0.0494(8) 0.0334(7) -0.0177(6) 0.0003(5) -0.0039(5)
F3 0.0211(6) 0.0883(12) 0.0434(8) -0.0178(8) 0.0040(5) -0.0065(7)
F4 0.0359(7) 0.0743(11) 0.0417(8) -0.0215(7) 0.0103(6) 0.0120(7)
F5 0.0467(8) 0.0629(10) 0.0407(8) 0.0093(7) 0.0213(6) -0.0030(7)
O1 0.0197(6) 0.0300(7) 0.0252(7) -0.0019(5) -0.0007(5) 0.0028(5)
N1 0.0221(8) 0.0343(9) 0.0223(8) -0.0025(7) 0.0021(6) 0.0086(7)
C1 0.0188(8) 0.0269(10) 0.0237(9) -0.0029(7) 0.0065(7) 0.0016(7)
C2 0.0157(8) 0.0235(9) 0.0274(10) 0.0007(7) 0.0050(7) 0.0017(7)
C3 0.0145(7) 0.0245(9) 0.0232(9) 0.0005(7) 0.0034(6) -0.0020(7)
C4 0.0192(8) 0.0222(9) 0.0244(9) -0.0030(7) 0.0058(7) -0.0001(7)
C5 0.0178(8) 0.0218(9) 0.0264(9) 0.0013(7) 0.0068(7) 0.0015(7)
C6 0.0159(8) 0.0254(9) 0.0224(9) 0.0036(7) 0.0058(6) -0.0005(7)
C7 0.0192(9) 0.0330(10) 0.0296(10) 0.0016(8) -0.0015(7) 0.0033(8)
C8 0.0192(8) 0.0256(9) 0.0286(10) 0.0059(7) 0.0047(7) 0.0031(7)
C9 0.0207(9) 0.0349(11) 0.0300(11) 0.0047(9) 0.0002(7) 0.0037(8)
C10 0.0196(9) 0.0326(10) 0.0306(10) -0.0005(8) 0.0014(7) -0.0016(7)
C11 0.0194(8) 0.0271(9) 0.0223(9) 0.0012(7) 0.0041(7) -0.0010(7)
C12 0.0213(9) 0.0258(9) 0.0227(9) -0.0017(7) 0.0039(7) -0.0039(7)
C13 0.0224(9) 0.0302(10) 0.0245(10) -0.0027(7) -0.0007(7) -0.0007(7)
C14 0.0240(10) 0.0507(13) 0.0295(11) -0.0089(10) 0.0047(8) 0.0014(9)
loop_
_atom_type_symbol
_atom_type_description
_atom_type_scat_dispersion_real
_atom_type_scat_dispersion_imag
_atom_type_scat_source
C C 0.0181 0.0091 'International Tables Vol C Tables 4.2.6.8 and 6.1.1.4'
H H 0.0000 0.0000 'International Tables Vol C Tables 4.2.6.8 and 6.1.1.4'
F F 0.0727 0.0534 'International Tables Vol C Tables 4.2.6.8 and 6.1.1.4'
N N 0.0311 0.0180 'International Tables Vol C Tables 4.2.6.8 and 6.1.1.4'
O O 0.0492 0.0322 'International Tables Vol C Tables 4.2.6.8 and 6.1.1.4'
loop_
_exptl_crystal_face_index_h
_exptl_crystal_face_index_k
_exptl_crystal_face_index_l
_exptl_crystal_face_perp_dist
-1.00 0.00 1.00 0.0540
1.00 0.00 -1.00 0.0840
0.00 -1.00 0.00 0.1120
0.00 0.00 -1.00 0.0160
0.00 0.00 1.00 0.0580
0.00 2.00 1.00 0.1100
loop_
_geom_angle_atom_site_label_1
_geom_angle_atom_site_label_2
_geom_angle_atom_site_label_3
_geom_angle
C3 O1 C7 116.32(14)
C6 N1 C8 122.33(15)
C6 N1 C11 122.73(15)
C8 N1 C11 112.61(15)
C2 C1 H1 119.3
C2 C1 C6 121.37(17)
C6 C1 H1 119.3
C1 C2 H2 119.9
C3 C2 C1 120.27(17)
C3 C2 H2 119.9
O1 C3 C2 125.28(16)
O1 C3 C4 115.65(16)
C2 C3 C4 119.07(16)
C3 C4 H4 119.6
C5 C4 C3 120.87(16)
C5 C4 H4 119.6
C4 C5 H5 119.5
C4 C5 C6 120.98(16)
C6 C5 H5 119.5
N1 C6 C1 122.49(17)
N1 C6 C5 120.07(16)
C1 C6 C5 117.43(16)
O1 C7 H7A 109.5
O1 C7 H7B 109.5
O1 C7 H7C 109.5
H7A C7 H7B 109.5
H7A C7 H7C 109.5
H7B C7 H7C 109.5
N1 C8 H8A 111.1
N1 C8 H8B 111.1
N1 C8 C9 103.42(15)
H8A C8 H8B 109.0
C9 C8 H8A 111.1
C9 C8 H8B 111.1
C8 C9 H9A 111.2
C8 C9 H9B 111.2
C8 C9 C10 102.93(16)
H9A C9 H9B 109.1
C10 C9 H9A 111.2
C10 C9 H9B 111.2
C9 C10 H10A 111.2
C9 C10 H10B 111.2
C9 C10 C11 103.05(15)
H10A C10 H10B 109.1
C11 C10 H10A 111.2
C11 C10 H10B 111.2
N1 C11 C10 103.22(15)
N1 C11 H11 110.2
N1 C11 C12 109.07(15)
C10 C11 H11 110.2
C10 C11 C12 113.73(16)
C12 C11 H11 110.2
C11 C12 H12A 108.6
C11 C12 H12B 108.6
H12A C12 H12B 107.6
C13 C12 C11 114.69(16)
C13 C12 H12A 108.6
C13 C12 H12B 108.6
F1 C13 F2 106.04(16)
F1 C13 C12 111.21(16)
F1 C13 C14 106.13(17)
F2 C13 C12 112.47(16)
F2 C13 C14 106.21(16)
C12 C13 C14 114.22(16)
F3 C14 C13 110.02(17)
F4 C14 F3 108.21(18)
F4 C14 F5 108.10(17)
F4 C14 C13 111.63(19)
F5 C14 F3 108.6(2)
F5 C14 C13 110.23(17)
loop_
_geom_bond_atom_site_label_1
_geom_bond_atom_site_label_2
_geom_bond_distance
F1 C13 1.359(2)
F2 C13 1.365(2)
F3 C14 1.329(2)
F4 C14 1.324(3)
F5 C14 1.328(3)
O1 C3 1.379(2)
O1 C7 1.425(2)
N1 C6 1.390(2)
N1 C8 1.456(2)
N1 C11 1.462(2)
C1 H1 0.9500
C1 C2 1.393(3)
C1 C6 1.404(2)
C2 H2 0.9500
C2 C3 1.387(3)
C3 C4 1.392(2)
C4 H4 0.9500
C4 C5 1.385(3)
C5 H5 0.9500
C5 C6 1.405(3)
C7 H7A 0.9800
C7 H7B 0.9800
C7 H7C 0.9800
C8 H8A 0.9900
C8 H8B 0.9900
C8 C9 1.518(3)
C9 H9A 0.9900
C9 H9B 0.9900
C9 C10 1.534(3)
C10 H10A 0.9900
C10 H10B 0.9900
C10 C11 1.537(3)
C11 H11 1.0000
C11 C12 1.546(2)
C12 H12A 0.9900
C12 H12B 0.9900
C12 C13 1.497(3)
C13 C14 1.539(3)
loop_
_geom_torsion_atom_site_label_1
_geom_torsion_atom_site_label_2
_geom_torsion_atom_site_label_3
_geom_torsion_atom_site_label_4
_geom_torsion
F1 C13 C14 F3 -62.8(2)
F1 C13 C14 F4 57.4(2)
F1 C13 C14 F5 177.53(17)
F2 C13 C14 F3 -175.34(19)
F2 C13 C14 F4 -55.2(2)
F2 C13 C14 F5 65.0(2)
O1 C3 C4 C5 -179.64(15)
N1 C8 C9 C10 33.01(19)
N1 C11 C12 C13 159.80(15)
C1 C2 C3 O1 179.89(16)
C1 C2 C3 C4 0.5(3)
C2 C1 C6 N1 178.85(17)
C2 C1 C6 C5 0.0(3)
C2 C3 C4 C5 -0.2(3)
C3 C4 C5 C6 -0.2(3)
C4 C5 C6 N1 -178.57(16)
C4 C5 C6 C1 0.3(2)
C6 N1 C8 C9 -178.58(17)
C6 N1 C11 C10 154.41(17)
C6 N1 C11 C12 -84.3(2)
C6 C1 C2 C3 -0.4(3)
C7 O1 C3 C2 -2.5(3)
C7 O1 C3 C4 176.98(16)
C8 N1 C6 C1 167.29(17)
C8 N1 C6 C5 -13.9(3)
C8 N1 C11 C10 -8.6(2)
C8 N1 C11 C12 112.65(17)
C8 C9 C10 C11 -38.47(19)
C9 C10 C11 N1 28.85(19)
C9 C10 C11 C12 -89.18(19)
C10 C11 C12 C13 -85.6(2)
C11 N1 C6 C1 5.9(3)
C11 N1 C6 C5 -175.22(16)
C11 N1 C8 C9 -15.5(2)
C11 C12 C13 F1 -53.9(2)
C11 C12 C13 F2 64.9(2)
C11 C12 C13 C14 -173.93(16)
C12 C13 C14 F3 60.1(2)
C12 C13 C14 F4 -179.74(17)
C12 C13 C14 F5 -59.6(2)
