#------------------------------------------------------------------------------
#$Date: 2019-11-03 17:22:35 +0200 (Sun, 03 Nov 2019) $
#$Revision: 221954 $
#$URL: file:///home/coder/svn-repositories/cod/cif/4/12/89/4128918.cif $
#------------------------------------------------------------------------------
#
# This file is available in the Crystallography Open Database (COD),
# http://www.crystallography.net/
#
# All data on this site have been placed in the public domain by the
# contributors.
#
data_4128918
loop_
_publ_author_name
'Haut, Franz-Lucas'
'Habiger, Christoph'
'Speck, Klaus'
'Wurst, Klaus'
'Mayer, Peter'
'Korber, Johannes Nepomuk'
'M\"uller, Thomas'
'Magauer, Thomas'
_publ_section_title
;
 Synthetic Entry to Polyfunctionalized Molecules through the
 [3+2]-Cycloaddition of Thiocarbonyl Ylides.
;
_journal_issue                   34
_journal_name_full               'Journal of the American Chemical Society'
_journal_page_first              13352
_journal_page_last               13357
_journal_paper_doi               10.1021/jacs.9b07729
_journal_volume                  141
_journal_year                    2019
_chemical_formula_sum            'C16 H15 N O4 S'
_chemical_formula_weight         317.35
_space_group_crystal_system      triclinic
_space_group_IT_number           2
_space_group_name_Hall           '-P 1'
_space_group_name_H-M_alt        'P -1'
_atom_sites_solution_hydrogens   geom
_audit_creation_method           SHELXL-2014/7
_cell_angle_alpha                105.357(1)
_cell_angle_beta                 102.201(2)
_cell_angle_gamma                97.465(1)
_cell_formula_units_Z            2
_cell_length_a                   7.6475(4)
_cell_length_b                   8.1332(4)
_cell_length_c                   13.0597(6)
_cell_measurement_reflns_used    9957
_cell_measurement_temperature    213(2)
_cell_measurement_theta_max      50.4
_cell_measurement_theta_min      2.65
_cell_volume                     750.56(6)
_computing_cell_refinement       'Bruker SAINT-V 8.34A'
_computing_data_collection       'Bruker Apex III'
_computing_data_reduction        'Bruker SAINT-V 8.34A'
_computing_structure_refinement  'SHELXL-2014/7 (Sheldrick, 2014)'
_computing_structure_solution    'SHELXTL-XT-2014/4 (Bruker AXS, 2014)'
_diffrn_ambient_temperature      213(2)
_diffrn_detector_area_resol_mean 10.4
_diffrn_measured_fraction_theta_full 1.000
_diffrn_measured_fraction_theta_max 1.000
_diffrn_measurement_device_type  'Bruker D8 QUEST PHOTON 100'
_diffrn_measurement_method       '\f and \w scans'
_diffrn_radiation_monochromator  'multi layered optics'
_diffrn_radiation_type           MoK\a
_diffrn_radiation_wavelength     0.71073
_diffrn_reflns_av_R_equivalents  0.0251
_diffrn_reflns_av_unetI/netI     0.0136
_diffrn_reflns_Laue_measured_fraction_full 1.000
_diffrn_reflns_Laue_measured_fraction_max 1.000
_diffrn_reflns_limit_h_max       9
_diffrn_reflns_limit_h_min       -9
_diffrn_reflns_limit_k_max       9
_diffrn_reflns_limit_k_min       -9
_diffrn_reflns_limit_l_max       15
_diffrn_reflns_limit_l_min       -15
_diffrn_reflns_number            19592
_diffrn_reflns_point_group_measured_fraction_full 1.000
_diffrn_reflns_point_group_measured_fraction_max 1.000
_diffrn_reflns_theta_full        24.998
_diffrn_reflns_theta_max         24.998
_diffrn_reflns_theta_min         2.649
_diffrn_source                   'Incoatec Microfocus'
_exptl_absorpt_coefficient_mu    0.233
_exptl_absorpt_correction_T_max  0.971
_exptl_absorpt_correction_T_min  0.913
_exptl_absorpt_correction_type   multi-scan
_exptl_absorpt_process_details   'Bruker SADABS-2014/5)'
_exptl_crystal_colour            colourless
_exptl_crystal_density_diffrn    1.404
_exptl_crystal_description       prism
_exptl_crystal_F_000             332
_exptl_crystal_size_max          0.180
_exptl_crystal_size_mid          0.110
_exptl_crystal_size_min          0.070
_refine_diff_density_max         0.249
_refine_diff_density_min         -0.155
_refine_diff_density_rms         0.036
_refine_ls_extinction_coef       0.041(3)
_refine_ls_extinction_expression Fc^*^=kFc[1+0.001xFc^2^\l^3^/sin(2\q)]^-1/4^
_refine_ls_extinction_method     'SHELXL-2014/7 (Sheldrick 2014'
_refine_ls_goodness_of_fit_ref   1.041
_refine_ls_hydrogen_treatment    constr
_refine_ls_matrix_type           full
_refine_ls_number_parameters     219
_refine_ls_number_reflns         2644
_refine_ls_number_restraints     0
_refine_ls_restrained_S_all      1.041
_refine_ls_R_factor_all          0.0368
_refine_ls_R_factor_gt           0.0323
_refine_ls_shift/su_max          0.000
_refine_ls_shift/su_mean         0.000
_refine_ls_structure_factor_coef Fsqd
_refine_ls_weighting_details
'w=1/[\s^2^(Fo^2^)+(0.0415P)^2^+0.2217P] where P=(Fo^2^+2Fc^2^)/3'
_refine_ls_weighting_scheme      calc
_refine_ls_wR_factor_gt          0.0821
_refine_ls_wR_factor_ref         0.0846
_reflns_Friedel_coverage         0.000
_reflns_number_gt                2375
_reflns_number_total             2644
_reflns_threshold_expression     'I > 2\s(I)'
_cod_data_source_file            CCDC1921467_8n.cif
_cod_data_source_block           mar18n12
_cod_database_code               4128918
_shelx_shelxl_version_number     2014/7
_shelx_space_group_comment
;
The symmetry employed for this shelxl refinement is uniquely defined
by the following loop, which should always be used as a source of
symmetry information in preference to the above space-group names.
They are only intended as comments.
;
_shelx_estimated_absorpt_t_min   0.959
_shelx_estimated_absorpt_t_max   0.984
_shelx_res_file
;

    mar18n12.res created by SHELXL-2014/7


TITL p_a.res in P-1
REM Old TITL p in P-1

REM SHELXT solution in P-1
REM R1 0.180,  Rweak 0.015,  Alpha 0.035,  Orientation as input
REM Formula found by SHELXT:  C16 N O4 S

CELL  0.71073   7.6475   8.1332  13.0597  105.357  102.201   97.465
ZERR    2.000   0.0004   0.0004   0.0006    0.001    0.002    0.001
LATT  1
SFAC C H N O S
UNIT 32 30 2 8 2
TEMP -60.150
SIZE 0.07 0.11 0.18
L.S. 10
OMIT -1 50
ACTA
CONF
EQIV $1 -x+1, -y+1, -z
HTAB C3 S1_$1
BOND $H
LIST 6
FMAP 2
PLAN 10
WGHT    0.041500    0.221700
EXTI    0.040594
FVAR       0.94893   0.61673
O1    4    0.518141    0.078855    0.244169    11.00000    0.05694    0.03662 =
         0.04154    0.01721    0.00887    0.01606
O2    4    0.616245    0.354662    0.355416    11.00000    0.06708    0.04292 =
         0.03493    0.01233   -0.01369    0.00936
O3    4    0.991020    0.347385    0.384553    11.00000    0.07587    0.05442 =
         0.05075    0.02041    0.03381    0.00069
O4    4    0.492566    0.210616    0.507914    11.00000    0.02760    0.07460 =
         0.05374    0.00866    0.00890    0.01151
N1    3    0.719192    0.286718    0.428911    11.00000    0.03920    0.06284 =
         0.03522    0.02637   -0.00140    0.00754
C1    1    0.516801    0.228606    0.258713    11.00000    0.03446    0.03535 =
         0.02855    0.01160    0.00773    0.00684
C2    1    0.419735    0.318992    0.183643    11.00000    0.03525    0.02780 =
         0.02806    0.00898    0.00522    0.00674
C3    1    0.564885    0.412755    0.141167    11.00000    0.03941    0.04001 =
         0.04234    0.02084    0.00831    0.00734
AFIX  23
H3A   2    0.681970    0.449281    0.196878    11.00000   -1.20000
H3B   2    0.527330    0.516550    0.126159    11.00000   -1.20000
AFIX   0
C4    1    0.346173    0.198875   -0.020241    11.00000    0.05367    0.04557 =
         0.03089    0.01061    0.00327    0.01466
AFIX  23
H4A   2    0.288925    0.282117   -0.051179    11.00000   -1.20000
H4B   2    0.312015    0.085149   -0.076558    11.00000   -1.20000
AFIX   0
C5    1    0.280362    0.186417    0.080654    11.00000    0.03882    0.02979 =
         0.03318    0.00882    0.00195    0.00468
AFIX  13
H5    2    0.275889    0.067184    0.086611    11.00000   -1.20000
AFIX   0
C6    1    0.094561    0.237432    0.081244    11.00000    0.03673    0.05199 =
         0.05840    0.01671    0.00456    0.00487
AFIX  23
H6A   2    0.024338    0.168025    0.115319    11.00000   -1.20000
H6B   2    0.023196    0.223251    0.006612    11.00000   -1.20000
AFIX   0
C8    1    0.311870    0.444763    0.242360    11.00000    0.04525    0.04279 =
         0.03850    0.00957    0.01033    0.01686
AFIX  23
H8A   2    0.275810    0.407792    0.301748    11.00000   -1.20000
H8B   2    0.383180    0.563845    0.272383    11.00000   -1.20000
AFIX   0
C9    1    0.905481    0.297892    0.441700    11.00000    0.04408    0.03299 =
         0.03227    0.00620    0.01191    0.00075
C10   1    0.962245    0.234663    0.537841    11.00000    0.02986    0.02672 =
         0.03112    0.00289    0.00829    0.00227
C11   1    1.132299    0.216039    0.588685    11.00000    0.02800    0.03763 =
         0.05268    0.00047    0.00803    0.00531
AFIX  43
H11   2    1.235819    0.247186    0.564712    11.00000   -1.20000
AFIX   0
C12   1    1.144531    0.149412    0.676744    11.00000    0.04487    0.03781 =
         0.05042    0.00447   -0.01050    0.01431
AFIX  43
H12   2    1.258734    0.135215    0.713349    11.00000   -1.20000
AFIX   0
C13   1    0.992903    0.103713    0.711560    11.00000    0.06252    0.03958 =
         0.03659    0.01360   -0.00516    0.00701
AFIX  43
H13   2    1.005724    0.058175    0.771209    11.00000   -1.20000
AFIX   0
C14   1    0.822056    0.123045    0.661057    11.00000    0.04625    0.04019 =
         0.03147    0.01095    0.00830    0.00043
AFIX  43
H14   2    0.718609    0.091794    0.685068    11.00000   -1.20000
AFIX   0
C15   1    0.810180    0.190093    0.574046    11.00000    0.02809    0.02927 =
         0.02623    0.00399    0.00517    0.00278
C16   1    0.649091    0.226311    0.504781    11.00000    0.03004    0.03911 =
         0.02986    0.00289    0.00429    0.00534
PART   1
S1    5    0.588175    0.268516    0.019784    21.00000    0.04642    0.04959 =
         0.03859    0.01995    0.01643    0.01874
C7    1    0.147763    0.430773    0.150704    21.00000    0.05151    0.06782 =
         0.07032    0.02446    0.02837    0.02582
AFIX  23
H7A   2    0.178010    0.504282    0.105876    21.00000   -1.20000
H7B   2    0.046955    0.467385    0.180574    21.00000   -1.20000
AFIX   0
PART   2
S1A   5    0.127640    0.466173    0.136218   -21.00000    0.04386    0.04887 =
         0.05126    0.00983    0.00243    0.01921
C7A   1    0.549909    0.271660    0.029718   -21.00000    0.13066    0.11828 =
         0.08287    0.06599    0.06356    0.07957
AFIX  23
H7A1  2    0.602561    0.323943   -0.019254   -21.00000   -1.20000
H7A2  2    0.614302    0.179436    0.042480   -21.00000   -1.20000

AFIX   0
HKLF 4

REM  p_a.res in P-1
REM R1 =  0.0323 for    2375 Fo > 4sig(Fo)  and  0.0368 for all    2644 data
REM    219 parameters refined using      0 restraints

END

WGHT      0.0416      0.2221

REM Highest difference peak  0.249,  deepest hole -0.155,  1-sigma level  0.036
Q1    1   0.8862  0.2155  0.5618  11.00000  0.05    0.25
Q2    1   0.7398  0.2006  0.5429  11.00000  0.05    0.24
Q3    1   0.3541  0.2536  0.1357  11.00000  0.05    0.23
Q4    1   0.9471  0.2651  0.4914  11.00000  0.05    0.22
Q5    1   0.3777  0.3746  0.2207  11.00000  0.05    0.21
Q6    1   0.4601  0.2786  0.2184  11.00000  0.05    0.20
Q7    1   0.8076  0.1478  0.5967  11.00000  0.05    0.18
Q8    1   0.8167  0.1929  0.6171  11.00000  0.05    0.18
Q9    1   1.0425  0.0867  0.6586  11.00000  0.05    0.18
Q10   1   0.6814  0.3201  0.3991  11.00000  0.05    0.17
;
_shelx_res_checksum              26161
_shelx_hkl_file
;
  -1   0   0  410.86    9.60
  -1   0   0  410.76    9.60
   1   0   0  405.16    9.60
   1   0   0  419.56    9.60
  -2   0   0 1355.96   29.20
  -2   0   0 1184.88   28.80
   2   0   0 1212.28   28.80
   2   0   0 1184.08   28.80
   2   0   0 1284.47   29.30
  -3   0   0   28.10    1.40
  -3   0   0   29.60    1.40
   3   0   0   31.10    1.50
   3   0   0   29.30    1.20
   3   0   0   29.50    1.40
  -4   0   0    6.30    0.90
  -4   0   0    6.30    0.90
   4   0   0    5.90    0.90
   4   0   0    4.70    0.80
   4   0   0    6.10    0.80
  -5   0   0   33.80    2.20
  -5   0   0   38.20    2.00
   5   0   0   34.50    2.00
   5   0   0   35.40    2.20
   5   0   0   34.00    1.80
  -6   0   0   57.19    2.70
  -6   0   0   56.09    3.00
  -6   0   0   56.89    2.90
   6   0   0   58.39    2.90
   6   0   0   59.69    2.70
   6   0   0   58.39    3.10
  -7   0   0   46.70    2.90
  -7   0   0   49.10    2.90
  -7   0   0   46.40    3.40
   7   0   0   49.90    4.80
   7   0   0   45.20    3.40
   7   0   0   47.60    2.80
  -8   0   0   13.30    2.20
  -8   0   0   10.60    2.00
   8   0   0    9.10    2.50
   8   0   0   12.00    1.90
   8   0   0    8.80    1.90
   8  -1   0   -1.80    1.30
   8  -1   0   -1.10    2.00
  -8   1   0    0.90    1.70
  -8   1   0    1.90    1.70
  -8   1   0    0.60    1.00
   7  -1   0  101.19    4.50
   7  -1   0  106.89    4.10
  -7   1   0  105.99    3.90
  -7   1   0  111.89    4.30
  -7   1   0   95.49    4.50
   6  -1   0   12.30    1.50
   6  -1   0   14.30    1.80
   6  -1   0   13.50    1.70
  -6   1   0   13.50    1.60
  -6   1   0   15.80    1.60
  -6   1   0   17.70    2.10
   5  -1   0  155.38    4.80
   5  -1   0  158.08    4.80
   5  -1   0  162.58    5.00
  -5   1   0  165.98    5.00
  -5   1   0  150.68    4.40
  -5   1   0  159.88    4.90
   4  -1   0  731.83   17.40
   4  -1   0  738.63   17.50
   4  -1   0  716.43   17.50
  -4   1   0  707.33   17.10
  -4   1   0  728.53   17.50
  -4   1   0  721.73   17.50
   3  -1   0  738.23   17.00
   3  -1   0  728.73   17.60
   3  -1   0  757.42   17.70
  -3   1   0  753.32   17.40
  -3   1   0  734.83   17.60
  -3   1   0  747.43   17.60
   2  -1   0  745.73   17.10
   2  -1   0  761.12   17.30
   2  -1   0  729.03   17.10
   2  -1   0  731.73   17.30
  -2   1   0  743.33   17.10
  -2   1   0  768.72   17.30
  -2   1   0  712.03   17.30
   1  -1   0   36.60    1.10
   1  -1   0   36.30    1.00
   1  -1   0   36.00    1.00
   1  -1   0   35.80    1.10
   1  -1   0   36.60    1.00
  -1   1   0   35.80    1.00
  -1   1   0   36.70    1.00
  -1   1   0   36.80    1.00
   0  -1   0   73.79    1.80
   0  -1   0   72.29    1.90
   0  -1   0   75.59    2.00
   0  -1   0   76.69    1.90
   0  -1   0   73.89    1.80
   0  -1   0   75.99    1.90
   0   1   0   77.59    1.90
   0   1   0   76.49    2.00
   0   1   0   74.89    1.90
   0   1   0   68.19    1.80
  -1  -1   0  233.68    5.60
  -1  -1   0  231.38    5.60
  -1  -1   0  231.88    5.60
   1   1   0  230.88    5.60
   1   1   0  227.98    5.60
   1   1   0  230.68    5.30
  -2  -1   0  462.05   11.00
  -2  -1   0  446.86   10.80
  -2  -1   0  463.05   11.00
   2   1   0  465.75   11.00
   2   1   0  462.15   11.00
   2   1   0  453.55   10.70
  -3  -1   0    0.90    0.50
  -3  -1   0    1.70    0.60
  -3  -1   0    1.30    0.30
   3   1   0    2.20    0.60
   3   1   0    1.30    0.50
   3   1   0    1.60    0.40
  -4  -1   0   34.30    1.80
  -4  -1   0   34.50    1.80
   4   1   0   37.40    2.00
   4   1   0   36.10    1.90
   4   1   0   38.00    1.50
  -5  -1   0   48.10    2.60
  -5  -1   0   48.60    2.40
   5   1   0   47.70    2.60
   5   1   0   48.90    2.00
   5   1   0   45.40    2.30
  -6  -1   0  333.17    9.40
  -6  -1   0  339.97    9.60
   6   1   0  347.17    8.90
   6   1   0  335.57    9.60
   6   1   0  346.77    9.60
  -7  -1   0    3.40    1.50
  -7  -1   0   -0.20    1.70
   7   1   0    1.80    1.50
   7   1   0    0.30    2.40
   7   1   0    0.40    1.00
  -8  -1   0    6.20    2.10
  -8  -1   0    3.20    1.70
   8   1   0    0.80    1.40
   8   1   0    6.90    1.90
   9  -2   0   19.80    2.80
   9  -2   0   22.80    2.70
   9  -2   0   25.80    3.50
   9  -2   0   21.60    2.60
  -9   2   0   25.10    3.00
  -9   2   0   22.80    3.60
  -9   2   0   19.30    2.60
   8  -2   0    0.20    2.00
   8  -2   0    1.40    1.60
   8  -2   0   -0.60    1.20
  -8   2   0    1.80    1.10
  -8   2   0    1.10    1.70
  -8   2   0    2.50    1.50
   7  -2   0   11.70    1.80
   7  -2   0    8.70    1.70
   7  -2   0   10.40    1.80
  -7   2   0   10.60    1.40
  -7   2   0    6.00    1.70
  -7   2   0   13.00    1.50
  -7   2   0   13.90    1.90
   6  -2   0    4.80    1.10
   6  -2   0    3.40    1.00
   6  -2   0    3.80    2.10
  -6   2   0    3.70    1.20
  -6   2   0    5.70    1.00
  -6   2   0    6.50    1.40
  -6   2   0    4.40    0.90
   5  -2   0    1.20    0.70
   5  -2   0    3.20    0.80
   5  -2   0    2.20    0.80
  -5   2   0    2.00    0.80
  -5   2   0    1.80    0.60
  -5   2   0    1.40    0.60
  -5   2   0   -0.20    0.80
   4  -2   0   88.59    3.00
   4  -2   0   91.69    3.10
   4  -2   0   89.89    3.00
   4  -2   0   89.79    2.50
  -4   2   0   89.99    3.00
  -4   2   0   88.89    2.60
  -4   2   0   94.89    2.90
  -4   2   0   88.59    3.10
   3  -2   0   33.40    1.40
   3  -2   0   31.50    1.20
   3  -2   0   30.80    1.10
   3  -2   0   30.70    1.30
  -3   2   0   29.40    1.30
  -3   2   0   32.00    1.40
  -3   2   0   31.20    1.40
  -3   2   0   30.40    1.10
   2  -2   0  825.12   19.00
   2  -2   0  815.02   19.30
   2  -2   0  845.42   19.00
   2  -2   0  763.42   19.30
   2  -2   0  819.22   19.10
  -2   2   0  820.32   19.20
  -2   2   0  826.42   19.00
  -2   2   0  814.12   19.20
  -2   2   0  828.52   19.00
  -2   2   0  838.52   19.20
   1  -2   0  535.05   12.40
   1  -2   0  545.95   12.50
   1  -2   0  496.95   12.40
   1  -2   0  510.95   12.20
   1  -2   0  516.95   12.30
   1  -2   0  536.35   12.40
   1  -2   0  527.95   12.00
   1  -2   0  527.35   12.00
  -1   2   0  530.95   12.20
  -1   2   0  524.85   12.00
  -1   2   0  527.95   12.40
  -1   2   0  494.55   12.40
   0  -2   0 5716.43  132.69
   0  -2   0 5914.41  133.39
   0  -2   0 5819.92  133.59
   0  -2   0 5741.33  131.49
   0  -2   0 5676.93  133.49
   0   2   0 5592.44  132.59
   0   2   0 5729.23  133.49
   0   2   0 5660.83  133.39
   0   2   0 5840.92  131.49
  -1  -2   0    0.30    0.30
  -1  -2   0    0.90    0.40
  -1  -2   0    0.70    0.30
   1   2   0    0.90    0.30
   1   2   0    0.70    0.30
   1   2   0    0.90    0.30
   1   2   0    1.20    0.30
  -2  -2   0    0.80    0.40
  -2  -2   0    0.20    0.40
  -2  -2   0    0.30    0.40
   2   2   0    0.60    0.20
   2   2   0    1.00    0.40
   2   2   0    0.40    0.40
  -3  -2   0  155.58    4.30
  -3  -2   0  147.99    4.40
  -3  -2   0  153.18    4.10
   3   2   0  133.79    3.80
   3   2   0  157.88    4.40
   3   2   0  153.88    4.40
  -4  -2   0   39.80    1.90
  -4  -2   0   36.30    1.50
  -4  -2   0   38.20    2.10
   4   2   0   35.70    2.10
   4   2   0   35.40    1.40
   4   2   0   36.00    1.90
  -5  -2   0    2.20    1.20
  -5  -2   0    1.80    0.80
   5   2   0    2.40    1.10
   5   2   0    1.80    0.70
   5   2   0    0.00    1.10
  -6  -2   0   20.30    2.10
  -6  -2   0   29.80    2.60
   6   2   0   22.10    2.30
   6   2   0   24.50    1.60
   6   2   0   22.90    2.60
  -7  -2   0   61.89    3.40
  -7  -2   0   59.69    4.00
   7   2   0   55.79    2.60
  -8  -2   0    7.80    1.90
   8   2   0    6.10    1.50
   8   2   0    7.30    2.10
   8  -3   0    4.60    2.00
   8  -3   0    2.80    1.30
   8  -3   0    6.50    2.00
   8  -3   0    3.70    1.50
  -8   3   0    5.10    1.90
  -8   3   0    3.00    1.20
  -8   3   0    2.90    1.50
   7  -3   0    1.70    1.40
   7  -3   0    2.00    1.10
   7  -3   0    5.90    2.40
   7  -3   0    3.60    1.40
  -7   3   0    1.00    1.50
  -7   3   0    4.60    1.20
  -7   3   0    2.90    1.10
  -7   3   0    2.70    1.40
   6  -3   0  199.58    5.90
   6  -3   0  198.48    6.20
   6  -3   0  199.88    6.00
   6  -3   0  200.58    6.20
  -6   3   0  198.78    5.40
  -6   3   0  198.98    5.80
  -6   3   0  199.98    6.10
  -6   3   0  204.68    6.10
   5  -3   0  113.89    3.70
   5  -3   0  117.39    4.00
   5  -3   0  113.09    3.30
   5  -3   0  113.99    3.90
   5  -3   0  119.39    3.90
  -5   3   0  113.69    3.30
  -5   3   0  114.79    3.80
  -5   3   0  116.49    3.70
  -5   3   0  112.19    3.80
   4  -3   0   50.39    1.90
   4  -3   0   51.79    2.10
   4  -3   0   49.30    2.20
   4  -3   0   50.49    2.20
   4  -3   0   50.49    1.70
   4  -3   0   50.99    2.00
  -4   3   0   51.39    2.10
  -4   3   0   51.29    1.70
  -4   3   0   48.40    2.00
  -4   3   0   51.09    2.00
   3  -3   0  416.06   10.20
   3  -3   0  389.66    9.80
   3  -3   0  398.56    9.90
   3  -3   0  415.06    9.80
   3  -3   0  401.96    9.60
  -3   3   0  399.46    9.80
  -3   3   0  402.46   10.10
  -3   3   0  394.26    9.60
  -3   3   0  403.96   10.00
  -3   3   0  405.06    9.80
   2  -3   0  197.38    4.90
   2  -3   0  205.28    5.40
   2  -3   0  197.28    5.30
   2  -3   0  195.58    5.30
   2  -3   0  198.38    5.00
   2  -3   0  198.68    4.90
   2  -3   0  189.48    5.30
  -2   3   0  202.08    4.90
  -2   3   0  208.18    5.40
  -2   3   0  201.08    5.00
   1  -3   0    0.70    0.40
   1  -3   0    0.20    0.40
   1  -3   0    0.20    0.40
   1  -3   0    1.00    0.30
   1  -3   0    0.30    0.40
   1  -3   0    0.80    0.40
  -1   3   0    0.70    0.40
  -1   3   0    0.40    0.30
  -1   3   0    0.60    0.40
   0  -3   0  429.86   10.10
   0  -3   0  430.56   10.30
   0  -3   0  408.36    9.70
   0  -3   0  414.86    9.70
   0  -3   0  405.06   10.10
   0  -3   0  423.06   10.40
   0  -3   0  409.16   10.00
   0  -3   0  419.86   10.20
   0   3   0  425.96   10.30
   0   3   0  408.26   10.20
   0   3   0  420.36   10.00
   0   3   0  413.36    9.70
  -1  -3   0  348.77    8.30
  -1  -3   0  337.97    8.30
  -1  -3   0  332.77    7.90
  -1  -3   0  345.37    8.70
   1   3   0  338.37    8.20
   1   3   0  343.17    8.50
   1   3   0  340.27    8.30
   1   3   0  348.77    8.60
  -2  -3   0  277.57    7.00
  -2  -3   0  278.97    6.90
  -2  -3   0  268.57    7.10
   2   3   0  266.17    6.90
   2   3   0  273.37    7.00
   2   3   0  275.17    7.00
  -3  -3   0  294.87    7.60
  -3  -3   0  295.47    7.60
  -3  -3   0  288.27    7.70
   3   3   0  282.87    7.60
   3   3   0  287.57    7.80
  -4  -3   0   22.90    1.60
  -4  -3   0   22.70    1.90
  -4  -3   0   22.60    1.60
   4   3   0   22.90    1.90
   4   3   0   23.20    0.90
   4   3   0   23.30    1.80
  -5  -3   0   78.49    3.50
  -5  -3   0   78.59    3.20
  -5  -3   0   75.59    2.80
   5   3   0   77.29    2.30
   5   3   0   76.09    3.50
   5   3   0   76.79    3.50
  -6  -3   0  158.58    5.80
  -6  -3   0  162.28    5.40
   6   3   0  148.59    5.80
   6   3   0  164.88    5.70
   6   3   0  149.59    4.20
  -7  -3   0   -2.60    2.00
  -7  -3   0   -0.20    1.30
   7   3   0    0.90    0.90
   7   3   0    2.70    1.80
   8  -4   0   -1.00    1.30
   8  -4   0   -1.10    1.90
   8  -4   0   -0.30    1.90
   8  -4   0   -1.40    1.40
  -8   4   0    0.80    1.70
  -8   4   0    0.40    1.20
  -8   4   0   -0.10    1.40
   7  -4   0    1.00    1.40
   7  -4   0    0.70    1.00
   7  -4   0    2.80    1.40
   7  -4   0    1.60    1.70
  -7   4   0    0.20    1.30
  -7   4   0    1.90    1.00
  -7   4   0    0.50    1.50
  -7   4   0    1.30    1.00
   6  -4   0   52.19    2.50
   6  -4   0   55.59    2.30
   6  -4   0   58.29    2.90
   6  -4   0   55.99    3.00
   6  -4   0   56.19    3.00
  -6   4   0   51.89    2.20
  -6   4   0   52.99    2.90
  -6   4   0   55.89    2.60
  -6   4   0   52.29    2.80
  -6   4   0   54.69    2.90
   5  -4   0   33.20    1.80
   5  -4   0   37.20    1.50
   5  -4   0   34.70    2.30
   5  -4   0   32.70    2.00
   5  -4   0   34.10    1.80
   5  -4   0   33.70    2.20
  -5   4   0   37.70    2.10
  -5   4   0   33.60    1.90
  -5   4   0   38.60    2.00
  -5   4   0   38.60    1.60
  -5   4   0   40.70    2.30
   4  -4   0  247.38    6.30
   4  -4   0  243.98    6.30
   4  -4   0  229.98    6.80
   4  -4   0  242.58    6.60
   4  -4   0  246.48    6.10
   4  -4   0  240.48    6.80
  -4   4   0  243.68    6.10
  -4   4   0  243.88    6.60
  -4   4   0  228.08    6.40
  -4   4   0  251.87    6.80
   3  -4   0   93.99    3.20
   3  -4   0   93.99    2.70
   3  -4   0   95.79    3.30
   3  -4   0   92.29    2.70
   3  -4   0   95.59    2.60
  -3   4   0   95.89    2.70
  -3   4   0   95.59    3.20
  -3   4   0   88.89    2.60
  -3   4   0   86.09    3.00
  -3   4   0   91.29    2.70
   2  -4   0    5.30    0.80
   2  -4   0    7.30    0.60
   2  -4   0    5.50    0.80
   2  -4   0    6.20    0.40
   2  -4   0    6.70    0.40
   2  -4   0    6.50    0.80
   2  -4   0    7.10    1.00
   2  -4   0    5.00    0.90
  -2   4   0    6.80    0.50
  -2   4   0    4.70    0.70
  -2   4   0    8.10    1.00
  -2   4   0    5.60    0.80
  -2   4   0    6.30    0.50
  -2   4   0    6.20    0.70
   1  -4   0  890.51   21.40
   1  -4   0  892.81   21.10
   1  -4   0  899.81   21.30
   1  -4   0  899.11   21.40
   1  -4   0  916.21   21.50
   1  -4   0  891.31   21.60
  -1   4   0  866.31   21.40
  -1   4   0  935.81   21.60
  -1   4   0  897.71   21.20
   0  -4   0  169.08    4.90
   0  -4   0  161.38    3.90
   0  -4   0  163.48    4.40
   0  -4   0  160.68    4.60
   0  -4   0  162.58    4.70
   0  -4   0  160.88    4.40
   0  -4   0  162.78    3.90
   0  -4   0  156.08    4.60
   0   4   0  155.78    4.00
   0   4   0  170.28    4.60
   0   4   0  156.68    3.90
   0   4   0  157.58    4.60
  -1  -4   0  176.08    4.70
  -1  -4   0  175.68    5.10
  -1  -4   0  168.88    4.50
  -1  -4   0  174.18    4.40
  -1  -4   0  172.78    4.20
  -1  -4   0  167.08    4.10
   1   4   0  173.08    5.00
   1   4   0  173.58    4.50
   1   4   0  170.38    4.50
   1   4   0  175.78    4.90
  -2  -4   0   48.70    1.90
  -2  -4   0   47.40    1.80
  -2  -4   0   47.90    2.20
   2   4   0   49.00    2.10
   2   4   0   46.80    2.00
   2   4   0   47.90    1.90
   2   4   0   49.30    2.00
  -3  -4   0    3.20    0.80
  -3  -4   0    2.50    0.90
  -3  -4   0    4.00    0.70
  -3  -4   0    4.60    0.90
   3   4   0    3.20    0.90
   3   4   0    2.90    0.80
   3   4   0    3.60    0.80
   3   4   0    2.70    0.90
  -4  -4   0   19.90    2.00
  -4  -4   0   19.40    1.90
  -4  -4   0   21.20    1.60
   4   4   0   22.40    1.90
   4   4   0   20.10    1.70
   4   4   0   21.20    2.00
  -5  -4   0  133.89    5.00
  -5  -4   0  138.69    5.20
   5   4   0  139.19    5.10
   5   4   0  143.39    4.90
   5   4   0  139.39    4.50
  -6  -4   0  118.69    5.00
  -6  -4   0  113.09    4.50
   6   4   0  114.49    4.20
   6   4   0  115.59    4.80
  -7  -4   0   33.50    4.20
  -7  -4   0   28.00    2.90
   7   4   0   32.60    2.90
   7   4   0   28.10    3.60
   8  -5   0    7.00    1.90
   8  -5   0    3.30    1.50
   8  -5   0    8.20    2.60
   8  -5   0    6.00    1.90
  -8   5   0    3.20    1.60
  -8   5   0    5.50    1.90
  -8   5   0    1.50    1.80
   7  -5   0   54.39    3.20
   7  -5   0   57.89    2.80
   7  -5   0   54.89    3.40
   7  -5   0   52.79    3.80
  -7   5   0   56.49    3.20
  -7   5   0   53.79    3.00
  -7   5   0   53.99    3.50
  -7   5   0   51.39    2.50
  -7   5   0   53.19    3.50
   6  -5   0   36.90    2.10
   6  -5   0   32.20    3.00
   6  -5   0   35.90    3.00
   6  -5   0   36.40    2.30
   6  -5   0   37.60    2.90
  -6   5   0   36.10    2.30
  -6   5   0   36.60    2.40
  -6   5   0   38.40    1.90
  -6   5   0   39.40    2.70
  -6   5   0   39.50    2.50
   5  -5   0  204.58    5.50
   5  -5   0  204.28    5.70
   5  -5   0  209.38    6.50
   5  -5   0  206.38    6.40
   5  -5   0  206.28    5.80
  -5   5   0  208.98    6.40
  -5   5   0  202.88    5.40
  -5   5   0  203.78    5.80
  -5   5   0  205.58    6.20
  -5   5   0  201.68    5.80
   4  -5   0   26.90    1.40
   4  -5   0   31.30    2.20
   4  -5   0   26.90    1.40
   4  -5   0   28.80    1.40
   4  -5   0   28.80    2.10
   4  -5   0   29.50    2.00
  -4   5   0   28.40    1.90
  -4   5   0   27.50    1.80
  -4   5   0   30.70    1.90
  -4   5   0   28.30    1.50
  -4   5   0   29.20    1.50
   3  -5   0   23.40    1.00
   3  -5   0   24.90    1.90
   3  -5   0   24.60    1.00
   3  -5   0   24.10    1.20
   3  -5   0   26.30    1.90
   3  -5   0   27.30    2.00
   3  -5   0   25.90    1.70
  -3   5   0   25.30    1.10
  -3   5   0   25.40    1.10
  -3   5   0   24.20    1.70
  -3   5   0   27.40    1.60
  -3   5   0   25.80    1.40
   2  -5   0   54.89    2.60
   2  -5   0   57.09    2.60
   2  -5   0   51.89    2.50
   2  -5   0   50.89    2.40
   2  -5   0   53.39    2.30
   2  -5   0   56.29    2.00
  -2   5   0   55.19    2.30
  -2   5   0   56.49    2.40
  -2   5   0   54.99    2.50
   1  -5   0    0.90    0.70
   1  -5   0    0.20    0.50
   1  -5   0    0.30    0.70
   1  -5   0    1.20    0.90
   1  -5   0    0.90    0.80
   1  -5   0    1.50    0.70
  -1   5   0    0.80    0.60
  -1   5   0    1.50    0.60
  -1   5   0    0.30    0.60
   0  -5   0    3.40    0.70
   0  -5   0    3.10    0.80
   0  -5   0    2.00    0.30
   0  -5   0    3.20    0.40
   0  -5   0    1.60    0.80
   0  -5   0    1.60    0.70
   0  -5   0    2.40    0.50
   0  -5   0    3.00    0.90
   0   5   0    2.60    0.40
   0   5   0    2.40    0.40
   0   5   0    1.70    0.70
   0   5   0    3.00    0.90
  -1  -5   0   32.30    1.20
  -1  -5   0   31.60    1.40
  -1  -5   0   32.00    1.10
  -1  -5   0   30.60    1.20
  -1  -5   0   36.20    1.80
  -1  -5   0   31.60    2.20
  -1  -5   0   34.20    1.70
   1   5   0   34.80    1.90
   1   5   0   33.40    1.40
   1   5   0   31.10    1.50
   1   5   0   36.20    2.00
  -2  -5   0  213.38    6.30
  -2  -5   0  203.38    5.50
  -2  -5   0  213.48    5.70
  -2  -5   0  217.68    5.70
   2   5   0  189.68    5.90
   2   5   0  219.38    6.20
   2   5   0  206.98    5.70
   2   5   0  203.98    6.10
  -3  -5   0    4.40    1.00
  -3  -5   0    3.60    1.20
  -3  -5   0    3.70    0.90
  -3  -5   0    2.20    0.70
   3   5   0    3.40    1.10
   3   5   0    1.20    1.00
   3   5   0    3.90    0.90
   3   5   0    3.80    1.00
  -4  -5   0    3.40    1.40
  -4  -5   0    4.90    1.00
  -4  -5   0    5.60    1.30
   4   5   0    5.50    1.30
   4   5   0    5.00    1.40
   4   5   0    6.40    1.40
   4   5   0    4.70    1.30
  -5  -5   0   13.80    2.00
  -5  -5   0   11.60    1.70
  -5  -5   0   13.30    1.90
   5   5   0   12.30    1.80
   5   5   0   11.90    2.10
   5   5   0   12.90    1.70
   5   5   0   12.60    1.70
  -6  -5   0   18.80    2.70
  -6  -5   0   23.50    2.00
   6   5   0   18.10    2.60
   6   5   0   23.60    2.90
   6   5   0   19.80    2.50
   7  -6   0    5.30    1.40
   7  -6   0    6.90    1.50
   7  -6   0    7.40    1.80
   7  -6   0    4.10    1.20
   7  -6   0    4.50    2.10
  -7   6   0    3.40    1.80
  -7   6   0    3.40    1.50
  -7   6   0    5.70    1.40
  -7   6   0    6.50    1.80
  -7   6   0    4.90    1.50
   6  -6   0    1.80    1.20
   6  -6   0    2.10    1.20
   6  -6   0    1.10    0.90
   6  -6   0    1.00    1.10
   6  -6   0    2.20    1.60
   6  -6   0    1.00    0.80
  -6   6   0   -0.50    1.30
  -6   6   0    2.70    1.00
  -6   6   0    2.90    1.20
  -6   6   0   -0.20    1.00
   5  -6   0   47.30    3.30
   5  -6   0   50.39    2.90
   5  -6   0   46.50    2.10
   5  -6   0   50.49    3.10
   5  -6   0   50.69    2.10
   5  -6   0   48.60    2.90
   5  -6   0   47.20    2.00
  -5   6   0   49.60    2.80
  -5   6   0   49.50    2.10
  -5   6   0   48.40    2.20
  -5   6   0   55.69    3.00
  -5   6   0   49.00    2.20
   4  -6   0   10.30    1.60
   4  -6   0    6.90    0.80
   4  -6   0    5.90    1.40
   4  -6   0    7.70    0.80
   4  -6   0    8.00    0.90
   4  -6   0    7.30    1.30
   4  -6   0    5.80    1.40
  -4   6   0    7.20    1.00
  -4   6   0   10.00    1.50
  -4   6   0    8.80    1.00
  -4   6   0    6.70    1.20
   3  -6   0    1.60    1.20
   3  -6   0    0.10    1.00
   3  -6   0    0.80    0.80
   3  -6   0    2.50    1.20
   3  -6   0    1.00    0.50
   3  -6   0    0.60    1.00
  -3   6   0    1.60    0.90
  -3   6   0    0.80    0.80
   2  -6   0  122.09    4.30
   2  -6   0  119.29    4.40
   2  -6   0  114.39    4.20
   2  -6   0  118.89    4.10
   2  -6   0  125.99    4.60
   2  -6   0  121.69    3.90
   2  -6   0  122.39    3.70
  -2   6   0  117.19    4.00
  -2   6   0  121.19    4.40
   1  -6   0   87.09    3.20
   1  -6   0   87.29    3.50
   1  -6   0   82.49    3.40
   1  -6   0   80.59    2.90
   1  -6   0   81.69    2.80
   1  -6   0   83.29    3.60
   1  -6   0   82.69    3.50
  -1   6   0   84.49    3.10
  -1   6   0   87.19    3.50
   0  -6   0   71.59    2.30
   0  -6   0   73.69    3.50
   0  -6   0   74.29    2.80
   0  -6   0   73.09    3.20
   0  -6   0   71.59    3.20
   0  -6   0   74.49    2.90
   0   6   0   72.39    3.00
   0   6   0   67.69    2.10
   0   6   0   76.19    3.20
   0   6   0   71.19    2.10
  -1  -6   0   25.50    1.80
  -1  -6   0   22.70    1.10
  -1  -6   0   23.00    2.20
  -1  -6   0   24.70    1.30
  -1  -6   0   24.10    1.00
  -1  -6   0   26.70    1.80
  -1  -6   0   25.10    2.50
  -1  -6   0   23.90    1.10
   1   6   0   23.20    2.10
   1   6   0   21.00    1.90
   1   6   0   23.80    1.50
  -2  -6   0   88.39    4.00
  -2  -6   0   83.99    3.40
  -2  -6   0   88.09    2.80
  -2  -6   0   86.89    3.20
  -2  -6   0   85.69    3.00
   2   6   0   90.19    3.60
   2   6   0   88.19    3.10
   2   6   0   86.39    3.70
   2   6   0   83.69    3.00
  -3  -6   0    3.60    1.10
  -3  -6   0    4.70    0.90
  -3  -6   0    7.30    1.90
  -3  -6   0    6.70    1.20
   3   6   0    5.00    1.60
   3   6   0    6.20    1.40
   3   6   0    5.00    1.50
   3   6   0    5.50    1.20
  -4  -6   0   20.80    1.90
  -4  -6   0   14.90    1.50
  -4  -6   0   16.10    2.30
  -4  -6   0   15.10    1.90
   4   6   0   14.30    1.90
   4   6   0   15.00    2.10
   4   6   0   13.60    1.80
   4   6   0   16.30    2.10
  -5  -6   0    2.80    1.90
  -5  -6   0    1.80    2.10
  -5  -6   0    1.50    1.20
  -5  -6   0    2.80    1.20
   5   6   0   -0.70    1.60
   5   6   0   -0.70    1.40
   5   6   0    2.20    1.80
   7  -7   0   75.59    4.20
   7  -7   0   69.79    3.20
   7  -7   0   73.69    4.40
   7  -7   0   80.09    3.20
  -7   7   0   64.49    3.80
  -7   7   0   78.69    3.40
  -7   7   0   76.09    3.70
  -7   7   0   75.99    4.40
  -7   7   0   69.89    4.00
   6  -7   0  128.59    3.90
   6  -7   0  130.39    3.90
   6  -7   0  124.59    5.10
   6  -7   0  121.19    3.90
   6  -7   0  117.39    5.10
  -6   7   0  121.89    4.80
  -6   7   0  120.99    4.20
  -6   7   0  119.39    4.10
  -6   7   0  126.29    5.30
   5  -7   0   20.00    1.30
   5  -7   0   19.60    2.30
   5  -7   0   19.30    2.40
   5  -7   0   21.90    2.50
   5  -7   0   24.80    1.60
   5  -7   0   19.40    2.50
   5  -7   0   22.10    1.40
  -5   7   0   21.70    2.30
  -5   7   0   19.20    1.60
  -5   7   0   20.60    2.40
  -5   7   0   21.20    1.70
   4  -7   0   69.19    3.30
   4  -7   0   62.99    3.60
   4  -7   0   57.99    3.70
   4  -7   0   73.99    2.70
   4  -7   0   62.79    3.80
  -4   7   0   66.19    3.40
  -4   7   0   63.89    3.20
   3  -7   0   37.00    1.90
   3  -7   0   35.70    2.90
   3  -7   0   35.00    3.00
   3  -7   0   37.10    2.70
   3  -7   0   44.10    3.20
   3  -7   0   40.30    2.40
  -3   7   0   37.60    2.40
   2  -7   0  207.68    6.70
   2  -7   0  200.08    6.70
   2  -7   0  211.98    6.70
   2  -7   0  200.88    6.90
   2  -7   0  216.68    6.20
   2  -7   0  215.68    6.00
   2  -7   0  207.08    6.50
  -2   7   0  211.58    6.80
  -2   7   0  215.48    6.30
   1  -7   0   98.19    3.30
   1  -7   0   92.59    4.10
   1  -7   0   98.49    4.50
   1  -7   0   93.49    4.00
   1  -7   0  100.19    3.50
   1  -7   0   97.19    3.80
  -1   7   0   96.49    4.10
   0  -7   0   44.00    2.90
   0  -7   0   42.50    2.30
   0  -7   0   40.60    2.50
   0  -7   0   49.10    3.50
   0  -7   0   41.80    3.00
   0  -7   0   42.40    1.80
   0   7   0   38.90    2.80
   0   7   0   40.00    2.50
  -1  -7   0   32.80    2.90
  -1  -7   0   33.40    2.30
  -1  -7   0   33.40    1.50
  -1  -7   0   27.00    3.10
  -1  -7   0   33.50    1.40
  -1  -7   0   31.80    1.20
  -1  -7   0   33.80    2.30
  -1  -7   0   33.40    1.30
   1   7   0   30.00    2.70
   1   7   0   33.10    1.80
   1   7   0   30.50    2.40
   1   7   0   33.30    1.60
  -2  -7   0    1.10    0.80
  -2  -7   0    2.90    1.80
  -2  -7   0   -1.20    1.10
  -2  -7   0    2.30    1.20
  -2  -7   0   -2.50    1.60
  -2  -7   0   -0.30    0.60
   2   7   0    0.40    0.90
   2   7   0    0.10    1.00
   2   7   0    0.70    1.40
   2   7   0   -1.00    1.10
  -3  -7   0   29.30    4.00
  -3  -7   0   30.30    2.40
  -3  -7   0   25.20    2.20
  -3  -7   0   27.60    2.60
   3   7   0   32.20    2.70
   3   7   0   25.30    2.80
   3   7   0   26.50    2.40
  -4  -7   0    2.80    2.40
  -4  -7   0    6.40    1.60
  -4  -7   0    2.80    1.10
  -4  -7   0    4.20    1.60
  -4  -7   0    3.20    1.40
   4   7   0    2.10    1.70
   4   7   0    2.10    1.80
   4   7   0    2.20    1.50
   6  -8   0   11.40    1.60
   6  -8   0   12.20    2.40
   6  -8   0   11.40    1.20
   6  -8   0   12.40    2.20
   6  -8   0   17.10    2.00
  -6   8   0   13.40    2.10
  -6   8   0   15.30    2.60
  -6   8   0   12.90    1.40
   5  -8   0   21.00    1.90
   5  -8   0   21.50    2.70
   5  -8   0   19.40    2.90
  -5   8   0   14.20    2.00
  -5   8   0   22.50    2.50
   4  -8   0   -0.90    1.90
   4  -8   0    3.00    1.30
   4  -8   0   -2.10    0.90
  -4   8   0   -1.00    1.20
   3  -8   0    3.70    2.10
   3  -8   0    5.50    1.30
   3  -8   0    7.70    2.30
   3  -8   0    6.10    1.90
   3  -8   0   13.80    3.60
   3  -8   0    5.00    1.10
  -3   8   0    4.00    1.30
   2  -8   0   15.30    1.80
   2  -8   0   15.40    2.30
   2  -8   0   12.50    1.40
   2  -8   0   12.00    2.20
   2  -8   0    9.50    2.30
   2  -8   0   15.90    2.30
   2  -8   0    8.00    1.90
   1  -8   0    0.70    1.70
   1  -8   0   -2.50    1.40
   1  -8   0    1.60    1.90
   1  -8   0    1.50    2.00
   1  -8   0    1.90    1.00
   1  -8   0    1.20    0.90
  -1   8   0   -0.80    1.30
   0  -8   0    8.70    1.00
   0  -8   0    8.80    1.50
   0  -8   0    7.80    2.70
   0  -8   0    8.00    1.80
   0  -8   0    8.80    2.20
   0   8   0    9.00    1.60
   0   8   0   12.40    1.90
  -1  -8   0   34.90    2.90
  -1  -8   0   25.20    2.50
   1   8   0   27.40    3.20
   1   8   0   28.20    1.60
   1   8   0   33.70    2.70
   1   8   0   26.20    1.90
  -2  -8   0   17.50    1.70
  -2  -8   0   17.40    1.40
  -2  -8   0   16.70    2.00
  -2  -8   0   14.70    2.00
   2   8   0   17.30    2.40
   2   8   0   15.80    1.80
   2   8   0   13.40    1.90
  -3  -8   0    8.70    1.90
  -3  -8   0   10.20    1.30
  -3  -8   0   10.30    2.20
  -3  -8   0    6.70    1.80
   3   8   0   10.70    2.10
   3   8   0   16.70    2.30
   3   8   0    8.60    2.30
   3   8   0    8.10    2.10
   4  -9   0    1.10    1.30
   4  -9   0    1.90    1.50
  -4   9   0    0.40    1.60
   3  -9   0    1.10    1.20
   2  -9   0   88.69    3.70
   2  -9   0   84.59    3.80
   1  -9   0    1.90    1.30
   1  -9   0    1.50    1.10
  -1   9   0    3.30    2.00
   0  -9   0   30.40    1.80
   0  -9   0   32.90    1.80
   0  -9   0   29.20    2.80
   0   9   0   30.10    3.20
   0   9   0   30.00    3.60
  -1  -9   0    4.50    1.80
   1   9   0    3.80    1.80
   1   9   0    2.10    2.10
   1   9  -1   54.09    3.90
   1   9  -1   68.49    4.40
  -1  -9   1   66.79    3.60
   0   9  -1   35.80    3.20
   0   9  -1   27.70    3.50
   0  -9   1   31.20    2.80
   0  -9   1   35.20    1.80
   1  -9   1   -0.60    0.90
   1  -9   1    1.30    1.20
   2  -9   1    3.20    1.20
   2  -9   1    2.30    1.20
   3  -9   1    1.60    1.20
   3  -9   1    3.30    2.70
   4  -9   1    1.50    1.50
   4  -9   1    0.00    1.10
   3   8  -1    2.60    1.70
   3   8  -1    7.50    1.70
   3   8  -1    2.60    1.90
   3   8  -1    9.60    2.10
  -3  -8   1    8.10    1.20
  -3  -8   1    8.20    1.90
  -3  -8   1    6.50    1.70
  -3  -8   1    7.30    1.30
   2   8  -1    5.10    1.60
   2   8  -1    1.20    1.30
   2   8  -1    3.30    1.10
   2   8  -1   -0.20    1.60
  -2  -8   1    3.60    1.30
  -2  -8   1    1.60    0.70
  -2  -8   1    4.10    1.60
  -2  -8   1    2.20    0.90
   1   8  -1    7.60    1.50
   1   8  -1   13.10    2.10
  -1  -8   1    9.70    1.80
  -1  -8   1   12.70    1.70
  -1  -8   1    6.70    2.30
   0   8  -1   33.80    3.10
   0   8  -1   34.10    2.70
   0  -8   1   33.70    1.70
   0  -8   1   34.10    4.00
   0  -8   1   30.30    3.50
   0  -8   1   34.00    2.90
   0  -8   1   37.30    2.40
  -1   8  -1   -0.40    1.30
   1  -8   1    2.40    1.50
   1  -8   1    2.20    1.60
   1  -8   1    3.40    1.50
   1  -8   1    2.30    0.80
   1  -8   1    0.10    0.90
   1  -8   1    4.20    2.10
   1  -8   1    1.80    1.80
   2  -8   1   -2.00    1.40
   2  -8   1    0.50    0.90
   2  -8   1    0.50    1.60
   2  -8   1    0.00    2.00
   2  -8   1    1.80    0.90
   2  -8   1    2.20    1.70
   2  -8   1   -0.50    1.70
  -3   8  -1   58.39    3.00
   3  -8   1   51.39    3.80
   3  -8   1   62.19    2.60
   3  -8   1   47.20    3.60
   3  -8   1   52.79    3.70
   3  -8   1   57.19    4.30
   3  -8   1   46.50    3.90
   3  -8   1   67.59    3.00
  -4   8  -1    3.00    1.60
  -4   8  -1    2.00    1.20
   4  -8   1    2.70    2.00
   4  -8   1    3.00    1.20
   4  -8   1    5.40    1.00
  -5   8  -1    7.30    2.00
  -5   8  -1    7.10    1.70
   5  -8   1    7.20    2.20
   5  -8   1    7.10    1.60
   5  -8   1    8.00    1.10
  -6   8  -1   67.89    2.90
  -6   8  -1   65.59    3.90
  -6   8  -1   75.99    4.50
   6  -8   1   65.89    4.70
   6  -8   1   68.49    4.10
   6  -8   1   69.89    2.70
   6  -8   1   68.19    2.40
   6  -8   1   67.79    3.10
   4   7  -1    1.40    1.70
   4   7  -1    1.40    1.40
   4   7  -1    2.60    1.60
   4   7  -1    2.20    1.90
  -4  -7   1    3.30    1.40
  -4  -7   1    0.50    1.40
  -4  -7   1    1.60    1.10
  -4  -7   1   -0.30    2.20
   3   7  -1   13.80    2.00
   3   7  -1   14.10    1.80
   3   7  -1   18.00    2.10
   3   7  -1   12.50    1.50
  -3  -7   1   13.30    1.60
  -3  -7   1   10.60    2.30
  -3  -7   1   14.90    1.40
  -3  -7   1   12.60    1.50
   2   7  -1   27.00    2.10
   2   7  -1   31.30    2.70
   2   7  -1   27.90    1.80
   2   7  -1   25.50    2.30
  -2  -7   1   22.80    3.10
  -2  -7   1   25.50    1.70
  -2  -7   1   26.20    1.40
  -2  -7   1   25.80    2.20
  -2  -7   1   27.60    2.60
  -2  -7   1   28.20    3.10
   1   7  -1   15.30    1.20
   1   7  -1   16.60    2.30
   1   7  -1   17.30    1.30
   1   7  -1   17.10    2.00
  -1  -7   1   17.00    2.10
  -1  -7   1   14.80    0.90
  -1  -7   1   17.40    2.10
  -1  -7   1   17.90    2.30
  -1  -7   1   15.90    0.80
  -1  -7   1   21.20    1.90
   0   7  -1  159.78    5.40
   0   7  -1  153.08    5.30
   0  -7   1  158.38    4.90
   0  -7   1  156.08    5.70
   0  -7   1  151.08    4.30
   0  -7   1  154.68    5.60
   0  -7   1  159.48    5.10
   0  -7   1  150.88    5.30
  -1   7  -1   30.70    2.40
   1  -7   1   31.90    1.80
   1  -7   1   28.80    2.80
   1  -7   1   29.70    2.60
   1  -7   1   31.80    2.60
   1  -7   1   27.10    2.30
   1  -7   1   29.80    2.40
   1  -7   1   28.90    1.70
   2  -7   1   35.00    2.00
   2  -7   1   34.20    2.80
   2  -7   1   37.00    2.60
   2  -7   1   33.00    2.60
   2  -7   1   29.90    2.50
   2  -7   1   28.50    2.60
   2  -7   1   32.90    1.80
  -3   7  -1   38.60    2.40
  -3   7  -1   37.80    2.60
   3  -7   1   38.30    1.90
   3  -7   1   38.00    2.90
   3  -7   1   40.10    2.30
   3  -7   1   37.90    2.70
   3  -7   1   39.30    2.80
   3  -7   1   38.20    2.90
   3  -7   1   40.60    3.00
  -4   7  -1   49.10    3.10
  -4   7  -1   49.90    2.70
   4  -7   1   46.10    3.30
   4  -7   1   49.40    2.80
   4  -7   1   47.80    3.40
   4  -7   1   39.00    3.00
   4  -7   1   46.50    2.00
  -5   7  -1   66.49    2.40
  -5   7  -1   60.89    3.20
  -5   7  -1   70.59    2.50
  -5   7  -1   70.39    3.80
   5  -7   1   61.79    4.20
   5  -7   1   73.89    2.50
   5  -7   1   64.59    3.50
   5  -7   1   66.19    2.40
   5  -7   1   63.69    3.70
   5  -7   1   66.69    4.00
   5  -7   1   72.89    2.20
  -6   7  -1    6.70    1.50
  -6   7  -1    5.00    1.30
  -6   7  -1    1.00    1.50
  -6   7  -1    4.10    1.40
   6  -7   1    3.90    1.00
   6  -7   1    3.40    0.90
   6  -7   1    6.30    1.10
   6  -7   1    4.70    1.60
   6  -7   1    4.20    1.60
  -7   7  -1    2.70    2.10
  -7   7  -1    0.90    1.60
  -7   7  -1    0.20    1.80
   7  -7   1    1.50    1.20
   7  -7   1    0.20    1.20
   7  -7   1   -4.30    1.60
   5   6  -1    6.30    1.60
   5   6  -1   11.00    2.50
   5   6  -1    5.60    1.80
  -5  -6   1    7.30    2.10
  -5  -6   1    6.20    1.40
  -5  -6   1    6.00    2.20
   4   6  -1   -0.70    1.40
   4   6  -1   -0.10    1.30
   4   6  -1    0.30    0.90
   4   6  -1    2.30    1.30
  -4  -6   1    2.00    1.60
  -4  -6   1    0.50    1.00
  -4  -6   1    1.50    1.20
   3   6  -1   13.90    1.70
   3   6  -1   15.00    1.60
   3   6  -1   14.50    1.90
   3   6  -1   15.30    1.80
  -3  -6   1   13.50    1.40
  -3  -6   1   12.30    1.80
  -3  -6   1   12.70    1.30
  -3  -6   1   14.30    1.70
   2   6  -1   31.00    2.30
   2   6  -1   31.00    2.10
   2   6  -1   31.60    1.80
   2   6  -1   32.90    1.90
  -2  -6   1   32.50    2.00
  -2  -6   1   30.00    2.80
  -2  -6   1   33.50    1.70
  -2  -6   1   32.50    1.50
   1   6  -1    4.30    1.10
   1   6  -1    5.50    1.00
   1   6  -1    5.00    0.60
   1   6  -1    4.00    0.70
  -1  -6   1    4.10    0.60
  -1  -6   1    4.70    1.00
  -1  -6   1    4.60    0.60
  -1  -6   1    5.00    1.00
  -1  -6   1    5.80    1.40
  -1  -6   1    3.60    0.60
  -1  -6   1    3.10    1.20
   0   6  -1   18.80    1.80
   0   6  -1   16.30    1.60
   0  -6   1   15.10    1.80
   0  -6   1   17.40    2.20
   0  -6   1   13.30    1.70
   0  -6   1   18.00    2.00
   0  -6   1   16.90    1.40
   0  -6   1   18.10    1.10
   0  -6   1   16.10    1.70
  -1   6  -1   20.30    1.70
  -1   6  -1   20.00    1.60
   1  -6   1   20.30    1.90
   1  -6   1   21.90    1.40
   1  -6   1   20.00    2.20
   1  -6   1   17.90    1.90
   1  -6   1   19.80    1.30
   1  -6   1   19.90    1.90
   1  -6   1   22.50    1.80
  -2   6  -1   43.50    2.40
  -2   6  -1   45.10    2.30
   2  -6   1   43.40    2.10
   2  -6   1   47.70    1.90
   2  -6   1   46.10    2.40
   2  -6   1   44.60    2.40
   2  -6   1   45.40    2.70
   2  -6   1   42.30    2.50
   2  -6   1   46.40    2.60
  -3   6  -1   22.50    2.00
  -3   6  -1   22.30    1.80
   3  -6   1   21.90    1.70
   3  -6   1   23.50    2.20
   3  -6   1   24.80    2.10
   3  -6   1   24.70    2.10
   3  -6   1   21.80    2.00
   3  -6   1   24.40    1.30
  -4   6  -1  240.28    6.80
  -4   6  -1  256.37    7.40
  -4   6  -1  266.47    7.70
   4  -6   1  267.47    7.70
   4  -6   1  256.27    6.50
   4  -6   1  260.07    7.60
   4  -6   1  266.67    6.70
   4  -6   1  267.57    7.60
   4  -6   1  257.37    7.80
   4  -6   1  265.07    6.40
  -5   6  -1   41.60    2.10
  -5   6  -1   42.40    2.90
  -5   6  -1   44.40    2.60
  -5   6  -1   41.10    2.20
   5  -6   1   43.50    2.80
   5  -6   1   46.10    1.80
   5  -6   1   42.40    2.80
   5  -6   1   42.50    2.00
   5  -6   1   46.80    3.20
   5  -6   1   45.60    1.90
  -6   6  -1  271.97    7.70
  -6   6  -1  278.47    7.00
  -6   6  -1  281.97    8.10
  -6   6  -1  271.17    7.50
  -6   6  -1  279.17    8.50
   6  -6   1  284.87    7.90
   6  -6   1  274.37    8.40
   6  -6   1  266.17    8.60
   6  -6   1  274.17    7.50
   6  -6   1  270.27    7.60
  -7   6  -1   21.10    2.60
  -7   6  -1   11.90    2.20
  -7   6  -1   13.90    2.20
  -7   6  -1   13.40    1.60
  -7   6  -1   22.50    2.50
   7  -6   1   20.00    2.40
   7  -6   1   12.70    1.50
   7  -6   1   12.30    1.90
   7  -6   1   12.40    2.70
   6   5  -1   -1.50    1.40
   6   5  -1    1.30    1.80
  -6  -5   1    0.20    1.40
  -6  -5   1   -0.20    1.80
   5   5  -1   61.59    3.60
   5   5  -1   61.59    3.30
   5   5  -1   62.19    3.00
  -5  -5   1   58.29    3.30
  -5  -5   1   57.29    3.00
   4   5  -1    5.40    1.40
   4   5  -1    3.40    1.10
   4   5  -1    3.20    1.10
   4   5  -1    2.50    1.10
  -4  -5   1    2.60    1.20
  -4  -5   1    4.10    1.30
  -4  -5   1    3.70    1.00
   3   5  -1   57.09    2.60
   3   5  -1   56.29    2.70
   3   5  -1   54.19    2.40
   3   5  -1   54.39    2.60
  -3  -5   1   53.09    2.80
  -3  -5   1   54.69    2.40
  -3  -5   1   53.29    2.20
   2   5  -1  291.57    7.90
   2   5  -1  287.57    7.60
   2   5  -1  281.57    7.50
   2   5  -1  298.47    8.10
  -2  -5   1  302.67    8.30
  -2  -5   1  294.77    7.50
  -2  -5   1  296.47    7.70
  -2  -5   1  298.47    7.40
   1   5  -1   33.60    1.90
   1   5  -1   31.20    1.80
   1   5  -1   33.40    1.40
  -1  -5   1   33.30    1.20
  -1  -5   1   32.20    1.70
  -1  -5   1   33.90    1.30
  -1  -5   1   32.50    1.10
  -1  -5   1   32.80    2.00
  -1  -5   1   32.40    2.20
   0   5  -1   54.29    2.30
   0   5  -1   57.09    2.50
   0   5  -1   55.79    1.40
   0  -5   1   55.29    2.60
   0  -5   1   56.29    2.50
   0  -5   1   55.69    1.80
   0  -5   1   52.79    2.30
   0  -5   1   53.69    2.10
   0  -5   1   53.39    2.30
  -1   5  -1   19.50    1.50
  -1   5  -1   19.30    1.30
  -1   5  -1   15.50    1.30
   1  -5   1   17.10    1.50
   1  -5   1   14.90    1.00
   1  -5   1   15.60    1.50
   1  -5   1   18.60    1.60
   1  -5   1   16.90    1.40
   1  -5   1   16.70    1.00
   1  -5   1   19.00    1.70
  -2   5  -1    3.70    0.80
  -2   5  -1    3.80    0.90
   2  -5   1    2.50    0.70
   2  -5   1    3.40    1.00
   2  -5   1    0.70    1.00
   2  -5   1    3.40    1.00
   2  -5   1    2.70    0.80
   2  -5   1    3.20    0.50
   2  -5   1    3.00    0.90
  -3   5  -1    3.20    0.80
  -3   5  -1    3.50    0.50
  -3   5  -1    2.60    0.70
  -3   5  -1    2.80    0.50
   3  -5   1    2.50    0.80
   3  -5   1    2.70    0.90
   3  -5   1    2.10    0.90
   3  -5   1    3.10    0.40
   3  -5   1    3.00    0.50
   3  -5   1    2.20    0.50
   3  -5   1    3.50    0.90
  -4   5  -1   57.09    2.20
  -4   5  -1   56.89    2.70
  -4   5  -1   55.89    2.10
  -4   5  -1   65.59    2.60
  -4   5  -1   55.79    1.90
   4  -5   1   53.49    2.80
   4  -5   1   56.49    2.90
   4  -5   1   58.59    2.10
   4  -5   1   59.19    2.00
   4  -5   1   59.69    1.90
   4  -5   1   62.39    2.70
  -5   5  -1  406.46   10.50
  -5   5  -1  419.66   10.70
  -5   5  -1  430.56   11.30
  -5   5  -1  411.96   10.10
  -5   5  -1  423.06   11.00
   5  -5   1  420.86   11.30
   5  -5   1  424.26   10.60
   5  -5   1  421.06   10.90
   5  -5   1  428.46   10.50
   5  -5   1  416.06   11.30
   5  -5   1  411.96   10.10
  -6   5  -1    0.60    1.00
  -6   5  -1    0.90    1.20
  -6   5  -1   -1.10    1.00
  -6   5  -1   -0.40    1.20
  -6   5  -1    0.30    0.60
   6  -5   1    0.20    1.00
   6  -5   1    0.40    1.40
   6  -5   1    1.00    1.00
   6  -5   1    1.10    0.80
  -7   5  -1   14.00    1.50
  -7   5  -1   19.30    2.10
  -7   5  -1   15.80    2.00
  -7   5  -1   10.80    2.10
  -7   5  -1   15.10    2.20
   7  -5   1   13.00    1.90
   7  -5   1   13.20    1.90
   7  -5   1   10.70    2.10
   7  -5   1   16.50    1.90
  -8   5  -1   11.10    2.30
  -8   5  -1   10.90    1.40
  -8   5  -1    6.50    1.70
  -8   5  -1   13.70    2.30
   8  -5   1    8.60    2.00
   8  -5   1    8.20    1.70
   8  -5   1   11.50    2.60
   8  -5   1    9.80    2.30
   7   4  -1    3.30    1.40
  -7  -4   1    0.00    2.30
  -7  -4   1    1.10    1.70
   6   4  -1   -0.90    1.00
   6   4  -1    1.20    1.80
   6   4  -1   -1.40    1.40
  -6  -4   1   -1.30    1.10
  -6  -4   1    0.00    1.60
   5   4  -1   31.00    2.10
   5   4  -1   34.50    2.50
   5   4  -1   28.50    2.60
  -5  -4   1   31.80    2.70
  -5  -4   1   32.10    2.20
   4   4  -1   27.80    1.70
   4   4  -1   28.20    2.00
   4   4  -1   29.80    2.10
  -4  -4   1   26.50    2.10
  -4  -4   1   27.50    1.70
  -4  -4   1   23.80    2.00
   3   4  -1    1.90    0.60
   3   4  -1    0.20    0.70
   3   4  -1    0.80    0.80
  -3  -4   1    0.60    0.50
  -3  -4   1    0.40    0.80
  -3  -4   1    2.50    0.80
   2   4  -1   35.90    1.70
   2   4  -1   33.40    1.60
   2   4  -1   32.60    1.60
  -2  -4   1   33.70    1.40
  -2  -4   1   34.00    1.60
  -2  -4   1   34.60    1.90
   1   4  -1    6.70    0.70
   1   4  -1    6.20    0.80
   1   4  -1    7.50    0.70
   1   4  -1    6.80    0.90
   1   4  -1    5.80    0.80
  -1  -4   1    5.40    0.50
  -1  -4   1    5.80    0.70
  -1  -4   1    7.70    1.10
  -1  -4   1    6.70    0.80
  -1  -4   1    6.20    0.60
   0   4  -1  262.27    6.10
   0   4  -1  264.97    6.90
   0   4  -1  253.37    6.90
   0   4  -1  254.27    6.00
   0   4  -1  252.47    6.80
   0  -4   1  258.87    6.80
   0  -4   1  252.57    6.80
   0  -4   1  261.07    6.30
   0  -4   1  260.17    6.80
   0  -4   1  255.37    7.00
   0  -4   1  263.57    6.70
  -1   4  -1  269.67    7.10
  -1   4  -1  261.37    6.80
  -1   4  -1  264.07    6.90
  -1   4  -1  265.47    7.00
  -1   4  -1  266.97    7.10
   1  -4   1  263.17    6.80
   1  -4   1  268.87    6.70
   1  -4   1  261.57    7.10
   1  -4   1  256.97    6.90
   1  -4   1  265.07    6.60
   1  -4   1  260.87    7.00
   1  -4   1  268.17    7.00
  -2   4  -1  239.78    6.50
  -2   4  -1  241.18    6.40
  -2   4  -1  238.18    5.80
   2  -4   1  246.58    6.40
   2  -4   1  247.78    6.50
   2  -4   1  246.78    6.60
   2  -4   1  247.18    6.60
   2  -4   1  244.88    5.70
   2  -4   1  240.98    6.60
   2  -4   1  236.18    6.40
   2  -4   1  242.38    6.00
   2  -4   1  238.08    5.70
  -3   4  -1  199.88    5.50
  -3   4  -1  201.08    5.10
  -3   4  -1  197.88    5.70
  -3   4  -1  196.88    4.90
  -3   4  -1  193.08    5.00
   3  -4   1  199.38    5.70
   3  -4   1  201.08    5.60
   3  -4   1  203.58    5.60
   3  -4   1  196.48    5.00
   3  -4   1  199.98    5.00
   3  -4   1  199.18    5.10
   3  -4   1  197.78    5.60
  -4   4  -1  128.79    3.30
  -4   4  -1  124.39    4.10
  -4   4  -1  115.59    3.90
  -4   4  -1  123.89    3.90
   4  -4   1  127.19    3.70
   4  -4   1  129.39    3.70
   4  -4   1  127.09    4.20
   4  -4   1  128.39    3.40
   4  -4   1  126.39    4.20
   4  -4   1  127.09    3.90
  -5   4  -1  422.86   11.10
  -5   4  -1  413.06   10.60
  -5   4  -1  413.16   10.70
  -5   4  -1  415.76   10.60
  -5   4  -1  409.56   10.00
   5  -4   1  420.16   10.60
   5  -4   1  399.86   10.60
   5  -4   1  424.16   11.00
   5  -4   1  426.86   11.10
   5  -4   1  408.96   10.40
  -6   4  -1  108.79    3.90
  -6   4  -1  106.09    3.20
  -6   4  -1  107.99    3.80
  -6   4  -1  107.39    4.00
   6  -4   1  104.49    3.80
   6  -4   1  110.89    4.30
   6  -4   1  114.29    4.30
   6  -4   1  106.49    4.00
  -7   4  -1    4.20    1.70
  -7   4  -1    3.50    1.40
  -7   4  -1    6.30    1.20
  -7   4  -1    4.20    1.00
   7  -4   1    6.50    1.60
   7  -4   1    6.20    1.70
   7  -4   1    2.40    1.20
  -8   4  -1    1.10    1.30
  -8   4  -1    1.60    1.30
  -8   4  -1    3.50    1.90
   8  -4   1    0.70    2.00
   8  -4   1    2.60    1.70
   8  -4   1    1.30    1.30
   8  -4   1    2.10    1.90
   8   3  -1   16.00    2.80
   8   3  -1   18.30    1.80
  -8  -3   1   15.00    2.20
   7   3  -1    1.10    1.80
   7   3  -1    2.50    0.90
  -7  -3   1   -0.60    2.00
  -7  -3   1    1.10    1.40
   6   3  -1   18.00    2.10
   6   3  -1   20.90    2.50
   6   3  -1   20.70    1.30
  -6  -3   1   21.20    2.30
  -6  -3   1   21.00    2.10
   5   3  -1   48.30    2.80
   5   3  -1   51.59    2.70
   5   3  -1   47.90    1.70
  -5  -3   1   50.49    2.80
  -5  -3   1   49.00    2.50
   4   3  -1   35.50    2.10
   4   3  -1   34.00    1.10
   4   3  -1   34.20    2.00
  -4  -3   1   34.60    1.80
  -4  -3   1   36.20    2.10
  -4  -3   1   35.20    1.90
   3   3  -1  479.65   12.00
   3   3  -1  478.15   12.10
   3   3  -1  477.55   11.80
  -3  -3   1  482.95   12.00
  -3  -3   1  498.35   12.10
  -3  -3   1  500.55   12.00
   2   3  -1   16.30    1.10
   2   3  -1   16.10    1.00
   2   3  -1   15.50    1.10
   2   3  -1   15.60    1.10
  -2  -3   1   17.40    1.00
  -2  -3   1   15.90    1.30
  -2  -3   1   17.50    1.00
   1   3  -1  819.12   19.10
   1   3  -1  811.12   19.40
   1   3  -1  826.42   19.10
   1   3  -1  831.62   19.60
   1   3  -1  831.62   19.40
  -1  -3   1  798.12   19.30
  -1  -3   1  813.72   19.10
  -1  -3   1  819.52   18.90
  -1  -3   1  840.52   19.60
  -1  -3   1  826.72   19.10
   0   3  -1    1.40    0.20
   0   3  -1    2.30    0.50
   0   3  -1    1.40    0.20
   0   3  -1    2.80    0.50
   0   3  -1    1.80    0.50
   0  -3   1    1.00    0.40
   0  -3   1    1.30    0.20
   0  -3   1    1.30    0.50
   0  -3   1    1.40    0.40
   0  -3   1    1.50    0.40
   0  -3   1    2.00    0.50
   0  -3   1    1.30    0.50
  -1   3  -1  283.77    7.30
  -1   3  -1  290.87    7.10
  -1   3  -1  280.97    7.20
   1  -3   1  291.77    6.90
   1  -3   1  282.07    7.20
   1  -3   1  279.77    7.20
   1  -3   1  285.97    7.10
   1  -3   1  285.67    7.30
   1  -3   1  292.57    7.10
   1  -3   1  284.97    7.30
  -2   3  -1   19.50    0.80
  -2   3  -1   20.70    1.10
  -2   3  -1   19.60    1.10
  -2   3  -1   20.00    1.20
  -2   3  -1   19.50    0.90
  -2   3  -1   19.80    0.90
   2  -3   1   19.80    0.80
   2  -3   1   20.00    1.20
   2  -3   1   21.90    1.20
   2  -3   1   17.70    1.20
   2  -3   1   18.70    0.80
   2  -3   1   21.90    1.20
  -3   3  -1  416.16   10.20
  -3   3  -1  440.46   10.70
  -3   3  -1  425.86   10.40
  -3   3  -1  429.66   10.30
  -3   3  -1  423.36    9.90
   3  -3   1  419.16   10.60
   3  -3   1  436.76   10.40
   3  -3   1  384.86   10.30
   3  -3   1  420.96   10.30
   3  -3   1  432.76   10.20
  -4   3  -1  256.67    6.70
  -4   3  -1  251.27    6.60
  -4   3  -1  248.28    6.70
  -4   3  -1  250.87    6.20
   4  -3   1  261.97    7.00
   4  -3   1  252.87    6.50
   4  -3   1  249.08    6.60
   4  -3   1  256.77    6.70
  -5   3  -1    6.40    1.00
  -5   3  -1    4.60    0.80
  -5   3  -1    4.70    0.70
  -5   3  -1    5.30    1.10
   5  -3   1    5.20    0.90
   5  -3   1    3.40    0.80
   5  -3   1    4.00    1.00
  -6   3  -1   20.60    2.20
  -6   3  -1   23.90    1.60
  -6   3  -1   19.90    1.40
  -6   3  -1   25.00    2.20
   6  -3   1   18.90    2.00
   6  -3   1   21.10    1.70
   6  -3   1   24.60    2.10
  -7   3  -1   23.30    2.90
  -7   3  -1   22.20    2.40
  -7   3  -1   19.80    1.80
  -7   3  -1   21.00    1.80
   7  -3   1   24.70    2.60
   7  -3   1   17.20    3.40
   7  -3   1   23.10    2.00
  -8   3  -1    4.30    1.60
  -8   3  -1    5.70    1.20
  -8   3  -1    5.90    2.00
   8  -3   1    4.90    2.10
   8  -3   1    3.90    1.60
   8  -3   1    5.10    1.50
   8   2  -1   15.80    2.40
   8   2  -1   18.60    1.90
  -8  -2   1   19.80    2.50
   7   2  -1  162.68    5.90
   7   2  -1  162.48    4.80
   7   2  -1  142.59    6.00
  -7  -2   1  155.08    6.00
  -7  -2   1  166.28    5.80
   6   2  -1    0.20    0.80
   6   2  -1    0.90    1.40
   6   2  -1    0.90    1.20
  -6  -2   1   -0.70    1.00
  -6  -2   1    1.20    1.30
   5   2  -1  669.13   16.80
   5   2  -1  684.73   16.80
   5   2  -1  646.04   15.90
  -5  -2   1  677.13   16.70
  -5  -2   1  664.03   16.70
   4   2  -1  452.15   11.50
   4   2  -1  454.95   11.50
   4   2  -1  437.96   10.80
  -4  -2   1  458.55   11.50
  -4  -2   1  461.45   11.50
   3   2  -1  108.59    2.90
   3   2  -1  113.89    3.50
   3   2  -1  116.89    3.20
   3   2  -1  113.09    3.50
  -3  -2   1  114.99    3.50
  -3  -2   1  113.99    3.40
  -3  -2   1  112.29    3.20
   2   2  -1  329.07    8.10
   2   2  -1  316.57    7.70
   2   2  -1  333.67    8.20
   2   2  -1  338.37    8.20
   2   2  -1  329.57    8.00
  -2  -2   1  337.97    8.20
  -2  -2   1  333.07    8.20
  -2  -2   1  333.47    8.10
   1   2  -1   66.89    1.90
   1   2  -1   66.09    1.90
   1   2  -1   69.09    2.10
   1   2  -1   69.09    2.20
  -1  -2   1   68.29    2.10
  -1  -2   1   65.59    1.90
  -1  -2   1   67.39    1.90
  -1  -2   1   67.09    1.90
   0   2  -1  646.34   15.20
   0   2  -1  658.83   15.00
   0   2  -1  636.64   15.30
   0   2  -1  656.63   15.00
   0   2  -1  587.04   15.20
   0  -2   1  665.73   15.00
   0  -2   1  653.23   15.10
   0  -2   1  642.04   15.30
   0  -2   1  651.43   15.00
   0  -2   1  653.23   15.20
   0  -2   1  658.03   15.20
   0  -2   1  667.73   15.00
   0  -2   1  655.83   15.20
  -1   2  -1  166.78    4.40
  -1   2  -1  172.38    4.00
  -1   2  -1  174.18    4.40
  -1   2  -1  173.68    4.30
   1  -2   1  160.08    4.30
   1  -2   1  176.48    4.30
   1  -2   1  167.78    4.00
   1  -2   1  166.48    4.40
   1  -2   1  168.28    4.00
   1  -2   1  175.68    4.30
   1  -2   1  173.68    4.40
   1  -2   1  177.68    4.40
   1  -2   1  145.29    4.10
  -2   2  -1  126.79    3.40
  -2   2  -1  126.79    3.40
  -2   2  -1  127.69    3.10
  -2   2  -1  131.79    3.40
  -2   2  -1  130.79    3.30
   2  -2   1  127.39    3.40
   2  -2   1  126.89    3.60
   2  -2   1  129.19    3.30
   2  -2   1  127.49    3.10
   2  -2   1  125.49    3.30
   2  -2   1  131.69    3.50
  -3   2  -1  863.41   20.40
  -3   2  -1  875.31   20.40
  -3   2  -1  862.81   20.30
  -3   2  -1  856.31   20.00
   3  -2   1  870.51   20.50
   3  -2   1  870.81   20.40
   3  -2   1  850.11   20.10
   3  -2   1  872.11   20.40
  -4   2  -1  161.48    4.10
  -4   2  -1  159.18    4.40
  -4   2  -1  161.28    4.60
  -4   2  -1  160.98    4.70
   4  -2   1  160.48    4.60
   4  -2   1  160.68    4.70
   4  -2   1  156.48    4.70
  -5   2  -1  139.89    3.90
  -5   2  -1  135.09    4.50
  -5   2  -1  144.49    4.10
  -5   2  -1  147.49    4.40
   5  -2   1  141.89    4.50
   5  -2   1  136.89    4.40
   5  -2   1  138.49    4.50
  -6   2  -1  386.66   10.30
  -6   2  -1  384.56    9.80
  -6   2  -1  381.46    9.60
  -6   2  -1  375.46   10.40
   6  -2   1  387.26   10.50
   6  -2   1  390.36   10.30
   6  -2   1  387.06   10.30
  -7   2  -1   40.10    2.10
  -7   2  -1   43.20    2.90
  -7   2  -1   36.70    3.20
  -7   2  -1   41.70    2.40
   7  -2   1   40.70    2.60
   7  -2   1   42.90    3.10
   7  -2   1   38.20    2.80
  -8   2  -1   12.80    1.90
  -8   2  -1   14.70    2.30
  -8   2  -1   15.10    1.90
   8  -2   1   15.00    2.00
   8  -2   1   15.30    2.00
   8  -2   1   12.40    2.40
   8   1  -1   10.10    1.80
   8   1  -1   15.30    2.30
  -8  -1   1    9.90    2.20
  -8  -1   1   12.10    2.10
   7   1  -1   24.00    3.00
   7   1  -1   23.70    2.60
   7   1  -1   22.40    2.10
  -7  -1   1   20.40    2.40
  -7  -1   1   17.20    3.40
  -7  -1   1   26.10    2.70
   6   1  -1   28.60    2.30
   6   1  -1   32.20    1.90
   6   1  -1   26.70    2.40
  -6  -1   1   26.60    2.50
  -6  -1   1   27.70    2.20
   5   1  -1    1.00    1.00
   5   1  -1   -0.40    0.70
   5   1  -1    0.60    0.60
  -5  -1   1    1.30    1.00
  -5  -1   1    1.60    0.80
   4   1  -1  233.78    6.30
   4   1  -1  219.18    5.80
   4   1  -1  216.68    6.20
  -4  -1   1  218.58    6.20
  -4  -1   1  231.48    6.20
   3   1  -1  898.11   21.00
   3   1  -1  859.81   20.50
   3   1  -1  895.31   21.00
  -3  -1   1  893.91   21.00
  -3  -1   1  881.01   21.00
   2   1  -1   22.50    0.90
   2   1  -1   21.20    1.00
   2   1  -1   23.30    1.10
  -2  -1   1   21.80    1.10
  -2  -1   1   21.70    1.00
   1   1  -1 6359.06  150.08
   1   1  -1 6512.75  150.28
   1   1  -1 6612.24  150.18
  -1  -1   1 6488.75  150.08
  -1  -1   1 6614.34  150.28
   0   1  -1  474.75   11.30
   0   1  -1  480.95   11.70
   0   1  -1  499.15   11.40
   0   1  -1  502.55   11.80
   0   1  -1  449.46   11.30
   0  -1   1  510.95   11.70
   0  -1   1  487.75   11.40
   0  -1   1  519.95   11.50
   0  -1   1  460.25   11.30
   0  -1   1  504.55   11.40
  -1   1  -1  191.28    4.50
  -1   1  -1  188.38    4.50
  -1   1  -1  190.18    4.60
  -1   1  -1  190.38    4.60
  -1   1  -1  185.98    4.50
   1  -1   1  187.58    4.50
   1  -1   1  179.98    4.50
   1  -1   1  194.58    4.50
  -2   1  -1  951.40   21.30
  -2   1  -1  945.21   21.40
  -2   1  -1  864.81   21.40
  -2   1  -1  917.41   21.20
   2  -1   1  933.01   21.40
   2  -1   1  902.91   21.40
   2  -1   1  920.41   21.40
  -3   1  -1  560.24   13.70
  -3   1  -1  566.14   13.40
  -3   1  -1  572.34   13.70
   3  -1   1  587.54   13.70
   3  -1   1  559.44   13.70
   3  -1   1  572.74   13.70
  -4   1  -1 1284.47   30.50
  -4   1  -1 1345.47   30.70
   4  -1   1 1285.37   30.50
   4  -1   1 1309.87   30.60
   4  -1   1 1272.67   30.60
  -5   1  -1  169.88    4.70
  -5   1  -1  167.38    5.20
  -5   1  -1  160.38    5.00
   5  -1   1  166.28    5.00
   5  -1   1  163.18    4.90
   5  -1   1  171.88    5.20
  -6   1  -1  119.69    3.60
  -6   1  -1  119.89    3.80
  -6   1  -1  108.29    4.40
  -6   1  -1  119.79    4.30
   6  -1   1  121.59    4.10
   6  -1   1  116.79    4.20
   6  -1   1  119.69    4.50
  -7   1  -1    3.10    1.20
  -7   1  -1    3.00    1.40
  -7   1  -1    2.60    0.90
  -7   1  -1    2.10    1.80
   7  -1   1    4.70    1.30
   7  -1   1    3.10    1.70
   7  -1   1    4.40    1.30
  -8   1  -1   10.30    1.30
  -8   1  -1    5.20    2.00
  -8   1  -1    6.20    2.00
   8  -1   1    7.20    1.80
   8  -1   1    5.20    1.60
   8  -1   1    7.20    2.60
   8   0  -1    0.80    1.40
   8   0  -1   -0.70    1.30
   8   0  -1   -1.60    2.10
  -8   0   1   -1.20    1.60
  -8   0   1    0.60    1.60
   7   0  -1   65.19    3.50
   7   0  -1   74.59    3.30
   7   0  -1   67.19    3.80
  -7   0   1   64.29    3.70
  -7   0   1   68.09    3.30
  -7   0   1   71.89    3.60
   6   0  -1  173.78    5.60
   6   0  -1  167.48    5.50
   6   0  -1  168.38    5.10
  -6   0   1  174.28    5.40
  -6   0   1  168.58    5.10
  -6   0   1  154.58    5.40
   5   0  -1    4.60    0.80
   5   0  -1    3.50    0.90
   5   0  -1    4.20    1.60
  -5   0   1    5.60    1.10
  -5   0   1    6.10    0.90
  -5   0   1    3.30    0.80
   4   0  -1   97.59    3.30
   4   0  -1   92.59    3.20
  -4   0   1   98.99    3.20
  -4   0   1   96.39    3.20
  -4   0   1   93.49    3.00
   3   0  -1   58.59    2.10
   3   0  -1   60.09    2.10
  -3   0   1   60.59    2.10
  -3   0   1   60.19    2.10
  -3   0   1   59.39    2.00
   2   0  -1  163.18    4.30
   2   0  -1  170.28    4.30
  -2   0   1  152.88    4.20
  -2   0   1  168.88    4.30
  -2   0   1  164.18    4.10
   1   0  -1  543.55   13.30
   1   0  -1  573.04   13.40
  -1   0   1  579.34   13.30
  -1   0   1  588.74   13.50
  -1   0   1  581.94   13.50
  -1   0   1  580.04   13.60
  -1   0  -1 1764.72   41.30
  -1   0  -1 1698.73   40.80
  -1   0  -1 1773.72   41.10
   1   0   1 1720.33   40.80
   1   0   1 1731.43   40.90
   1   0   1 1806.42   41.50
  -2   0  -1  442.36   10.70
  -2   0  -1  445.46   10.60
  -2   0  -1  450.85   10.70
   2   0   1  453.15   10.70
   2   0   1  445.76   10.60
   2   0   1  441.36   10.70
  -3   0  -1  248.28    6.50
   3   0   1  243.38    6.40
   3   0   1  247.78    6.20
   3   0   1  241.48    6.40
  -4   0  -1  414.66   10.10
  -4   0  -1  379.96   10.10
   4   0   1  391.06   10.10
   4   0   1  396.66    9.80
   4   0   1  394.76   10.20
  -5   0  -1   50.09    2.50
  -5   0  -1   53.99    2.40
   5   0   1   56.19    2.50
   5   0   1   51.79    2.50
   5   0   1   48.40    2.20
  -6   0  -1  247.88    7.80
  -6   0  -1  264.27    7.60
   6   0   1  268.27    7.80
   6   0   1  263.57    7.70
   6   0   1  264.67    7.20
  -7   0  -1   47.70    3.30
  -7   0  -1   50.39    3.00
  -7   0  -1   45.40    3.00
   7   0   1   46.50    2.70
   7   0   1   45.30    3.40
   7   0   1   47.40    3.00
  -8   0  -1   30.20    3.10
  -8   0  -1   21.80    1.80
  -8   0  -1   21.80    2.50
   8   0   1   21.60    2.50
   8   0   1   24.30    2.30
   9  -1  -1    9.60    2.20
   9  -1  -1    4.70    1.90
   9  -1  -1    9.40    2.10
  -9   1   1   10.00    2.40
  -9   1   1    5.80    2.30
  -9   1   1    9.70    1.70
   8  -1  -1   10.00    2.30
   8  -1  -1    9.60    2.40
   8  -1  -1    8.20    1.70
  -8   1   1    5.00    2.50
  -8   1   1    4.90    1.80
   7  -1  -1    0.60    1.20
   7  -1  -1   -0.70    1.40
   7  -1  -1   -0.10    1.20
  -7   1   1   -1.60    1.40
  -7   1   1    2.30    1.40
  -7   1   1    0.60    1.10
   6  -1  -1  285.27    7.90
   6  -1  -1  298.07    8.10
   6  -1  -1  281.07    8.10
  -6   1   1  277.17    7.70
  -6   1   1  284.77    8.10
  -6   1   1  279.67    8.10
   5  -1  -1   66.19    2.70
  -5   1   1   71.99    2.80
  -5   1   1   72.19    2.50
  -5   1   1   70.69    2.90
   4  -1  -1  707.23   16.70
   4  -1  -1  722.53   16.80
   4  -1  -1  656.13   15.90
  -4   1   1  694.33   16.40
  -4   1   1  659.13   16.60
  -4   1   1  702.53   16.70
   3  -1  -1   32.70    1.40
   3  -1  -1   32.10    1.40
  -3   1   1   33.00    1.40
  -3   1   1   31.90    1.30
  -3   1   1   31.70    1.40
   2  -1  -1  657.33   14.80
   2  -1  -1  628.24   14.70
   2  -1  -1  641.04   14.70
   2  -1  -1  600.14   14.80
  -2   1   1  643.64   14.70
  -2   1   1  625.84   14.80
  -2   1   1  621.24   14.80
   1  -1  -1 4496.35  102.49
   1  -1  -1 4435.26  102.69
   1  -1  -1 4328.47  102.39
   1  -1  -1 4400.66  102.29
   1  -1  -1 4328.17  102.29
  -1   1   1 4450.95  102.29
  -1   1   1 4421.86  102.39
  -1   1   1 4568.44  102.29
  -1   1   1 4385.76  102.69
  -1   1   1 4532.55  102.59
   0  -1  -1 2292.07   53.09
   0  -1  -1 2292.87   52.59
   0  -1  -1 2212.58   53.19
   0  -1  -1 2236.98   52.69
   0  -1  -1 2293.47   52.69
   0   1   1 2238.58   52.79
   0   1   1 2277.67   52.69
   0   1   1 2314.17   52.59
   0   1   1 2199.08   52.49
   0   1   1 2321.07   53.09
  -1  -1  -1    7.20    0.40
  -1  -1  -1    6.80    0.30
  -1  -1  -1    6.40    0.50
   1   1   1    7.00    0.60
   1   1   1    6.30    0.50
   1   1   1    6.80    0.40
  -2  -1  -1  359.66    8.80
  -2  -1  -1  351.66    8.50
  -2  -1  -1  360.56    8.80
   2   1   1  360.56    8.80
   2   1   1  355.86    8.80
  -3  -1  -1  444.16   11.00
  -3  -1  -1  430.36   10.50
  -3  -1  -1  443.66   11.00
   3   1   1  447.76   11.00
   3   1   1  437.86   10.60
   3   1   1  456.25   11.00
  -4  -1  -1  388.36   10.00
  -4  -1  -1  404.86   10.20
  -4  -1  -1  377.86    9.30
   4   1   1  392.86   10.10
   4   1   1  391.96    9.60
  -5  -1  -1    3.30    0.90
  -5  -1  -1    4.70    1.20
   5   1   1    3.90    1.00
   5   1   1    4.50    0.80
   5   1   1    4.50    1.20
  -6  -1  -1   56.19    3.30
  -6  -1  -1   62.09    3.00
   6   1   1   60.09    3.30
   6   1   1   55.89    2.50
   6   1   1   54.89    2.90
  -7  -1  -1   28.10    3.20
  -7  -1  -1   24.80    2.60
   7   1   1   21.30    2.70
   7   1   1   27.90    2.50
   7   1   1   24.90    2.20
  -8  -1  -1    2.00    1.30
  -8  -1  -1    0.40    1.70
   8   1   1    1.30    1.80
   8   1   1    3.80    1.60
   9  -2  -1   -1.80    1.50
   9  -2  -1   -0.90    2.00
   9  -2  -1   -1.10    2.60
  -9   2   1   -0.70    1.40
  -9   2   1    1.70    2.10
  -9   2   1    4.20    2.00
   8  -2  -1    9.90    2.20
   8  -2  -1    9.50    1.90
   8  -2  -1   11.60    1.80
   8  -2  -1   13.00    1.80
  -8   2   1   15.80    2.00
  -8   2   1   12.00    2.20
  -8   2   1   10.30    1.50
   7  -2  -1   53.49    3.30
   7  -2  -1   51.69    2.70
   7  -2  -1   55.29    3.10
  -7   2   1   56.79    2.70
  -7   2   1   50.29    3.20
  -7   2   1   60.29    3.20
   6  -2  -1  163.48    5.00
   6  -2  -1  171.58    5.40
   6  -2  -1  160.78    5.30
   6  -2  -1  173.98    5.90
  -6   2   1  159.88    5.30
  -6   2   1  165.48    5.30
  -6   2   1  170.58    4.90
   5  -2  -1   26.10    1.80
   5  -2  -1   27.20    1.60
   5  -2  -1   25.60    1.70
   5  -2  -1   26.80    1.10
  -5   2   1   28.80    1.80
  -5   2   1   25.70    1.70
  -5   2   1   26.60    1.40
   4  -2  -1    5.20    0.70
   4  -2  -1    6.40    0.80
   4  -2  -1    6.30    0.80
   4  -2  -1    6.20    0.70
   4  -2  -1    5.70    0.80
  -4   2   1    5.30    0.80
  -4   2   1    6.90    0.80
   3  -2  -1  158.58    4.20
   3  -2  -1  161.38    4.40
   3  -2  -1  161.18    4.30
   3  -2  -1  165.28    4.40
  -3   2   1  161.18    4.30
  -3   2   1  159.48    4.40
  -3   2   1  159.18    4.20
   2  -2  -1   18.00    1.00
   2  -2  -1   18.40    0.80
   2  -2  -1   18.00    0.80
   2  -2  -1   18.50    0.80
  -2   2   1   17.40    0.90
  -2   2   1   18.30    0.80
  -2   2   1   19.30    0.90
  -2   2   1   19.40    1.00
  -2   2   1   17.90    0.90
  -2   2   1   18.70    0.80
   1  -2  -1 3289.77   75.09
   1  -2  -1 3314.97   76.59
   1  -2  -1 3268.47   76.59
   1  -2  -1 3342.87   75.09
   1  -2  -1 3366.46   75.99
   1  -2  -1 2875.71   75.89
  -1   2   1 3280.27   75.09
  -1   2   1 3242.38   75.99
  -1   2   1 3177.68   75.79
  -1   2   1 3331.07   76.09
  -1   2   1 3283.17   75.69
   0  -2  -1 6196.58  140.69
   0  -2  -1 5883.61  140.89
   0  -2  -1 6023.00  141.19
   0  -2  -1 6226.18  140.09
   0  -2  -1 5994.80  139.79
   0   2   1 6123.29  141.59
   0   2   1 6204.58  140.49
   0   2   1 6022.30  139.89
   0   2   1 6084.69  139.99
   0   2   1 6120.69  141.29
  -1  -2  -1  296.47    7.10
  -1  -2  -1  306.27    7.20
  -1  -2  -1  303.07    7.40
  -1  -2  -1  315.27    7.40
   1   2   1  303.17    7.40
   1   2   1  300.67    7.50
   1   2   1  302.87    7.40
  -2  -2  -1    3.50    0.40
  -2  -2  -1    2.50    0.60
  -2  -2  -1    2.70    0.50
  -2  -2  -1    3.20    0.50
   2   2   1    3.30    0.40
   2   2   1    3.00    0.50
   2   2   1    3.70    0.60
  -3  -2  -1   10.10    1.10
  -3  -2  -1   10.90    1.00
  -3  -2  -1   10.80    1.20
   3   2   1   10.00    1.00
   3   2   1   10.50    0.70
   3   2   1   10.60    1.20
  -4  -2  -1   23.80    1.30
  -4  -2  -1   22.30    1.80
  -4  -2  -1   25.60    1.60
   4   2   1   24.10    1.10
   4   2   1   23.90    1.80
   4   2   1   23.80    1.60
  -5  -2  -1   33.30    1.50
  -5  -2  -1   34.30    2.40
  -5  -2  -1   32.80    2.10
   5   2   1   33.30    1.50
   5   2   1   31.50    2.40
   5   2   1   33.90    2.30
  -6  -2  -1  131.99    5.10
  -6  -2  -1  115.39    6.40
   6   2   1  130.29    3.90
   6   2   1  129.39    5.10
   6   2   1  134.59    4.80
  -7  -2  -1    1.10    1.60
  -7  -2  -1    3.10    2.00
   7   2   1    2.60    1.70
   7   2   1    1.40    1.10
  -8  -2  -1    1.50    1.80
   8   2   1    1.60    1.50
   8   2   1    1.20    2.00
   9  -3  -1    7.80    2.10
   9  -3  -1    1.50    2.20
   9  -3  -1    0.80    1.70
   9  -3  -1    4.30    2.70
  -9   3   1   -0.70    2.40
  -9   3   1    3.20    1.60
  -9   3   1    0.20    2.00
   8  -3  -1    7.70    1.80
   8  -3  -1    5.20    2.00
   8  -3  -1    4.20    1.40
   8  -3  -1    5.00    1.80
  -8   3   1    6.50    2.00
  -8   3   1    9.30    1.60
   7  -3  -1   63.29    3.40
   7  -3  -1   61.89    3.10
   7  -3  -1   60.49    3.90
   7  -3  -1   66.09    3.20
  -7   3   1   68.59    3.30
  -7   3   1   61.69    2.90
  -7   3   1   61.59    3.40
  -7   3   1   64.29    2.80
   6  -3  -1   15.20    1.20
   6  -3  -1   14.80    1.60
   6  -3  -1   16.10    1.80
   6  -3  -1   14.00    1.80
   6  -3  -1   16.60    1.90
  -6   3   1   14.20    1.50
  -6   3   1   13.60    1.60
  -6   3   1   14.80    1.90
  -6   3   1   15.90    1.50
   5  -3  -1   79.69    2.80
   5  -3  -1   72.69    2.50
   5  -3  -1   73.79    2.90
   5  -3  -1   73.49    2.90
   5  -3  -1   74.49    2.50
  -5   3   1   74.59    2.50
  -5   3   1   70.79    2.80
  -5   3   1   73.69    2.80
  -5   3   1   75.79    2.90
   4  -3  -1  393.16    9.70
   4  -3  -1  378.06    9.60
   4  -3  -1  385.36    9.40
   4  -3  -1  388.46    9.80
   4  -3  -1  386.76    9.70
  -4   3   1  371.16    9.60
  -4   3   1  390.56    9.80
  -4   3   1  389.46    9.40
  -4   3   1  384.26    9.70
  -4   3   1  383.96    9.80
   3  -3  -1   76.69    2.60
   3  -3  -1   78.79    2.30
   3  -3  -1   75.09    2.40
   3  -3  -1   78.09    2.40
   3  -3  -1   77.69    2.70
  -3   3   1   75.49    2.30
  -3   3   1   72.99    2.60
  -3   3   1   77.99    2.40
  -3   3   1   77.19    2.60
  -3   3   1   77.09    2.40
   2  -3  -1    1.30    0.30
   2  -3  -1    1.70    0.60
   2  -3  -1    1.60    0.60
   2  -3  -1    1.30    0.40
   2  -3  -1    1.40    0.50
   2  -3  -1    1.70    0.30
  -2   3   1    1.30    0.50
  -2   3   1    1.40    0.50
  -2   3   1    1.70    0.40
  -2   3   1    1.40    0.30
  -2   3   1    1.20    0.40
  -2   3   1    1.50    0.40
   1  -3  -1  371.06    9.10
   1  -3  -1  362.36    9.00
   1  -3  -1  360.96    8.90
   1  -3  -1  351.26    8.90
   1  -3  -1  355.76    8.80
   1  -3  -1  373.36    8.80
   1  -3  -1  362.46    8.40
   1  -3  -1  353.76    8.40
  -1   3   1  346.37    8.80
  -1   3   1  358.56    8.80
  -1   3   1  363.66    9.00
  -1   3   1  357.36    8.40
   0  -3  -1  175.38    4.60
   0  -3  -1  170.28    4.80
   0  -3  -1  168.98    4.60
   0  -3  -1  177.28    4.20
   0  -3  -1  165.88    4.50
   0  -3  -1  176.18    4.30
   0   3   1  169.78    4.30
   0   3   1  169.98    4.50
   0   3   1  171.18    4.30
   0   3   1  181.18    4.70
   0   3   1  172.58    4.80
  -1  -3  -1  309.17    7.50
  -1  -3  -1  305.67    7.50
  -1  -3  -1  319.37    7.60
  -1  -3  -1  320.07    8.00
  -1  -3  -1  299.87    7.20
   1   3   1  305.77    7.80
   1   3   1  312.97    7.90
   1   3   1  296.47    7.60
   1   3   1  310.47    7.60
  -2  -3  -1   24.50    1.40
  -2  -3  -1   25.50    1.50
  -2  -3  -1   24.20    1.20
  -2  -3  -1   24.70    1.10
  -2  -3  -1   25.40    0.80
   2   3   1   23.40    1.30
   2   3   1   27.30    1.40
   2   3   1   23.80    1.30
  -3  -3  -1  258.87    7.00
  -3  -3  -1  262.37    6.90
  -3  -3  -1  261.67    7.10
   3   3   1  250.77    6.20
   3   3   1  264.97    7.00
   3   3   1  267.87    7.10
  -4  -3  -1  336.57    9.00
  -4  -3  -1  324.67    9.10
  -4  -3  -1  338.27    8.70
   4   3   1  347.97    9.10
   4   3   1  343.67    9.10
   4   3   1  329.27    8.00
  -5  -3  -1   74.69    3.50
  -5  -3  -1   71.69    3.20
  -5  -3  -1   72.19    2.80
   5   3   1   74.29    3.40
   5   3   1   70.89    3.50
   5   3   1   73.89    2.20
  -6  -3  -1   27.60    2.30
  -6  -3  -1   36.60    3.20
   6   3   1   29.40    1.50
   6   3   1   29.20    2.70
   6   3   1   25.20    2.80
  -7  -3  -1   -3.80    2.20
  -7  -3  -1    1.20    1.60
   7   3   1   -2.90    1.60
   7   3   1    1.00    0.90
   8  -4  -1    1.70    1.80
   8  -4  -1    3.10    1.50
   8  -4  -1    2.30    2.00
   8  -4  -1    1.70    1.60
  -8   4   1    3.40    1.80
  -8   4   1    0.80    1.50
  -8   4   1    2.30    1.30
   7  -4  -1   12.10    1.40
   7  -4  -1    9.20    1.60
   7  -4  -1   10.90    1.80
   7  -4  -1   10.00    1.80
   7  -4  -1   11.40    1.50
  -7   4   1   10.50    1.50
  -7   4   1   13.20    1.50
  -7   4   1   11.20    1.80
  -7   4   1   11.50    1.80
  -7   4   1    9.90    1.80
   6  -4  -1   74.19    3.50
   6  -4  -1   79.89    3.60
   6  -4  -1   79.89    3.30
   6  -4  -1   76.99    2.90
   6  -4  -1   83.49    3.20
  -6   4   1   85.99    3.60
  -6   4   1   84.09    2.90
  -6   4   1   79.29    3.40
  -6   4   1   80.09    3.40
  -6   4   1   78.29    3.20
   5  -4  -1   42.50    1.80
   5  -4  -1   40.50    2.00
   5  -4  -1   39.30    1.90
   5  -4  -1   38.00    2.30
   5  -4  -1   38.30    2.00
  -5   4   1   35.00    2.00
  -5   4   1   36.20    2.00
  -5   4   1   39.50    1.80
  -5   4   1   40.20    2.10
  -5   4   1   42.20    2.30
   4  -4  -1   38.60    2.00
   4  -4  -1   41.20    1.60
   4  -4  -1   43.80    1.80
   4  -4  -1   40.80    1.80
   4  -4  -1   38.50    2.10
  -4   4   1   39.50    1.60
  -4   4   1   41.80    2.00
  -4   4   1   42.80    2.10
  -4   4   1   32.10    2.30
   3  -4  -1  233.78    6.00
   3  -4  -1  240.08    5.90
   3  -4  -1  242.28    6.60
   3  -4  -1  237.58    5.90
   3  -4  -1  235.68    6.50
  -3   4   1  232.38    6.00
  -3   4   1  225.88    6.30
  -3   4   1  225.08    5.90
  -3   4   1  234.78    5.90
  -3   4   1  228.28    6.30
   2  -4  -1    6.40    0.90
   2  -4  -1    6.10    0.70
   2  -4  -1    6.10    0.50
   2  -4  -1    6.70    1.00
   2  -4  -1    6.80    1.00
   2  -4  -1    5.90    1.00
   2  -4  -1    5.80    0.50
  -2   4   1    3.60    0.80
  -2   4   1    3.40    0.60
  -2   4   1    6.10    0.60
  -2   4   1    5.10    0.50
  -2   4   1    6.60    0.80
  -2   4   1    5.40    0.70
   1  -4  -1   20.20    1.40
   1  -4  -1   22.20    1.40
   1  -4  -1   20.10    0.70
   1  -4  -1   19.20    1.40
   1  -4  -1   18.30    1.20
   1  -4  -1   19.40    0.70
   1  -4  -1   20.40    1.10
   1  -4  -1   19.20    1.50
  -1   4   1   18.80    1.20
  -1   4   1   18.60    0.80
  -1   4   1   19.60    0.80
  -1   4   1   15.80    1.40
   0  -4  -1    1.10    0.30
   0  -4  -1    0.70    0.50
   0  -4  -1    0.80    0.60
   0  -4  -1    0.90    0.70
   0  -4  -1    0.40    0.50
   0  -4  -1    1.20    0.30
   0  -4  -1    0.80    0.70
   0   4   1    1.70    0.60
   0   4   1    1.00    0.50
   0   4   1    1.30    0.40
   0   4   1    1.20    0.60
  -1  -4  -1   60.19    2.40
  -1  -4  -1   61.09    2.20
  -1  -4  -1   61.99    2.00
  -1  -4  -1   63.39    1.70
  -1  -4  -1   63.79    2.70
  -1  -4  -1   63.19    2.10
   1   4   1   62.59    2.40
   1   4   1   65.89    2.10
   1   4   1   61.09    2.10
   1   4   1   63.09    2.50
  -2  -4  -1   25.00    1.50
  -2  -4  -1   23.20    1.80
  -2  -4  -1   25.30    1.30
  -2  -4  -1   28.10    1.30
   2   4   1   24.70    1.50
   2   4   1   26.10    1.60
   2   4   1   25.90    1.50
   2   4   1   24.60    1.60
  -3  -4  -1   14.80    2.50
  -3  -4  -1   17.30    1.40
  -3  -4  -1   18.40    1.20
  -3  -4  -1   17.20    1.60
   3   4   1   16.80    1.50
   3   4   1   17.10    1.60
   3   4   1   17.20    1.70
   3   4   1   16.90    1.50
  -4  -4  -1   27.90    2.20
  -4  -4  -1   29.10    2.30
  -4  -4  -1   28.10    1.50
  -4  -4  -1   27.30    1.80
   4   4   1   30.40    2.20
   4   4   1   32.50    2.30
  -5  -4  -1    0.50    1.30
  -5  -4  -1    0.70    0.70
  -5  -4  -1   -1.90    1.20
   5   4   1   -0.80    1.20
   5   4   1   -1.00    1.50
  -6  -4  -1    3.30    1.30
  -6  -4  -1    2.30    0.80
  -6  -4  -1    1.40    1.80
   6   4   1    6.20    1.90
  -7  -4  -1   31.00    3.70
  -7  -4  -1   30.10    3.00
   7   4   1   37.00    4.20
   8  -5  -1   30.10    3.30
   8  -5  -1   34.80    4.00
   8  -5  -1   33.70    2.70
   8  -5  -1   28.90    3.20
  -8   5   1   26.60    2.60
  -8   5   1   27.30    2.70
  -8   5   1   25.60    3.40
  -8   5   1   28.30    3.40
   7  -5  -1    5.80    1.30
   7  -5  -1    4.00    1.40
   7  -5  -1    5.90    1.90
   7  -5  -1    4.80    1.60
   7  -5  -1    3.70    1.20
  -7   5   1    6.00    1.60
  -7   5   1    8.90    2.50
  -7   5   1    4.30    1.40
  -7   5   1    5.80    1.80
  -7   5   1    7.00    1.30
   6  -5  -1   81.89    4.40
   6  -5  -1   83.99    2.90
   6  -5  -1   84.59    3.90
   6  -5  -1   87.19    3.20
   6  -5  -1   71.99    4.00
   6  -5  -1   74.39    3.40
  -6   5   1   83.79    3.00
  -6   5   1   82.89    3.40
  -6   5   1   77.59    3.40
  -6   5   1   85.19    3.70
  -6   5   1   79.09    3.40
   5  -5  -1    6.30    1.20
   5  -5  -1    5.60    1.00
   5  -5  -1    4.10    1.30
   5  -5  -1    5.60    1.00
   5  -5  -1    6.40    0.90
  -5   5   1    5.80    1.10
  -5   5   1    4.60    1.00
  -5   5   1    5.30    1.10
  -5   5   1    5.40    1.30
  -5   5   1    6.50    1.00
   4  -5  -1  361.46    8.80
   4  -5  -1  348.47    9.60
   4  -5  -1  351.16    8.80
   4  -5  -1  345.47    9.60
   4  -5  -1  360.96    9.00
  -4   5   1  363.86    8.80
  -4   5   1  355.76    9.50
  -4   5   1  356.86    8.90
  -4   5   1  363.06    9.50
  -4   5   1  342.27    8.80
   3  -5  -1  186.88    5.50
   3  -5  -1  184.58    5.60
   3  -5  -1  180.58    4.50
   3  -5  -1  175.08    4.50
   3  -5  -1  179.58    5.50
   3  -5  -1  179.68    5.40
   3  -5  -1  176.78    4.90
  -3   5   1  169.28    4.60
  -3   5   1  178.18    5.50
  -3   5   1  181.78    4.50
  -3   5   1  175.88    5.30
  -3   5   1  176.08    5.20
  -3   5   1  179.78    4.90
   2  -5  -1   53.99    2.90
   2  -5  -1   57.29    1.50
   2  -5  -1   56.29    1.50
   2  -5  -1   57.49    2.70
   2  -5  -1   57.49    2.50
   2  -5  -1   56.59    2.70
   2  -5  -1   56.49    2.10
  -2   5   1   58.79    1.70
  -2   5   1   57.59    1.60
  -2   5   1   56.69    2.30
  -2   5   1   51.99    2.50
   1  -5  -1   47.30    1.40
   1  -5  -1   46.10    2.50
   1  -5  -1   49.99    2.00
   1  -5  -1   50.49    2.40
   1  -5  -1   47.50    2.30
   1  -5  -1   48.40    2.20
   1  -5  -1   50.29    2.30
   1  -5  -1   49.40    1.40
  -1   5   1   50.59    2.40
  -1   5   1   50.29    1.50
  -1   5   1   49.00    1.40
  -1   5   1   49.80    2.10
   0  -5  -1  169.78    5.10
   0  -5  -1  168.08    4.40
   0  -5  -1  174.58    4.30
   0  -5  -1  176.78    5.00
   0  -5  -1  177.28    5.50
   0  -5  -1  171.28    5.30
   0  -5  -1  174.58    5.00
   0   5   1  174.88    5.30
   0   5   1  176.48    5.20
   0   5   1  173.78    4.40
  -1  -5  -1   47.10    1.50
  -1  -5  -1   48.30    1.90
  -1  -5  -1   48.90    1.70
  -1  -5  -1   48.60    2.20
  -1  -5  -1   52.59    2.80
  -1  -5  -1   51.09    2.10
   1   5   1   46.80    2.00
   1   5   1   49.70    2.30
   1   5   1   50.99    2.40
   1   5   1   47.60    1.80
  -2  -5  -1  141.09    4.00
  -2  -5  -1  141.79    4.50
  -2  -5  -1  135.49    4.10
  -2  -5  -1  130.89    4.40
  -2  -5  -1  140.89    4.80
   2   5   1  139.89    4.20
   2   5   1  139.39    4.60
   2   5   1  135.29    4.50
   2   5   1  131.79    4.10
  -3  -5  -1  411.76   10.70
  -3  -5  -1  414.36   10.50
  -3  -5  -1  399.26   10.20
  -3  -5  -1  411.66   11.10
   3   5   1  421.26   11.00
   3   5   1  417.56   10.60
   3   5   1  404.06   10.70
   3   5   1  410.06   10.90
  -4  -5  -1   77.89    3.80
  -4  -5  -1   84.69    3.70
  -4  -5  -1   80.39    4.00
  -4  -5  -1   81.69    2.80
   4   5   1   84.29    4.90
   4   5   1   78.29    3.50
   4   5   1   82.29    3.80
   4   5   1   84.79    3.60
  -5  -5  -1    2.00    1.00
  -5  -5  -1    1.40    1.10
  -5  -5  -1    4.00    1.70
  -5  -5  -1    2.20    1.70
   5   5   1    3.40    1.40
   5   5   1    1.70    1.50
   5   5   1    2.60    1.20
  -6  -5  -1   34.50    2.00
  -6  -5  -1   26.00    3.40
  -6  -5  -1   20.20    2.50
  -6  -5  -1   30.30    3.80
   6   5   1   32.70    3.30
   6   5   1   33.50    3.90
   6   5   1   27.20    3.00
   7  -6  -1    8.80    1.60
   7  -6  -1    9.80    1.40
   7  -6  -1   11.90    2.10
   7  -6  -1    6.50    2.30
   7  -6  -1    7.80    1.60
  -7   6   1   10.40    1.90
  -7   6   1   11.20    1.60
  -7   6   1    7.20    1.70
  -7   6   1   10.70    1.70
  -7   6   1   10.10    2.00
   6  -6  -1   41.10    3.40
   6  -6  -1   39.40    2.30
   6  -6  -1   40.40    2.20
   6  -6  -1   36.40    2.90
   6  -6  -1   38.80    2.90
   6  -6  -1   39.80    2.10
  -6   6   1   38.10    2.50
  -6   6   1   37.90    3.00
  -6   6   1   36.40    2.40
  -6   6   1   40.50    2.70
  -6   6   1   36.10    2.50
   5  -6  -1    2.80    0.80
   5  -6  -1    5.20    1.50
   5  -6  -1    3.60    1.20
   5  -6  -1    4.60    1.60
   5  -6  -1    5.10    0.90
   5  -6  -1    4.40    1.60
   5  -6  -1    3.30    0.80
  -5   6   1    1.90    0.90
  -5   6   1    4.60    1.00
  -5   6   1    5.20    1.50
   4  -6  -1   68.69    3.40
   4  -6  -1   64.29    3.30
   4  -6  -1   64.49    2.10
   4  -6  -1   70.99    2.50
   4  -6  -1   65.19    3.20
   4  -6  -1   64.49    2.10
  -4   6   1   61.59    3.00
  -4   6   1   67.39    2.20
  -4   6   1   65.09    2.30
  -4   6   1   66.79    3.10
   3  -6  -1   66.19    3.10
   3  -6  -1   59.79    3.00
   3  -6  -1   62.29    3.20
   3  -6  -1   62.69    3.20
   3  -6  -1   64.39    2.50
  -3   6   1   64.19    2.80
  -3   6   1   66.19    3.00
  -3   6   1   67.19    3.20
  -3   6   1   64.59    1.80
  -3   6   1   63.79    1.90
   2  -6  -1  511.95   14.00
   2  -6  -1  537.05   13.80
   2  -6  -1  544.25   13.30
   2  -6  -1  540.95   13.80
   2  -6  -1  519.05   13.80
  -2   6   1  544.75   13.60
  -2   6   1  549.74   14.00
   1  -6  -1   30.40    2.20
   1  -6  -1   28.00    2.20
   1  -6  -1   31.40    1.80
   1  -6  -1   26.60    1.90
   1  -6  -1   27.60    2.50
  -1   6   1   31.70    1.90
  -1   6   1   28.50    2.10
   0  -6  -1   26.50    1.90
   0  -6  -1   23.30    2.10
   0  -6  -1   23.70    1.70
   0  -6  -1   24.90    1.20
   0  -6  -1   23.30    1.00
   0  -6  -1   20.80    2.10
   0  -6  -1   21.90    2.40
   0   6   1   25.20    1.90
   0   6   1   22.20    2.00
   0   6   1   24.40    1.10
   0   6   1   22.40    1.20
  -1  -6  -1    0.60    0.40
  -1  -6  -1    1.80    0.90
  -1  -6  -1    0.40    0.40
  -1  -6  -1   -0.10    0.80
  -1  -6  -1    1.00    1.30
  -1  -6  -1    0.90    0.60
  -1  -6  -1    0.20    0.40
  -1  -6  -1    0.60    1.20
   1   6   1    0.80    0.70
   1   6   1    0.80    1.00
   1   6   1    0.30    0.80
   1   6   1    0.40    0.60
  -2  -6  -1   33.40    2.90
  -2  -6  -1   33.80    2.00
  -2  -6  -1   39.20    2.30
  -2  -6  -1   33.30    1.60
  -2  -6  -1   30.90    2.00
   2   6   1   35.10    2.30
   2   6   1   36.20    2.20
   2   6   1   38.90    2.60
   2   6   1   33.90    2.10
  -3  -6  -1    3.20    1.20
  -3  -6  -1    4.80    1.70
  -3  -6  -1    3.50    1.10
  -3  -6  -1    5.40    1.30
  -3  -6  -1    3.80    0.90
   3   6   1    2.80    1.40
   3   6   1    2.40    1.30
   3   6   1    2.50    1.20
   3   6   1    3.60    1.20
  -4  -6  -1    8.00    2.30
  -4  -6  -1    8.30    1.30
  -4  -6  -1    7.30    1.20
  -4  -6  -1   11.90    1.70
  -4  -6  -1    9.50    1.70
   4   6   1    6.20    1.70
   4   6   1    7.00    1.50
   4   6   1    7.60    2.00
   4   6   1    5.90    1.60
  -5  -6  -1   46.00    3.40
  -5  -6  -1   43.70    2.50
  -5  -6  -1   46.80    4.50
  -5  -6  -1   45.10    3.90
  -5  -6  -1   46.20    2.90
   5   6   1   49.00    3.70
   5   6   1   46.80    3.70
   5   6   1   46.30    3.30
   7  -7  -1    9.90    1.80
   7  -7  -1   10.80    1.50
   7  -7  -1   11.20    2.10
   7  -7  -1    9.90    2.20
   7  -7  -1   13.10    1.50
  -7   7   1    6.30    1.90
  -7   7   1    8.40    1.80
  -7   7   1   10.90    1.80
  -7   7   1    9.40    2.20
  -7   7   1    9.60    2.00
   6  -7  -1    8.20    1.10
   6  -7  -1    6.70    1.80
   6  -7  -1   10.20    1.20
   6  -7  -1    8.90    1.30
   6  -7  -1    6.00    1.80
  -6   7   1    9.80    1.50
  -6   7   1    7.90    1.90
  -6   7   1   10.50    1.70
  -6   7   1    9.30    1.60
  -6   7   1    6.80    1.40
   5  -7  -1   18.20    1.70
   5  -7  -1   22.90    3.00
   5  -7  -1   13.70    2.50
   5  -7  -1   15.90    1.30
   5  -7  -1   16.60    2.50
   5  -7  -1   16.90    2.00
   5  -7  -1   16.50    1.20
  -5   7   1   16.40    1.60
  -5   7   1   14.50    1.80
  -5   7   1   17.90    1.60
   4  -7  -1   23.00    2.80
   4  -7  -1   26.40    1.70
   4  -7  -1   28.30    3.10
   4  -7  -1   19.40    2.30
   4  -7  -1   27.40    2.40
  -4   7   1   22.80    1.20
  -4   7   1   23.20    2.50
  -4   7   1   22.30    2.20
   3  -7  -1    0.80    0.80
   3  -7  -1    1.90    1.40
   3  -7  -1    0.90    0.90
   3  -7  -1   -1.10    1.30
   3  -7  -1    0.50    1.50
   3  -7  -1   -1.00    1.30
  -3   7   1    0.40    1.50
   2  -7  -1    0.40    1.30
   2  -7  -1    2.70    1.50
   2  -7  -1    0.80    0.90
   2  -7  -1    0.50    0.80
   2  -7  -1    1.60    1.30
   2  -7  -1    2.00    1.40
  -2   7   1    1.80    1.20
  -2   7   1    3.20    1.10
   1  -7  -1    0.20    1.30
   1  -7  -1    4.10    0.90
   1  -7  -1    5.40    1.30
   1  -7  -1    3.60    0.90
   1  -7  -1    5.00    1.60
   1  -7  -1    1.90    1.50
  -1   7   1    3.30    1.30
   0  -7  -1    1.70    0.70
   0  -7  -1   -0.50    1.50
   0  -7  -1    2.00    1.10
   0  -7  -1    1.10    1.30
   0  -7  -1    0.10    1.50
   0  -7  -1    2.40    1.00
   0   7   1    0.40    1.30
   0   7   1    3.20    0.60
  -1  -7  -1  156.58    6.10
  -1  -7  -1  155.88    5.10
  -1  -7  -1  161.68    5.60
  -1  -7  -1  155.98    4.40
  -1  -7  -1  157.28    4.00
  -1  -7  -1  154.78    4.10
  -1  -7  -1  154.98    5.80
  -1  -7  -1  160.38    4.20
   1   7   1  130.29    7.70
   1   7   1  170.08    4.70
   1   7   1  167.68    5.50
  -2  -7  -1   97.49    3.10
  -2  -7  -1   93.09    3.40
  -2  -7  -1   93.89    5.00
  -2  -7  -1  103.49    4.10
  -2  -7  -1   91.59    3.70
   2   7   1   97.39    4.20
   2   7   1   93.49    3.70
   2   7   1   95.19    3.60
   2   7   1   91.29    4.40
  -3  -7  -1   15.70    2.00
  -3  -7  -1   18.40    2.20
  -3  -7  -1   17.10    1.70
  -3  -7  -1   17.30    2.70
  -3  -7  -1   14.70    1.70
   3   7   1   11.80    1.70
   3   7   1   17.80    2.40
   3   7   1   19.30    2.30
   3   7   1   12.30    1.80
  -4  -7  -1   13.50    1.70
  -4  -7  -1    8.10    2.80
  -4  -7  -1    7.50    1.40
  -4  -7  -1   13.80    2.00
  -4  -7  -1   11.50    2.00
   4   7   1    9.30    2.10
   4   7   1   11.30    2.30
   4   7   1    7.30    1.80
   6  -8  -1    0.80    0.70
   6  -8  -1    1.80    0.80
   6  -8  -1   -0.50    2.50
   6  -8  -1    1.90    1.30
   6  -8  -1    3.30    1.80
  -6   8   1    3.50    1.20
  -6   8   1    3.00    2.00
  -6   8   1    0.90    1.70
   5  -8  -1    1.00    1.40
   5  -8  -1   -0.30    2.20
   5  -8  -1    2.20    1.10
  -5   8   1    1.30    1.60
  -5   8   1    1.10    1.70
   4  -8  -1    0.30    1.00
   4  -8  -1   -0.10    1.30
   4  -8  -1   -1.00    2.10
  -4   8   1    1.30    1.30
   3  -8  -1  187.58    6.00
   3  -8  -1  175.88    6.70
   3  -8  -1  176.18    7.20
   3  -8  -1  191.78    5.70
  -3   8   1  175.18    6.10
   2  -8  -1   95.69    3.70
   2  -8  -1   83.49    4.60
   2  -8  -1   93.69    5.90
   2  -8  -1   96.09    3.70
  -2   8   1   91.39    4.00
  -2   8   1   87.19    4.30
   1  -8  -1   78.59    3.90
   1  -8  -1   74.69    4.50
   1  -8  -1   80.19    3.00
   1  -8  -1   65.79    3.80
  -1   8   1   71.49    4.00
   0  -8  -1    2.90    1.60
   0  -8  -1    3.50    2.10
   0  -8  -1    3.70    0.90
   0  -8  -1    3.70    0.90
   0  -8  -1    3.60    1.30
   0   8   1    6.20    1.60
   0   8   1    3.70    1.60
  -1  -8  -1   12.60    1.80
  -1  -8  -1    9.00    1.70
  -1  -8  -1   12.50    1.00
  -1  -8  -1   10.80    1.30
   1   8   1   13.60    1.50
   1   8   1   11.80    1.80
   1   8   1   11.40    1.20
   1   8   1    9.90    2.00
  -2  -8  -1   17.60    2.20
  -2  -8  -1   15.50    1.80
  -2  -8  -1   15.60    2.00
  -2  -8  -1   15.70    1.50
   2   8   1   14.30    1.90
   2   8   1   14.50    1.70
   2   8   1   14.70    2.00
   2   8   1   16.40    2.60
  -4   9   1    3.80    1.80
   3  -9  -1   -1.30    1.40
   3  -9  -1    1.60    1.40
  -3   9   1   -0.60    1.70
   2  -9  -1    0.30    1.20
   2  -9  -1    2.50    1.50
  -2   9   1    0.10    2.00
   1  -9  -1    0.70    1.10
   1  -9  -1   -1.80    1.30
  -1   9   1    2.70    2.00
   0  -9  -1    5.70    1.20
   0  -9  -1    6.70    1.80
   0  -9  -1    4.70    1.00
   0   9   1    3.90    2.10
   1   9  -2   52.09    3.60
   1   9  -2   47.90    4.00
  -1  -9   2   59.29    3.40
   0   9  -2   20.60    2.30
   0  -9   2   30.20    1.70
   0  -9   2   28.40    2.50
   1  -9   2   32.50    2.10
   1  -9   2   27.10    2.40
   2  -9   2    4.50    1.20
   2  -9   2    5.10    1.30
   3  -9   2   56.49    2.70
   4  -9   2    1.80    1.40
   4  -9   2    1.00    1.00
   3   8  -2   27.30    3.40
   3   8  -2   29.10    3.00
   3   8  -2   27.10    3.00
   3   8  -2   26.50    2.50
  -3  -8   2   34.90    2.20
  -3  -8   2   33.20    3.10
   2   8  -2   22.60    2.50
   2   8  -2   21.90    2.20
   2   8  -2   21.00    1.80
   2   8  -2   21.20    2.40
  -2  -8   2   23.10    1.30
  -2  -8   2   24.40    2.80
  -2  -8   2   20.30    2.40
  -2  -8   2   21.40    1.70
   1   8  -2   47.70    3.00
   1   8  -2   51.29    3.40
  -1  -8   2   47.10    4.10
  -1  -8   2   41.40    3.90
  -1  -8   2   45.10    2.80
  -1  -8   2   46.50    1.60
  -1  -8   2   42.10    3.10
   0   8  -2   -0.10    1.00
   0  -8   2    0.80    1.90
   0  -8   2    0.10    1.40
   0  -8   2    2.40    1.80
   0  -8   2    1.20    1.60
   0  -8   2    0.20    0.60
   0  -8   2   -0.30    1.00
   1  -8   2   87.09    4.40
   1  -8   2   99.69    3.50
   1  -8   2   90.39    4.20
   1  -8   2   95.19    3.30
   1  -8   2   92.19    4.80
   1  -8   2   91.19    4.20
   1  -8   2   88.49    4.30
   2  -8   2   44.10    3.30
   2  -8   2   40.20    3.40
   2  -8   2   37.90    3.60
   2  -8   2   40.20    2.30
   2  -8   2   42.70    3.20
   2  -8   2   45.80    2.20
   2  -8   2   38.40    3.50
  -3   8  -2    2.60    1.40
   3  -8   2   -0.70    1.70
   3  -8   2    0.80    1.70
   3  -8   2    1.90    0.80
   3  -8   2    4.00    1.90
   3  -8   2    1.90    1.00
   3  -8   2   -1.90    1.60
   3  -8   2   -1.90    1.70
  -4   8  -2   15.00    1.80
  -4   8  -2   18.00    2.20
   4  -8   2   18.70    1.60
   4  -8   2   16.20    2.40
   4  -8   2   18.50    2.30
   4  -8   2   16.80    2.90
  -5   8  -2   32.90    2.90
  -5   8  -2   23.80    3.10
   5  -8   2   37.80    3.00
   5  -8   2   34.90    1.80
   5  -8   2   33.40    3.80
  -6   8  -2    3.20    2.10
  -6   8  -2    4.30    1.80
  -6   8  -2    1.00    1.40
   6  -8   2    3.20    0.80
   6  -8   2    7.00    2.00
   6  -8   2    2.30    0.90
   5   7  -2    1.70    2.00
   5   7  -2    1.90    1.70
   5   7  -2    4.20    2.00
  -5  -7   2    3.50    1.80
  -5  -7   2    1.00    1.30
  -5  -7   2    5.50    1.70
   4   7  -2   -0.90    1.20
   4   7  -2   -0.20    1.80
   4   7  -2    2.60    1.70
   4   7  -2    1.80    1.50
  -4  -7   2    1.70    1.30
  -4  -7   2    0.50    1.00
  -4  -7   2    3.00    1.50
  -4  -7   2    2.40    2.00
   3   7  -2   59.29    2.80
   3   7  -2   57.69    3.30
   3   7  -2   54.59    3.10
   3   7  -2   52.79    3.10
  -3  -7   2   52.99    2.20
  -3  -7   2   51.29    3.00
  -3  -7   2   52.59    3.90
  -3  -7   2   56.39    2.60
   2   7  -2   50.09    2.20
   2   7  -2   50.59    3.00
   2   7  -2   52.19    2.40
   2   7  -2   50.49    2.90
  -2  -7   2   54.09    3.50
  -2  -7   2   49.50    3.60
  -2  -7   2   51.79    1.90
  -2  -7   2   47.40    2.00
  -2  -7   2   53.09    2.80
   1   7  -2   58.89    2.00
   1   7  -2   57.59    1.80
   1   7  -2   56.39    3.00
   1   7  -2   58.59    3.10
  -1  -7   2   56.09    1.60
  -1  -7   2   56.59    3.30
  -1  -7   2   54.99    1.70
  -1  -7   2   53.09    3.50
  -1  -7   2   55.99    1.60
  -1  -7   2   54.69    2.80
  -1  -7   2   56.09    2.60
   0   7  -2    3.30    1.10
   0   7  -2    1.40    1.20
   0  -7   2    3.90    1.50
   0  -7   2    4.60    1.30
   0  -7   2    1.20    1.30
   0  -7   2    2.60    0.90
   0  -7   2    4.10    1.20
   0  -7   2    2.20    0.60
   0  -7   2    2.00    1.30
   1  -7   2   44.20    2.70
   1  -7   2   43.10    3.10
   1  -7   2   45.10    2.10
   1  -7   2   48.70    2.10
   1  -7   2   49.20    2.70
   1  -7   2   45.70    2.90
   1  -7   2   45.40    2.90
   2  -7   2   68.49    3.50
   2  -7   2   71.19    2.90
   2  -7   2   73.09    3.40
   2  -7   2   73.59    3.40
   2  -7   2   73.29    3.70
   2  -7   2   72.99    2.60
   2  -7   2   74.09    3.60
  -3   7  -2    6.20    1.30
  -3   7  -2    6.20    1.30
   3  -7   2    4.60    0.80
   3  -7   2    4.90    1.40
   3  -7   2    5.20    1.10
   3  -7   2    5.10    1.40
   3  -7   2    5.70    1.60
   3  -7   2    7.40    1.70
  -4   7  -2    0.50    0.50
  -4   7  -2    0.30    0.50
  -4   7  -2   -0.30    1.00
   4  -7   2    1.40    1.10
   4  -7   2   -0.60    1.30
   4  -7   2    2.70    1.40
   4  -7   2   -0.30    1.40
   4  -7   2    0.50    0.60
  -5   7  -2   -0.10    1.00
  -5   7  -2    0.70    1.30
  -5   7  -2    0.00    0.80
  -5   7  -2    1.00    1.20
   5  -7   2   -3.30    1.50
   5  -7   2   -1.30    1.40
   5  -7   2   -0.20    0.70
   5  -7   2    0.10    1.70
   5  -7   2    2.30    1.40
   5  -7   2   -0.30    0.50
   5  -7   2    0.10    0.60
  -6   7  -2    2.00    1.50
  -6   7  -2    2.50    1.50
  -6   7  -2    2.20    1.40
  -6   7  -2    3.20    1.30
   6  -7   2    1.10    0.90
   6  -7   2    0.10    1.50
   6  -7   2    2.80    1.10
  -7   7  -2    1.20    1.60
  -7   7  -2    0.30    1.50
  -7   7  -2    3.60    2.00
   7  -7   2    0.10    1.60
   7  -7   2    0.40    1.70
   7  -7   2    5.00    1.20
   6   6  -2   34.50    3.90
   6   6  -2   34.70    3.20
   6   6  -2   32.80    3.10
  -6  -6   2   38.20    3.00
  -6  -6   2   27.50    2.80
  -6  -6   2   32.60    3.80
   5   6  -2   44.60    2.90
   5   6  -2   47.90    3.10
   5   6  -2   49.10    3.40
  -5  -6   2   44.70    3.30
  -5  -6   2   42.50    2.70
  -5  -6   2   41.80    2.70
   4   6  -2   54.59    3.00
   4   6  -2   49.99    2.90
   4   6  -2   56.59    3.30
   4   6  -2   56.59    2.90
  -4  -6   2   57.29    2.60
  -4  -6   2   54.39    3.40
  -4  -6   2   57.59    2.70
  -4  -6   2   56.29    2.90
   3   6  -2   10.80    1.30
   3   6  -2   11.30    1.50
   3   6  -2   11.60    1.50
   3   6  -2   11.30    1.50
  -3  -6   2   13.10    1.30
  -3  -6   2    9.30    1.80
  -3  -6   2    8.40    1.30
  -3  -6   2   13.10    1.50
   2   6  -2   22.40    1.90
   2   6  -2   23.20    1.50
   2   6  -2   23.30    2.00
   2   6  -2   25.60    1.70
  -2  -6   2   26.70    2.40
  -2  -6   2   24.60    2.40
  -2  -6   2   24.40    1.50
  -2  -6   2   22.00    1.80
   1   6  -2   12.80    1.60
   1   6  -2   12.70    0.90
   1   6  -2   16.40    1.40
   1   6  -2   13.30    1.10
  -1  -6   2   13.50    1.60
  -1  -6   2   14.60    1.50
  -1  -6   2   14.20    1.90
  -1  -6   2   13.00    0.90
  -1  -6   2   12.70    0.70
  -1  -6   2    8.80    1.50
  -1  -6   2   12.30    0.70
   0   6  -2   14.60    1.40
   0   6  -2   17.30    1.70
   0  -6   2   16.70    1.90
   0  -6   2   13.30    1.60
   0  -6   2   16.10    1.00
   0  -6   2   14.40    1.80
   0  -6   2   13.60    1.70
   0  -6   2   15.60    1.70
   0  -6   2   14.50    1.30
  -1   6  -2   11.30    1.30
   1  -6   2   10.60    1.30
   1  -6   2    8.70    1.00
   1  -6   2    8.00    1.00
   1  -6   2   10.10    1.50
   1  -6   2    8.80    1.30
   1  -6   2    8.20    1.30
   1  -6   2    9.60    1.20
  -2   6  -2    1.20    0.70
  -2   6  -2    2.80    0.90
   2  -6   2    3.10    1.10
   2  -6   2    3.40    1.10
   2  -6   2    3.70    0.60
   2  -6   2    3.10    1.00
   2  -6   2    2.40    0.90
   2  -6   2    2.50    1.20
   2  -6   2    4.20    0.80
  -3   6  -2   12.80    0.70
  -3   6  -2   11.90    1.60
  -3   6  -2   13.50    1.50
  -3   6  -2   11.40    0.70
   3  -6   2   15.90    1.70
   3  -6   2   10.50    1.50
   3  -6   2   15.50    1.80
   3  -6   2   14.30    1.80
   3  -6   2   14.40    1.60
   3  -6   2   13.70    0.90
  -4   6  -2  323.97    8.80
  -4   6  -2  330.77    9.20
  -4   6  -2  329.77    8.10
   4  -6   2  316.97    9.00
   4  -6   2  323.67    9.00
   4  -6   2  321.67    9.30
   4  -6   2  339.27    9.10
   4  -6   2  322.57    7.90
   4  -6   2  313.77    7.90
   4  -6   2  310.17    8.00
  -5   6  -2  188.98    6.10
  -5   6  -2  174.68    5.10
  -5   6  -2  184.28    5.70
  -5   6  -2  178.08    5.20
   5  -6   2  180.58    6.00
   5  -6   2  180.38    6.10
   5  -6   2  172.38    4.60
   5  -6   2  179.08    5.10
   5  -6   2  175.78    6.20
   5  -6   2  184.88    5.00
   5  -6   2  176.48    5.70
  -6   6  -2    1.00    1.50
  -6   6  -2    2.90    1.20
  -6   6  -2    0.90    1.40
  -6   6  -2    3.40    1.20
   6  -6   2    2.10    1.40
   6  -6   2    2.80    1.20
   6  -6   2    1.80    0.90
   6  -6   2    4.20    1.80
  -7   6  -2   39.10    2.90
  -7   6  -2   40.90    4.30
  -7   6  -2   39.40    3.40
  -7   6  -2   37.20    2.80
   7  -6   2   28.90    3.10
   7  -6   2   42.20    3.00
   7  -6   2   32.20    2.40
   6   5  -2   56.39    3.00
   6   5  -2   56.49    3.70
  -6  -5   2   51.59    3.20
  -6  -5   2   62.19    4.00
   5   5  -2    3.50    1.50
   5   5  -2    5.60    1.70
   5   5  -2    4.40    1.10
  -5  -5   2    0.90    1.00
  -5  -5   2    1.90    1.40
   4   5  -2   25.90    1.90
   4   5  -2   24.60    2.10
   4   5  -2   24.50    2.20
   4   5  -2   19.80    1.80
  -4  -5   2   20.90    2.30
  -4  -5   2   23.30    1.70
  -4  -5   2   25.00    2.10
   3   5  -2    8.00    1.20
   3   5  -2   10.70    1.40
   3   5  -2   10.20    1.20
   3   5  -2    6.80    1.10
  -3  -5   2    7.90    1.10
  -3  -5   2    9.20    1.50
  -3  -5   2    7.30    1.00
   2   5  -2   63.19    2.60
   2   5  -2   61.19    2.30
   2   5  -2   62.59    2.50
   2   5  -2   59.89    2.70
  -2  -5   2   57.49    2.80
  -2  -5   2   60.49    2.10
  -2  -5   2   58.19    2.20
  -2  -5   2   57.99    2.60
   1   5  -2   65.09    2.70
   1   5  -2   63.29    2.50
   1   5  -2   59.49    2.40
   1   5  -2   63.09    2.00
  -1  -5   2   56.79    1.90
  -1  -5   2   60.69    1.90
  -1  -5   2   63.29    1.90
  -1  -5   2   61.39    2.70
  -1  -5   2   65.49    2.90
  -1  -5   2   66.29    2.50
   0   5  -2  859.11   20.60
   0   5  -2  853.81   20.80
   0   5  -2  848.32   20.50
   0  -5   2  842.32   20.80
   0  -5   2  857.51   20.70
   0  -5   2  852.21   20.50
   0  -5   2  855.21   20.50
   0  -5   2  839.72   19.90
  -1   5  -2    2.00    0.70
  -1   5  -2    0.90    0.60
  -1   5  -2    0.60    0.80
   1  -5   2    2.30    0.50
   1  -5   2    1.90    0.80
   1  -5   2    0.80    0.70
   1  -5   2    2.30    1.00
   1  -5   2    1.20    0.80
   1  -5   2    1.30    0.40
  -2   5  -2  572.94   14.30
  -2   5  -2  565.34   14.00
  -2   5  -2  577.74   14.30
   2  -5   2  555.54   14.10
   2  -5   2  584.74   14.00
   2  -5   2  564.44   13.50
   2  -5   2  549.54   14.30
   2  -5   2  566.94   14.10
   2  -5   2  592.14   14.40
  -3   5  -2   19.90    1.10
  -3   5  -2   20.70    1.50
  -3   5  -2   17.70    1.60
   3  -5   2   19.30    1.70
   3  -5   2   18.90    2.10
   3  -5   2   20.00    1.60
   3  -5   2   21.30    1.90
   3  -5   2   19.70    0.90
   3  -5   2   22.00    1.70
   3  -5   2   20.50    0.90
   3  -5   2   20.20    1.00
  -4   5  -2   62.89    2.90
  -4   5  -2   63.19    2.60
  -4   5  -2   61.19    2.30
   4  -5   2   62.19    2.80
   4  -5   2   60.29    1.80
   4  -5   2   58.99    2.20
   4  -5   2   63.29    2.80
   4  -5   2   60.19    3.10
   4  -5   2   62.69    2.10
  -5   5  -2    9.80    0.80
  -5   5  -2    8.40    1.20
  -5   5  -2    7.50    1.40
  -5   5  -2    6.00    1.10
  -5   5  -2    8.10    1.20
   5  -5   2    9.50    1.70
   5  -5   2    7.30    0.90
   5  -5   2    7.40    1.30
   5  -5   2    8.50    1.20
  -6   5  -2   12.20    1.40
  -6   5  -2   12.60    1.70
  -6   5  -2   11.80    1.00
  -6   5  -2   14.80    2.40
  -6   5  -2   15.70    1.90
   6  -5   2   14.50    1.60
   6  -5   2    8.40    1.70
   6  -5   2   17.60    2.20
   6  -5   2   15.90    2.00
  -7   5  -2    4.80    1.80
  -7   5  -2    3.60    1.90
  -7   5  -2    1.50    1.50
  -7   5  -2    3.90    0.80
  -7   5  -2    3.30    1.50
   7  -5   2    2.90    1.10
   7  -5   2    4.10    2.10
   7  -5   2    3.30    1.60
   7  -5   2    6.40    1.70
  -8   5  -2   -3.40    1.80
  -8   5  -2    1.30    1.60
  -8   5  -2    1.40    1.10
   8  -5   2    1.40    1.40
   8  -5   2    0.30    1.80
   8  -5   2    4.00    2.00
   7   4  -2   46.10    2.60
   7   4  -2   50.29    3.90
  -7  -4   2   47.70    4.10
  -7  -4   2   42.20    3.20
   6   4  -2   89.79    4.20
   6   4  -2   86.79    4.50
   6   4  -2   97.89    3.30
  -6  -4   2   88.29    3.90
  -6  -4   2   94.59    4.40
   5   4  -2   89.09    3.10
   5   4  -2   92.49    3.80
   5   4  -2   83.99    3.80
  -5  -4   2   86.89    3.50
   4   4  -2    5.30    1.20
   4   4  -2    6.60    1.20
   4   4  -2    6.10    0.90
  -4  -4   2    7.00    1.20
  -4  -4   2    7.20    1.00
   3   4  -2  104.59    3.30
   3   4  -2  106.09    3.60
   3   4  -2  106.69    3.60
   3   4  -2  110.19    3.50
  -3  -4   2  108.39    3.50
  -3  -4   2  105.39    3.60
  -3  -4   2  104.69    3.40
   2   4  -2  302.57    8.10
   2   4  -2  311.77    7.70
   2   4  -2  307.57    7.80
   2   4  -2  289.57    7.70
   2   4  -2  309.07    8.00
  -2  -4   2  299.37    7.60
  -2  -4   2  300.07    8.10
  -2  -4   2  307.17    7.60
   1   4  -2   55.69    2.10
   1   4  -2   56.79    1.80
   1   4  -2   55.39    1.80
   1   4  -2   58.19    2.30
   1   4  -2   55.59    2.10
  -1  -4   2   57.69    2.10
  -1  -4   2   51.69    1.70
  -1  -4   2   57.39    2.40
  -1  -4   2   57.49    2.10
  -1  -4   2   56.89    1.70
  -1  -4   2   56.69    2.30
  -1  -4   2   56.89    1.60
   0   4  -2   17.40    0.60
   0   4  -2   17.30    0.60
   0   4  -2   17.50    1.30
   0   4  -2   18.20    1.10
   0   4  -2   17.40    1.20
   0  -4   2   16.00    1.20
   0  -4   2   15.30    1.30
   0  -4   2   16.30    1.30
   0  -4   2   16.90    0.80
   0  -4   2   14.90    1.10
   0  -4   2   16.60    1.10
  -1   4  -2  671.83   16.40
  -1   4  -2  682.43   16.50
   1  -4   2  669.03   16.50
   1  -4   2  660.73   16.30
   1  -4   2  678.63   16.40
   1  -4   2  710.13   16.50
   1  -4   2  683.03   16.10
   1  -4   2  682.63   16.30
   1  -4   2  663.53   15.90
  -2   4  -2   41.20    1.90
  -2   4  -2   39.70    1.90
  -2   4  -2   38.20    1.30
  -2   4  -2   41.80    1.30
  -2   4  -2   39.30    1.70
   2  -4   2   41.90    1.90
   2  -4   2   42.20    1.30
   2  -4   2   42.10    2.00
   2  -4   2   41.90    1.80
   2  -4   2   42.70    1.30
   2  -4   2   43.50    1.20
   2  -4   2   37.30    1.80
   2  -4   2   41.70    1.80
  -3   4  -2    4.20    0.80
  -3   4  -2    4.90    0.80
  -3   4  -2    4.20    0.60
  -3   4  -2    5.50    0.90
   3  -4   2    5.20    0.60
   3  -4   2    4.80    0.80
   3  -4   2    5.90    1.00
   3  -4   2    4.80    0.50
   3  -4   2    4.70    0.60
   3  -4   2    4.80    1.50
   3  -4   2    5.90    0.90
  -4   4  -2    4.00    0.80
  -4   4  -2    4.80    0.50
  -4   4  -2    4.00    0.80
  -4   4  -2    5.00    0.80
  -4   4  -2    2.80    0.80
   4  -4   2    5.00    0.90
   4  -4   2    4.00    0.80
   4  -4   2    4.40    0.70
   4  -4   2    2.90    0.90
  -5   4  -2   34.50    1.90
  -5   4  -2   34.60    2.20
  -5   4  -2   36.60    2.00
  -5   4  -2   34.60    1.20
   5  -4   2   33.50    1.90
   5  -4   2   33.40    2.00
   5  -4   2   33.70    2.20
  -6   4  -2   29.60    2.30
  -6   4  -2   34.30    2.00
  -6   4  -2   29.90    1.40
  -6   4  -2   26.40    2.50
   6  -4   2   28.70    2.40
   6  -4   2   29.10    2.00
   6  -4   2   32.30    2.30
  -7   4  -2    8.40    1.00
  -7   4  -2   12.20    1.80
  -7   4  -2   10.80    1.40
  -7   4  -2    8.30    1.90
   7  -4   2   10.80    1.50
   7  -4   2    7.80    1.60
   7  -4   2    8.20    1.80
  -8   4  -2   -0.70    1.90
  -8   4  -2    1.50    1.20
   8  -4   2    4.60    2.40
   8  -4   2   -0.50    1.60
   8  -4   2   -2.40    1.20
   8  -4   2    4.10    2.10
   8   3  -2   21.10    2.20
   8   3  -2   23.50    2.80
   8   3  -2   23.40    2.20
  -8  -3   2   14.70    2.30
  -8  -3   2   19.30    3.50
   7   3  -2   54.09    3.70
   7   3  -2   53.39    2.30
   7   3  -2   59.49    2.40
  -7  -3   2   53.59    3.20
  -7  -3   2   47.10    3.90
   6   3  -2    1.90    0.80
   6   3  -2   -0.20    1.50
   6   3  -2    2.10    1.40
   6   3  -2    1.70    0.80
  -6  -3   2    1.60    1.40
   5   3  -2   26.70    2.20
   5   3  -2   23.80    1.40
   5   3  -2   24.50    2.10
   5   3  -2   25.40    1.20
  -5  -3   2   19.10    2.40
  -5  -3   2   25.30    1.90
   4   3  -2    4.70    0.60
   4   3  -2    5.10    1.10
   4   3  -2    6.20    0.90
   4   3  -2    5.30    0.70
   4   3  -2    5.20    1.00
  -4  -3   2    6.30    1.00
  -4  -3   2    6.10    1.10
   3   3  -2  184.68    4.50
   3   3  -2  186.58    4.50
   3   3  -2  193.38    5.30
   3   3  -2  190.78    5.30
   3   3  -2  190.18    5.40
   3   3  -2  192.78    5.00
  -3  -3   2  193.58    5.30
  -3  -3   2  186.28    5.20
  -3  -3   2  199.88    5.30
   2   3  -2   81.89    2.60
   2   3  -2   80.09    2.60
   2   3  -2   82.09    2.50
   2   3  -2   86.59    2.80
  -2  -3   2   86.99    2.80
  -2  -3   2   82.39    2.60
  -2  -3   2   82.89    2.60
   1   3  -2   45.00    1.70
   1   3  -2   45.00    1.50
   1   3  -2   45.10    1.50
   1   3  -2   45.00    1.80
   1   3  -2   45.80    1.30
   1   3  -2   45.40    1.60
  -1  -3   2   46.00    1.30
  -1  -3   2   48.40    1.50
  -1  -3   2   47.60    1.50
  -1  -3   2   47.10    1.70
  -1  -3   2   46.90    1.90
   0   3  -2    1.20    0.30
   0   3  -2    1.00    0.40
   0   3  -2    0.50    0.20
   0   3  -2    0.70    0.50
   0   3  -2    1.00    0.20
   0   3  -2    0.60    0.40
   0  -3   2    1.00    0.40
   0  -3   2    1.00    0.50
   0  -3   2    1.20    0.20
   0  -3   2    0.90    0.30
   0  -3   2    0.90    0.40
   0  -3   2    1.40    0.20
   0  -3   2    1.20    0.40
   0  -3   2    0.30    0.40
  -1   3  -2  197.68    4.70
  -1   3  -2  205.88    5.20
  -1   3  -2  202.08    5.30
  -1   3  -2  204.88    5.30
  -1   3  -2  198.38    5.20
   1  -3   2  207.88    5.10
   1  -3   2  198.48    5.30
   1  -3   2  197.68    5.20
   1  -3   2  195.68    5.30
   1  -3   2  189.48    4.90
   1  -3   2  198.68    4.70
   1  -3   2  201.58    4.70
   1  -3   2  190.68    5.10
   1  -3   2  205.38    5.30
  -2   3  -2   36.90    1.60
  -2   3  -2   32.10    1.20
  -2   3  -2   32.90    1.20
  -2   3  -2   33.30    1.40
  -2   3  -2   33.80    1.50
   2  -3   2   33.00    1.40
   2  -3   2   32.80    0.90
   2  -3   2   31.00    1.40
   2  -3   2   33.80    1.20
   2  -3   2   35.40    1.50
   2  -3   2   31.80    1.20
  -3   3  -2   20.00    1.10
  -3   3  -2   20.30    0.70
  -3   3  -2   19.80    1.10
  -3   3  -2   20.10    1.20
   3  -3   2   21.10    1.10
   3  -3   2   21.70    1.30
   3  -3   2   17.50    1.00
   3  -3   2   17.30    1.20
  -4   3  -2   20.00    1.30
  -4   3  -2   15.90    1.50
  -4   3  -2   19.90    0.80
  -4   3  -2   18.60    1.10
  -4   3  -2   20.40    1.20
   4  -3   2   19.10    1.40
   4  -3   2   18.50    1.20
   4  -3   2   19.10    1.50
  -5   3  -2    1.80    0.90
  -5   3  -2    2.50    0.90
  -5   3  -2    2.70    0.70
  -5   3  -2    1.90    0.50
   5  -3   2    1.20    0.80
   5  -3   2    1.70    0.90
   5  -3   2    2.60    0.80
  -6   3  -2   13.40    1.30
  -6   3  -2   13.70    1.80
  -6   3  -2   11.70    1.20
  -6   3  -2   13.70    1.60
   6  -3   2   14.50    1.50
   6  -3   2   13.50    1.70
   6  -3   2   12.90    1.60
  -7   3  -2   25.80    1.80
  -7   3  -2   27.30    2.50
  -7   3  -2   24.20    1.80
  -7   3  -2   24.30    2.60
   7  -3   2   22.50    2.10
   7  -3   2   23.00    2.40
   7  -3   2   29.90    2.50
  -8   3  -2   18.80    2.60
  -8   3  -2   18.50    2.00
   8  -3   2   11.80    1.90
   8  -3   2   14.40    2.00
   8   2  -2    2.90    1.90
   8   2  -2    3.40    1.40
  -8  -2   2    0.30    2.50
  -8  -2   2    2.00    1.70
   7   2  -2    8.70    1.30
   7   2  -2    6.50    1.80
   7   2  -2    7.20    2.10
  -7  -2   2    8.50    1.80
  -7  -2   2   11.50    2.20
   6   2  -2  234.38    6.30
   6   2  -2  229.08    7.20
   6   2  -2  229.58    7.10
  -6  -2   2  242.08    7.20
  -6  -2   2  229.38    7.00
   5   2  -2    3.10    1.00
   5   2  -2    4.30    1.20
   5   2  -2    3.90    0.70
  -5  -2   2    2.20    1.10
  -5  -2   2    2.90    0.90
   4   2  -2    0.80    0.70
   4   2  -2    1.00    0.40
   4   2  -2   -0.70    0.60
  -4  -2   2   -0.60    0.50
  -4  -2   2    0.50    0.80
   3   2  -2   92.29    2.90
   3   2  -2   88.29    2.60
   3   2  -2   87.49    2.70
   3   2  -2   83.99    2.90
  -3  -2   2   85.89    2.80
  -3  -2   2   89.29    2.90
   2   2  -2    1.30    0.40
   2   2  -2    2.20    0.40
   2   2  -2    1.90    0.20
   2   2  -2    2.40    0.40
   2   2  -2    2.00    0.40
  -2  -2   2    1.40    0.40
  -2  -2   2    1.50    0.40
   1   2  -2   43.90    1.20
   1   2  -2   40.20    1.40
   1   2  -2   45.10    1.40
  -1  -2   2   44.00    1.40
  -1  -2   2   42.40    1.40
  -1  -2   2   43.40    1.40
  -1  -2   2   42.20    1.20
   0   2  -2 1476.65   34.60
   0   2  -2 1544.45   34.60
   0   2  -2 1507.85   35.20
   0   2  -2 1537.65   35.20
   0   2  -2 1346.47   34.10
   0  -2   2 1479.15   34.60
   0  -2   2 1452.05   34.60
   0  -2   2 1488.25   35.50
   0  -2   2 1525.95   35.30
   0  -2   2 1482.85   35.40
  -1   2  -2 3559.64   82.59
  -1   2  -2 3531.75   82.79
  -1   2  -2 3534.65   82.59
  -1   2  -2 3689.53   83.79
  -1   2  -2 3424.46   83.19
  -1   2  -2 3601.04   83.39
   1  -2   2 3633.74   83.69
   1  -2   2 3589.14   82.89
   1  -2   2 3467.65   82.59
   1  -2   2 3678.53   83.29
  -2   2  -2  718.73   16.70
  -2   2  -2  688.63   16.50
  -2   2  -2  712.13   16.50
  -2   2  -2  705.03   16.50
   2  -2   2  705.53   16.50
   2  -2   2  692.03   16.50
   2  -2   2  700.13   16.50
   2  -2   2  707.33   16.70
  -3   2  -2   12.80    1.00
  -3   2  -2   13.40    1.00
  -3   2  -2   13.20    0.80
  -3   2  -2   13.90    0.60
  -3   2  -2   13.80    0.80
   3  -2   2   14.20    0.90
   3  -2   2   12.20    1.00
   3  -2   2   13.80    1.10
  -4   2  -2  182.08    5.10
  -4   2  -2  181.68    4.80
  -4   2  -2  184.38    4.60
   4  -2   2  177.58    5.10
   4  -2   2  186.18    5.20
   4  -2   2  179.58    5.20
  -5   2  -2  320.57    8.00
  -5   2  -2  325.17    8.20
  -5   2  -2  333.37    8.70
  -5   2  -2  310.97    8.70
   5  -2   2  318.87    8.60
   5  -2   2  330.07    8.70
   5  -2   2  326.97    8.80
  -6   2  -2   45.90    2.60
  -6   2  -2   43.00    2.00
  -6   2  -2   40.30    2.60
  -6   2  -2   43.50    1.90
   6  -2   2   41.20    2.50
   6  -2   2   39.90    2.70
   6  -2   2   43.20    2.40
  -7   2  -2    1.80    1.70
  -7   2  -2    3.80    1.80
  -7   2  -2    3.10    1.60
  -7   2  -2    3.60    0.90
   7  -2   2    4.70    1.40
   7  -2   2    4.60    1.70
   7  -2   2    4.60    1.30
  -8   2  -2    2.50    1.60
  -8   2  -2    1.00    1.00
  -8   2  -2    1.90    1.90
   8  -2   2    2.40    1.50
   8  -2   2   -1.30    2.10
   8  -2   2    2.40    1.50
   8   1  -2    0.30    1.50
   8   1  -2    0.80    1.60
  -8  -1   2    4.80    1.80
  -8  -1   2    4.70    2.30
  -8  -1   2    0.90    2.00
   7   1  -2    5.10    1.80
   7   1  -2    4.90    1.60
   7   1  -2    7.40    1.30
  -7  -1   2    4.10    1.60
  -7  -1   2    4.70    1.50
  -7  -1   2    5.70    1.60
   6   1  -2    5.70    1.20
   6   1  -2    7.30    1.20
   6   1  -2   10.20    1.60
  -6  -1   2    8.20    1.40
  -6  -1   2    7.10    1.40
  -6  -1   2    8.20    1.30
   5   1  -2   49.80    2.20
   5   1  -2   63.79    2.70
   5   1  -2   60.99    2.80
  -5  -1   2   57.89    2.50
  -5  -1   2   59.49    2.70
   4   1  -2  311.47    8.10
   4   1  -2  293.77    7.40
   4   1  -2  306.67    8.10
  -4  -1   2  312.57    8.10
  -4  -1   2  306.17    8.10
   3   1  -2   97.69    3.10
   3   1  -2   99.79    3.10
   3   1  -2   98.09    2.70
  -3  -1   2   98.69    3.10
   2   1  -2 1483.75   35.70
   2   1  -2 1564.64   35.50
   2   1  -2 1555.24   35.80
  -2  -1   2 1521.75   35.80
  -2  -1   2 1613.04   36.40
   1   1  -2    2.10    0.30
   1   1  -2    1.60    0.30
   1   1  -2    1.80    0.30
  -1  -1   2    2.20    0.30
  -1  -1   2    1.90    0.30
  -1  -1   2    1.50    0.30
   0   1  -2 1266.67   30.60
   0   1  -2 1299.37   30.80
   0   1  -2 1311.37   30.60
   0   1  -2 1322.17   30.70
   0   1  -2 1333.37   31.30
   0   1  -2 1310.07   30.70
   0  -1   2 1299.97   30.70
   0  -1   2 1320.47   31.00
   0  -1   2 1342.37   31.20
   0  -1   2 1332.17   31.10
   0  -1   2 1303.17   30.70
   0  -1   2 1329.17   31.30
  -1   1  -2    2.40    0.20
  -1   1  -2    1.60    0.30
  -1   1  -2    2.20    0.30
   1  -1   2    2.60    0.40
   1  -1   2    2.20    0.30
   1  -1   2    2.10    0.30
   1  -1   2    2.00    0.30
  -2   1  -2    9.30    0.80
  -2   1  -2   10.20    0.80
  -2   1  -2    9.50    0.80
   2  -1   2    9.60    0.70
   2  -1   2   10.30    0.60
   2  -1   2    9.40    0.70
  -3   1  -2  381.16    9.30
  -3   1  -2  371.16    9.20
  -3   1  -2  352.06    8.80
  -3   1  -2  380.16    9.20
   3  -1   2  361.56    9.10
   3  -1   2  359.06    9.20
  -4   1  -2  210.68    6.10
  -4   1  -2  212.88    5.90
  -4   1  -2  214.48    5.40
   4  -1   2  211.38    5.80
   4  -1   2  205.78    5.90
   4  -1   2  223.68    6.00
  -5   1  -2   72.29    2.30
  -5   1  -2   68.99    3.00
  -5   1  -2   74.69    3.00
   5  -1   2   59.09    3.30
   5  -1   2   73.89    2.80
   5  -1   2   69.69    2.80
  -6   1  -2   22.40    2.30
  -6   1  -2   22.70    2.10
  -6   1  -2   21.90    1.40
  -6   1  -2   22.60    1.80
   6  -1   2   24.30    2.00
   6  -1   2   23.70    2.40
   6  -1   2   26.50    2.00
  -7   1  -2   37.90    1.90
  -7   1  -2   36.70    2.50
  -7   1  -2   38.20    2.90
  -7   1  -2   38.80    3.40
   7  -1   2   31.90    3.20
   7  -1   2   37.20    2.70
   7  -1   2   34.30    2.70
  -8   1  -2   77.89    4.30
  -8   1  -2   81.59    3.00
  -8   1  -2   78.39    3.90
   8  -1   2   75.09    4.10
   8  -1   2   78.59    5.10
   8  -1   2   77.59    4.00
   9   0  -2    5.00    2.10
   9   0  -2    0.20    2.00
   9   0  -2    4.90    3.00
  -9   0   2    1.40    2.20
   8   0  -2    7.20    1.70
   8   0  -2    8.30    1.70
   8   0  -2    0.50    2.30
  -8   0   2    9.00    2.10
  -8   0   2    6.80    2.20
  -8   0   2    4.80    1.90
   7   0  -2  160.38    5.30
   7   0  -2  169.88    5.90
   7   0  -2  168.68    5.70
  -7   0   2  164.48    5.70
  -7   0   2  158.68    5.80
  -7   0   2  154.38    5.30
   6   0  -2  347.77    9.60
   6   0  -2  352.76    9.60
  -6   0   2  346.07    9.60
  -6   0   2  340.67    9.50
  -6   0   2  338.87    9.10
   5   0  -2   28.20    1.90
  -5   0   2   31.60    2.00
  -5   0   2   29.90    1.80
  -5   0   2   27.50    1.70
   4   0  -2   28.00    1.70
   4   0  -2   30.80    1.60
  -4   0   2   28.70    1.60
  -4   0   2   28.60    1.60
  -4   0   2   27.70    1.50
   3   0  -2  735.23   17.80
   3   0  -2  759.32   17.90
   3   0  -2  743.93   17.30
  -3   0   2  753.52   17.70
  -3   0   2  739.03   17.80
  -3   0   2  771.92   17.90
   2   0  -2  171.28    4.40
   2   0  -2  169.48    4.10
   2   0  -2  165.58    4.50
   2   0  -2  178.88    4.50
  -2   0   2  176.48    4.40
  -2   0   2  176.78    4.50
  -2   0   2  176.78    4.50
   1   0  -2 1305.87   31.60
  -1   0   2 1372.96   31.80
  -1   0   2 1311.27   31.20
  -1   0   2 1336.27   31.60
   0   0  -2  770.12   18.40
   0   0  -2  765.32   18.60
   0   0  -2  762.22   18.50
   0   0  -2  820.92   19.10
   0   0   2  784.82   18.60
   0   0   2  818.72   18.80
   0   0   2  779.82   18.80
   0   0   2  814.02   18.80
  -1   0  -2  922.11   22.20
  -1   0  -2  844.92   21.50
  -1   0  -2  950.80   21.50
  -1   0  -2  999.80   22.10
   1   0   2  944.01   21.80
   1   0   2  972.70   22.10
   1   0   2  867.91   21.50
  -2   0  -2  516.95   12.40
  -2   0  -2  501.35   11.80
  -2   0  -2  513.55   12.20
   2   0   2  521.45   12.20
   2   0   2  517.25   12.40
   2   0   2  521.55   12.40
  -3   0  -2    2.30    0.70
  -3   0  -2    2.80    0.50
  -3   0  -2    2.30    0.30
  -3   0  -2    2.70    0.60
   3   0   2    2.10    0.60
   3   0   2    2.80    0.40
   3   0   2    3.40    0.70
  -4   0  -2  348.17    8.50
  -4   0  -2  373.56    9.40
  -4   0  -2  366.26    9.50
   4   0   2  367.96    9.50
   4   0   2  351.26    9.40
   4   0   2  368.96    9.10
  -5   0  -2   29.20    2.20
  -5   0  -2   28.50    1.20
  -5   0  -2   33.70    2.00
   5   0   2   32.50    2.20
   5   0   2   30.00    2.00
   5   0   2   31.20    1.80
  -6   0  -2   25.40    2.30
  -6   0  -2   29.70    1.40
  -6   0  -2   28.90    2.40
   6   0   2   31.80    2.40
   6   0   2   33.50    2.10
   6   0   2   30.90    2.60
  -7   0  -2   30.70    1.60
  -7   0  -2   26.70    3.30
  -7   0  -2   30.00    2.80
   7   0   2   26.10    3.20
   7   0   2   29.30    2.70
   7   0   2   27.80    2.40
  -8   0  -2    7.30    2.10
  -8   0  -2    4.50    1.00
  -8   0  -2    2.60    1.90
   8   0   2    2.50    1.60
   8   0   2    3.80    1.80
   9  -1  -2   28.00    3.40
   9  -1  -2   19.30    2.50
  -9   1   2   20.10    2.60
  -9   1   2   19.40    2.80
   8  -1  -2   52.39    2.80
   8  -1  -2   49.80    3.20
   8  -1  -2   44.40    3.80
   8  -1  -2   51.79    5.00
  -8   1   2   51.19    4.90
  -8   1   2   54.19    3.40
   7  -1  -2    1.10    0.90
   7  -1  -2    0.10    1.40
   7  -1  -2    0.80    1.10
   7  -1  -2    0.70    1.10
  -7   1   2   -0.60    1.10
  -7   1   2    2.30    1.20
  -7   1   2    2.30    1.40
   6  -1  -2   61.69    2.80
   6  -1  -2   59.99    3.10
   6  -1  -2   60.99    2.30
  -6   1   2   58.99    3.00
  -6   1   2   60.19    2.90
  -6   1   2   63.39    2.70
   5  -1  -2    6.00    0.70
   5  -1  -2    6.10    1.00
   5  -1  -2    5.60    1.20
  -5   1   2    5.30    1.00
  -5   1   2    7.50    1.10
  -5   1   2    6.20    0.90
   4  -1  -2   13.50    0.90
   4  -1  -2   12.50    1.30
   4  -1  -2   10.90    1.10
  -4   1   2   12.30    1.10
  -4   1   2   13.10    1.20
  -4   1   2   11.30    1.00
   3  -1  -2  406.26   10.00
   3  -1  -2  407.56    9.80
   3  -1  -2  398.86    9.70
   3  -1  -2  404.16   10.00
  -3   1   2  407.76    9.80
  -3   1   2  384.76    9.90
  -3   1   2  424.86   10.00
   2  -1  -2  346.37    8.20
   2  -1  -2  345.67    8.30
   2  -1  -2  341.57    8.30
   2  -1  -2  342.07    8.30
  -2   1   2  343.27    8.30
  -2   1   2  338.67    8.20
  -2   1   2  349.87    8.30
   1  -1  -2 2319.07   53.79
   1  -1  -2 2348.57   54.49
   1  -1  -2 2256.27   53.49
   1  -1  -2 2231.68   53.59
  -1   1   2 2365.36   54.29
  -1   1   2 2341.57   54.49
  -1   1   2 2350.76   54.09
  -1   1   2 2253.87   54.19
   0  -1  -2  943.01   22.20
   0  -1  -2  973.00   22.50
   0  -1  -2  910.61   22.20
   0  -1  -2  905.21   22.30
   0  -1  -2 1005.20   22.80
   0   1   2  983.20   23.00
   0   1   2  986.30   23.00
   0   1   2  961.50   22.90
   0   1   2 1014.50   22.60
  -1  -1  -2  190.78    4.80
  -1  -1  -2  186.08    4.80
  -1  -1  -2  191.68    4.60
  -1  -1  -2  194.58    4.80
   1   1   2  182.58    4.80
  -2  -1  -2   81.59    2.60
  -2  -1  -2   84.69    2.30
  -2  -1  -2   79.09    2.50
  -2  -1  -2   81.89    2.00
   2   1   2   83.09    2.30
   2   1   2   82.09    2.60
   2   1   2   82.09    2.60
  -3  -1  -2 1745.73   40.00
  -3  -1  -2 1675.23   39.70
  -3  -1  -2 1696.33   40.10
   3   1   2 1688.13   40.00
   3   1   2 1792.62   40.10
   3   1   2 1714.53   39.60
  -4  -1  -2    5.00    0.60
  -4  -1  -2    4.90    0.80
  -4  -1  -2    4.60    1.00
   4   1   2    6.00    0.70
   4   1   2    6.60    1.00
   4   1   2    5.40    1.00
  -5  -1  -2   46.40    2.60
  -5  -1  -2   42.80    2.30
  -5  -1  -2   46.60    1.60
   5   1   2   46.50    2.00
   5   1   2   41.40    2.40
  -6  -1  -2   35.90    2.50
  -6  -1  -2   37.90    2.80
   6   1   2   32.40    2.90
   6   1   2   33.80    2.40
   6   1   2   34.80    2.10
  -7  -1  -2   36.40    1.60
  -7  -1  -2   32.30    3.60
  -7  -1  -2   38.80    3.00
   7   1   2   35.80    3.10
   7   1   2   41.50    2.50
   7   1   2   35.80    3.70
  -8  -1  -2   24.90    1.60
   8   1   2   27.80    2.80
   8   1   2   26.60    3.00
   9  -2  -2   18.20    2.30
   9  -2  -2   19.10    2.60
   9  -2  -2   10.50    2.80
   9  -2  -2   18.00    2.30
  -9   2   2   15.10    2.40
  -9   2   2   20.30    2.20
  -9   2   2   17.30    2.70
   8  -2  -2    4.50    1.50
   8  -2  -2    1.90    1.90
   8  -2  -2    0.60    1.20
   8  -2  -2    2.60    1.60
  -8   2   2    0.50    1.60
  -8   2   2    1.30    1.50
   7  -2  -2   21.10    2.70
   7  -2  -2   21.80    2.00
   7  -2  -2   21.30    2.60
   7  -2  -2   20.80    2.30
  -7   2   2   22.40    2.40
  -7   2   2   21.60    2.10
  -7   2   2   18.00    2.10
   6  -2  -2   62.89    3.00
   6  -2  -2   60.09    2.50
   6  -2  -2   59.69    2.00
   6  -2  -2   60.09    2.80
  -6   2   2   51.99    2.90
  -6   2   2   60.29    2.90
  -6   2   2   62.29    3.00
   5  -2  -2   -0.10    0.60
   5  -2  -2   -0.20    0.70
   5  -2  -2    0.00    0.60
  -5   2   2    0.10    0.70
  -5   2   2   -0.40    0.70
  -5   2   2   -0.40    0.60
   4  -2  -2   66.59    2.50
   4  -2  -2   67.39    2.30
   4  -2  -2   64.39    2.40
   4  -2  -2   65.19    2.20
  -4   2   2   69.39    2.50
  -4   2   2   64.29    2.40
  -4   2   2   66.89    2.30
   3  -2  -2  269.77    6.70
   3  -2  -2  268.77    6.60
   3  -2  -2  261.97    6.70
   3  -2  -2  261.47    6.70
  -3   2   2  264.07    6.60
  -3   2   2  256.57    6.60
  -3   2   2  255.27    6.70
  -3   2   2  269.07    6.70
   2  -2  -2   56.69    1.80
   2  -2  -2   55.59    1.90
   2  -2  -2   57.69    1.80
   2  -2  -2   55.49    1.80
  -2   2   2   53.09    1.70
  -2   2   2   56.49    1.90
  -2   2   2   57.49    1.80
  -2   2   2   56.99    1.70
  -2   2   2   55.79    1.80
   1  -2  -2   87.19    2.50
   1  -2  -2   89.09    2.60
   1  -2  -2   88.59    2.40
   1  -2  -2   90.59    2.40
   1  -2  -2   87.09    2.50
  -1   2   2   85.79    2.40
  -1   2   2   88.19    2.30
  -1   2   2   88.09    2.50
  -1   2   2   90.99    2.70
  -1   2   2   87.59    2.50
   0  -2  -2 9520.65  225.68
   0  -2  -2 9971.00  226.08
   0  -2  -2 9996.30  226.98
   0  -2  -2 9978.80  225.78
   0  -2  -2 9986.10  226.98
   0   2   2 9748.22  227.08
   0   2   2 9999.00  226.88
   0   2   2 9831.32  225.78
   0   2   2 9609.94  225.98
   0   2   2 9669.73  225.88
  -1  -2  -2  213.18    5.10
  -1  -2  -2  211.38    5.40
  -1  -2  -2  208.68    5.30
  -1  -2  -2  212.68    5.10
   1   2   2  215.28    5.40
   1   2   2  211.18    5.40
   1   2   2  209.68    5.40
   1   2   2  201.48    5.30
  -2  -2  -2    2.30    0.30
  -2  -2  -2    1.40    0.40
  -2  -2  -2    2.60    0.40
  -2  -2  -2    2.10    0.60
   2   2   2    2.50    0.50
   2   2   2    2.70    0.40
   2   2   2    2.00    0.50
  -3  -2  -2  171.18    4.70
  -3  -2  -2  177.58    4.90
  -3  -2  -2  171.78    4.40
  -3  -2  -2  177.28    5.00
  -3  -2  -2  172.28    4.20
   3   2   2  150.68    5.30
   3   2   2  177.98    5.00
   3   2   2  167.48    4.30
  -4  -2  -2    4.40    1.10
  -4  -2  -2    3.90    0.80
   4   2   2    4.60    0.60
   4   2   2    2.80    0.80
   4   2   2    4.00    1.00
  -5  -2  -2   -0.10    0.60
  -5  -2  -2    0.20    0.90
  -5  -2  -2    0.40    1.10
   5   2   2   -0.30    1.10
   5   2   2    2.20    0.70
   5   2   2   -0.20    1.00
  -6  -2  -2   37.50    3.10
   6   2   2   41.30    2.00
   6   2   2   30.40    3.10
   6   2   2   42.30    3.00
  -7  -2  -2    3.50    2.30
  -7  -2  -2    5.20    0.70
   7   2   2    3.60    1.20
   7   2   2    6.10    1.80
   9  -3  -2   30.80    3.20
   9  -3  -2   30.00    3.30
   9  -3  -2   33.90    3.70
   9  -3  -2   23.90    2.60
  -9   3   2   40.40    4.50
  -9   3   2   33.90    3.60
  -9   3   2   37.20    2.90
   8  -3  -2    4.80    1.90
   8  -3  -2    6.30    1.80
   8  -3  -2    6.30    1.50
   8  -3  -2    6.30    1.70
  -8   3   2    7.70    2.10
  -8   3   2    5.70    1.30
  -8   3   2    6.50    1.60
   7  -3  -2   10.60    1.50
   7  -3  -2    7.30    1.40
   7  -3  -2    8.60    2.80
   7  -3  -2    8.40    0.90
   7  -3  -2    8.30    1.70
  -7   3   2    8.60    1.60
  -7   3   2    9.30    1.30
  -7   3   2    9.40    1.80
  -7   3   2   11.10    1.40
   6  -3  -2   91.59    4.10
   6  -3  -2  108.39    3.80
   6  -3  -2  101.49    3.90
   6  -3  -2  103.89    3.20
  -6   3   2  103.09    3.70
  -6   3   2  106.59    3.90
  -6   3   2  107.99    4.00
   5  -3  -2  188.38    5.20
   5  -3  -2  178.28    5.40
   5  -3  -2  184.98    5.40
   5  -3  -2  185.58    5.40
   5  -3  -2  184.68    5.20
  -5   3   2  190.28    5.20
  -5   3   2  187.58    5.40
  -5   3   2  190.08    5.50
  -5   3   2  186.68    5.50
  -5   3   2  191.98    5.50
   4  -3  -2  159.18    4.50
   4  -3  -2  153.68    4.50
   4  -3  -2  153.78    4.30
   4  -3  -2  156.98    4.60
  -4   3   2  157.98    4.50
  -4   3   2  158.48    4.50
  -4   3   2  159.18    4.40
  -4   3   2  153.58    4.60
  -4   3   2  156.48    4.50
   3  -3  -2  500.15   12.00
   3  -3  -2  510.35   12.10
   3  -3  -2  497.65   12.30
   3  -3  -2  492.95   12.10
  -3   3   2  499.75   12.40
  -3   3   2  503.35   12.20
  -3   3   2  499.05   12.10
  -3   3   2  496.05   12.10
  -3   3   2  517.15   12.00
  -3   3   2  486.45   12.30
   2  -3  -2  528.15   12.80
   2  -3  -2  541.55   13.10
   2  -3  -2  529.85   12.60
   2  -3  -2  528.65   12.90
   2  -3  -2  532.95   12.60
  -2   3   2  543.45   13.00
  -2   3   2  530.15   12.80
  -2   3   2  531.55   12.80
  -2   3   2  520.45   12.60
  -2   3   2  532.85   12.60
  -2   3   2  556.94   13.10
   1  -3  -2  478.55   11.50
   1  -3  -2  495.85   11.80
   1  -3  -2  481.75   11.90
   1  -3  -2  499.25   11.50
   1  -3  -2  496.25   12.00
  -1   3   2  481.05   11.50
  -1   3   2  510.55   12.10
  -1   3   2  482.55   11.60
  -1   3   2  495.05   11.90
  -1   3   2  485.85   11.80
   0  -3  -2   42.30    1.70
   0  -3  -2   45.10    1.40
   0  -3  -2   41.00    1.60
   0  -3  -2   43.00    1.50
   0  -3  -2   44.10    1.70
   0   3   2   45.80    1.70
   0   3   2   43.60    1.80
   0   3   2   47.40    1.50
   0   3   2   43.20    1.50
   0   3   2   43.70    1.50
  -1  -3  -2    0.90    0.40
  -1  -3  -2    1.30    0.50
  -1  -3  -2    1.90    0.30
  -1  -3  -2    1.40    0.40
  -1  -3  -2    1.60    0.50
   1   3   2    0.70    0.40
   1   3   2    1.50    0.50
   1   3   2    1.50    0.50
  -2  -3  -2  471.95   11.70
  -2  -3  -2  467.45   11.60
  -2  -3  -2  460.75   11.10
  -2  -3  -2  480.25   11.60
  -2  -3  -2  454.25   10.90
  -2  -3  -2  465.85   11.40
   2   3   2  467.65   11.50
   2   3   2  470.55   11.60
   2   3   2  464.25   11.50
  -3  -3  -2   52.69    2.40
  -3  -3  -2   50.69    1.60
  -3  -3  -2   49.50    2.30
  -3  -3  -2   50.69    1.60
  -3  -3  -2   49.40    2.10
   3   3   2   52.69    2.40
   3   3   2   51.49    1.60
   3   3   2   51.69    2.30
  -4  -3  -2   15.30    1.90
  -4  -3  -2   16.30    1.70
  -4  -3  -2   18.40    0.90
  -4  -3  -2   17.10    1.50
   4   3   2   16.00    1.00
   4   3   2   19.30    2.00
   4   3   2   17.10    1.80
  -5  -3  -2   26.70    2.10
  -5  -3  -2   28.60    1.20
  -5  -3  -2   28.20    2.00
  -5  -3  -2   28.90    2.50
   5   3   2   24.90    2.40
   5   3   2   35.00    2.70
   5   3   2   26.90    1.40
  -6  -3  -2  201.38    7.00
  -6  -3  -2  205.28    6.50
  -6  -3  -2  192.48    5.00
  -6  -3  -2  206.78    5.80
   6   3   2  200.58    5.30
   6   3   2  198.98    6.70
   6   3   2  200.38    8.50
  -7  -3  -2    2.60    2.40
  -7  -3  -2    2.80    1.50
   7   3   2    2.80    1.10
   7   3   2    2.30    2.00
   8  -4  -2    0.70    1.30
   8  -4  -2    0.50    1.70
   8  -4  -2    2.30    0.90
   8  -4  -2    0.70    1.80
   8  -4  -2    1.30    1.90
  -8   4   2    0.80    1.60
  -8   4   2    0.80    1.40
  -8   4   2    1.90    1.80
  -8   4   2    1.70    1.60
   7  -4  -2  122.49    3.90
   7  -4  -2  124.09    4.70
   7  -4  -2  129.69    4.90
   7  -4  -2  124.39    4.70
   7  -4  -2  121.09    4.50
  -7   4   2  119.59    4.80
  -7   4   2  129.19    4.80
  -7   4   2  126.39    4.80
  -7   4   2  105.79    5.00
  -7   4   2  129.79    4.20
   6  -4  -2   17.10    1.50
   6  -4  -2   14.80    1.60
   6  -4  -2   13.50    1.60
   6  -4  -2   14.90    1.70
   6  -4  -2   16.20    1.70
  -6   4   2   14.30    1.70
  -6   4   2   15.70    2.00
  -6   4   2   15.90    1.60
  -6   4   2   12.80    1.70
  -6   4   2   16.80    2.00
   5  -4  -2   29.40    1.60
   5  -4  -2   29.00    1.90
   5  -4  -2   29.40    2.10
   5  -4  -2   28.60    1.80
   5  -4  -2   29.90    1.80
  -5   4   2   31.30    1.90
  -5   4   2   34.10    2.10
  -5   4   2   29.40    1.90
  -5   4   2   30.70    1.70
  -5   4   2   27.90    1.90
   4  -4  -2   44.90    2.30
   4  -4  -2   48.20    1.90
   4  -4  -2   49.80    1.90
   4  -4  -2   48.90    1.90
   4  -4  -2   49.50    2.30
  -4   4   2   47.80    2.20
  -4   4   2   49.30    2.20
  -4   4   2   43.90    2.10
  -4   4   2   48.50    2.00
  -4   4   2   46.70    1.90
   3  -4  -2  127.39    4.10
   3  -4  -2  124.19    3.50
   3  -4  -2  125.79    3.70
   3  -4  -2  131.29    3.50
  -3   4   2  130.49    3.50
  -3   4   2  122.39    3.90
  -3   4   2  127.39    4.10
  -3   4   2  128.99    3.70
  -3   4   2  125.39    3.80
  -3   4   2  121.49    3.60
   2  -4  -2  464.05   11.20
   2  -4  -2  468.55   11.90
   2  -4  -2  473.95   11.80
   2  -4  -2  471.45   11.60
   2  -4  -2  468.35   11.70
   2  -4  -2  471.35   11.20
  -2   4   2  467.25   11.30
  -2   4   2  479.25   11.10
  -2   4   2  489.75   12.00
  -2   4   2  479.45   11.60
  -2   4   2  459.85   11.70
   1  -4  -2  170.28    4.30
   1  -4  -2  170.88    4.80
   1  -4  -2  168.98    4.90
   1  -4  -2  168.68    4.90
   1  -4  -2  171.58    4.30
  -1   4   2  171.98    4.30
  -1   4   2  175.68    4.80
  -1   4   2  179.58    5.00
  -1   4   2  176.88    5.10
  -1   4   2  167.98    4.80
   0  -4  -2 3007.80   72.69
   0  -4  -2 3157.28   73.09
   0  -4  -2 3115.89   73.09
   0  -4  -2 3137.69   72.89
   0  -4  -2 3282.67   73.29
   0  -4  -2 3245.88   73.89
   0   4   2 3115.19   72.99
   0   4   2 3066.39   73.09
   0   4   2 3316.57   73.39
   0   4   2 3138.79   74.19
   0   4   2 3173.28   73.69
  -1  -4  -2   48.30    1.50
  -1  -4  -2   47.90    1.90
  -1  -4  -2   47.40    1.80
  -1  -4  -2   47.60    2.00
  -1  -4  -2   47.30    1.70
   1   4   2   47.80    2.10
   1   4   2   45.70    1.90
   1   4   2   48.00    2.20
  -2  -4  -2  133.69    3.70
  -2  -4  -2  130.09    3.30
  -2  -4  -2  130.99    4.00
  -2  -4  -2  125.99    4.10
  -2  -4  -2  134.89    4.40
  -2  -4  -2  130.39    3.80
   2   4   2  127.89    4.10
   2   4   2  134.29    4.20
   2   4   2  125.89    3.90
   2   4   2  131.69    4.00
  -3  -4  -2   29.10    2.00
  -3  -4  -2   30.70    2.20
  -3  -4  -2   29.00    1.70
  -3  -4  -2   28.00    1.40
   3   4   2   27.30    1.90
   3   4   2   30.30    1.90
   3   4   2   29.30    2.10
  -4  -4  -2   37.70    2.20
  -4  -4  -2   37.60    2.50
  -4  -4  -2   36.10    1.50
  -4  -4  -2   34.40    2.50
   4   4   2   30.00    2.10
   4   4   2   37.40    2.50
   4   4   2   37.50    2.60
  -5  -4  -2   11.70    1.90
  -5  -4  -2   11.10    1.10
  -5  -4  -2    9.80    1.40
  -5  -4  -2   11.00    1.70
   5   4   2    9.10    1.90
   5   4   2   10.80    1.80
  -6  -4  -2    3.90    2.20
  -6  -4  -2    4.60    1.40
  -6  -4  -2    5.00    0.70
  -6  -4  -2    5.10    1.70
   6   4   2    8.10    2.20
   8  -5  -2   14.60    2.50
   8  -5  -2   21.80    2.70
   8  -5  -2   14.40    1.70
   8  -5  -2   16.30    2.40
   8  -5  -2   12.90    1.90
  -8   5   2   17.60    2.10
  -8   5   2   13.00    2.40
  -8   5   2   17.70    2.40
  -8   5   2   14.00    1.90
   7  -5  -2   31.90    3.30
   7  -5  -2   30.80    2.70
   7  -5  -2   25.80    2.30
   7  -5  -2   25.90    2.80
   7  -5  -2   31.70    2.10
   7  -5  -2   29.60    2.40
  -7   5   2   28.60    3.00
  -7   5   2   27.10    2.80
  -7   5   2   33.90    3.00
  -7   5   2   31.80    2.40
  -7   5   2   29.20    2.50
   6  -5  -2   37.20    2.00
   6  -5  -2   32.20    2.40
   6  -5  -2   31.60    2.20
   6  -5  -2   37.00    2.90
   6  -5  -2   30.70    2.10
  -6   5   2   34.50    2.40
  -6   5   2   33.80    2.40
  -6   5   2   38.80    2.20
  -6   5   2   28.90    2.50
   5  -5  -2   12.30    1.50
   5  -5  -2   12.80    1.40
   5  -5  -2   15.20    1.40
   5  -5  -2   11.90    1.60
   5  -5  -2   10.20    1.30
  -5   5   2   10.80    1.30
  -5   5   2   13.20    1.50
  -5   5   2   12.70    1.50
  -5   5   2   14.40    1.60
  -5   5   2   12.00    1.50
   4  -5  -2   50.49    2.10
   4  -5  -2   51.49    2.00
   4  -5  -2   49.40    2.70
   4  -5  -2   49.10    1.90
   4  -5  -2   48.20    2.70
  -4   5   2   47.90    2.50
  -4   5   2   49.60    2.20
  -4   5   2   47.70    2.10
  -4   5   2   49.30    2.00
  -4   5   2   51.99    2.50
   3  -5  -2  114.49    3.90
   3  -5  -2  114.19    3.60
   3  -5  -2  107.99    3.10
   3  -5  -2  121.39    4.10
   3  -5  -2  116.19    3.20
   3  -5  -2  119.69    4.20
   3  -5  -2  109.19    4.10
  -3   5   2  116.39    3.70
  -3   5   2  112.69    3.80
  -3   5   2  116.89    3.80
  -3   5   2  115.09    4.10
  -3   5   2  115.79    3.20
   2  -5  -2   30.80    2.00
   2  -5  -2   30.10    1.20
   2  -5  -2   32.40    1.70
   2  -5  -2   33.60    2.90
   2  -5  -2   30.20    2.20
   2  -5  -2   29.90    2.00
   2  -5  -2   30.30    1.20
  -2   5   2   32.00    2.10
  -2   5   2   33.50    1.80
  -2   5   2   31.90    1.20
  -2   5   2   31.30    1.30
   1  -5  -2  146.79    3.70
   1  -5  -2  144.69    3.70
   1  -5  -2  147.49    4.90
   1  -5  -2  148.49    4.60
   1  -5  -2  151.68    4.70
   1  -5  -2  150.38    4.40
  -1   5   2  144.59    3.80
  -1   5   2  142.69    4.30
  -1   5   2  139.49    4.70
  -1   5   2  127.49    4.30
   0  -5  -2    1.20    0.70
   0  -5  -2    1.30    1.00
   0  -5  -2    2.30    0.80
   0  -5  -2    1.90    0.90
   0  -5  -2    1.50    0.80
   0  -5  -2    1.10    0.40
   0  -5  -2    1.70    0.50
   0   5   2    2.00    0.70
   0   5   2    1.30    0.50
   0   5   2    0.90    0.60
   0   5   2    0.20    0.60
   0   5   2    1.10    0.50
  -1  -5  -2    6.00    1.00
  -1  -5  -2    6.00    0.80
  -1  -5  -2    7.30    0.70
  -1  -5  -2    7.60    1.00
  -1  -5  -2    7.50    1.30
  -1  -5  -2    6.70    0.80
   1   5   2    5.90    0.90
   1   5   2    5.10    1.00
   1   5   2    7.80    1.00
   1   5   2    4.90    1.10
  -2  -5  -2  142.29    4.10
  -2  -5  -2  135.49    3.40
  -2  -5  -2  142.49    4.10
  -2  -5  -2  143.89    4.40
  -2  -5  -2  138.19    4.60
  -2  -5  -2  143.09    5.00
   2   5   2  139.99    4.80
   2   5   2  145.29    4.40
   2   5   2  141.09    4.60
   2   5   2  135.59    4.30
  -3  -5  -2   -0.10    0.70
  -3  -5  -2    0.30    0.70
  -3  -5  -2    0.90    1.00
  -3  -5  -2   -1.30    0.80
  -3  -5  -2    1.60    1.30
   3   5   2   -0.20    0.80
   3   5   2   -0.70    1.10
   3   5   2    0.60    0.90
   3   5   2   -0.60    1.00
  -4  -5  -2   57.99    3.20
  -4  -5  -2   53.39    2.90
  -4  -5  -2   56.09    2.20
  -4  -5  -2   57.69    2.70
  -4  -5  -2   58.39    3.50
   4   5   2   57.59    3.10
   4   5   2   52.49    3.40
   4   5   2   54.89    3.20
   4   5   2   57.29    3.10
  -5  -5  -2    7.50    2.10
  -5  -5  -2    9.70    1.70
  -5  -5  -2    7.80    1.00
  -5  -5  -2    5.60    1.40
  -5  -5  -2    9.60    2.10
   5   5   2    7.20    1.80
   5   5   2    6.40    1.50
   5   5   2    6.50    1.80
   7  -6  -2    8.60    1.40
   7  -6  -2   11.80    2.00
   7  -6  -2    9.20    1.60
   7  -6  -2    9.20    2.30
   7  -6  -2   10.50    1.40
   7  -6  -2   13.40    2.00
  -7   6   2    9.40    2.00
  -7   6   2    6.50    1.60
  -7   6   2    9.10    1.70
  -7   6   2    8.10    1.80
  -7   6   2   10.40    1.90
   6  -6  -2    1.90    1.00
   6  -6  -2    0.70    1.40
   6  -6  -2   -0.80    0.90
   6  -6  -2    0.80    1.70
   6  -6  -2    0.40    1.00
  -6   6   2   -0.30    1.40
  -6   6   2    1.00    1.30
  -6   6   2    1.80    1.20
  -6   6   2    0.00    1.30
  -6   6   2    0.80    1.20
   5  -6  -2    7.40    1.00
   5  -6  -2    8.50    1.60
   5  -6  -2    7.70    1.00
   5  -6  -2    7.90    1.00
   5  -6  -2   10.50    1.80
   5  -6  -2    6.20    1.60
  -5   6   2    9.40    1.60
  -5   6   2    8.80    1.20
  -5   6   2   11.80    1.70
  -5   6   2    8.10    1.10
  -5   6   2   10.90    1.40
   4  -6  -2    3.80    0.60
   4  -6  -2    2.80    0.90
   4  -6  -2    1.60    1.20
   4  -6  -2    3.70    1.50
   4  -6  -2    2.00    1.30
   4  -6  -2    2.10    0.60
  -4   6   2    3.50    1.10
  -4   6   2    2.50    0.70
  -4   6   2    2.00    1.00
  -4   6   2    3.10    1.00
   3  -6  -2   57.69    1.80
   3  -6  -2   59.09    1.80
   3  -6  -2   59.29    3.00
   3  -6  -2   58.59    2.50
   3  -6  -2   60.99    3.20
   3  -6  -2   60.09    3.10
  -3   6   2   59.59    2.00
  -3   6   2   58.59    2.90
  -3   6   2   61.29    2.70
  -3   6   2   60.19    1.90
  -3   6   2   56.69    2.70
   2  -6  -2   46.60    2.20
   2  -6  -2   45.30    1.40
   2  -6  -2   47.80    2.90
   2  -6  -2   46.00    2.60
   2  -6  -2   47.70    2.60
  -2   6   2   48.40    2.80
  -2   6   2   43.30    1.60
  -2   6   2   47.70    2.30
  -2   6   2   46.20    1.50
   1  -6  -2   80.79    2.30
   1  -6  -2   80.19    3.40
   1  -6  -2   82.69    3.10
   1  -6  -2   78.99    3.70
   1  -6  -2   82.59    3.40
   1  -6  -2   76.99    2.30
  -1   6   2   80.09    3.50
  -1   6   2   80.39    2.40
  -1   6   2   82.09    3.10
  -1   6   2   81.89    2.40
   0  -6  -2    6.20    0.80
   0  -6  -2    6.10    1.60
   0  -6  -2    5.20    1.10
   0  -6  -2    7.80    1.40
   0  -6  -2    6.30    0.60
   0  -6  -2    6.70    1.20
   0  -6  -2    6.00    1.30
   0  -6  -2    5.70    0.80
   0   6   2    4.90    1.10
   0   6   2    6.80    0.90
   0   6   2    4.80    1.20
  -1  -6  -2  148.89    5.40
  -1  -6  -2  135.79    4.60
  -1  -6  -2  134.89    4.30
  -1  -6  -2  124.99    4.00
  -1  -6  -2  134.99    3.80
  -1  -6  -2  133.99    3.60
   1   6   2  135.69    4.70
   1   6   2  136.39    4.10
   1   6   2  138.59    4.20
   1   6   2  143.49    5.00
  -2  -6  -2   96.99    4.50
  -2  -6  -2  100.29    3.20
  -2  -6  -2   94.29    3.40
  -2  -6  -2   92.69    3.40
  -2  -6  -2   90.19    4.20
   2   6   2  105.29    4.20
   2   6   2   98.89    3.50
   2   6   2   95.29    3.90
   2   6   2   93.59    3.60
  -3  -6  -2   86.79    3.70
  -3  -6  -2   78.79    3.70
  -3  -6  -2   98.99    4.00
  -3  -6  -2   92.39    3.30
  -3  -6  -2   92.09    4.60
   3   6   2   89.09    3.60
   3   6   2   94.89    4.00
   3   6   2   95.59    3.90
   3   6   2   87.59    4.30
  -4  -6  -2    9.60    2.40
  -4  -6  -2   10.70    1.70
  -4  -6  -2   10.50    1.40
  -4  -6  -2   14.30    2.10
  -4  -6  -2   13.30    2.00
   4   6   2   10.50    1.70
   4   6   2   12.50    2.00
   4   6   2   13.40    2.10
  -5  -6  -2    6.30    1.40
  -5  -6  -2    3.10    1.60
  -5  -6  -2    0.80    1.30
  -5  -6  -2    5.80    2.20
  -5  -6  -2    4.60    2.60
   5   6   2    3.30    1.80
   5   6   2    4.40    2.10
   5   6   2    4.80    1.70
   7  -7  -2    0.70    1.90
   7  -7  -2    2.80    2.00
   7  -7  -2   -0.70    1.30
   7  -7  -2    1.50    1.20
  -7   7   2   -1.30    1.60
  -7   7   2    1.60    1.80
  -7   7   2    0.80    2.20
  -7   7   2    1.80    1.70
   6  -7  -2    6.00    1.10
   6  -7  -2    8.10    1.30
   6  -7  -2    6.80    1.70
   6  -7  -2    7.70    2.10
   6  -7  -2    5.50    1.10
  -6   7   2    6.90    1.40
  -6   7   2    5.20    1.40
  -6   7   2   12.60    2.00
  -6   7   2   10.20    1.90
  -6   7   2    7.90    1.70
   5  -7  -2    9.20    2.10
   5  -7  -2    7.40    0.90
   5  -7  -2    5.60    1.20
   5  -7  -2    7.30    0.90
   5  -7  -2    2.70    1.90
  -5   7   2    6.60    1.60
  -5   7   2    6.90    1.10
  -5   7   2    6.70    1.60
  -5   7   2    7.30    1.10
  -5   7   2    4.80    1.50
   4  -7  -2   59.59    3.80
   4  -7  -2   69.69    4.00
   4  -7  -2   69.39    3.90
   4  -7  -2   66.59    2.00
   4  -7  -2   68.19    2.90
  -4   7   2   70.29    3.40
  -4   7   2   66.49    2.30
  -4   7   2   69.09    2.20
   3  -7  -2    4.80    1.60
   3  -7  -2    9.70    1.80
   3  -7  -2    6.90    1.20
   3  -7  -2    5.30    1.60
   3  -7  -2    7.00    1.80
  -3   7   2    2.90    1.20
  -3   7   2    8.90    1.70
   2  -7  -2   69.19    3.70
   2  -7  -2   68.49    4.10
   2  -7  -2   76.59    3.70
   2  -7  -2   74.99    3.10
  -2   7   2   70.89    3.60
  -2   7   2   75.99    3.30
   1  -7  -2   26.10    3.20
   1  -7  -2   25.30    2.00
   1  -7  -2   25.40    2.80
   1  -7  -2   27.80    2.70
  -1   7   2   27.40    2.50
  -1   7   2   26.50    2.20
  -1   7   2   23.80    1.20
  -1   7   2   22.70    1.50
   0  -7  -2    5.00    1.90
   0  -7  -2    4.50    0.60
   0  -7  -2    5.10    1.40
   0  -7  -2    6.40    1.90
   0  -7  -2    6.20    1.60
   0  -7  -2    5.40    0.90
   0  -7  -2    3.70    0.70
   0   7   2    4.40    1.50
   0   7   2    5.00    1.20
   0   7   2    5.60    1.00
   0   7   2    5.20    0.90
  -1  -7  -2    0.90    0.50
  -1  -7  -2    1.00    1.10
  -1  -7  -2   -0.70    0.60
  -1  -7  -2   -1.10    1.70
  -1  -7  -2    2.10    1.90
  -1  -7  -2   -0.90    1.00
  -1  -7  -2    0.20    0.60
  -1  -7  -2   -0.80    0.80
   1   7   2    0.10    1.10
   1   7   2    0.80    1.00
   1   7   2    0.50    1.40
   1   7   2    0.30    0.90
  -2  -7  -2   51.69    4.40
  -2  -7  -2   60.79    2.40
  -2  -7  -2   60.59    3.00
  -2  -7  -2   62.59    3.40
  -2  -7  -2   63.29    2.90
   2   7   2   61.69    3.30
   2   7   2   69.09    3.90
   2   7   2   62.69    3.00
   2   7   2   60.69    3.40
  -3  -7  -2    4.60    1.60
  -3  -7  -2    4.90    1.40
  -3  -7  -2    6.20    1.20
  -3  -7  -2    4.20    2.50
  -3  -7  -2    5.10    1.40
   3   7   2    3.90    2.10
   3   7   2    3.50    1.50
   3   7   2    2.90    1.70
   3   7   2    2.70    1.90
   5  -8  -2   30.40    2.40
   5  -8  -2   31.70    3.10
  -5   8   2   28.40    3.00
  -5   8   2   30.00    1.60
  -5   8   2   29.60    1.70
   4  -8  -2    0.40    1.10
   4  -8  -2   -0.80    1.40
  -4   8   2    0.00    1.30
   3  -8  -2   14.90    2.50
   3  -8  -2   21.20    2.40
   3  -8  -2   20.10    2.10
  -3   8   2   16.40    2.10
  -3   8   2   16.50    2.20
   2  -8  -2    7.80    1.40
   2  -8  -2    5.40    2.10
   2  -8  -2    5.30    1.30
  -2   8   2    3.00    1.60
  -2   8   2    4.00    1.40
   1  -8  -2    5.60    1.10
   1  -8  -2   10.60    2.30
   1  -8  -2    5.00    1.30
  -1   8   2    5.90    1.50
   0  -8  -2    3.30    1.00
   0  -8  -2    4.50    1.40
   0  -8  -2    4.00    1.00
   0   8   2    4.30    0.90
   0   8   2    4.00    1.70
   0   8   2    3.10    1.10
   0   8   2    4.40    1.60
  -1  -8  -2   18.00    2.00
  -1  -8  -2   25.20    1.90
  -1  -8  -2   20.10    1.50
  -1  -8  -2   19.30    1.40
  -1  -8  -2   19.40    2.20
   1   8   2   21.20    2.50
   1   8   2   19.10    2.40
   1   8   2   23.00    2.00
   1   8   2   22.90    2.70
  -2  -8  -2    6.40    1.90
  -2  -8  -2    5.00    1.70
  -2  -8  -2    1.90    1.70
  -2  -8  -2    6.20    1.10
   2   8   2    3.50    1.90
   2   8   2    5.60    2.00
   2   8   2    2.70    2.00
   2   8   2    6.60    2.00
  -3   9   2   10.40    2.20
   2  -9  -2    7.40    1.70
   2  -9  -2    0.20    1.40
  -2   9   2    4.40    2.00
  -1   9   2    4.80    2.10
   2   9  -3    1.50    1.10
   2   9  -3    3.70    1.80
  -2  -9   3    1.60    1.70
   1   9  -3   14.50    2.30
  -1  -9   3   13.50    1.90
   0   9  -3    1.40    1.60
   0  -9   3    1.50    0.80
   0  -9   3    2.90    1.30
   1  -9   3    1.20    1.00
   1  -9   3    0.40    1.10
   2  -9   3    3.30    1.10
   2  -9   3    3.40    1.20
   3  -9   3   60.59    3.40
   3  -9   3   68.29    2.80
  -4   9  -3    5.50    1.70
   4  -9   3    3.70    1.50
   4  -9   3    7.80    1.10
   4   8  -3    7.10    1.90
   4   8  -3    6.70    2.60
   4   8  -3    5.80    1.80
  -4  -8   3    6.20    1.30
  -4  -8   3    5.80    2.10
   3   8  -3   18.50    2.30
   3   8  -3   17.40    2.10
   3   8  -3   23.60    4.40
   3   8  -3   18.50    1.90
  -3  -8   3   25.10    1.70
  -3  -8   3   27.30    3.00
  -3  -8   3   21.00    1.90
   2   8  -3   -0.40    1.00
   2   8  -3   -0.60    0.90
   2   8  -3    0.90    1.20
   2   8  -3   -4.60    1.70
  -2  -8   3   -2.00    2.00
  -2  -8   3    0.60    1.60
  -2  -8   3    0.30    0.60
   1   8  -3   93.69    4.00
  -1  -8   3   84.19    4.80
  -1  -8   3   88.69    3.60
  -1  -8   3   91.29    4.00
  -1  -8   3   89.49    2.50
  -1  -8   3   83.99    5.00
   0   8  -3  194.48    6.30
   0  -8   3  176.28    6.30
   0  -8   3  178.18    6.70
   0  -8   3  168.58    6.80
   0  -8   3  186.18    6.20
   0  -8   3  184.48    5.00
   0  -8   3  195.48    5.70
   1  -8   3   41.70    3.50
   1  -8   3   42.00    3.20
   1  -8   3   44.10    3.70
   1  -8   3   40.70    2.10
   1  -8   3   44.00    3.20
   1  -8   3   41.40    3.30
   1  -8   3   46.70    2.30
   2  -8   3   45.80    2.20
   2  -8   3   40.40    3.40
   2  -8   3   52.89    3.80
   2  -8   3   39.00    3.10
   2  -8   3   40.10    3.40
   2  -8   3   43.30    3.60
   2  -8   3   44.30    2.40
  -3   8  -3  104.19    4.50
   3  -8   3  106.79    4.00
   3  -8   3   99.59    4.70
   3  -8   3  100.89    4.90
   3  -8   3  102.29    4.60
   3  -8   3   95.39    4.90
   3  -8   3  110.59    3.40
  -4   8  -3   33.60    3.00
   4  -8   3   32.90    3.50
   4  -8   3   37.10    3.40
   4  -8   3   42.50    1.80
   4  -8   3   39.70    2.70
  -5   8  -3    1.10    0.90
  -5   8  -3    0.80    0.80
  -5   8  -3    5.90    1.80
  -5   8  -3   -1.40    1.40
   5  -8   3    1.10    0.60
   5  -8   3   -0.40    1.40
  -6   8  -3   30.50    3.10
  -6   8  -3   24.50    2.60
  -6   8  -3   26.40    3.30
   6  -8   3   25.30    1.70
   6  -8   3   25.70    3.20
   5   7  -3   25.60    2.60
   5   7  -3   30.20    3.10
   5   7  -3   23.20    3.10
  -5  -7   3   23.40    2.90
  -5  -7   3   26.50    3.10
  -5  -7   3   24.70    2.50
   4   7  -3    5.90    1.50
   4   7  -3    5.40    1.80
   4   7  -3    7.50    1.60
   4   7  -3    5.40    1.60
  -4  -7   3    2.40    1.10
  -4  -7   3    6.30    1.40
  -4  -7   3    8.20    1.60
   3   7  -3    2.60    1.30
   3   7  -3    4.50    1.40
   3   7  -3    4.10    1.40
   3   7  -3    2.60    1.30
  -3  -7   3    1.30    1.70
  -3  -7   3    4.50    1.00
  -3  -7   3    2.60    1.30
  -3  -7   3    2.60    0.90
  -3  -7   3    5.90    2.00
   2   7  -3    3.20    1.30
   2   7  -3    7.90    1.50
   2   7  -3    5.70    1.10
   2   7  -3    6.00    1.60
  -2  -7   3    7.60    1.80
  -2  -7   3    5.30    0.80
  -2  -7   3    3.70    1.50
  -2  -7   3    3.10    1.30
   1   7  -3   26.60    1.30
   1   7  -3   25.30    2.10
   1   7  -3   27.20    1.20
  -1  -7   3   27.40    2.20
  -1  -7   3   29.10    2.60
  -1  -7   3   27.10    0.90
  -1  -7   3   27.10    2.90
  -1  -7   3   26.60    0.90
  -1  -7   3   25.80    1.20
  -1  -7   3   25.50    2.20
   0   7  -3    6.80    1.20
   0   7  -3    6.00    1.40
   0  -7   3    6.80    1.50
   0  -7   3    7.80    0.90
   0  -7   3    7.60    1.80
   0  -7   3    7.40    1.40
   0  -7   3    5.30    1.40
   0  -7   3    7.60    1.10
  -1   7  -3   23.50    2.30
   1  -7   3   25.40    1.60
   1  -7   3   30.20    2.20
   1  -7   3   24.10    2.60
   1  -7   3   26.10    1.60
   1  -7   3   24.90    2.50
   1  -7   3   24.40    2.20
   1  -7   3   24.20    2.30
  -2   7  -3    5.10    1.30
   2  -7   3    3.40    0.90
   2  -7   3    2.10    1.30
   2  -7   3    1.60    1.10
   2  -7   3    3.30    1.40
   2  -7   3    4.00    1.60
   2  -7   3    3.20    0.70
   2  -7   3    2.20    1.40
  -3   7  -3   70.89    3.40
   3  -7   3   69.89    3.10
   3  -7   3   67.49    3.40
   3  -7   3   77.19    3.70
   3  -7   3   68.69    2.40
   3  -7   3   68.09    3.70
   3  -7   3   78.19    3.60
  -4   7  -3    3.10    0.80
  -4   7  -3    1.40    1.40
  -4   7  -3    2.50    0.60
  -4   7  -3    2.90    1.30
   4  -7   3    5.00    1.60
   4  -7   3    2.90    1.10
   4  -7   3    1.90    0.50
   4  -7   3    4.60    1.80
   4  -7   3    1.70    1.60
   4  -7   3    3.30    1.60
  -5   7  -3    0.60    1.30
  -5   7  -3   -1.10    1.30
  -5   7  -3    0.60    1.00
   5  -7   3    0.60    0.80
   5  -7   3    1.60    0.70
   5  -7   3    0.20    1.90
   5  -7   3    1.20    1.40
   5  -7   3    0.00    1.70
  -6   7  -3    1.80    1.40
  -6   7  -3   -1.50    1.30
  -6   7  -3    0.70    1.70
  -6   7  -3    0.20    1.50
   6  -7   3    0.40    1.00
   6  -7   3   -1.00    0.90
   6  -7   3    1.40    1.50
  -7   7  -3    4.10    2.00
  -7   7  -3    5.70    1.80
  -7   7  -3   12.20    2.00
   7  -7   3    8.10    1.90
   7  -7   3    8.20    1.40
   6   6  -3   -0.30    1.50
   6   6  -3    2.90    2.00
   6   6  -3   -0.10    1.50
  -6  -6   3   -0.10    2.00
   5   6  -3   -2.40    1.70
   5   6  -3   -0.10    1.20
   5   6  -3    0.20    1.10
   5   6  -3   -0.30    1.50
  -5  -6   3   -1.20    1.10
  -5  -6   3    0.70    1.50
   4   6  -3    6.60    1.30
   4   6  -3    6.20    1.40
   4   6  -3    6.20    1.60
   4   6  -3    7.20    1.40
  -4  -6   3    7.40    1.40
  -4  -6   3    5.30    1.10
   3   6  -3    1.20    0.90
   3   6  -3    0.20    1.00
   3   6  -3   -0.40    0.90
   3   6  -3    0.10    1.00
   3   6  -3   -1.40    1.00
  -3  -6   3   -0.10    0.80
  -3  -6   3    0.40    1.20
  -3  -6   3   -0.90    0.60
  -3  -6   3   -1.30    0.90
   2   6  -3    4.90    1.10
   2   6  -3    4.40    1.10
   2   6  -3    5.50    0.90
   2   6  -3    4.20    1.20
   2   6  -3    5.30    0.90
  -2  -6   3    6.50    0.80
  -2  -6   3    5.30    0.70
  -2  -6   3    7.70    1.40
  -2  -6   3    4.20    1.20
  -2  -6   3    4.50    1.00
   1   6  -3    9.50    0.90
   1   6  -3    9.80    1.20
   1   6  -3    7.80    1.10
   1   6  -3   11.40    1.60
   1   6  -3   12.40    1.00
  -1  -6   3    9.80    0.80
  -1  -6   3   10.80    1.30
  -1  -6   3    9.90    1.40
  -1  -6   3   13.10    1.70
  -1  -6   3    9.90    0.70
  -1  -6   3    9.80    0.70
  -1  -6   3   11.20    1.40
   0   6  -3   40.80    2.40
   0   6  -3   40.10    2.20
   0  -6   3   43.00    2.50
   0  -6   3   40.20    2.60
   0  -6   3   42.30    2.30
   0  -6   3   41.40    2.20
   0  -6   3   40.00    1.60
   0  -6   3   42.30    2.30
  -1   6  -3   12.80    1.60
  -1   6  -3   17.00    1.50
   1  -6   3   15.20    1.80
   1  -6   3   13.80    1.10
   1  -6   3   17.10    1.90
   1  -6   3   16.50    1.70
   1  -6   3   16.20    1.60
   1  -6   3   15.90    1.20
   1  -6   3   15.60    1.80
  -2   6  -3   27.50    2.00
  -2   6  -3   27.00    2.10
   2  -6   3   29.10    2.30
   2  -6   3   28.40    1.30
   2  -6   3   27.20    2.10
   2  -6   3   32.40    1.80
   2  -6   3   29.20    2.00
   2  -6   3   26.90    2.30
   2  -6   3   27.10    2.20
  -3   6  -3  476.95   11.50
  -3   6  -3  496.15   12.80
  -3   6  -3  500.45   12.50
  -3   6  -3  492.35   11.60
  -3   6  -3  491.55   12.90
   3  -6   3  493.25   12.50
   3  -6   3  498.05   13.00
   3  -6   3  488.35   12.60
   3  -6   3  494.45   12.80
   3  -6   3  475.65   11.60
   3  -6   3  484.75   12.60
   3  -6   3  481.65   11.40
  -4   6  -3    1.30    1.00
  -4   6  -3    1.40    0.60
  -4   6  -3    1.40    0.80
  -4   6  -3    2.30    0.90
   4  -6   3    1.10    0.50
   4  -6   3    0.80    0.60
   4  -6   3    1.20    1.20
   4  -6   3    0.30    1.10
   4  -6   3    1.10    1.10
   4  -6   3    1.20    1.10
   4  -6   3   -0.80    1.10
  -5   6  -3    1.40    1.00
  -5   6  -3    2.00    1.00
  -5   6  -3    0.90    1.20
   5  -6   3    1.70    0.90
   5  -6   3   -1.40    1.70
   5  -6   3    3.20    1.90
   5  -6   3    1.00    0.70
  -6   6  -3   28.30    2.20
  -6   6  -3   28.90    2.70
  -6   6  -3   27.70    2.30
  -6   6  -3   26.40    2.70
   6  -6   3   31.00    2.00
   6  -6   3   25.50    2.60
   6  -6   3   30.30    2.40
   6  -6   3   29.50    3.60
  -7   6  -3    2.50    1.40
  -7   6  -3    5.10    1.80
  -7   6  -3    5.20    1.60
   7  -6   3    1.40    1.50
   7  -6   3    4.50    1.60
   7  -6   3    3.60    1.30
   7   5  -3    5.00    2.50
   7   5  -3    4.70    1.50
  -7  -5   3    6.60    2.50
  -7  -5   3    4.70    1.80
   6   5  -3  136.69    5.30
   6   5  -3  132.69    4.40
  -6  -5   3  130.09    4.90
  -6  -5   3  137.89    5.40
   5   5  -3   -2.60    1.20
   5   5  -3   -0.90    1.40
   5   5  -3    0.50    0.90
  -5  -5   3    0.40    1.30
  -5  -5   3    1.10    1.00
   4   5  -3  128.69    4.40
   4   5  -3  129.99    4.10
   4   5  -3  127.19    4.50
   4   5  -3  136.69    4.60
  -4  -5   3  130.59    4.30
  -4  -5   3  132.89    4.40
   3   5  -3   18.60    1.60
   3   5  -3   17.90    1.80
   3   5  -3   18.70    1.70
   3   5  -3   20.30    1.50
   3   5  -3   18.50    1.60
  -3  -5   3   16.80    1.30
  -3  -5   3   18.80    1.90
  -3  -5   3   18.70    1.50
   2   5  -3   22.60    1.50
   2   5  -3   23.90    1.80
   2   5  -3   21.10    1.40
   2   5  -3   22.30    1.60
  -2  -5   3   20.90    1.20
  -2  -5   3   22.90    1.90
  -2  -5   3   21.30    1.90
  -2  -5   3   21.70    1.20
   1   5  -3  162.68    4.90
   1   5  -3  160.38    5.10
   1   5  -3  163.28    4.30
   1   5  -3  164.18    4.80
  -1  -5   3  167.88    4.80
  -1  -5   3  159.18    4.10
  -1  -5   3  161.78    4.20
  -1  -5   3  158.48    4.20
  -1  -5   3  166.68    5.20
  -1  -5   3  166.18    5.10
  -1  -5   3  165.38    4.70
   0   5  -3  371.66    9.70
   0   5  -3  349.47    9.40
   0   5  -3  358.56    8.50
   0   5  -3  363.76    8.50
   0  -5   3  365.06    9.50
   0  -5   3  377.16    9.80
   0  -5   3  370.46    9.40
   0  -5   3  366.86    8.90
   0  -5   3  359.86    9.60
  -1   5  -3    8.70    1.00
  -1   5  -3    9.20    1.20
  -1   5  -3    9.00    1.20
   1  -5   3    8.30    1.20
   1  -5   3    8.30    0.90
   1  -5   3    8.70    1.20
   1  -5   3    6.80    0.90
   1  -5   3    6.40    1.00
   1  -5   3    6.10    1.20
   1  -5   3    7.80    0.70
  -2   5  -3  476.05   11.00
  -2   5  -3  487.55   12.20
  -2   5  -3  472.65   12.10
  -2   5  -3  489.55   11.10
   2  -5   3  473.95   11.00
   2  -5   3  485.55   11.80
   2  -5   3  455.55   12.10
   2  -5   3  471.85   11.20
   2  -5   3  481.35   11.90
   2  -5   3  419.36   13.70
   2  -5   3  487.55   11.00
   2  -5   3  476.65   12.20
  -3   5  -3    0.00    0.40
  -3   5  -3   -0.10    0.60
  -3   5  -3    0.30    0.50
  -3   5  -3    0.10    0.80
  -3   5  -3    1.60    0.70
   3  -5   3    1.20    0.90
   3  -5   3    0.70    0.70
   3  -5   3    0.70    0.40
   3  -5   3   -0.90    0.80
   3  -5   3    0.60    0.30
   3  -5   3    1.50    0.90
   3  -5   3    0.00    0.40
   3  -5   3    0.30    0.80
  -4   5  -3  153.18    4.80
  -4   5  -3  154.48    5.10
  -4   5  -3  148.69    4.30
  -4   5  -3  156.08    4.50
  -4   5  -3  154.08    4.70
   4  -5   3  154.68    4.40
   4  -5   3  143.09    5.20
   4  -5   3  157.18    4.30
   4  -5   3  155.58    4.80
   4  -5   3  158.28    5.00
  -5   5  -3   17.50    1.60
  -5   5  -3   22.80    1.80
  -5   5  -3   20.20    2.10
  -5   5  -3   17.80    1.90
   5  -5   3   12.80    1.50
   5  -5   3   16.20    2.00
   5  -5   3   19.30    1.50
   5  -5   3   17.40    1.70
  -6   5  -3    9.90    1.70
  -6   5  -3   10.70    1.50
  -6   5  -3    8.80    1.60
  -6   5  -3   14.10    1.70
   6  -5   3   11.10    1.30
   6  -5   3   12.80    1.70
   6  -5   3   11.30    1.60
   6  -5   3    8.80    2.00
  -7   5  -3   20.90    2.60
  -7   5  -3   20.00    2.70
  -7   5  -3   20.30    2.50
   7  -5   3   13.20    2.50
   7  -5   3   20.10    2.50
   7  -5   3   16.20    2.10
   7  -5   3   15.60    1.80
  -8   5  -3   20.50    2.20
  -8   5  -3   22.60    2.70
  -8   5  -3   18.50    2.50
   8  -5   3   16.20    2.20
   8  -5   3   21.40    2.80
   8  -5   3   22.10    2.60
   7   4  -3   11.50    1.20
   7   4  -3    9.20    2.20
   7   4  -3   10.40    1.20
   7   4  -3   10.30    0.90
  -7  -4   3   12.30    2.30
  -7  -4   3    9.10    1.80
   6   4  -3    4.50    1.90
   6   4  -3    2.90    0.50
   6   4  -3    1.00    0.80
   6   4  -3   -0.70    1.40
  -6  -4   3    2.60    1.20
  -6  -4   3    5.50    1.70
   5   4  -3   38.50    2.70
   5   4  -3   35.40    2.50
   5   4  -3   36.50    2.10
   5   4  -3   35.70    1.80
  -5  -4   3   37.30    2.60
  -5  -4   3   39.90    2.40
   4   4  -3   10.70    1.40
   4   4  -3   11.10    1.30
   4   4  -3    9.90    1.20
   4   4  -3   10.80    1.30
  -4  -4   3   10.10    1.30
  -4  -4   3   11.60    1.30
   3   4  -3  316.77    8.20
   3   4  -3  330.27    8.40
   3   4  -3  316.67    8.60
   3   4  -3  334.57    8.50
  -3  -4   3  322.47    8.40
  -3  -4   3  320.07    8.40
   2   4  -3  266.47    6.80
   2   4  -3  271.17    6.80
   2   4  -3  258.17    7.00
   2   4  -3  262.67    7.20
   2   4  -3  256.37    6.20
  -2  -4   3  266.07    7.20
  -2  -4   3  262.37    6.80
  -2  -4   3  265.47    6.80
  -2  -4   3  268.77    6.80
   1   4  -3   12.00    0.80
   1   4  -3   11.50    0.70
   1   4  -3   10.80    1.20
   1   4  -3   11.50    0.80
   1   4  -3    9.60    0.90
  -1  -4   3   11.60    0.70
  -1  -4   3   11.50    1.30
  -1  -4   3   11.60    0.70
  -1  -4   3   10.30    0.60
  -1  -4   3   11.00    1.00
  -1  -4   3   14.30    1.30
   0   4  -3   37.80    1.60
   0   4  -3   38.20    1.20
   0   4  -3   38.90    1.90
   0   4  -3   37.80    1.20
   0   4  -3   37.60    1.50
   0  -4   3   40.20    1.10
   0  -4   3   38.90    1.80
   0  -4   3   38.40    1.80
   0  -4   3   37.70    1.70
   0  -4   3   38.80    1.40
   0  -4   3   38.90    1.20
   0  -4   3   40.80    1.90
   0  -4   3   41.90    1.70
  -1   4  -3  156.88    4.40
  -1   4  -3  157.78    4.70
  -1   4  -3  157.58    3.90
  -1   4  -3  153.78    4.60
  -1   4  -3  160.18    3.90
   1  -4   3  158.28    4.60
   1  -4   3  166.08    4.40
   1  -4   3  161.28    4.50
   1  -4   3  159.88    4.70
   1  -4   3  159.28    4.40
   1  -4   3  154.68    4.70
   1  -4   3  159.88    3.90
   1  -4   3  159.18    3.90
  -2   4  -3  163.58    4.20
  -2   4  -3  168.78    4.90
  -2   4  -3  167.68    4.60
  -2   4  -3  162.18    4.80
  -2   4  -3  167.38    4.20
   2  -4   3  165.18    4.20
   2  -4   3  170.38    4.70
   2  -4   3  162.68    4.70
   2  -4   3  160.58    4.00
   2  -4   3  159.88    4.20
   2  -4   3  167.78    4.70
   2  -4   3  163.38    4.80
  -3   4  -3   78.69    3.10
  -3   4  -3   87.29    2.70
  -3   4  -3   79.69    2.50
  -3   4  -3   85.69    2.90
  -3   4  -3   84.39    2.80
   3  -4   3   84.99    2.60
   3  -4   3   83.29    2.90
   3  -4   3   88.59    3.00
   3  -4   3   84.29    2.50
  -4   4  -3    3.70    0.80
  -4   4  -3    3.50    0.80
  -4   4  -3    2.90    0.70
  -4   4  -3    4.20    0.90
  -4   4  -3    3.20    0.80
   4  -4   3    4.40    0.70
   4  -4   3    3.50    1.00
   4  -4   3    4.00    0.80
  -5   4  -3    9.80    1.20
  -5   4  -3   10.80    1.30
  -5   4  -3   11.90    1.40
   5  -4   3    9.80    1.20
   5  -4   3   11.40    1.40
   5  -4   3   11.50    1.40
  -6   4  -3  207.48    6.50
  -6   4  -3  208.38    6.00
  -6   4  -3  207.58    5.10
   6  -4   3  206.18    6.50
   6  -4   3  206.48    6.20
   6  -4   3  207.28    6.70
  -7   4  -3   -0.90    1.90
  -7   4  -3    0.50    0.70
  -7   4  -3    0.00    1.00
   7  -4   3    2.20    1.60
   7  -4   3    0.00    1.10
   7  -4   3    1.70    1.30
  -8   4  -3   27.10    2.50
  -8   4  -3   27.40    2.00
  -8   4  -3   29.80    3.60
   8  -4   3   21.90    2.50
   8  -4   3   24.90    2.70
   8  -4   3   31.80    3.80
   8   3  -3    4.00    2.10
   8   3  -3    6.20    1.50
  -8  -3   3    3.20    2.50
  -8  -3   3    7.60    2.00
   7   3  -3    6.20    1.20
   7   3  -3    5.80    0.90
   7   3  -3   12.50    3.70
   7   3  -3    8.50    2.10
  -7  -3   3    4.10    1.90
  -7  -3   3    3.90    1.40
   6   3  -3  120.59    3.60
   6   3  -3  114.79    4.80
   6   3  -3  117.69    3.40
   6   3  -3  129.29    4.80
  -6  -3   3  127.19    4.80
  -6  -3   3  121.69    4.70
   5   3  -3   12.10    1.60
   5   3  -3   15.70    1.10
   5   3  -3   16.40    1.10
   5   3  -3   17.60    1.90
   5   3  -3   17.40    1.30
   5   3  -3   16.00    1.10
  -5  -3   3   17.00    1.70
   4   3  -3  255.07    6.80
   4   3  -3  263.47    7.20
   4   3  -3  242.78    6.30
   4   3  -3  263.77    7.20
   4   3  -3  248.98    6.20
  -4  -3   3  264.47    7.10
  -4  -3   3  261.07    7.10
   3   3  -3   25.00    1.40
   3   3  -3   21.10    0.90
   3   3  -3   26.80    1.20
   3   3  -3   26.90    1.60
   3   3  -3   25.50    1.50
  -3  -3   3   25.90    1.50
  -3  -3   3   26.90    1.50
   2   3  -3  856.51   20.00
   2   3  -3  850.11   20.00
   2   3  -3  841.92   19.50
   2   3  -3  827.52   19.80
   2   3  -3  854.91   20.20
  -2  -3   3  843.72   19.80
  -2  -3   3  848.52   20.00
  -2  -3   3  865.71   20.00
   1   3  -3    1.20    0.40
   1   3  -3    1.70    0.30
   1   3  -3    0.80    0.40
   1   3  -3    1.10    0.50
   1   3  -3    0.90    0.40
  -1  -3   3    1.60    0.40
  -1  -3   3    1.60    0.50
  -1  -3   3    1.20    0.30
  -1  -3   3    0.80    0.30
  -1  -3   3    1.70    0.30
   0   3  -3   64.59    2.20
   0   3  -3   65.79    2.00
   0   3  -3   63.49    2.30
   0   3  -3   66.79    1.80
   0   3  -3   65.49    1.80
   0   3  -3   66.59    2.00
   0  -3   3   60.89    2.00
   0  -3   3   61.69    2.10
   0  -3   3   63.69    1.70
   0  -3   3   64.49    1.80
   0  -3   3   65.79    2.20
   0  -3   3   63.89    1.90
  -1   3  -3  289.87    7.10
  -1   3  -3  304.77    7.50
  -1   3  -3  288.87    7.10
  -1   3  -3  302.27    7.70
  -1   3  -3  302.77    7.60
   1  -3   3  298.47    7.40
   1  -3   3  297.27    7.40
   1  -3   3  299.97    7.40
   1  -3   3  299.07    7.60
   1  -3   3  296.67    7.10
   1  -3   3  301.67    7.10
  -2   3  -3   74.89    2.60
  -2   3  -3   73.69    2.20
  -2   3  -3   75.39    2.30
  -2   3  -3   76.99    2.30
  -2   3  -3   71.59    2.40
  -2   3  -3   76.09    2.60
   2  -3   3   72.19    2.40
   2  -3   3   75.59    2.20
   2  -3   3   74.19    2.50
   2  -3   3   71.49    2.20
  -3   3  -3   73.09    2.40
  -3   3  -3   72.29    2.40
  -3   3  -3   72.49    2.70
  -3   3  -3   71.89    2.50
  -3   3  -3   72.29    2.40
   3  -3   3   77.19    2.50
   3  -3   3   73.49    2.50
   3  -3   3   76.59    2.70
   3  -3   3   73.19    2.40
  -4   3  -3  226.98    6.20
  -4   3  -3  231.88    6.10
  -4   3  -3  230.28    6.00
  -4   3  -3  223.78    5.40
  -4   3  -3  237.38    6.40
   4  -3   3  220.88    6.20
   4  -3   3  229.08    6.40
   4  -3   3  241.28    6.30
  -5   3  -3  554.44   13.90
  -5   3  -3  550.64   13.50
  -5   3  -3  530.25   12.90
   5  -3   3  563.44   14.00
   5  -3   3  538.15   13.80
   5  -3   3  560.84   13.90
  -6   3  -3    3.40    0.70
  -6   3  -3    2.00    0.70
  -6   3  -3    3.80    1.40
   6  -3   3    4.10    1.10
   6  -3   3    3.60    1.40
   6  -3   3    3.90    1.10
  -7   3  -3   26.90    3.20
  -7   3  -3   32.70    1.90
  -7   3  -3   32.90    1.90
   7  -3   3   27.30    2.30
   7  -3   3   30.60    2.70
   7  -3   3   22.80    2.90
  -8   3  -3   94.89    3.60
  -8   3  -3   92.29    3.70
  -8   3  -3  102.49    4.80
   8  -3   3   87.59    4.30
   8  -3   3   97.59    5.30
   8  -3   3   95.89    4.60
   8   2  -3   -1.40    1.70
   8   2  -3    2.70    1.50
  -8  -2   3   -0.20    1.50
  -8  -2   3    0.40    2.30
   7   2  -3   69.29    3.70
   7   2  -3   66.59    2.90
   7   2  -3   61.79    2.10
   7   2  -3   63.29    4.00
  -7  -2   3   69.19    3.90
  -7  -2   3   66.09    3.50
  -7  -2   3   71.09    3.60
   6   2  -3   15.50    1.90
   6   2  -3   19.40    1.20
   6   2  -3   17.70    2.20
   6   2  -3   17.40    1.70
   6   2  -3   18.10    1.10
  -6  -2   3   19.70    2.10
  -6  -2   3   19.20    2.10
  -6  -2   3   18.90    2.20
   5   2  -3   18.40    1.20
   5   2  -3   17.70    1.90
   5   2  -3   19.30    1.90
   5   2  -3   18.60    1.00
  -5  -2   3   21.40    1.70
  -5  -2   3   17.60    1.90
   4   2  -3   67.99    1.90
   4   2  -3   71.39    2.70
   4   2  -3   70.29    2.30
   4   2  -3   73.19    2.80
  -4  -2   3   74.89    2.80
  -4  -2   3   68.99    2.70
   3   2  -3   66.19    2.30
   3   2  -3   60.49    1.70
   3   2  -3   61.19    1.90
   3   2  -3   62.69    2.10
   3   2  -3   59.39    2.30
  -3  -2   3   58.99    2.30
  -3  -2   3   62.79    2.30
   2   2  -3   26.00    1.20
   2   2  -3   24.40    1.20
   2   2  -3   24.90    0.90
   2   2  -3   24.80    1.20
  -2  -2   3   25.50    1.20
  -2  -2   3   24.60    0.90
  -2  -2   3   24.90    1.20
   1   2  -3    1.40    0.30
   1   2  -3    1.20    0.30
   1   2  -3    0.90    0.30
  -1  -2   3    1.40    0.30
  -1  -2   3    0.90    0.30
  -1  -2   3    1.60    0.30
  -1  -2   3    1.20    0.30
   0   2  -3 1556.74   36.50
   0   2  -3 1535.75   35.80
   0   2  -3 1592.74   36.40
   0   2  -3 1551.74   36.60
   0   2  -3 1547.25   36.00
   0  -2   3 1513.95   35.50
   0  -2   3 1551.64   36.20
   0  -2   3 1603.74   35.70
   0  -2   3 1426.26   36.10
   0  -2   3 1576.04   36.90
   0  -2   3 1545.95   36.40
  -1   2  -3  383.66    9.10
  -1   2  -3  368.36    9.00
  -1   2  -3  358.26    8.80
  -1   2  -3  374.56    8.90
   1  -2   3  367.16    8.80
   1  -2   3  378.26    8.90
   1  -2   3  366.36    8.60
   1  -2   3  368.06    8.90
   1  -2   3  383.46    9.00
   1  -2   3  369.56    8.80
  -2   2  -3  421.26   10.20
  -2   2  -3  422.36   10.10
  -2   2  -3  425.56   10.30
  -2   2  -3  435.26   10.50
  -2   2  -3  406.56   10.20
   2  -2   3  424.36   10.20
   2  -2   3  434.56   10.30
   2  -2   3  407.76   10.20
   2  -2   3  443.56   10.40
  -3   2  -3  582.64   14.00
  -3   2  -3  590.24   14.00
  -3   2  -3  581.34   14.40
  -3   2  -3  609.94   14.30
  -3   2  -3  583.24   14.20
   3  -2   3  596.34   14.40
   3  -2   3  585.84   14.30
   3  -2   3  599.54   14.30
  -4   2  -3  375.26    9.10
  -4   2  -3  371.96    9.60
  -4   2  -3  364.36    8.80
  -4   2  -3  368.66    8.90
   4  -2   3  363.16    9.50
   4  -2   3  371.86    9.60
   4  -2   3  370.96    9.50
  -5   2  -3   97.49    3.00
  -5   2  -3   99.19    3.60
  -5   2  -3   99.89    3.80
  -5   2  -3   96.79    2.90
  -5   2  -3   94.19    2.60
   5  -2   3   97.09    3.50
   5  -2   3  100.99    3.60
   5  -2   3  103.79    3.70
  -6   2  -3   66.49    3.10
  -6   2  -3   63.99    2.30
  -6   2  -3   60.19    2.40
  -6   2  -3   62.99    3.40
   6  -2   3   65.99    3.00
   6  -2   3   61.49    3.30
   6  -2   3   60.79    3.00
  -7   2  -3    5.70    1.80
  -7   2  -3    7.40    1.40
  -7   2  -3    8.00    1.10
   7  -2   3    8.10    2.00
   7  -2   3    7.20    1.40
  -8   2  -3   -0.80    1.50
  -8   2  -3    1.90    1.10
   8  -2   3    1.90    1.60
   8  -2   3    0.70    2.20
   8  -2   3    1.10    1.50
   8   1  -3    9.70    1.00
   8   1  -3    9.50    1.90
   8   1  -3   10.10    3.00
   8   1  -3   10.40    1.80
  -8  -1   3   12.40    2.40
  -8  -1   3    9.50    2.30
  -8  -1   3    9.20    2.00
   7   1  -3  110.99    4.80
   7   1  -3  119.59    4.10
   7   1  -3  113.29    4.70
  -7  -1   3  105.39    4.70
  -7  -1   3  107.39    4.40
  -7  -1   3  118.69    4.60
   6   1  -3  146.19    5.10
   6   1  -3  156.38    5.20
   6   1  -3  138.49    3.90
  -6  -1   3  145.79    4.80
  -6  -1   3  157.98    5.20
  -6  -1   3  151.18    5.10
   5   1  -3  103.19    3.70
   5   1  -3  100.09    2.90
   5   1  -3  106.89    3.80
  -5  -1   3  102.89    3.70
  -5  -1   3  104.49    3.60
  -5  -1   3  101.99    3.70
   4   1  -3  917.81   21.60
   4   1  -3  878.11   21.50
  -4  -1   3  879.01   21.50
  -4  -1   3  887.31   21.40
  -4  -1   3  919.61   21.50
   3   1  -3  680.73   15.70
   3   1  -3  643.84   15.70
  -3  -1   3  658.83   15.70
  -3  -1   3  626.04   15.60
  -3  -1   3  647.24   15.70
   2   1  -3 1401.56   31.30
   2   1  -3 1325.17   31.10
   2   1  -3 1364.06   31.10
  -2  -1   3 1334.47   31.00
  -2  -1   3 1313.57   31.00
  -2  -1   3 1295.77   31.10
   1   1  -3 2470.75   55.69
   1   1  -3 2366.56   55.89
   1   1  -3 2354.16   55.19
  -1  -1   3 2419.16   55.79
  -1  -1   3 2188.48   54.79
  -1  -1   3 2353.06   55.09
  -1  -1   3 2421.56   55.79
  -1  -1   3 2353.86   54.99
   0   1  -3 1508.45   35.50
   0   1  -3 1437.56   34.50
   0   1  -3 1503.75   35.10
   0   1  -3 1488.25   35.10
   0   1  -3 1502.45   35.50
   0   1  -3 1507.25   35.70
   0  -1   3 1496.25   35.40
   0  -1   3 1503.55   35.10
   0  -1   3 1536.15   35.60
   0  -1   3 1467.95   35.30
  -1   1  -3  216.08    5.20
  -1   1  -3  216.28    5.40
  -1   1  -3  218.88    5.50
  -1   1  -3  222.28    5.50
   1  -1   3  225.88    5.50
   1  -1   3  218.18    5.40
   1  -1   3  208.68    5.20
   1  -1   3  219.08    5.40
  -2   1  -3  389.96    9.40
  -2   1  -3  355.06    9.00
  -2   1  -3  385.06    9.30
  -2   1  -3  388.16    9.40
   2  -1   3  360.76    9.30
   2  -1   3  384.96    9.00
   2  -1   3  393.96    9.30
   2  -1   3  390.66    9.30
  -3   1  -3    7.40    0.90
  -3   1  -3    9.30    1.10
  -3   1  -3    7.00    0.50
  -3   1  -3    7.30    0.80
   3  -1   3    7.50    0.90
   3  -1   3    8.10    0.90
   3  -1   3    7.20    0.80
  -4   1  -3   87.29    3.20
  -4   1  -3   83.39    2.40
  -4   1  -3   86.79    3.10
   4  -1   3   84.59    3.00
   4  -1   3   89.99    3.20
   4  -1   3   88.09    3.00
  -5   1  -3  187.28    5.80
  -5   1  -3  182.88    4.80
  -5   1  -3  194.18    5.70
   5  -1   3  183.58    5.80
   5  -1   3  184.08    5.50
   5  -1   3  190.48    5.70
  -6   1  -3   67.09    3.50
  -6   1  -3   69.09    2.30
  -6   1  -3   66.29    3.10
   6  -1   3   62.09    3.10
   6  -1   3   69.19    3.00
   6  -1   3   67.99    3.40
  -7   1  -3  157.28    4.40
  -7   1  -3  141.99    5.90
  -7   1  -3  160.08    5.10
   7  -1   3  150.98    5.50
   7  -1   3  152.28    6.00
   7  -1   3  159.38    5.30
  -8   1  -3   10.60    1.20
  -8   1  -3   10.80    2.10
  -8   1  -3    8.40    1.90
   8  -1   3   11.90    2.20
   8  -1   3   11.00    1.90
   9   0  -3   -1.50    1.80
   9   0  -3    3.40    2.00
  -9   0   3   -3.20    2.20
   8   0  -3   16.40    2.20
   8   0  -3   15.00    2.50
   8   0  -3   15.20    1.70
   8   0  -3   19.50    2.20
  -8   0   3   16.20    2.20
  -8   0   3   18.60    2.50
  -8   0   3   12.60    2.40
   7   0  -3   76.29    2.50
   7   0  -3   79.59    4.00
   7   0  -3   72.69    3.60
  -7   0   3   76.09    3.80
  -7   0   3   77.99    3.80
  -7   0   3   76.69    3.50
   6   0  -3   -2.60    1.00
   6   0  -3   -0.70    0.90
   6   0  -3    0.50    0.40
   6   0  -3    0.80    0.50
  -6   0   3   -0.20    0.80
  -6   0   3    0.30    0.90
  -6   0   3    1.80    1.10
   5   0  -3  399.36    9.50
   5   0  -3  399.16   10.50
  -5   0   3  406.76   10.50
  -5   0   3  400.86   10.50
   4   0  -3  208.48    5.20
   4   0  -3  215.28    6.00
   4   0  -3  204.78    5.90
  -4   0   3  216.48    6.00
  -4   0   3  221.78    6.00
  -4   0   3  221.88    5.80
   3   0  -3  115.09    3.40
   3   0  -3  115.49    3.30
   3   0  -3  115.89    3.40
  -3   0   3  112.49    3.40
  -3   0   3  116.39    3.30
   2   0  -3  245.28    6.00
   2   0  -3  245.28    6.00
   2   0  -3  226.48    6.00
  -2   0   3  239.58    5.90
  -2   0   3  239.98    6.10
  -2   0   3  228.78    5.60
  -2   0   3  241.58    6.00
   1   0  -3   14.50    0.80
   1   0  -3   13.40    0.70
   1   0  -3   14.40    0.80
   1   0  -3   14.30    0.80
  -1   0   3   14.70    0.80
  -1   0   3   13.90    0.70
  -1   0   3   14.40    0.80
   0   0  -3   21.10    0.60
   0   0  -3   20.80    0.90
   0   0  -3   20.40    0.80
   0   0  -3   21.90    0.90
   0   0   3   21.00    0.90
   0   0   3   21.70    0.90
   0   0   3   23.10    0.90
  -1   0  -3  252.07    6.20
  -1   0  -3  255.07    6.30
  -1   0  -3  253.77    6.30
  -1   0  -3  251.17    6.20
   1   0   3  251.77    6.20
   1   0   3  258.97    6.30
   1   0   3  251.97    6.20
   1   0   3  257.47    6.30
  -2   0  -3  946.51   22.40
  -2   0  -3  935.11   22.20
  -2   0  -3  932.21   22.30
  -2   0  -3  946.61   22.50
   2   0   3  978.90   22.50
   2   0   3  973.90   22.50
   2   0   3  968.80   22.30
  -3   0  -3  306.97    7.50
  -3   0  -3  324.17    8.10
  -3   0  -3  320.17    8.30
  -3   0  -3  332.27    8.30
   3   0   3  313.67    8.30
   3   0   3  332.77    8.10
   3   0   3  331.67    8.30
  -4   0  -3    3.60    0.70
  -4   0  -3    3.60    0.80
  -4   0  -3    5.60    0.90
   4   0   3    4.60    0.90
   4   0   3    7.00    0.80
   4   0   3    3.90    1.00
  -5   0  -3  155.38    5.10
  -5   0  -3  149.19    3.90
   5   0   3  152.78    4.50
   5   0   3  147.79    5.00
   5   0   3  149.99    4.90
  -6   0  -3    4.30    1.60
  -6   0  -3    3.40    0.60
   6   0   3    2.70    1.00
   6   0   3    1.10    1.20
   6   0   3    3.80    1.50
  -7   0  -3    1.20    1.70
  -7   0  -3    2.20    0.70
  -7   0  -3    1.50    1.40
   7   0   3    1.20    1.90
   7   0   3    0.10    1.30
   7   0   3    2.10    1.20
  -8   0  -3    4.20    1.90
  -8   0  -3    6.20    0.90
   8   0   3    6.40    2.00
   8   0   3    8.80    2.20
   9  -1  -3    1.90    2.00
   9  -1  -3    6.00    2.00
   9  -1  -3    8.00    1.70
  -9   1   3    4.00    2.20
  -9   1   3    9.40    2.50
   8  -1  -3   31.20    2.20
   8  -1  -3   31.10    2.60
   8  -1  -3   27.40    3.40
  -8   1   3   20.70    3.10
  -8   1   3   32.80    3.00
  -8   1   3   28.90    3.30
   7  -1  -3   55.59    3.00
   7  -1  -3   54.09    3.30
   7  -1  -3   54.49    2.30
  -7   1   3   52.39    3.20
  -7   1   3   54.29    3.10
  -7   1   3   53.19    2.90
   6  -1  -3  149.99    5.10
   6  -1  -3  143.49    4.10
   6  -1  -3  149.49    4.90
  -6   1   3  144.89    4.60
  -6   1   3  147.39    5.00
  -6   1   3  146.29    5.00
   5  -1  -3    2.40    0.90
   5  -1  -3    2.80    0.60
   5  -1  -3    2.20    0.80
  -5   1   3    2.20    0.80
  -5   1   3    3.30    0.90
  -5   1   3    2.90    0.80
   4  -1  -3  252.07    6.70
   4  -1  -3  249.28    6.70
   4  -1  -3  249.48    6.50
   4  -1  -3  242.28    6.20
  -4   1   3  251.37    6.50
  -4   1   3  244.78    6.70
  -4   1   3  241.68    6.60
   3  -1  -3 2341.67   53.79
   3  -1  -3 2294.17   53.49
   3  -1  -3 2289.37   53.49
   3  -1  -3 2406.06   54.39
  -3   1   3 2170.28   53.49
  -3   1   3 2339.77   54.09
  -3   1   3 2367.56   54.29
  -3   1   3 2343.67   53.39
   2  -1  -3   25.20    1.10
   2  -1  -3   26.80    1.10
   2  -1  -3   26.80    1.20
  -2   1   3   27.10    1.10
  -2   1   3   26.60    1.10
  -2   1   3   26.40    0.90
  -2   1   3   25.30    1.20
   1  -1  -3  131.99    3.40
   1  -1  -3  121.39    3.20
   1  -1  -3  128.39    3.50
   1  -1  -3  130.69    3.40
  -1   1   3  137.79    3.50
  -1   1   3  134.69    3.40
   0  -1  -3  118.19    3.10
   0  -1  -3  120.69    3.00
   0  -1  -3  109.29    3.10
   0  -1  -3  114.49    3.10
   0  -1  -3  120.09    3.10
   0   1   3  121.29    3.20
   0   1   3  113.99    3.10
   0   1   3  118.39    3.10
   0   1   3  112.99    3.10
  -1  -1  -3  352.16    8.30
  -1  -1  -3  327.67    8.40
  -1  -1  -3  352.96    8.40
  -1  -1  -3  352.66    8.50
   1   1   3  350.66    8.50
   1   1   3  343.77    8.00
   1   1   3  347.47    8.30
   1   1   3  341.47    8.50
   1   1   3  346.17    8.30
  -2  -1  -3    7.30    0.80
  -2  -1  -3    7.20    0.90
  -2  -1  -3    6.70    0.70
  -2  -1  -3    7.20    0.70
   2   1   3    7.40    0.80
   2   1   3    7.10    0.60
   2   1   3    7.00    0.90
  -3  -1  -3  312.67    8.40
  -3  -1  -3  321.67    8.30
  -3  -1  -3  315.77    8.00
   3   1   3  331.87    8.40
   3   1   3  322.57    7.90
   3   1   3  324.67    8.40
  -4  -1  -3  323.37    8.40
  -4  -1  -3  354.06    9.10
  -4  -1  -3  327.77    8.80
   4   1   3  321.37    8.80
   4   1   3  332.67    8.30
   4   1   3  331.77    9.00
  -5  -1  -3   -1.30    1.00
  -5  -1  -3    0.80    0.60
  -5  -1  -3    0.10    0.80
   5   1   3    0.30    0.70
   5   1   3   -0.10    0.80
   5   1   3    1.60    1.10
  -6  -1  -3  116.19    5.00
   6   1   3  129.29    4.80
   6   1   3  121.59    5.00
   6   1   3  130.99    4.10
  -7  -1  -3   21.20    2.90
  -7  -1  -3   29.20    2.60
   7   1   3   27.10    2.40
   7   1   3   26.30    3.00
   9  -2  -3    2.80    1.90
   9  -2  -3    2.30    1.70
   9  -2  -3    3.20    2.50
   9  -2  -3    2.00    1.70
  -9   2   3    1.20    2.20
  -9   2   3    1.70    2.10
   8  -2  -3   43.30    3.50
   8  -2  -3   39.80    3.00
   8  -2  -3   39.80    2.70
   8  -2  -3   44.50    3.20
  -8   2   3   41.00    3.20
  -8   2   3   46.90    3.40
   7  -2  -3  401.46    9.50
   7  -2  -3  395.06   11.00
   7  -2  -3  340.37   12.80
   7  -2  -3  404.36   10.10
  -7   2   3  405.66   10.50
  -7   2   3  424.66   11.10
  -7   2   3  396.46   10.90
   6  -2  -3   24.90    2.20
   6  -2  -3   21.00    1.90
   6  -2  -3   23.20    1.70
  -6   2   3   23.30    2.10
  -6   2   3   20.60    2.00
  -6   2   3   27.60    1.90
   5  -2  -3  248.58    6.80
   5  -2  -3  245.18    7.00
   5  -2  -3  254.07    7.00
   5  -2  -3  248.88    6.60
  -5   2   3  258.77    7.10
  -5   2   3  252.97    6.70
  -5   2   3  261.17    7.10
   4  -2  -3   71.79    2.40
   4  -2  -3   71.39    2.60
   4  -2  -3   74.09    2.70
   4  -2  -3   73.49    2.50
  -4   2   3   75.49    2.50
  -4   2   3   71.09    2.60
  -4   2   3   71.89    2.60
   3  -2  -3   88.89    2.80
   3  -2  -3   86.39    2.70
   3  -2  -3   85.49    2.70
   3  -2  -3   91.79    2.70
  -3   2   3   85.79    2.70
  -3   2   3   86.99    2.50
  -3   2   3   87.29    2.70
  -3   2   3   89.19    2.70
  -3   2   3   82.49    2.70
   2  -2  -3   98.39    2.70
   2  -2  -3   93.99    2.80
   2  -2  -3   97.79    2.80
   2  -2  -3   94.49    2.80
  -2   2   3   96.89    2.70
  -2   2   3   97.99    2.90
  -2   2   3   99.09    2.90
  -2   2   3   96.19    2.70
   1  -2  -3  243.58    5.90
   1  -2  -3  230.68    6.10
   1  -2  -3  246.38    5.90
   1  -2  -3  234.28    6.00
   1  -2  -3  242.48    5.90
  -1   2   3  235.48    6.00
  -1   2   3  237.88    6.10
  -1   2   3  244.48    5.90
   0  -2  -3  203.58    5.10
   0  -2  -3  198.08    5.20
   0  -2  -3  209.88    5.10
   0  -2  -3  205.38    5.10
   0  -2  -3  183.68    5.00
   0   2   3  204.78    5.10
   0   2   3  207.68    5.00
   0   2   3  183.78    5.30
   0   2   3  200.68    5.10
   0   2   3  205.48    5.20
  -1  -2  -3  328.27    8.10
  -1  -2  -3  324.07    7.90
  -1  -2  -3  317.57    7.70
  -1  -2  -3  335.37    8.10
   1   2   3  307.37    8.00
   1   2   3  326.47    8.00
   1   2   3  322.17    7.80
   1   2   3  308.47    8.00
  -2  -2  -3  438.96   10.80
  -2  -2  -3  439.16   10.50
  -2  -2  -3  439.46   10.90
  -2  -2  -3  429.76   10.80
   2   2   3  436.16   10.40
   2   2   3  441.16   10.90
   2   2   3  446.06   10.90
   2   2   3  427.96   10.70
  -3  -2  -3  449.16   11.30
  -3  -2  -3  461.05   11.50
  -3  -2  -3  447.56   10.80
   3   2   3  449.26   10.70
   3   2   3  436.76   11.40
   3   2   3  442.86   11.30
  -4  -2  -3  105.19    3.20
  -4  -2  -3  112.79    3.60
  -4  -2  -3  101.59    3.40
  -4  -2  -3  106.29    4.00
   4   2   3  100.29    3.80
   4   2   3  106.49    3.10
   4   2   3  103.29    3.80
  -5  -2  -3   30.60    2.60
  -5  -2  -3   27.00    1.80
  -5  -2  -3   25.60    2.00
   5   2   3   28.40    2.50
   5   2   3   29.50    1.60
   5   2   3   27.80    2.40
  -6  -2  -3   43.20    3.50
  -6  -2  -3   48.60    2.20
  -6  -2  -3   45.80    2.80
   6   2   3   51.99    3.30
   6   2   3   48.60    3.60
   6   2   3   47.90    2.30
  -7  -2  -3   -0.90    2.20
  -7  -2  -3   -0.70    1.50
   7   2   3   -0.50    1.80
   7   2   3   -0.50    1.20
   9  -3  -3   13.10    2.40
   9  -3  -3   10.60    2.20
   9  -3  -3   11.20    2.70
   9  -3  -3   13.10    2.20
  -9   3   3   17.30    2.20
  -9   3   3    9.70    2.80
  -9   3   3   11.00    2.40
   8  -3  -3    0.30    0.60
   8  -3  -3   -1.60    1.30
   8  -3  -3    1.80    1.50
   8  -3  -3    3.60    1.80
   8  -3  -3    0.70    1.30
  -8   3   3    1.60    1.20
  -8   3   3    0.40    1.60
  -8   3   3   -0.90    1.70
   7  -3  -3   26.30    2.30
   7  -3  -3   21.20    2.10
   7  -3  -3   27.80    2.70
   7  -3  -3   24.80    1.60
  -7   3   3   24.60    2.30
  -7   3   3   23.00    2.60
  -7   3   3   26.70    2.50
   6  -3  -3   66.69    3.00
   6  -3  -3   64.39    2.90
   6  -3  -3   63.19    2.60
   6  -3  -3   58.99    2.40
   6  -3  -3   56.29    3.10
  -6   3   3   63.09    2.70
  -6   3   3   60.19    3.00
  -6   3   3   63.69    3.00
   5  -3  -3    7.50    1.10
   5  -3  -3    9.00    1.10
   5  -3  -3    8.10    1.10
   5  -3  -3    7.70    1.10
  -5   3   3    8.90    1.20
  -5   3   3    9.20    1.20
  -5   3   3    7.90    1.00
  -5   3   3    7.20    1.00
   4  -3  -3  100.09    3.20
   4  -3  -3  101.09    3.20
   4  -3  -3  101.79    3.10
   4  -3  -3   96.79    3.30
  -4   3   3  100.29    3.20
  -4   3   3   97.79    3.30
  -4   3   3   99.29    3.10
  -4   3   3   93.69    3.20
   3  -3  -3   75.69    2.40
   3  -3  -3   73.19    2.60
   3  -3  -3   74.69    2.40
   3  -3  -3   75.49    2.50
  -3   3   3   74.39    2.50
  -3   3   3   75.89    2.40
  -3   3   3   73.49    2.50
  -3   3   3   73.89    2.40
  -3   3   3   74.09    2.60
  -3   3   3   77.19    2.70
   2  -3  -3  200.28    5.40
   2  -3  -3  213.18    5.60
   2  -3  -3  201.88    5.30
   2  -3  -3  201.18    5.20
   2  -3  -3  198.58    5.20
  -2   3   3  202.48    5.40
  -2   3   3  195.88    5.20
  -2   3   3  199.88    5.60
  -2   3   3  204.68    5.40
  -2   3   3  203.58    5.10
   1  -3  -3 1698.43   39.80
   1  -3  -3 1697.53   40.00
   1  -3  -3 1729.43   40.10
   1  -3  -3 1726.43   40.10
   1  -3  -3 1753.02   40.60
  -1   3   3 1736.43   40.30
  -1   3   3 1703.93   40.10
  -1   3   3 1788.82   40.60
  -1   3   3 1715.23   40.00
  -1   3   3 1740.43   40.10
   0  -3  -3   47.10    1.70
   0  -3  -3   46.60    1.60
   0  -3  -3   44.70    1.80
   0  -3  -3   43.50    1.80
   0  -3  -3   43.60    1.60
   0   3   3   42.90    1.60
   0   3   3   46.30    1.90
   0   3   3   47.50    1.80
   0   3   3   44.30    1.60
   0   3   3   39.80    1.90
  -1  -3  -3   75.99    2.60
  -1  -3  -3   75.09    2.40
  -1  -3  -3   73.29    2.20
  -1  -3  -3   71.69    2.50
   1   3   3   78.29    2.50
   1   3   3   73.89    2.50
   1   3   3   72.29    2.20
   1   3   3   72.79    2.50
  -2  -3  -3  154.68    4.00
  -2  -3  -3  154.48    4.40
  -2  -3  -3  154.58    3.90
  -2  -3  -3  153.18    4.60
  -2  -3  -3  152.98    4.60
   2   3   3  155.78    4.00
   2   3   3  154.38    4.50
   2   3   3  152.48    4.50
   2   3   3  155.58    4.50
  -3  -3  -3   10.90    0.90
  -3  -3  -3   11.80    1.30
  -3  -3  -3   10.70    0.70
  -3  -3  -3   14.30    1.60
  -3  -3  -3   12.10    1.50
  -3  -3  -3    9.40    1.10
   3   3   3   10.20    0.90
   3   3   3   10.80    1.20
   3   3   3   13.30    1.50
   3   3   3    8.50    1.20
  -4  -3  -3   76.49    3.00
  -4  -3  -3   75.29    3.40
  -4  -3  -3   78.39    3.10
  -4  -3  -3   72.79    2.00
  -4  -3  -3   77.69    3.10
  -4  -3  -3   74.39    2.50
   4   3   3   74.59    2.40
   4   3   3   71.49    3.20
   4   3   3   73.69    3.40
  -5  -3  -3   81.59    3.50
  -5  -3  -3   88.79    3.50
  -5  -3  -3   88.09    4.00
   5   3   3   91.29    3.90
   5   3   3   86.79    4.10
   5   3   3   85.29    2.80
  -6  -3  -3    0.60    1.40
  -6  -3  -3    1.90    1.20
  -6  -3  -3   -0.10    1.70
   6   3   3    1.40    1.60
   6   3   3    0.20    0.90
  -7  -3  -3    1.70    1.70
  -7  -3  -3    5.00    4.50
   7   3   3    1.70    1.30
   7   3   3    5.10    2.30
   8  -4  -3   37.80    2.90
   8  -4  -3   37.20    3.50
   8  -4  -3   41.20    3.40
   8  -4  -3   35.50    3.40
   8  -4  -3   35.40    2.10
  -8   4   3   41.70    3.20
  -8   4   3   37.10    2.80
  -8   4   3   42.30    3.70
  -8   4   3   36.80    3.40
   7  -4  -3   30.00    2.70
   7  -4  -3   22.40    2.60
   7  -4  -3   25.40    2.00
   7  -4  -3   24.10    2.30
  -7   4   3   24.20    2.80
  -7   4   3   23.10    2.30
  -7   4   3   27.30    2.70
  -7   4   3   25.60    2.60
  -7   4   3   20.70    2.20
   6  -4  -3  253.07    7.10
   6  -4  -3  266.07    7.30
   6  -4  -3  247.98    7.10
   6  -4  -3  246.88    7.30
   6  -4  -3  251.27    7.20
  -6   4   3  251.97    7.40
  -6   4   3  259.97    7.30
  -6   4   3  248.68    7.00
  -6   4   3  247.18    7.20
  -6   4   3  257.97    7.30
   5  -4  -3   -0.70    0.70
   5  -4  -3    0.90    0.70
   5  -4  -3    1.60    0.70
   5  -4  -3    0.80    1.00
   5  -4  -3   -0.20    1.00
  -5   4   3   -0.40    0.70
  -5   4   3    1.00    0.90
  -5   4   3   -0.50    0.70
  -5   4   3   -0.50    0.80
  -5   4   3   -0.20    0.80
   4  -4  -3   51.89    2.50
   4  -4  -3   49.10    2.10
   4  -4  -3   50.69    2.10
   4  -4  -3   51.89    2.10
  -4   4   3   50.09    2.20
  -4   4   3   51.39    2.40
  -4   4   3   53.89    2.10
  -4   4   3   51.79    2.20
  -4   4   3   52.69    2.40
  -4   4   3   52.29    2.20
   3  -4  -3  138.09    4.40
   3  -4  -3  138.89    4.10
   3  -4  -3  137.19    4.40
   3  -4  -3  145.69    3.90
   3  -4  -3  136.79    3.80
   3  -4  -3  132.79    4.10
  -3   4   3  131.69    3.90
  -3   4   3  136.19    4.10
  -3   4   3  141.49    4.40
  -3   4   3  135.19    4.10
  -3   4   3  138.99    4.30
  -3   4   3  136.79    3.80
   2  -4  -3  490.75   12.00
   2  -4  -3  513.05   12.40
   2  -4  -3  496.55   11.90
   2  -4  -3  514.65   12.40
  -2   4   3  518.45   11.90
  -2   4   3  488.55   12.30
  -2   4   3  494.65   12.40
  -2   4   3  503.85   12.70
  -2   4   3  479.05   12.00
   1  -4  -3  961.30   23.00
   1  -4  -3 1004.50   23.60
   1  -4  -3 1018.60   23.50
   1  -4  -3  964.30   23.00
   1  -4  -3 1004.00   23.50
  -1   4   3  981.10   23.40
  -1   4   3  954.60   24.00
  -1   4   3  959.70   23.10
  -1   4   3 1004.80   23.80
  -1   4   3 1034.50   23.00
   0  -4  -3  753.92   17.70
   0  -4  -3  737.23   17.60
   0  -4  -3  748.93   18.10
   0  -4  -3  755.42   18.10
   0  -4  -3  752.92   17.60
   0   4   3  733.63   17.80
   0   4   3  760.02   18.20
   0   4   3  767.42   18.40
   0   4   3  723.13   17.70
   0   4   3  754.62   17.70
  -1  -4  -3  108.49    3.60
  -1  -4  -3  104.59    3.00
  -1  -4  -3  111.09    3.20
  -1  -4  -3  105.19    3.20
  -1  -4  -3  109.69    3.40
   1   4   3  107.59    3.40
   1   4   3  110.19    3.80
   1   4   3  103.79    3.30
   1   4   3  109.39    3.50
  -2  -4  -3  128.29    3.80
  -2  -4  -3  124.19    4.00
  -2  -4  -3  122.29    3.50
  -2  -4  -3  126.79    4.30
  -2  -4  -3  124.19    3.30
  -2  -4  -3  122.59    4.00
   2   4   3  122.29    3.90
   2   4   3  124.99    4.00
   2   4   3  119.69    3.90
  -3  -4  -3    6.60    0.80
  -3  -4  -3    8.30    1.40
  -3  -4  -3    9.50    1.30
  -3  -4  -3    9.20    1.40
  -3  -4  -3    7.60    1.00
  -3  -4  -3    7.30    0.90
   3   4   3    6.30    1.30
   3   4   3    6.30    1.20
   3   4   3    6.20    1.00
  -4  -4  -3    9.60    0.90
  -4  -4  -3   11.30    1.70
  -4  -4  -3   10.20    1.70
  -4  -4  -3    9.50    1.70
   4   4   3   10.60    1.60
   4   4   3   10.90    1.70
   4   4   3   12.90    1.70
  -5  -4  -3    6.10    1.70
  -5  -4  -3   10.50    1.70
  -5  -4  -3    5.20    1.80
  -5  -4  -3    8.10    1.30
   5   4   3    6.80    1.30
   5   4   3    8.20    1.90
  -6  -4  -3   53.59    3.70
  -6  -4  -3   51.59    3.20
  -6  -4  -3   43.60    4.20
  -6  -4  -3   49.80    3.40
   6   4   3   49.50    2.00
   6   4   3   47.30    4.90
   6   4   3   49.00    3.20
   8  -5  -3    1.60    2.10
   8  -5  -3   -0.40    1.70
   8  -5  -3    1.00    1.40
   8  -5  -3    0.50    1.70
   8  -5  -3   -0.40    1.40
  -8   5   3   -1.50    1.70
  -8   5   3    0.20    1.60
  -8   5   3    2.30    2.00
  -8   5   3    1.50    1.80
   7  -5  -3    6.20    1.30
   7  -5  -3    3.40    1.70
   7  -5  -3    7.30    1.50
   7  -5  -3    6.30    1.40
   7  -5  -3    7.10    1.60
  -7   5   3    3.70    1.50
  -7   5   3    5.40    1.70
  -7   5   3    1.40    1.60
  -7   5   3    4.10    1.40
  -7   5   3    4.20    1.60
   6  -5  -3  166.58    5.30
   6  -5  -3  167.28    5.20
   6  -5  -3  169.68    5.60
   6  -5  -3  164.98    5.70
   6  -5  -3  168.98    5.10
  -6   5   3  167.68    5.40
  -6   5   3  169.98    5.30
  -6   5   3  166.18    5.60
  -6   5   3  167.98    5.20
  -6   5   3  179.08    5.60
   5  -5  -3   -0.40    0.70
   5  -5  -3    0.70    0.70
   5  -5  -3    0.00    1.00
   5  -5  -3   -0.50    0.70
   5  -5  -3    0.70    1.10
  -5   5   3   -1.10    0.90
  -5   5   3    0.20    0.90
  -5   5   3   -0.20    0.90
  -5   5   3   -1.00    0.90
  -5   5   3    0.70    0.90
   4  -5  -3  144.59    4.90
   4  -5  -3  144.99    5.00
   4  -5  -3  151.38    4.30
   4  -5  -3  136.79    4.10
   4  -5  -3  148.59    4.50
   4  -5  -3  152.88    5.00
  -4   5   3  149.09    4.50
  -4   5   3  147.79    4.70
  -4   5   3  148.39    4.90
  -4   5   3  145.89    4.20
  -4   5   3  149.49    4.80
  -4   5   3  146.89    4.40
   3  -5  -3    6.60    1.30
   3  -5  -3   10.10    1.50
   3  -5  -3    7.40    1.30
   3  -5  -3    9.10    1.40
   3  -5  -3    6.90    0.90
   3  -5  -3    8.20    1.00
   3  -5  -3    7.70    0.90
  -3   5   3    7.90    1.10
  -3   5   3    9.00    1.10
  -3   5   3    6.20    1.20
  -3   5   3    7.30    0.90
  -3   5   3    7.20    0.90
   2  -5  -3   23.90    2.00
   2  -5  -3   22.00    2.10
   2  -5  -3   26.20    1.60
   2  -5  -3   24.60    1.20
   2  -5  -3   25.30    1.20
  -2   5   3   24.90    1.60
  -2   5   3   25.80    1.20
  -2   5   3   24.00    1.90
  -2   5   3   24.10    1.80
  -2   5   3   22.10    1.30
   1  -5  -3   31.50    1.40
   1  -5  -3   34.90    1.80
   1  -5  -3   33.90    2.00
   1  -5  -3   31.60    1.30
   1  -5  -3   29.60    2.10
  -1   5   3   32.30    1.80
  -1   5   3   27.60    1.40
  -1   5   3   30.20    1.40
  -1   5   3   29.20    2.00
   0  -5  -3    1.10    0.60
   0  -5  -3    3.10    1.00
   0  -5  -3    2.10    0.50
   0  -5  -3    3.20    1.30
   0  -5  -3    1.60    1.00
   0  -5  -3    2.10    0.60
   0  -5  -3    1.90    0.80
   0   5   3    2.10    0.70
   0   5   3    1.50    0.80
   0   5   3    1.50    0.70
   0   5   3    2.20    0.70
   0   5   3    1.80    0.70
  -1  -5  -3   28.00    2.00
  -1  -5  -3   32.20    1.50
  -1  -5  -3   32.40    1.80
  -1  -5  -3   32.10    2.50
  -1  -5  -3   31.70    1.40
  -1  -5  -3   33.70    1.70
   1   5   3   31.90    1.80
   1   5   3   28.50    1.80
   1   5   3   31.60    2.00
   1   5   3   31.20    2.20
  -2  -5  -3   21.10    1.40
  -2  -5  -3   16.50    1.80
  -2  -5  -3   18.30    1.70
  -2  -5  -3   18.50    1.00
  -2  -5  -3   18.30    1.40
  -2  -5  -3   21.30    2.40
   2   5   3   20.00    1.80
   2   5   3   20.60    1.90
   2   5   3   17.10    2.00
   2   5   3   19.20    1.80
  -3  -5  -3   27.40    2.90
  -3  -5  -3   28.40    2.30
  -3  -5  -3   28.20    1.80
  -3  -5  -3   27.00    2.20
  -3  -5  -3   30.40    1.60
   3   5   3   29.40    2.50
   3   5   3   27.90    2.30
   3   5   3   29.40    2.20
   3   5   3   30.40    2.60
  -4  -5  -3    4.40    1.10
  -4  -5  -3    7.40    1.60
  -4  -5  -3    5.70    1.80
  -4  -5  -3    7.50    1.60
  -4  -5  -3    4.40    0.80
   4   5   3    4.70    1.90
   4   5   3    1.50    1.70
   4   5   3    5.90    1.30
   4   5   3    2.40    1.50
  -5  -5  -3   59.69    3.50
  -5  -5  -3   57.39    4.90
  -5  -5  -3   61.89    4.10
  -5  -5  -3   55.99    3.10
   5   5   3   64.09    3.50
   5   5   3   68.99    4.00
   5   5   3   72.59    4.00
   7  -6  -3    6.30    2.20
   7  -6  -3    6.80    1.50
   7  -6  -3    5.10    1.80
   7  -6  -3    9.10    1.50
   7  -6  -3    7.90    1.30
  -7   6   3    6.90    2.00
  -7   6   3    5.20    1.90
  -7   6   3   10.70    1.90
  -7   6   3    6.80    1.70
   6  -6  -3   48.30    3.50
   6  -6  -3   41.20    2.40
   6  -6  -3   39.30    3.30
   6  -6  -3   42.80    2.30
   6  -6  -3   44.20    2.50
  -6   6   3   47.10    2.90
  -6   6   3   39.60    2.70
  -6   6   3   41.40    2.70
  -6   6   3   44.00    2.90
  -6   6   3   44.30    3.00
   5  -6  -3   55.59    3.60
   5  -6  -3   63.09    3.60
   5  -6  -3   58.59    3.50
   5  -6  -3   55.99    2.30
   5  -6  -3   56.79    2.60
   5  -6  -3   60.69    2.40
  -5   6   3   58.69    2.90
  -5   6   3   55.19    2.70
  -5   6   3   55.89    3.00
  -5   6   3   60.09    2.50
  -5   6   3   54.69    3.10
   4  -6  -3   42.00    2.90
   4  -6  -3   40.20    2.90
   4  -6  -3   35.40    2.80
   4  -6  -3   38.10    1.70
   4  -6  -3   40.40    1.70
   4  -6  -3   34.00    2.10
  -4   6   3   41.30    2.50
  -4   6   3   39.10    2.00
  -4   6   3   37.90    2.40
  -4   6   3   38.90    1.80
  -4   6   3   35.70    2.70
   3  -6  -3   32.50    1.40
   3  -6  -3   34.40    2.00
   3  -6  -3   33.00    1.50
   3  -6  -3   32.60    2.70
   3  -6  -3   32.00    2.40
   3  -6  -3   32.00    2.60
  -3   6   3   33.80    2.40
  -3   6   3   31.20    2.20
  -3   6   3   32.50    1.50
  -3   6   3   30.30    2.20
   2  -6  -3    0.50    0.50
   2  -6  -3    1.10    0.50
   2  -6  -3    0.00    0.80
   2  -6  -3    0.90    1.20
   2  -6  -3    0.70    1.10
   2  -6  -3   -0.50    1.00
  -2   6   3    0.70    0.90
  -2   6   3    0.90    0.70
  -2   6   3    0.90    1.10
  -2   6   3    1.30    0.60
   1  -6  -3  216.68    7.10
   1  -6  -3  211.78    5.70
   1  -6  -3  232.98    5.70
   1  -6  -3  220.58    6.40
   1  -6  -3  222.58    6.70
   1  -6  -3  223.68    6.70
  -1   6   3  227.48    5.80
  -1   6   3  209.78    6.80
  -1   6   3  225.48    6.40
   0  -6  -3  112.19    4.80
   0  -6  -3  118.89    4.10
   0  -6  -3  113.79    4.40
   0  -6  -3  120.29    3.40
   0  -6  -3  115.89    3.50
   0  -6  -3  116.79    4.30
   0  -6  -3  112.09    3.50
   0   6   3  119.89    4.60
   0   6   3  114.79    3.50
   0   6   3  117.09    3.60
   0   6   3  117.09    4.20
  -1  -6  -3   10.00    1.40
  -1  -6  -3    9.80    1.20
  -1  -6  -3   12.10    1.20
  -1  -6  -3   15.60    2.20
  -1  -6  -3   11.50    1.00
   1   6   3    9.20    1.30
   1   6   3    7.90    1.60
   1   6   3    9.00    1.40
   1   6   3    9.50    1.30
  -2  -6  -3   11.20    1.30
  -2  -6  -3   11.50    1.60
  -2  -6  -3   11.10    2.30
  -2  -6  -3   10.10    0.80
  -2  -6  -3    9.60    1.30
  -2  -6  -3   10.90    1.50
   2   6   3   13.00    1.60
   2   6   3   11.60    1.40
  -3  -6  -3    1.80    1.30
  -3  -6  -3    1.50    2.10
  -3  -6  -3    0.00    0.90
  -3  -6  -3    2.30    1.30
  -3  -6  -3    1.40    1.00
   3   6   3   -0.80    1.10
   3   6   3    1.40    1.50
   3   6   3    1.80    1.40
   3   6   3    1.70    1.60
  -4  -6  -3   -0.50    2.30
  -4  -6  -3    2.20    1.60
  -4  -6  -3    0.60    1.10
   4   6   3    0.70    1.80
   4   6   3   -0.10    1.60
   4   6   3    0.80    1.40
   6  -7  -3   22.60    2.30
   6  -7  -3   16.90    1.80
   6  -7  -3   14.50    2.50
   6  -7  -3   15.80    1.80
  -6   7   3   16.10    1.90
  -6   7   3   15.30    2.20
  -6   7   3   16.20    2.20
  -6   7   3   12.40    1.70
  -6   7   3   15.20    2.20
   5  -7  -3    1.20    1.80
   5  -7  -3   -0.30    0.80
   5  -7  -3    0.50    0.80
   5  -7  -3   -1.30    1.90
   5  -7  -3   -0.50    1.00
  -5   7   3    0.30    1.50
  -5   7   3    0.50    1.00
  -5   7   3   -1.70    1.10
   4  -7  -3   14.30    1.20
   4  -7  -3   18.50    1.90
   4  -7  -3   16.40    2.50
   4  -7  -3   12.30    2.20
  -4   7   3   18.30    2.10
  -4   7   3   18.60    2.00
  -4   7   3   16.20    1.60
  -4   7   3   19.70    2.50
  -4   7   3   16.60    1.50
   3  -7  -3   22.80    2.90
   3  -7  -3   30.20    1.20
   3  -7  -3   25.30    3.30
   3  -7  -3   28.60    1.20
   3  -7  -3   27.50    2.70
   3  -7  -3   28.20    2.10
  -3   7   3   28.80    1.60
  -3   7   3   25.00    2.50
  -3   7   3   24.60    2.30
  -3   7   3   28.70    1.50
   2  -7  -3    1.30    1.60
   2  -7  -3    0.80    1.00
   2  -7  -3    1.60    1.40
   2  -7  -3   -0.20    1.70
   2  -7  -3    0.70    0.40
   2  -7  -3    1.00    0.50
  -2   7   3   -1.40    1.30
  -2   7   3   -1.20    1.00
  -2   7   3    0.50    0.70
  -2   7   3    1.70    0.70
   1  -7  -3   25.60    2.80
   1  -7  -3   22.40    1.20
   1  -7  -3   24.70    2.00
   1  -7  -3   18.60    2.50
   1  -7  -3   22.30    2.70
   1  -7  -3   23.30    1.90
  -1   7   3   23.80    1.60
  -1   7   3   22.10    2.50
  -1   7   3   26.60    1.60
  -1   7   3   28.40    2.30
   0  -7  -3    0.70    0.60
   0  -7  -3   -0.90    1.50
   0  -7  -3    1.90    0.80
   0  -7  -3    2.00    2.20
   0  -7  -3    1.70    1.10
   0  -7  -3    0.60    0.80
   0   7   3    0.50    1.00
   0   7   3    2.30    1.20
   0   7   3   -0.50    1.30
  -1  -7  -3    4.50    0.70
  -1  -7  -3    7.80    2.60
  -1  -7  -3    5.50    0.90
  -1  -7  -3    5.90    1.10
  -1  -7  -3    9.90    2.10
  -1  -7  -3    5.80    1.40
   1   7   3    5.90    1.40
   1   7   3    5.50    1.30
   1   7   3    4.80    1.40
   1   7   3    4.80    1.60
  -2  -7  -3    3.80    1.00
  -2  -7  -3    5.90    1.50
  -2  -7  -3    4.30    1.30
   2   7   3    5.40    1.80
   2   7   3    8.10    1.50
   2   7   3    4.60    1.60
   2   7   3    6.70    1.80
  -3  -7  -3   -2.00    1.40
  -3  -7  -3   -2.00    1.00
  -3  -7  -3    0.30    1.40
   3   7   3    0.00    1.80
   3   7   3    1.40    1.60
   3   7   3    1.40    1.90
   5  -8  -3   17.80    1.90
  -5   8   3   13.80    1.70
  -5   8   3   13.90    2.00
  -5   8   3   12.90    2.10
   4  -8  -3    0.40    1.30
  -4   8   3   -0.50    1.40
   3  -8  -3    7.90    2.20
   3  -8  -3    5.40    1.50
  -3   8   3    5.90    1.90
  -3   8   3   10.90    1.90
   2  -8  -3   13.20    2.40
   2  -8  -3   19.20    2.40
  -2   8   3   22.00    2.70
  -2   8   3   19.50    2.10
   1  -8  -3    9.60    1.60
   1  -8  -3    6.40    2.20
   1  -8  -3    6.00    1.30
  -1   8   3    6.70    1.10
  -1   8   3    9.30    2.00
  -1   8   3    7.10    1.00
   0  -8  -3    0.10    0.80
   0  -8  -3    1.40    1.00
   0  -8  -3    1.30    1.00
   0  -8  -3    2.80    1.40
   0  -8  -3    0.40    0.70
   0   8   3    0.60    1.70
   0   8   3    1.40    1.10
   0   8   3   -2.70    2.80
  -1  -8  -3    1.20    1.00
  -1  -8  -3    0.00    0.90
  -1  -8  -3    0.10    0.70
  -1  -8  -3    0.30    0.60
  -1  -8  -3    0.50    1.40
   1   8   3    0.70    1.50
   1   8   3    2.40    2.00
   1   8   3    0.80    1.50
   1   8   3    2.00    1.70
   2   9  -4   37.90    2.00
   2   9  -4   32.50    3.20
   2   9  -4   36.80    2.50
  -2  -9   4   34.50    3.20
   1   9  -4    5.90    1.80
  -1  -9   4    5.20    0.70
  -1  -9   4    3.70    1.40
   0   9  -4    5.20    1.60
   0  -9   4    5.30    1.00
   0  -9   4    5.60    1.40
   1  -9   4   18.60    2.00
   1  -9   4   18.50    1.80
   2  -9   4    4.80    1.00
   2  -9   4    3.90    1.20
   3  -9   4    4.80    1.40
   3  -9   4    3.40    1.00
  -4   9  -4   37.40    3.40
   4  -9   4   33.80    1.70
   4  -9   4   28.70    2.90
   4   8  -4    4.70    1.80
   4   8  -4    4.40    1.60
  -4  -8   4    1.10    3.10
  -4  -8   4    5.50    1.80
   3   8  -4   -0.20    1.40
   3   8  -4    1.30    1.30
   3   8  -4    1.30    1.50
  -3  -8   4    1.10    0.90
  -3  -8   4    1.10    1.80
   2   8  -4   -0.70    0.90
   2   8  -4    1.30    1.40
   2   8  -4   -0.50    1.00
  -2  -8   4    0.40    1.20
  -2  -8   4   -0.20    0.60
  -2  -8   4    0.60    1.50
   1   8  -4    1.80    1.20
  -1  -8   4    3.60    1.80
  -1  -8   4    3.40    0.70
  -1  -8   4    6.00    1.70
  -1  -8   4   -0.50    1.80
  -1  -8   4    3.60    2.10
   0   8  -4    9.70    1.90
   0   8  -4   12.50    1.90
   0  -8   4   12.20    2.00
   0  -8   4   10.10    2.10
   0  -8   4    9.40    2.00
   0  -8   4   11.40    1.30
   0  -8   4   11.40    2.00
   0  -8   4   11.40    1.40
  -1   8  -4    3.00    1.40
   1  -8   4    4.00    1.60
   1  -8   4    4.20    1.60
   1  -8   4    2.30    1.70
   1  -8   4    5.40    0.90
   1  -8   4    4.10    1.80
   1  -8   4    0.20    1.70
   1  -8   4    3.40    0.90
   2  -8   4   39.60    2.30
   2  -8   4   37.00    2.80
   2  -8   4   31.10    3.30
   2  -8   4   30.30    3.50
   2  -8   4   33.50    3.20
   2  -8   4   32.60    1.80
   2  -8   4   31.60    3.30
  -3   8  -4    8.70    1.50
   3  -8   4   10.90    2.30
   3  -8   4   11.80    2.20
   3  -8   4   10.50    1.00
   3  -8   4    8.40    1.80
   3  -8   4    6.90    1.30
  -4   8  -4   37.50    3.00
   4  -8   4   28.90    2.60
   4  -8   4   29.50    1.30
   4  -8   4   23.10    2.60
  -5   8  -4   85.49    3.10
  -5   8  -4   84.89    2.80
  -5   8  -4   80.19    4.50
   5  -8   4   88.09    4.10
   5  -8   4   86.79    2.50
   5  -8   4   84.89    2.50
   6  -8   4   63.39    3.90
   5   7  -4   25.70    2.80
   5   7  -4   25.00    2.70
  -5  -7   4   23.50    2.30
  -5  -7   4   28.90    3.00
  -5  -7   4   28.70    3.10
   4   7  -4    1.60    1.10
   4   7  -4   -1.30    1.30
   4   7  -4    2.00    1.70
  -4  -7   4    1.90    1.40
  -4  -7   4   -1.30    0.90
  -4  -7   4    0.20    1.10
   3   7  -4    0.90    1.40
   3   7  -4    0.30    1.30
   3   7  -4    2.60    1.20
  -3  -7   4   -0.70    1.20
  -3  -7   4    2.30    0.90
  -3  -7   4    0.90    0.80
  -3  -7   4    2.70    1.90
   2   7  -4   18.50    2.30
   2   7  -4   13.70    1.60
   2   7  -4   13.30    1.60
   2   7  -4   12.30    2.50
  -2  -7   4   15.50    2.10
  -2  -7   4   16.00    1.10
  -2  -7   4   13.90    1.20
  -2  -7   4   14.30    1.70
   1   7  -4   40.10    1.60
   1   7  -4   45.40    2.60
   1   7  -4   42.00    1.60
   1   7  -4   42.70    2.80
  -1  -7   4   45.40    2.60
  -1  -7   4   42.00    3.20
  -1  -7   4   39.60    2.60
  -1  -7   4   39.10    1.40
  -1  -7   4   42.20    1.60
  -1  -7   4   40.20    3.10
   0   7  -4   23.60    2.10
   0   7  -4   24.70    2.30
   0  -7   4   28.70    2.20
   0  -7   4   24.30    2.20
   0  -7   4   24.20    2.50
   0  -7   4   23.50    2.70
   0  -7   4   21.10    1.40
  -1   7  -4   46.50    2.90
   1  -7   4   47.10    3.00
   1  -7   4   44.90    2.80
   1  -7   4   44.60    2.00
   1  -7   4   46.40    2.70
   1  -7   4   44.50    3.10
   1  -7   4   48.80    2.60
   1  -7   4   49.60    2.10
  -2   7  -4  194.58    6.40
  -2   7  -4  191.48    6.20
   2  -7   4  194.48    6.40
   2  -7   4  195.38    6.20
   2  -7   4  196.28    5.70
   2  -7   4  192.08    6.40
   2  -7   4  197.88    6.10
   2  -7   4  192.28    5.20
   2  -7   4  188.98    6.40
  -3   7  -4  127.69    4.90
  -3   7  -4  134.99    5.00
   3  -7   4  125.69    3.50
   3  -7   4  130.69    4.40
   3  -7   4  131.49    4.60
   3  -7   4  125.89    4.70
   3  -7   4  119.69    5.00
  -4   7  -4    4.10    1.40
  -4   7  -4    2.80    0.90
  -4   7  -4    3.50    0.70
   4  -7   4    3.00    0.80
   4  -7   4    4.30    1.40
   4  -7   4    3.30    1.80
   4  -7   4    2.40    0.50
   4  -7   4    2.30    1.40
   4  -7   4    4.10    1.60
  -5   7  -4   40.30    2.10
  -5   7  -4   40.80    3.20
  -5   7  -4   42.60    2.50
  -5   7  -4   39.90    2.70
   5  -7   4   40.90    2.10
   5  -7   4   39.40    3.40
   5  -7   4   46.30    1.90
   5  -7   4   37.70    3.90
   5  -7   4   35.80    2.80
  -6   7  -4    3.40    1.70
  -6   7  -4    5.10    1.50
  -6   7  -4    3.50    1.50
  -6   7  -4    5.30    1.40
   6  -7   4    6.00    1.30
   6  -7   4    6.30    1.10
   6  -7   4    4.50    1.60
   6  -7   4    1.80    2.60
   6   6  -4    6.70    2.20
   6   6  -4    8.20    1.70
  -6  -6   4    8.80    1.70
  -6  -6   4    9.10    2.20
   5   6  -4    3.10    1.60
   5   6  -4    2.00    1.30
   5   6  -4    4.40    1.90
   5   6  -4    1.70    1.20
  -5  -6   4    2.80    1.20
  -5  -6   4    5.70    1.60
   4   6  -4    4.10    1.50
   4   6  -4    5.30    1.30
   4   6  -4    7.10    1.30
   4   6  -4    4.40    1.40
   4   6  -4    6.40    1.20
  -4  -6   4    5.20    1.00
  -4  -6   4    5.00    1.30
   3   6  -4  199.78    6.30
   3   6  -4  197.38    6.10
   3   6  -4  196.98    5.70
   3   6  -4  184.98    5.60
  -3  -6   4  199.58    5.60
  -3  -6   4  191.78    6.40
  -3  -6   4  193.88    5.50
   2   6  -4  127.49    3.80
   2   6  -4  121.19    4.60
   2   6  -4  128.29    4.40
   2   6  -4  122.39    3.80
  -2  -6   4  126.29    3.60
  -2  -6   4  125.49    4.60
  -2  -6   4  124.49    3.60
  -2  -6   4  122.89    4.20
  -2  -6   4  124.59    4.10
   1   6  -4   63.39    2.80
   1   6  -4   61.79    3.00
   1   6  -4   59.99    2.10
   1   6  -4   64.59    2.10
  -1  -6   4   61.99    2.70
  -1  -6   4   62.09    3.10
  -1  -6   4   63.79    2.80
  -1  -6   4   60.19    1.90
  -1  -6   4   62.89    1.90
  -1  -6   4   61.99    2.00
  -1  -6   4   61.59    3.10
   0   6  -4    3.50    0.40
   0   6  -4    1.30    0.90
   0   6  -4    2.70    0.40
   0   6  -4    2.90    0.80
   0  -6   4    2.50    0.60
   0  -6   4    2.00    0.90
   0  -6   4    1.50    1.10
   0  -6   4    1.80    1.00
   0  -6   4    1.90    1.00
   0  -6   4    2.30    0.90
  -1   6  -4  408.26   10.80
  -1   6  -4  398.06   10.60
   1  -6   4  407.66    9.90
   1  -6   4  389.96   10.70
   1  -6   4  391.36   10.40
   1  -6   4  394.06   10.10
   1  -6   4  387.66   10.30
   1  -6   4  414.66   10.90
   1  -6   4  411.16   10.70
  -2   6  -4  198.78    6.10
  -2   6  -4  190.98    4.70
  -2   6  -4  194.18    4.70
  -2   6  -4  196.98    6.00
   2  -6   4  185.88    6.10
   2  -6   4  193.58    5.00
   2  -6   4  195.58    5.80
   2  -6   4  200.98    5.70
   2  -6   4  194.68    5.90
   2  -6   4  194.48    6.10
  -3   6  -4   44.90    1.60
  -3   6  -4   46.50    1.80
  -3   6  -4   51.19    2.70
  -3   6  -4   46.90    2.60
   3  -6   4   42.50    2.80
   3  -6   4   46.50    1.50
   3  -6   4   42.70    1.60
   3  -6   4   44.30    2.60
   3  -6   4   46.90    2.40
   3  -6   4   46.00    2.50
  -4   6  -4  184.38    5.80
  -4   6  -4  177.98    4.90
  -4   6  -4  190.28    5.20
  -4   6  -4  179.38    6.00
  -4   6  -4  182.58    5.60
   4  -6   4  187.88    5.80
   4  -6   4  170.58    6.10
   4  -6   4  184.38    5.80
   4  -6   4  184.08    4.90
   4  -6   4  191.68    5.90
   4  -6   4  175.48    5.00
  -5   6  -4   73.59    3.70
  -5   6  -4   72.09    3.10
  -5   6  -4   72.49    3.10
  -5   6  -4   76.99    2.90
   5  -6   4   68.19    4.00
   5  -6   4   73.69    3.40
   5  -6   4   74.09    3.60
   5  -6   4   68.29    2.90
   5  -6   4   72.69    2.70
  -6   6  -4    0.60    1.40
  -6   6  -4    2.40    1.30
  -6   6  -4    3.60    1.30
  -6   6  -4    2.20    1.60
   6  -6   4    4.10    2.10
   6  -6   4    2.20    1.30
   6  -6   4    2.70    1.30
   6  -6   4    2.00    1.00
  -7   6  -4    2.90    1.50
  -7   6  -4    3.10    2.00
  -7   6  -4   -0.90    1.60
   7  -6   4    1.00    1.20
   7  -6   4   -1.10    1.60
   7  -6   4    0.90    1.40
   7   5  -4   51.69    4.20
  -7  -5   4   45.20    3.50
  -7  -5   4   34.40    4.30
   6   5  -4    9.40    1.20
   6   5  -4    6.70    1.90
  -6  -5   4    6.90    1.90
  -6  -5   4    7.20    1.60
   5   5  -4    1.00    1.40
   5   5  -4    0.10    1.50
   5   5  -4   -1.10    0.90
   5   5  -4    1.30    0.90
  -5  -5   4    0.50    1.20
  -5  -5   4   -0.40    1.20
   4   5  -4   53.39    2.70
   4   5  -4   54.29    2.80
   4   5  -4   54.89    2.30
   4   5  -4   49.10    2.60
  -4  -5   4   53.39    2.50
  -4  -5   4   52.99    2.70
   3   5  -4  247.28    6.80
   3   5  -4  254.97    7.10
   3   5  -4  248.68    7.20
   3   5  -4  235.88    6.80
  -3  -5   4  255.97    6.80
  -3  -5   4  248.98    6.70
   2   5  -4   13.40    1.70
   2   5  -4   15.50    1.60
   2   5  -4   16.00    1.40
   2   5  -4   16.70    0.90
   2   5  -4   18.60    1.40
  -2  -5   4   16.30    1.40
  -2  -5   4   16.10    1.10
  -2  -5   4   16.90    0.80
  -2  -5   4   15.60    1.10
  -2  -5   4   18.60    1.70
   1   5  -4  162.28    4.30
   1   5  -4  155.88    4.80
   1   5  -4  156.08    4.30
   1   5  -4  164.48    4.30
   1   5  -4  163.18    5.10
  -1  -5   4  163.38    4.30
  -1  -5   4  167.88    5.10
  -1  -5   4  160.98    4.20
  -1  -5   4  163.18    4.20
   0   5  -4   53.99    2.20
   0   5  -4   52.39    2.00
   0   5  -4   51.19    1.60
   0   5  -4   53.09    1.70
   0   5  -4   53.49    2.50
   0  -5   4   55.79    2.50
   0  -5   4   53.49    2.20
   0  -5   4   53.99    1.60
   0  -5   4   54.29    2.20
   0  -5   4   50.89    2.30
   0  -5   4   52.99    1.90
   0  -5   4   54.09    1.50
  -1   5  -4    0.40    0.70
  -1   5  -4    0.20    0.30
  -1   5  -4    0.40    0.60
  -1   5  -4    0.40    0.60
  -1   5  -4    0.20    0.30
   1  -5   4   -0.70    0.70
   1  -5   4    0.60    0.40
   1  -5   4    0.20    0.60
   1  -5   4    1.60    0.90
   1  -5   4    0.50    0.30
   1  -5   4    0.80    0.30
   1  -5   4    0.60    0.70
  -2   5  -4  147.39    4.70
  -2   5  -4  146.79    3.90
  -2   5  -4  152.98    4.70
   2  -5   4  146.69    3.80
   2  -5   4  141.59    3.70
   2  -5   4  148.89    4.50
   2  -5   4  153.48    4.80
   2  -5   4  150.48    4.60
   2  -5   4  149.19    4.50
   2  -5   4  148.29    3.80
  -3   5  -4  480.55   11.70
  -3   5  -4  495.85   12.50
  -3   5  -4  481.25   11.90
  -3   5  -4  484.75   12.70
   3  -5   4  499.85   12.30
   3  -5   4  494.95   12.40
   3  -5   4  478.75   11.80
   3  -5   4  497.25   12.40
   3  -5   4  492.45   11.80
  -4   5  -4   51.79    2.30
  -4   5  -4   53.29    2.80
  -4   5  -4   52.09    2.30
  -4   5  -4   50.89    2.10
  -4   5  -4   49.00    2.50
   4  -5   4   51.49    2.20
   4  -5   4   53.99    2.10
   4  -5   4   48.80    2.60
   4  -5   4   47.80    2.50
  -5   5  -4   12.00    1.40
  -5   5  -4   11.20    1.60
  -5   5  -4   14.80    1.60
  -5   5  -4    9.90    1.40
  -5   5  -4   15.30    1.60
   5  -5   4   10.30    1.40
   5  -5   4   10.10    1.40
   5  -5   4   10.80    1.30
  -6   5  -4   53.49    2.70
  -6   5  -4   56.19    2.90
  -6   5  -4   54.89    3.30
  -6   5  -4   60.19    3.30
   6  -5   4   52.79    3.10
   6  -5   4   58.99    3.20
   6  -5   4   53.29    2.70
  -7   5  -4    4.90    1.70
  -7   5  -4    6.10    1.80
  -7   5  -4    5.80    1.40
   7  -5   4    4.70    1.30
   7  -5   4    5.80    2.00
   7  -5   4    3.50    1.40
   7   4  -4   11.30    2.40
   7   4  -4   12.20    1.10
   7   4  -4   11.70    1.10
  -7  -4   4    8.80    2.20
  -7  -4   4   14.00    2.10
   6   4  -4    0.00    0.60
   6   4  -4    0.40    0.70
   6   4  -4    0.80    0.60
   6   4  -4    0.00    1.30
   6   4  -4    0.00    1.70
   6   4  -4    1.60    0.90
  -6  -4   4   -1.50    1.10
  -6  -4   4   -0.60    1.50
   5   4  -4  116.59    3.20
   5   4  -4  117.99    4.40
   5   4  -4  123.59    4.50
   5   4  -4  115.09    3.30
   5   4  -4  108.29    3.00
   5   4  -4  123.09    4.00
  -5  -4   4  117.59    4.20
  -5  -4   4  112.09    4.40
   4   4  -4   32.40    1.50
   4   4  -4   31.70    1.10
   4   4  -4   32.90    2.10
   4   4  -4   33.50    2.00
   4   4  -4   34.20    2.20
  -4  -4   4   33.90    1.90
  -4  -4   4   35.90    2.10
   3   4  -4   44.00    2.00
   3   4  -4   43.80    1.40
   3   4  -4   44.60    2.10
   3   4  -4   44.40    2.40
  -3  -4   4   42.20    2.00
  -3  -4   4   44.00    2.00
   2   4  -4   13.00    1.30
   2   4  -4   15.10    1.20
   2   4  -4   12.20    1.20
   2   4  -4   13.90    1.20
   2   4  -4   12.30    0.80
  -2  -4   4   12.40    1.00
  -2  -4   4   14.60    0.70
  -2  -4   4   13.10    1.00
  -2  -4   4   14.50    1.10
  -2  -4   4   16.90    1.40
   1   4  -4  345.97    8.60
   1   4  -4  364.06    9.20
   1   4  -4  341.87    8.50
   1   4  -4  353.36    8.50
   1   4  -4  356.26    8.90
  -1  -4   4  344.97    8.50
  -1  -4   4  347.77    8.80
  -1  -4   4  350.06    8.60
  -1  -4   4  344.67    8.40
  -1  -4   4  360.56    9.10
   0   4  -4   52.59    2.10
   0   4  -4   52.79    1.90
   0   4  -4   52.29    1.90
   0   4  -4   52.19    2.30
   0   4  -4   52.79    1.60
   0   4  -4   51.69    1.70
   0  -4   4   53.99    1.80
   0  -4   4   51.99    1.60
   0  -4   4   55.09    2.20
   0  -4   4   50.39    2.20
   0  -4   4   51.69    2.00
   0  -4   4   54.09    1.60
  -1   4  -4  609.54   14.80
  -1   4  -4  670.73   15.60
  -1   4  -4  628.04   15.50
  -1   4  -4  621.74   14.80
  -1   4  -4  642.74   15.30
   1  -4   4  632.04   15.50
   1  -4   4  618.14   14.80
   1  -4   4  629.54   15.20
   1  -4   4  644.84   15.20
   1  -4   4  651.53   15.30
   1  -4   4  618.94   14.80
  -2   4  -4  432.86   10.30
  -2   4  -4  434.76   10.90
  -2   4  -4  425.36   11.00
  -2   4  -4  420.36   10.30
  -2   4  -4  430.66   10.90
   2  -4   4  419.16   10.60
   2  -4   4  430.86   10.30
   2  -4   4  433.16   10.70
   2  -4   4  433.56   10.80
   2  -4   4  428.66   10.30
  -3   4  -4   45.40    2.00
  -3   4  -4   48.90    2.30
  -3   4  -4   44.30    2.20
  -3   4  -4   42.40    1.90
  -3   4  -4   46.90    1.90
  -3   4  -4   45.80    1.80
   3  -4   4   43.60    1.80
   3  -4   4   46.20    1.70
   3  -4   4   44.50    2.00
   3  -4   4   46.10    2.10
  -4   4  -4   89.69    3.20
  -4   4  -4   87.09    3.00
  -4   4  -4   94.89    3.00
  -4   4  -4   88.89    3.10
  -4   4  -4   82.59    3.40
   4  -4   4   88.89    3.20
   4  -4   4   84.29    3.00
   4  -4   4   92.49    3.40
   4  -4   4   85.99    3.10
  -5   4  -4   85.89    3.00
  -5   4  -4   84.59    3.20
  -5   4  -4   83.79    3.00
  -5   4  -4   81.19    3.40
   5  -4   4   85.19    3.50
   5  -4   4   84.49    3.30
   5  -4   4   87.69    3.20
  -6   4  -4   34.20    2.80
  -6   4  -4   34.90    2.00
  -6   4  -4   35.90    2.40
   6  -4   4   32.00    2.70
   6  -4   4   33.40    2.50
   6  -4   4   32.50    3.50
  -7   4  -4    8.20    1.40
  -7   4  -4   12.40    1.80
   7  -4   4    9.90    2.10
   7  -4   4    9.30    1.60
   7  -4   4    6.20    1.40
  -8   4  -4    2.10    2.00
  -8   4  -4    6.50    1.50
   8  -4   4    3.70    1.80
   8  -4   4    7.10    1.70
   8  -4   4    9.00    2.60
   8   3  -4   28.70    2.70
   8   3  -4   25.30    2.70
   8   3  -4   23.70    3.00
  -8  -3   4   21.20    3.00
  -8  -3   4   25.30    3.00
   7   3  -4   13.60    2.80
   7   3  -4   15.20    1.90
   7   3  -4   14.40    2.20
   7   3  -4   14.90    1.90
  -7  -3   4    8.50    2.00
  -7  -3   4   12.20    1.90
  -7  -3   4   11.10    2.30
   6   3  -4   97.79    4.10
   6   3  -4   94.29    3.10
   6   3  -4   94.29    3.20
   6   3  -4   88.69    4.20
  -6  -3   4   97.29    4.00
  -6  -3   4   91.19    4.00
  -6  -3   4   97.09    4.10
   5   3  -4   97.59    3.80
   5   3  -4   92.89    2.80
   5   3  -4   97.39    3.80
   5   3  -4   94.79    3.20
  -5  -3   4   96.69    3.70
   4   3  -4    2.60    1.00
   4   3  -4    3.70    0.80
   4   3  -4    2.50    0.50
   4   3  -4    2.90    0.90
  -4  -3   4    3.00    0.80
  -4  -3   4    4.40    1.00
   3   3  -4  672.73   16.20
   3   3  -4  632.74   15.50
   3   3  -4  686.43   16.20
   3   3  -4  666.13   16.10
  -3  -3   4  671.03   16.10
  -3  -3   4  657.83   16.10
   2   3  -4   10.70    1.00
   2   3  -4   11.60    0.70
   2   3  -4   13.50    1.00
   2   3  -4   13.00    1.10
  -2  -3   4   12.00    0.70
  -2  -3   4   12.30    1.00
  -2  -3   4   11.50    0.90
  -2  -3   4   11.50    0.80
   1   3  -4   81.79    2.30
   1   3  -4   75.29    2.40
   1   3  -4   81.29    2.40
   1   3  -4   77.89    2.40
   1   3  -4   82.19    2.80
  -1  -3   4   80.99    2.30
  -1  -3   4   75.29    2.40
  -1  -3   4   82.49    2.40
  -1  -3   4   79.59    2.50
  -1  -3   4   80.19    2.60
   0   3  -4 1838.32   43.00
   0   3  -4 1815.32   42.80
   0   3  -4 1892.41   43.70
   0   3  -4 1918.51   43.10
   0   3  -4 1802.72   42.80
   0   3  -4 1819.22   43.70
   0  -3   4 1800.12   42.80
   0  -3   4 1859.71   43.50
   0  -3   4 1945.01   43.50
   0  -3   4 1764.12   42.50
   0  -3   4 1918.31   44.00
  -1   3  -4  193.78    5.20
  -1   3  -4  195.78    4.80
  -1   3  -4  187.68    5.10
  -1   3  -4  184.08    4.80
  -1   3  -4  187.08    5.20
   1  -3   4  180.48    4.90
   1  -3   4  192.68    5.00
   1  -3   4  190.48    4.60
   1  -3   4  190.38    5.00
   1  -3   4  192.18    4.80
   1  -3   4  196.08    4.80
  -2   3  -4 2514.05   61.79
  -2   3  -4 2607.24   60.39
  -2   3  -4 2743.03   61.39
  -2   3  -4 2575.14   60.29
  -2   3  -4 2536.65   60.39
   2  -3   4 2620.64   60.29
   2  -3   4 2667.73   61.49
   2  -3   4 2627.44   60.69
   2  -3   4 2641.84   60.89
  -3   3  -4   39.40    1.70
  -3   3  -4   41.80    1.70
  -3   3  -4   40.20    1.60
  -3   3  -4   40.90    1.80
   3  -3   4   41.90    1.70
   3  -3   4   39.40    1.90
   3  -3   4   43.30    1.80
   3  -3   4   42.30    1.70
  -4   3  -4  131.99    4.40
  -4   3  -4  132.99    3.90
  -4   3  -4  129.79    4.30
  -4   3  -4  138.79    4.10
  -4   3  -4  140.89    3.90
   4  -3   4  136.99    4.30
   4  -3   4  138.39    4.30
   4  -3   4  133.59    4.10
  -5   3  -4    3.50    0.70
  -5   3  -4    3.10    0.70
  -5   3  -4    3.30    0.90
  -5   3  -4    4.00    1.20
  -5   3  -4    3.40    0.50
   5  -3   4    2.50    0.90
   5  -3   4    2.00    0.90
   5  -3   4    2.20    1.00
  -6   3  -4   12.40    1.60
  -6   3  -4    9.90    1.70
  -6   3  -4   10.60    1.10
  -6   3  -4   12.70    1.00
  -6   3  -4   13.10    1.30
   6  -3   4    9.80    1.50
   6  -3   4   11.50    1.70
  -7   3  -4   -0.10    0.90
  -7   3  -4    1.20    1.50
  -7   3  -4    0.80    0.90
   7  -3   4   -2.30    1.10
   7  -3   4   -1.30    1.70
   7  -3   4    0.80    1.40
  -8   3  -4    4.40    1.20
  -8   3  -4    4.10    1.50
  -8   3  -4    8.90    2.00
  -8   3  -4    3.80    1.40
   8  -3   4    5.20    1.70
   8  -3   4    3.40    1.80
   8  -3   4    2.30    2.50
   8   2  -4    0.10    1.90
   8   2  -4    1.70    1.40
  -8  -2   4   -1.50    2.10
  -8  -2   4   -0.50    1.60
   7   2  -4   97.19    4.80
   7   2  -4  113.89    3.90
   7   2  -4  105.19    4.60
  -7  -2   4  106.29    4.50
  -7  -2   4  103.19    4.70
  -7  -2   4  108.69    4.50
   6   2  -4    7.20    1.50
   6   2  -4    6.70    1.60
   6   2  -4   10.00    1.10
  -6  -2   4    4.80    1.30
  -6  -2   4    7.60    1.40
  -6  -2   4    6.70    1.40
   5   2  -4    4.00    1.10
   5   2  -4    4.80    0.80
   5   2  -4    5.10    1.20
  -5  -2   4    4.50    1.00
  -5  -2   4    4.30    1.10
  -5  -2   4    3.70    1.10
   4   2  -4    2.90    0.80
   4   2  -4    3.40    0.60
   4   2  -4    1.00    0.80
  -4  -2   4    1.20    0.70
  -4  -2   4    2.00    0.70
  -4  -2   4    2.40    0.90
   3   2  -4  439.76   11.00
   3   2  -4  439.26   10.60
   3   2  -4  469.35   11.10
  -3  -2   4  448.26   11.00
  -3  -2   4  422.46   10.90
  -3  -2   4  428.86   10.90
   2   2  -4 2419.56   56.79
   2   2  -4 2304.37   56.09
   2   2  -4 2439.46   56.99
  -2  -2   4 2499.15   57.59
  -2  -2   4 2489.85   57.59
  -2  -2   4 2432.86   57.39
  -2  -2   4 2486.35   56.39
   1   2  -4  587.54   13.80
   1   2  -4  563.44   13.70
   1   2  -4  588.34   13.70
  -1  -2   4  581.84   13.80
  -1  -2   4  578.44   13.70
  -1  -2   4  588.94   13.70
  -1  -2   4  575.94   13.70
  -1  -2   4  580.24   13.70
   0   2  -4  284.67    6.90
   0   2  -4  275.67    6.80
   0   2  -4  258.47    6.70
   0   2  -4  280.07    6.80
   0  -2   4  288.17    6.80
   0  -2   4  278.77    6.80
   0  -2   4  280.77    6.90
   0  -2   4  275.47    6.70
   0  -2   4  270.07    6.70
  -1   2  -4  321.87    7.80
  -1   2  -4  332.57    7.80
  -1   2  -4  287.27    7.90
  -1   2  -4  311.07    7.50
   1  -2   4  330.97    7.80
   1  -2   4  319.67    7.60
   1  -2   4  320.97    7.80
   1  -2   4  335.27    7.90
   1  -2   4  317.77    7.50
  -2   2  -4  224.68    5.30
  -2   2  -4  234.08    6.10
  -2   2  -4  208.78    5.90
  -2   2  -4  217.48    5.80
   2  -2   4  232.48    5.70
   2  -2   4  237.08    6.00
   2  -2   4  230.48    5.90
   2  -2   4  236.68    5.90
  -3   2  -4   51.99    1.50
  -3   2  -4   53.09    2.10
  -3   2  -4   53.39    2.00
  -3   2  -4   55.09    2.30
   3  -2   4   51.29    2.00
   3  -2   4   53.29    2.10
   3  -2   4   52.09    1.80
   3  -2   4   54.99    2.20
  -4   2  -4  320.47    8.10
  -4   2  -4  308.67    8.30
  -4   2  -4  312.07    7.60
  -4   2  -4  306.07    8.30
  -4   2  -4  301.87    7.60
  -4   2  -4  301.67    7.40
   4  -2   4  310.67    8.20
   4  -2   4  307.37    8.30
   4  -2   4  310.17    8.20
  -5   2  -4  136.29    3.70
  -5   2  -4  139.49    4.60
  -5   2  -4  140.79    3.90
  -5   2  -4  136.19    4.80
   5  -2   4  148.59    4.90
   5  -2   4  139.79    4.60
   5  -2   4  146.29    4.60
  -6   2  -4  178.48    4.90
  -6   2  -4  176.98    5.70
  -6   2  -4  177.98    4.80
  -6   2  -4  161.58    5.90
   6  -2   4  179.58    5.60
   6  -2   4  172.08    5.90
   6  -2   4  161.98    6.10
  -7   2  -4    4.90    1.00
  -7   2  -4    4.20    1.60
  -7   2  -4    3.50    1.30
   7  -2   4    2.60    1.40
   7  -2   4    4.40    1.30
   7  -2   4    2.70    1.90
  -8   2  -4   41.00    3.30
  -8   2  -4   44.90    2.30
  -8   2  -4   39.80    3.50
   8  -2   4   36.40    3.40
   8  -2   4   42.50    4.60
   8  -2   4   35.80    3.30
   8   1  -4   62.19    4.50
   8   1  -4   66.59    3.60
   8   1  -4   59.59    3.90
  -8  -1   4   70.79    4.00
  -8  -1   4   61.99    4.10
  -8  -1   4   65.29    4.50
   7   1  -4   34.30    1.40
   7   1  -4   35.30    2.90
   7   1  -4   33.60    2.80
  -7  -1   4   30.10    3.00
  -7  -1   4   38.10    2.80
  -7  -1   4   33.40    2.80
   6   1  -4    2.40    1.20
   6   1  -4    2.50    1.00
   6   1  -4    1.80    0.60
  -6  -1   4    1.60    1.10
  -6  -1   4    2.70    1.10
  -6  -1   4    0.80    1.00
   5   1  -4   14.70    1.60
   5   1  -4   14.90    1.80
  -5  -1   4   15.10    1.50
  -5  -1   4   16.40    1.60
  -5  -1   4   18.50    1.70
   4   1  -4   -0.90    0.60
   4   1  -4   -0.10    0.70
  -4  -1   4    0.30    0.60
  -4  -1   4   -0.70    0.70
  -4  -1   4    0.80    0.60
   3   1  -4   35.40    1.60
   3   1  -4   36.20    1.70
  -3  -1   4   31.70    1.50
  -3  -1   4   34.90    1.60
  -3  -1   4   34.20    1.60
   2   1  -4 1370.56   29.80
   2   1  -4 1256.57   29.90
   2   1  -4 1284.57   29.90
   2   1  -4 1164.08   29.90
  -2  -1   4 1335.27   29.90
  -2  -1   4 1326.87   30.00
  -2  -1   4 1270.57   29.90
   1   1  -4    1.10    0.40
   1   1  -4    1.30    0.40
   1   1  -4    1.40    0.40
   1   1  -4    1.20    0.30
   1   1  -4    1.20    0.30
  -1  -1   4    1.10    0.30
  -1  -1   4    1.90    0.40
  -1  -1   4    1.30    0.40
  -1  -1   4    1.20    0.30
   0   1  -4 1101.39   25.20
   0   1  -4 1097.59   25.00
   0   1  -4 1071.39   25.20
   0   1  -4 1062.99   25.20
   0   1  -4 1068.99   25.10
   0  -1   4 1083.19   25.30
   0  -1   4 1095.79   25.20
   0  -1   4 1119.99   25.70
   0  -1   4 1090.89   25.20
  -1   1  -4  265.67    6.60
  -1   1  -4  248.98    6.30
  -1   1  -4  274.07    6.60
  -1   1  -4  253.67    6.60
   1  -1   4  258.67    6.50
   1  -1   4  271.07    6.60
   1  -1   4  260.77    6.30
   1  -1   4  269.77    6.60
  -2   1  -4  716.93   17.10
  -2   1  -4  707.93   16.70
  -2   1  -4  714.13   17.10
  -2   1  -4  728.93   17.20
   2  -1   4  705.93   16.70
   2  -1   4  725.03   17.10
   2  -1   4  728.43   17.10
   2  -1   4  726.43   17.10
  -3   1  -4  634.14   15.20
  -3   1  -4  621.24   15.10
  -3   1  -4  644.64   15.30
  -3   1  -4  603.64   14.70
   3  -1   4  629.84   15.10
   3  -1   4  609.14   15.20
   3  -1   4  630.24   15.20
  -4   1  -4   11.60    1.50
  -4   1  -4   13.80    0.80
  -4   1  -4   15.10    1.60
  -4   1  -4   12.80    1.20
  -4   1  -4   13.80    1.00
   4  -1   4   11.90    1.40
   4  -1   4   15.50    1.30
   4  -1   4   14.10    1.30
  -5   1  -4   -0.30    0.90
  -5   1  -4   -1.40    1.00
  -5   1  -4    0.60    0.40
   5  -1   4    0.50    0.90
   5  -1   4    0.60    1.00
   5  -1   4    1.00    0.80
  -6   1  -4   16.20    1.90
  -6   1  -4   17.70    1.10
   6  -1   4   17.10    2.10
   6  -1   4   15.80    2.00
   6  -1   4   17.70    2.10
  -7   1  -4    1.10    0.60
  -7   1  -4    0.40    1.40
   7  -1   4   -0.90    1.30
   7  -1   4    1.70    1.80
   7  -1   4    1.30    1.40
  -8   1  -4    4.80    0.90
  -8   1  -4    6.90    2.00
  -8   1  -4    9.40    2.10
   8  -1   4    8.20    1.90
   8  -1   4    3.80    2.00
   9   0  -4   12.30    2.20
   9   0  -4    7.00    2.30
  -9   0   4    8.40    2.30
   8   0  -4    6.50    2.10
   8   0  -4    7.00    1.70
  -8   0   4    8.50    2.00
  -8   0   4    5.80    2.00
  -8   0   4    7.40    2.20
   7   0  -4  216.78    7.00
   7   0  -4  208.18    5.20
   7   0  -4  207.28    7.00
  -7   0   4  218.08    6.90
  -7   0   4  213.48    6.90
  -7   0   4  213.88    6.50
   6   0  -4   14.60    0.80
   6   0  -4   15.40    1.60
   6   0  -4   11.20    1.60
  -6   0   4   15.30    2.00
  -6   0   4   14.60    1.80
  -6   0   4   17.10    1.90
   5   0  -4   20.10    2.10
   5   0  -4   21.50    1.70
  -5   0   4   23.10    1.60
  -5   0   4   21.30    1.90
  -5   0   4   24.50    1.70
   4   0  -4 1046.20   24.40
   4   0  -4 1012.30   24.30
  -4   0   4 1003.00   24.30
  -4   0   4 1018.20   24.40
  -4   0   4 1025.10   24.20
   3   0  -4  128.59    3.80
   3   0  -4  130.39    3.80
   3   0  -4  134.29    3.80
  -3   0   4  128.49    3.20
  -3   0   4  129.59    3.80
  -3   0   4  126.29    3.70
   2   0  -4 1494.35   35.30
   2   0  -4 1524.15   35.30
   2   0  -4 1484.05   35.30
   2   0  -4 1555.64   35.30
  -2   0   4 1527.85   35.20
  -2   0   4 1528.95   35.30
  -2   0   4 1552.74   35.30
   1   0  -4 2401.96   54.99
   1   0  -4 2339.17   53.79
   1   0  -4 2169.38   53.59
   1   0  -4 2366.56   54.39
  -1   0   4 2409.96   54.89
  -1   0   4 2258.97   54.19
  -1   0   4 2257.07   54.59
   0   0  -4  162.48    4.20
   0   0  -4  159.28    4.20
   0   0  -4  157.28    3.80
   0   0  -4  161.88    4.20
   0   0  -4  165.88    4.20
   0   0   4  161.38    4.20
   0   0   4  165.58    4.20
   0   0   4  164.28    4.20
   0   0   4  158.38    4.20
  -1   0  -4 2254.57   50.79
  -1   0  -4 2173.38   50.59
  -1   0  -4 2228.48   50.99
  -1   0  -4 2004.20   49.90
   1   0   4 2073.39   50.49
   1   0   4 2252.17   51.29
   1   0   4 2158.98   50.29
   1   0   4 2224.08   50.39
  -2   0  -4   48.80    1.70
  -2   0  -4   53.29    1.90
  -2   0  -4   51.59    1.90
  -2   0  -4   51.99    2.00
   2   0   4   47.10    1.90
   2   0   4   50.09    1.80
   2   0   4   51.19    1.90
  -3   0  -4  296.27    7.80
  -3   0  -4  301.07    8.00
  -3   0  -4  301.27    7.50
  -3   0  -4  299.17    7.70
   3   0   4  296.87    7.90
   3   0   4  305.97    8.00
   3   0   4  302.47    7.60
  -4   0  -4    4.60    0.90
  -4   0  -4    5.40    1.10
  -4   0  -4    4.70    0.90
  -4   0  -4    4.10    0.70
   4   0   4    3.40    0.90
   4   0   4    6.10    1.10
   4   0   4    5.00    0.80
  -5   0  -4   95.69    4.00
  -5   0  -4  102.89    3.70
  -5   0  -4   93.09    3.50
   5   0   4  101.09    3.80
   5   0   4   99.79    3.40
   5   0   4   93.79    3.90
  -6   0  -4  186.58    6.50
  -6   0  -4  189.68    6.10
   6   0   4  194.68    5.70
   6   0   4  191.28    6.90
   6   0   4  174.38    6.40
  -7   0  -4   31.10    2.90
   7   0   4   30.00    2.80
   7   0   4   32.50    2.70
   7   0   4   30.90    3.90
   9  -1  -4    3.00    1.90
   9  -1  -4    1.90    1.30
   9  -1  -4   -0.40    1.70
  -9   1   4    6.00    2.30
  -9   1   4   -0.50    2.10
   8  -1  -4   13.20    1.60
   8  -1  -4   18.30    2.60
   8  -1  -4   12.20    1.90
  -8   1   4   14.90    2.70
  -8   1   4   16.60    2.20
   7  -1  -4   36.80    1.80
   7  -1  -4   39.80    3.00
   7  -1  -4   38.90    2.70
  -7   1   4   38.00    2.60
  -7   1   4   38.80    2.90
  -7   1   4   38.60    2.80
   6  -1  -4   48.40    2.80
   6  -1  -4   44.80    2.50
   6  -1  -4   43.80    1.80
  -6   1   4   44.90    2.70
  -6   1   4   47.80    2.70
  -6   1   4   44.20    2.40
   5  -1  -4   34.20    1.40
   5  -1  -4   36.70    1.90
   5  -1  -4   36.00    2.00
   5  -1  -4   34.90    1.90
  -5   1   4   38.40    2.00
  -5   1   4   36.90    2.10
  -5   1   4   37.90    2.10
   4  -1  -4   18.70    1.50
   4  -1  -4   19.00    1.40
   4  -1  -4   21.30    1.30
  -4   1   4   20.50    1.40
  -4   1   4   20.80    1.50
  -4   1   4   23.00    1.40
   3  -1  -4  263.97    6.70
   3  -1  -4  256.17    6.70
   3  -1  -4  248.28    6.70
  -3   1   4  258.87    6.70
  -3   1   4  264.67    6.70
  -3   1   4  252.87    6.40
  -3   1   4  259.17    6.80
   2  -1  -4  384.06    9.10
   2  -1  -4  383.46    9.10
   2  -1  -4  362.76    9.10
  -2   1   4  354.66    9.00
  -2   1   4  365.36    9.10
  -2   1   4  372.16    9.10
  -2   1   4  364.86    9.00
   1  -1  -4   30.90    1.20
   1  -1  -4   31.10    1.30
   1  -1  -4   31.00    1.30
  -1   1   4   28.60    1.20
  -1   1   4   28.40    1.20
  -1   1   4   28.10    1.20
   0  -1  -4  688.43   16.10
   0  -1  -4  663.53   16.10
   0  -1  -4  696.13   16.20
   0  -1  -4  681.53   16.20
   0  -1  -4  668.93   15.90
   0   1   4  688.83   16.20
   0   1   4  698.93   16.10
   0   1   4  665.53   16.10
   0   1   4  683.53   15.90
   0   1   4  697.73   16.20
  -1  -1  -4    3.20    0.50
  -1  -1  -4    3.60    0.60
  -1  -1  -4    2.30    0.40
  -1  -1  -4    2.50    0.60
   1   1   4    2.70    0.30
   1   1   4    1.50    0.50
   1   1   4    2.50    0.50
   1   1   4    2.40    0.50
   1   1   4    3.50    0.60
   1   1   4    2.60    0.40
  -2  -1  -4  497.45   12.40
  -2  -1  -4  500.45   12.20
  -2  -1  -4  502.55   12.30
  -2  -1  -4  514.65   12.50
   2   1   4  520.25   12.20
   2   1   4  499.05   12.50
   2   1   4  514.25   12.50
  -3  -1  -4   37.00    1.80
  -3  -1  -4   36.50    1.70
  -3  -1  -4   35.30    1.70
  -3  -1  -4   36.70    2.10
   3   1   4   36.40    2.00
   3   1   4   40.20    1.90
   3   1   4   37.30    1.50
  -4  -1  -4    3.80    0.90
  -4  -1  -4    4.50    0.90
  -4  -1  -4    2.00    0.60
  -4  -1  -4    5.10    1.20
   4   1   4    3.00    1.10
   4   1   4    2.80    1.00
   4   1   4    3.60    0.70
  -5  -1  -4   -0.60    0.90
  -5  -1  -4   -0.90    0.90
  -5  -1  -4    0.40    0.70
  -5  -1  -4    2.10    0.90
  -5  -1  -4   -0.40    1.20
   5   1   4   -0.90    1.00
   5   1   4    1.20    0.80
   5   1   4   -0.80    1.10
  -6  -1  -4   -2.20    1.50
  -6  -1  -4    0.90    1.10
  -6  -1  -4    0.10    0.70
   6   1   4    2.20    1.80
   6   1   4   -0.30    1.00
  -7  -1  -4    7.10    2.00
  -7  -1  -4    3.50    1.50
   7   1   4    4.40    1.80
   7   1   4    8.00    1.50
   9  -2  -4    5.40    2.60
   9  -2  -4    4.20    2.00
   9  -2  -4    1.70    1.60
   9  -2  -4    3.00    1.70
  -9   2   4    0.60    2.00
  -9   2   4   -1.40    2.30
   8  -2  -4   -1.50    1.20
   8  -2  -4    2.00    1.30
   8  -2  -4    1.00    1.80
  -8   2   4    3.00    1.80
  -8   2   4    3.10    1.80
   7  -2  -4   12.70    2.20
   7  -2  -4   12.00    1.30
   7  -2  -4    9.50    1.70
  -7   2   4    9.70    1.60
  -7   2   4   11.80    1.90
  -7   2   4   12.50    1.90
   6  -2  -4  234.08    6.30
   6  -2  -4  234.48    7.00
   6  -2  -4  241.28    6.70
  -6   2   4  235.08    6.70
  -6   2   4  228.78    6.90
  -6   2   4  245.88    7.10
   5  -2  -4    0.60    0.80
   5  -2  -4    0.80    0.60
   5  -2  -4   -0.20    0.60
   5  -2  -4   -0.70    0.70
  -5   2   4    0.80    0.80
  -5   2   4    0.20    0.80
  -5   2   4   -0.40    0.70
   4  -2  -4  214.58    5.80
   4  -2  -4  203.28    5.70
   4  -2  -4  209.48    5.50
   4  -2  -4  205.48    5.70
  -4   2   4  200.78    5.40
  -4   2   4  205.58    5.50
  -4   2   4  210.68    5.80
  -4   2   4  204.38    5.60
  -4   2   4  201.38    5.80
   3  -2  -4  105.69    3.30
   3  -2  -4  107.69    3.30
   3  -2  -4  108.19    3.30
  -3   2   4  103.49    3.30
  -3   2   4  108.59    3.20
  -3   2   4  113.49    3.30
  -3   2   4  107.79    3.00
  -3   2   4  114.09    3.40
   2  -2  -4  331.27    8.20
   2  -2  -4  330.07    8.30
   2  -2  -4  338.67    8.20
   2  -2  -4  327.37    7.90
  -2   2   4  330.17    8.30
  -2   2   4  333.87    8.30
  -2   2   4  322.77    8.20
  -2   2   4  325.77    8.10
   1  -2  -4  127.39    3.50
   1  -2  -4  126.39    3.50
   1  -2  -4  125.19    3.60
   1  -2  -4  127.49    3.60
   1  -2  -4  124.19    3.50
  -1   2   4  127.19    3.50
  -1   2   4  126.39    3.50
   0  -2  -4  666.93   16.00
   0  -2  -4  674.03   16.00
   0  -2  -4  687.43   16.10
   0  -2  -4  692.13   16.10
   0  -2  -4  677.03   16.20
   0   2   4  695.93   16.10
   0   2   4  663.13   15.90
   0   2   4  665.53   16.10
   0   2   4  678.73   16.00
   0   2   4  684.83   16.20
  -1  -2  -4  655.93   15.40
  -1  -2  -4  644.24   15.30
  -1  -2  -4  641.94   15.40
  -1  -2  -4  641.34   15.10
   1   2   4  628.84   15.20
   1   2   4  651.53   15.40
   1   2   4  634.44   15.10
   1   2   4  642.24   15.30
   1   2   4  598.64   14.80
  -2  -2  -4   55.09    1.90
  -2  -2  -4   52.99    2.10
  -2  -2  -4   57.29    2.10
  -2  -2  -4   57.59    2.30
   2   2   4   53.59    1.90
   2   2   4   51.59    2.20
   2   2   4   57.19    2.30
   2   2   4   56.39    2.00
  -3  -2  -4   19.20    1.20
  -3  -2  -4   18.30    1.40
  -3  -2  -4   18.90    1.70
  -3  -2  -4   17.20    1.30
   3   2   4   16.10    1.50
   3   2   4   19.90    1.20
   3   2   4   14.70    1.60
  -4  -2  -4  128.59    4.70
  -4  -2  -4  132.49    4.00
  -4  -2  -4  137.49    4.40
  -4  -2  -4  136.19    4.40
   4   2   4  135.19    3.90
   4   2   4  132.49    4.60
   4   2   4  132.69    4.70
  -5  -2  -4   25.20    2.70
  -5  -2  -4   22.80    2.10
  -5  -2  -4   25.90    1.90
   5   2   4   23.80    1.70
   5   2   4   26.30    2.40
   5   2   4   23.80    2.70
  -6  -2  -4   22.30    2.60
  -6  -2  -4   34.80    3.40
  -6  -2  -4   25.90    2.10
  -6  -2  -4   28.70    2.50
   6   2   4   27.80    2.00
   6   2   4   29.70    3.30
  -7  -2  -4    4.50    1.70
  -7  -2  -4    5.00    1.80
   7   2   4    5.40    2.20
   7   2   4    7.00    1.40
   9  -3  -4    5.60    2.30
   9  -3  -4    7.80    2.60
   9  -3  -4    8.20    1.90
   9  -3  -4    3.90    1.90
  -9   3   4    3.50    1.70
  -9   3   4    7.40    2.60
  -9   3   4    7.80    2.30
   8  -3  -4    2.00    1.40
   8  -3  -4    0.40    0.90
   8  -3  -4    1.50    1.40
   8  -3  -4    0.40    1.70
  -8   3   4    1.90    1.80
  -8   3   4    1.80    1.60
   7  -3  -4  105.29    3.60
   7  -3  -4  106.09    4.40
   7  -3  -4  103.99    4.20
   7  -3  -4  110.49    3.90
  -7   3   4  100.59    4.40
  -7   3   4  110.19    4.50
  -7   3   4  112.29    4.10
  -7   3   4  106.89    4.00
   6  -3  -4   -0.60    1.00
   6  -3  -4   -1.00    0.70
   6  -3  -4   -0.30    0.90
   6  -3  -4    0.50    1.10
  -6   3   4    0.70    0.90
  -6   3   4   -1.00    0.90
  -6   3   4   -2.00    0.90
  -6   3   4    0.60    1.10
   5  -3  -4   10.30    1.20
   5  -3  -4   11.90    1.20
   5  -3  -4   11.80    1.40
   5  -3  -4    9.60    1.20
  -5   3   4   10.30    1.20
  -5   3   4    9.40    1.30
  -5   3   4   11.40    1.30
  -5   3   4    9.30    1.20
   4  -3  -4   43.70    2.00
   4  -3  -4   44.60    2.00
   4  -3  -4   45.40    2.00
   4  -3  -4   45.00    2.10
  -4   3   4   44.40    1.80
  -4   3   4   46.10    2.00
  -4   3   4   39.40    2.20
  -4   3   4   45.00    2.00
  -4   3   4   44.10    2.10
   3  -3  -4  235.58    6.40
   3  -3  -4  250.47    6.40
   3  -3  -4  244.88    6.40
  -3   3   4  239.18    6.30
  -3   3   4  241.28    6.40
  -3   3   4  242.38    6.50
  -3   3   4  238.48    6.20
  -3   3   4  243.68    6.60
   2  -3  -4    6.00    0.80
   2  -3  -4    6.60    0.90
   2  -3  -4    4.40    0.60
   2  -3  -4    5.80    0.70
   2  -3  -4    6.30    0.80
  -2   3   4    4.40    0.80
  -2   3   4    4.90    0.60
  -2   3   4    4.60    0.80
  -2   3   4    5.00    0.80
  -2   3   4    6.10    0.80
   1  -3  -4  841.12   20.20
   1  -3  -4  860.01   20.30
   1  -3  -4  852.41   20.10
   1  -3  -4  855.41   20.10
   1  -3  -4  830.62   20.00
   1  -3  -4  851.21   20.20
  -1   3   4  883.01   20.00
  -1   3   4  879.91   20.50
  -1   3   4  854.91   20.50
  -1   3   4  827.92   20.10
  -1   3   4  843.42   20.10
   0  -3  -4  167.98    4.80
   0  -3  -4  170.68    4.50
   0  -3  -4  163.48    4.50
   0  -3  -4  172.18    4.70
   0  -3  -4  172.58    4.60
   0   3   4  173.38    4.90
   0   3   4  169.08    4.70
   0   3   4  170.78    4.60
   0   3   4  161.28    4.40
   0   3   4  165.08    4.60
  -1  -3  -4   16.50    1.20
  -1  -3  -4   15.10    1.10
  -1  -3  -4   13.80    1.00
  -1  -3  -4   15.60    1.30
   1   3   4   14.10    1.20
   1   3   4   16.80    1.20
   1   3   4   15.70    0.90
  -2  -3  -4    4.50    0.80
  -2  -3  -4    4.50    0.90
  -2  -3  -4    4.70    0.70
  -2  -3  -4    5.70    1.00
   2   3   4    4.10    0.70
   2   3   4    6.60    0.90
   2   3   4    6.30    1.00
   2   3   4    3.90    0.90
  -3  -3  -4  393.26   10.10
  -3  -3  -4  375.56   10.00
  -3  -3  -4  389.56   10.30
  -3  -3  -4  383.26    9.50
   3   3   4  396.76   10.00
   3   3   4  377.56   10.20
   3   3   4  384.46   10.10
   3   3   4  384.86    9.50
  -4  -3  -4   44.60    2.00
  -4  -3  -4   41.40    2.30
  -4  -3  -4   43.20    2.80
  -4  -3  -4   46.70    2.50
  -4  -3  -4   46.10    2.60
   4   3   4   43.90    2.70
   4   3   4   44.60    2.90
   4   3   4   43.40    2.30
   4   3   4   44.10    1.90
  -5  -3  -4    6.70    1.40
  -5  -3  -4    6.40    1.60
  -5  -3  -4    5.70    1.70
  -5  -3  -4    7.30    1.30
   5   3   4    8.50    1.90
   5   3   4    7.10    1.00
   5   3   4    1.60    1.50
  -6  -3  -4    5.50    2.10
  -6  -3  -4    8.80    2.40
  -6  -3  -4    7.50    1.70
  -6  -3  -4    6.50    1.60
   6   3   4    4.10    1.90
   6   3   4    5.50    1.20
   8  -4  -4    7.30    1.90
   8  -4  -4    5.40    1.90
   8  -4  -4    8.70    1.60
   8  -4  -4    5.90    1.60
  -8   4   4    8.50    1.70
  -8   4   4    4.60    1.80
  -8   4   4    4.40    1.90
  -8   4   4    5.90    2.20
   7  -4  -4   61.09    3.00
   7  -4  -4   63.49    3.20
   7  -4  -4   62.29    3.50
   7  -4  -4   61.49    3.30
   7  -4  -4   62.69    2.90
  -7   4   4   62.59    3.20
  -7   4   4   59.09    3.50
  -7   4   4   66.69    3.60
  -7   4   4   64.29    3.30
  -7   4   4   61.39    3.20
   6  -4  -4   27.30    2.30
   6  -4  -4   30.40    2.00
   6  -4  -4   34.10    2.20
   6  -4  -4   30.10    2.30
  -6   4   4   29.20    2.20
  -6   4   4   28.60    2.20
  -6   4   4   26.90    2.30
  -6   4   4   30.40    2.20
  -6   4   4   32.10    2.40
   5  -4  -4   16.40    1.60
   5  -4  -4   17.60    1.50
   5  -4  -4   17.00    1.60
   5  -4  -4   16.10    1.80
  -5   4   4   16.90    1.80
  -5   4   4   19.50    1.70
  -5   4   4   18.40    1.70
  -5   4   4   17.80    1.60
  -5   4   4   19.90    1.70
   4  -4  -4  170.78    4.90
   4  -4  -4  173.08    4.90
   4  -4  -4  175.38    5.10
  -4   4   4  169.18    5.20
  -4   4   4  167.78    4.90
  -4   4   4  179.28    5.30
  -4   4   4  178.68    4.90
  -4   4   4  169.18    5.00
  -4   4   4  167.18    5.00
   3  -4  -4   20.10    1.70
   3  -4  -4   17.30    1.30
   3  -4  -4   16.30    1.40
   3  -4  -4   16.40    1.20
   3  -4  -4   17.40    1.20
  -3   4   4   15.20    1.50
  -3   4   4   16.00    1.50
  -3   4   4   17.90    1.20
  -3   4   4   17.20    1.40
  -3   4   4   17.50    1.40
   2  -4  -4  576.94   14.10
   2  -4  -4  578.14   13.60
   2  -4  -4  568.14   14.00
   2  -4  -4  583.64   13.90
   2  -4  -4  553.04   13.60
  -2   4   4  556.24   13.90
  -2   4   4  551.84   13.50
  -2   4   4  560.24   14.30
  -2   4   4  569.54   14.00
  -2   4   4  564.54   13.70
   1  -4  -4   17.40    1.40
   1  -4  -4   15.70    1.30
   1  -4  -4   17.10    1.20
   1  -4  -4   15.90    1.30
   1  -4  -4   16.40    1.10
  -1   4   4   19.20    1.30
  -1   4   4   18.10    1.50
  -1   4   4   19.00    1.60
  -1   4   4   16.80    1.10
   0  -4  -4  805.22   22.00
   0  -4  -4  928.91   21.30
   0  -4  -4  903.51   21.30
   0  -4  -4  913.71   21.40
   0  -4  -4  920.91   21.80
   0   4   4  914.51   21.70
   0   4   4  936.81   22.00
   0   4   4  892.71   21.40
   0   4   4  910.41   21.40
   0   4   4  910.21   21.40
  -1  -4  -4   96.69    3.20
  -1  -4  -4   95.49    3.40
  -1  -4  -4   88.29    2.80
  -1  -4  -4   94.59    3.00
   1   4   4   91.49    3.20
   1   4   4   93.49    3.30
   1   4   4   96.59    3.20
  -2  -4  -4   30.90    2.00
  -2  -4  -4   30.80    1.70
  -2  -4  -4   27.50    1.40
  -2  -4  -4   30.30    2.00
   2   4   4   30.50    1.80
   2   4   4   27.90    1.90
   2   4   4   27.90    1.90
  -3  -4  -4    6.90    0.80
  -3  -4  -4    6.40    1.50
  -3  -4  -4    9.00    1.40
  -3  -4  -4    7.70    1.10
  -3  -4  -4    6.80    1.40
   3   4   4    5.90    1.50
   3   4   4    5.10    1.20
   3   4   4    5.60    1.10
  -4  -4  -4   -0.40    1.30
  -4  -4  -4    1.60    1.40
  -4  -4  -4   -0.10    0.70
  -4  -4  -4    1.00    1.00
  -4  -4  -4    0.50    0.90
   4   4   4    1.10    1.30
   4   4   4    0.50    0.90
   4   4   4    0.50    1.50
  -5  -4  -4   50.49    2.90
  -5  -4  -4   48.40    3.70
  -5  -4  -4   54.69    3.30
  -5  -4  -4   51.19    3.60
   5   4   4   53.29    3.50
   5   4   4   59.29    3.10
   8  -5  -4   14.50    2.50
   8  -5  -4   12.30    1.90
   8  -5  -4   14.80    2.30
   8  -5  -4   13.70    2.10
  -8   5   4   16.90    4.30
  -8   5   4   13.20    2.20
  -8   5   4   10.70    2.40
  -8   5   4   15.30    2.20
   7  -5  -4   76.79    3.30
   7  -5  -4   77.29    3.70
   7  -5  -4   67.39    4.00
   7  -5  -4   79.79    3.80
   7  -5  -4   68.39    3.40
  -7   5   4   70.49    3.70
  -7   5   4   70.09    3.70
  -7   5   4   68.79    3.60
  -7   5   4   76.19    4.00
  -7   5   4   68.39    3.80
   6  -5  -4    4.40    1.00
   6  -5  -4    2.30    0.90
   6  -5  -4    3.40    1.50
   6  -5  -4    4.80    1.30
   6  -5  -4    4.10    1.40
  -6   5   4    3.80    1.30
  -6   5   4    2.90    1.30
  -6   5   4    2.70    1.30
  -6   5   4    2.40    1.20
  -6   5   4    0.50    1.20
   5  -5  -4   18.40    1.60
   5  -5  -4   22.60    1.70
   5  -5  -4   18.30    2.30
   5  -5  -4   20.80    2.20
   5  -5  -4   20.00    1.70
  -5   5   4   19.70    1.80
  -5   5   4   19.10    2.00
  -5   5   4   19.70    2.00
  -5   5   4   19.70    2.00
  -5   5   4   22.40    2.00
   4  -5  -4   23.20    1.50
   4  -5  -4   19.90    1.50
   4  -5  -4   19.00    2.10
   4  -5  -4   21.70    1.70
  -4   5   4   21.00    2.00
  -4   5   4   19.60    1.90
  -4   5   4   22.40    1.50
  -4   5   4   20.10    1.90
  -4   5   4   23.80    1.90
   3  -5  -4   22.30    2.00
   3  -5  -4   23.40    1.40
   3  -5  -4   21.10    1.30
   3  -5  -4   22.80    1.70
  -3   5   4   23.70    1.40
  -3   5   4   21.10    1.70
  -3   5   4   23.60    1.90
  -3   5   4   22.40    1.70
  -3   5   4   22.50    2.00
   2  -5  -4  189.48    5.00
   2  -5  -4  179.38    5.40
   2  -5  -4  187.78    5.60
   2  -5  -4  185.78    5.60
   2  -5  -4  181.98    4.90
  -2   5   4  184.18    4.90
  -2   5   4  183.88    5.40
  -2   5   4  186.08    5.80
  -2   5   4  179.48    5.00
  -2   5   4  177.48    5.50
   1  -5  -4  188.38    5.50
   1  -5  -4  196.58    5.80
   1  -5  -4  196.48    5.80
   1  -5  -4  194.88    5.20
   1  -5  -4  201.88    5.80
   1  -5  -4  202.88    5.20
  -1   5   4  182.88    5.30
  -1   5   4  199.58    5.20
  -1   5   4  191.38    5.50
  -1   5   4  188.98    6.10
   0  -5  -4   42.40    1.90
   0  -5  -4   40.90    1.80
   0  -5  -4   45.50    2.30
   0  -5  -4   42.80    2.40
   0  -5  -4   42.50    2.00
   0   5   4   43.00    2.50
   0   5   4   42.70    2.20
   0   5   4   42.50    2.00
   0   5   4   43.40    2.00
   0   5   4   44.00    2.10
  -1  -5  -4   20.70    1.70
  -1  -5  -4   19.70    1.80
  -1  -5  -4   17.70    1.20
  -1  -5  -4   17.30    1.40
  -1  -5  -4   19.00    2.40
   1   5   4   21.20    1.80
   1   5   4   20.10    1.80
   1   5   4   20.60    2.00
   1   5   4   20.00    1.70
  -2  -5  -4    5.40    1.20
  -2  -5  -4    1.60    1.50
  -2  -5  -4    5.10    0.70
  -2  -5  -4    2.30    1.20
  -2  -5  -4    6.00    1.00
   2   5   4    7.00    1.40
   2   5   4    6.00    1.30
   2   5   4    6.60    1.40
   2   5   4    5.70    1.10
  -3  -5  -4   65.79    3.20
  -3  -5  -4   65.49    2.80
  -3  -5  -4   65.59    2.10
  -3  -5  -4   60.29    3.90
  -3  -5  -4   72.99    3.50
   3   5   4   63.69    3.50
   3   5   4   68.59    3.20
   3   5   4   70.59    3.30
  -4  -5  -4    0.10    1.30
  -4  -5  -4    3.80    2.10
  -4  -5  -4    2.10    1.10
   4   5   4    2.80    1.60
   4   5   4    2.30    1.50
   4   5   4    1.60    1.20
  -5  -5  -4   22.40    2.60
  -5  -5  -4   28.00    3.10
  -5  -5  -4   27.40    2.60
  -5  -5  -4   25.60    2.90
   5   5   4   24.90    2.60
   5   5   4   26.20    3.00
   7  -6  -4   26.20    3.50
   7  -6  -4   25.50    2.50
   7  -6  -4   22.80    2.80
   7  -6  -4   27.40    2.60
   7  -6  -4   26.70    2.40
  -7   6   4   28.50    2.90
  -7   6   4   23.70    2.60
  -7   6   4   24.90    3.30
  -7   6   4   28.00    3.10
   6  -6  -4    5.00    1.90
   6  -6  -4    5.80    1.40
   6  -6  -4    6.20    1.40
   6  -6  -4    6.20    2.00
   6  -6  -4    6.00    1.30
  -6   6   4    6.10    1.50
  -6   6   4    4.00    1.30
  -6   6   4    6.10    1.60
  -6   6   4    5.80    1.70
  -6   6   4    5.90    1.50
   5  -6  -4   10.20    1.30
   5  -6  -4   10.80    1.20
   5  -6  -4    8.30    1.10
   5  -6  -4    9.40    2.00
   5  -6  -4   11.10    2.00
  -5   6   4    9.70    1.30
  -5   6   4   11.00    1.60
  -5   6   4    9.90    1.60
  -5   6   4    8.10    1.60
   4  -6  -4    5.10    0.90
   4  -6  -4    3.80    1.00
   4  -6  -4    2.90    1.60
   4  -6  -4    6.80    1.60
   4  -6  -4    5.20    0.90
  -4   6   4    4.50    1.20
  -4   6   4    5.40    1.40
  -4   6   4    5.40    1.00
  -4   6   4    4.30    1.30
  -4   6   4    2.10    1.90
   3  -6  -4   29.90    2.00
   3  -6  -4   34.70    2.50
   3  -6  -4   33.70    1.60
   3  -6  -4   31.40    3.00
   3  -6  -4   33.70    2.70
   3  -6  -4   32.40    1.60
  -3   6   4   33.10    1.70
  -3   6   4   31.40    1.90
  -3   6   4   33.90    2.50
  -3   6   4   33.40    2.30
  -3   6   4   36.20    2.60
   2  -6  -4   44.50    1.80
   2  -6  -4   44.70    2.90
   2  -6  -4   47.20    2.70
   2  -6  -4   43.40    3.20
   2  -6  -4   46.90    2.50
  -2   6   4   44.40    2.10
  -2   6   4   43.90    2.80
  -2   6   4   46.40    2.00
  -2   6   4   46.10    2.50
   1  -6  -4   15.30    1.80
   1  -6  -4   16.20    2.10
   1  -6  -4   18.60    1.30
   1  -6  -4   18.50    2.10
   1  -6  -4   19.90    1.80
   1  -6  -4   17.50    1.30
   1  -6  -4   20.20    2.10
  -1   6   4   16.90    1.80
  -1   6   4   16.50    1.50
  -1   6   4   21.10    2.30
   0  -6  -4  665.63   17.70
   0  -6  -4  685.53   16.20
   0  -6  -4  691.33   17.20
   0  -6  -4  689.63   16.30
   0  -6  -4  657.33   16.30
   0  -6  -4  665.53   17.10
   0   6   4  692.13   16.60
   0   6   4  620.34   16.50
   0   6   4  700.63   17.20
   0   6   4  684.93   16.40
  -1  -6  -4    1.10    0.70
  -1  -6  -4    1.10    0.90
  -1  -6  -4    0.10    1.00
  -1  -6  -4    2.50    1.80
  -1  -6  -4    1.10    0.60
   1   6   4   -1.30    0.90
   1   6   4    1.40    1.00
   1   6   4    0.70    1.40
   1   6   4    0.50    1.10
  -2  -6  -4    1.00    0.60
  -2  -6  -4   -1.10    1.10
  -2  -6  -4    0.00    1.90
  -2  -6  -4   -2.80    1.10
  -2  -6  -4    1.10    0.80
   2   6   4    0.80    1.20
   2   6   4    2.50    1.20
   2   6   4    1.50    1.40
   2   6   4    0.90    1.40
  -3  -6  -4   -2.80    1.10
  -3  -6  -4   -3.00    2.10
  -3  -6  -4   -1.40    1.50
  -3  -6  -4   -0.10    0.90
   3   6   4    0.60    1.70
   3   6   4   -0.70    1.50
   3   6   4   -1.70    1.20
  -4  -6  -4    5.00    1.40
  -4  -6  -4    1.70    2.60
  -4  -6  -4    4.50    1.90
  -4  -6  -4    6.60    2.00
   4   6   4    6.40    1.70
   4   6   4    4.30    1.90
   4   6   4    4.10    2.20
   6  -7  -4    7.50    1.30
   6  -7  -4    3.50    1.10
   6  -7  -4    1.20    2.30
  -6   7   4    6.50    1.60
  -6   7   4    4.90    2.00
  -6   7   4    2.60    1.70
  -6   7   4    5.20    1.80
   5  -7  -4   38.00    2.70
   5  -7  -4   38.60    2.10
   5  -7  -4   35.60    4.00
   5  -7  -4   36.20    2.00
  -5   7   4   36.50    2.50
  -5   7   4   37.60    2.40
  -5   7   4   37.30    3.00
  -5   7   4   33.90    3.20
   4  -7  -4   30.10    1.70
   4  -7  -4   27.30    1.60
   4  -7  -4   25.70    2.30
   4  -7  -4   26.90    3.10
  -4   7   4   25.70    2.90
  -4   7   4   25.90    2.50
  -4   7   4   26.40    2.80
  -4   7   4   25.80    1.90
   3  -7  -4   39.60    3.70
   3  -7  -4   37.00    1.70
   3  -7  -4   37.50    1.70
   3  -7  -4   33.30    3.00
  -3   7   4   38.40    2.80
  -3   7   4   40.30    3.20
  -3   7   4   38.10    1.90
  -3   7   4   36.80    2.10
   2  -7  -4   24.30    1.40
   2  -7  -4   25.00    2.80
   2  -7  -4   26.50    3.20
   2  -7  -4   21.40    1.50
   2  -7  -4   22.70    2.20
  -2   7   4   21.60    1.90
  -2   7   4   22.60    2.60
   1  -7  -4   13.40    2.50
   1  -7  -4   13.50    1.70
   1  -7  -4   22.70    2.40
   1  -7  -4   18.80    2.30
   1  -7  -4   17.10    1.90
   1  -7  -4   16.10    1.30
   1  -7  -4   15.50    1.40
  -1   7   4   18.60    1.80
  -1   7   4   16.60    2.30
  -1   7   4   17.20    1.90
   0  -7  -4    2.50    1.80
   0  -7  -4   -0.10    0.70
   0  -7  -4   -0.60    1.00
   0  -7  -4   -0.10    0.90
   0  -7  -4   -0.10    1.20
   0   7   4    0.20    1.10
   0   7   4   -2.00    1.20
   0   7   4   -1.30    1.40
  -1  -7  -4    1.40    1.40
  -1  -7  -4   -2.10    1.80
  -1  -7  -4    0.40    1.10
  -1  -7  -4    0.80    0.80
   1   7   4   -0.60    1.30
   1   7   4    2.60    1.50
   1   7   4    1.10    1.60
   1   7   4    0.50    1.50
  -2  -7  -4   34.60    3.00
  -2  -7  -4   29.10    2.10
  -2  -7  -4   25.40    2.60
   2   7   4   26.00    3.40
   2   7   4   28.50    2.90
   2   7   4   25.20    2.90
   4  -8  -4   19.40    2.10
  -4   8   4   19.60    1.80
  -4   8   4   17.90    2.60
  -4   8   4   18.90    2.40
  -4   8   4   16.60    2.10
   3  -8  -4    3.20    1.40
   3  -8  -4    2.80    2.20
  -3   8   4   -1.10    1.60
  -3   8   4    1.90    1.50
  -3   8   4    2.70    1.00
  -3   8   4    2.80    1.00
   2  -8  -4   17.20    2.00
   2  -8  -4   15.30    1.90
   2  -8  -4   14.80    2.50
  -2   8   4   13.80    2.40
  -2   8   4   15.20    2.00
  -2   8   4   15.20    1.80
  -2   8   4   14.90    1.80
   1  -8  -4   15.10    1.40
   1  -8  -4   17.60    1.80
   1  -8  -4   14.30    1.30
   1  -8  -4   15.20    2.00
  -1   8   4   17.10    2.60
  -1   8   4   15.40    1.60
  -1   8   4   14.10    1.60
   0  -8  -4    8.40    1.70
   0  -8  -4    9.40    1.10
   0  -8  -4    8.00    1.20
   0  -8  -4    6.80    1.30
   0   8   4   10.30    1.70
   0   8   4    5.60    2.00
   2   9  -5   28.50    1.90
   2   9  -5   26.20    2.20
   2   9  -5   33.60    3.10
   1   9  -5   -2.80    1.40
  -1  -9   5    0.70    0.70
  -1  -9   5   -3.10    1.80
  -1  -9   5   -0.40    1.20
   0   9  -5   10.20    2.00
   0   9  -5   13.70    2.10
   0  -9   5   11.60    1.60
   0  -9   5   13.20    1.50
   1  -9   5    3.30    1.00
   1  -9   5    0.10    0.90
   2  -9   5    3.60    0.90
   2  -9   5    1.60    1.20
  -3   9  -5   78.19    4.50
   3  -9   5   90.89    3.90
   3  -9   5   83.49    2.90
  -4   9  -5   15.70    2.30
   4  -9   5   17.50    2.20
   4   8  -5    2.90    1.60
   4   8  -5    2.10    1.60
  -4  -8   5    0.90    1.10
  -4  -8   5    0.10    1.10
   3   8  -5   97.99    3.90
   3   8  -5   99.99    4.60
   3   8  -5  104.89    4.80
   3   8  -5  103.59    4.10
  -3  -8   5  107.29    3.50
  -3  -8   5  101.79    4.70
  -3  -8   5  111.29    3.60
   2   8  -5    6.70    1.20
   2   8  -5    5.50    1.50
   2   8  -5    8.10    1.20
   2   8  -5    6.30    1.60
  -2  -8   5    6.00    0.80
  -2  -8   5    4.30    1.80
  -2  -8   5    6.70    0.90
   1   8  -5   38.40    3.10
   1   8  -5   35.40    2.70
  -1  -8   5   39.50    3.00
  -1  -8   5   34.50    3.50
  -1  -8   5   32.30    3.10
  -1  -8   5   36.90    1.70
   0   8  -5    2.60    1.20
   0   8  -5    7.30    1.80
   0  -8   5    6.20    1.90
   0  -8   5    6.00    0.90
   0  -8   5    6.40    1.70
   0  -8   5    6.30    1.80
   0  -8   5    6.50    1.10
  -1   8  -5   -0.20    1.40
   1  -8   5   -1.40    1.30
   1  -8   5   -3.40    1.50
   1  -8   5    0.70    0.80
   1  -8   5   -2.30    1.80
   1  -8   5    0.30    0.90
   1  -8   5    1.10    1.50
  -2   8  -5   -1.80    1.10
  -2   8  -5   -1.90    1.40
   2  -8   5    0.00    0.70
   2  -8   5   -0.20    0.80
   2  -8   5    0.30    1.30
   2  -8   5    0.30    1.80
   2  -8   5   -1.40    1.80
   2  -8   5   -1.20    1.60
  -3   8  -5    8.00    1.60
  -3   8  -5    8.50    1.80
   3  -8   5    9.30    1.00
   3  -8   5    6.90    2.20
   3  -8   5    7.90    1.70
   3  -8   5    7.30    2.30
   3  -8   5    9.10    1.50
  -4   8  -5   39.70    3.30
  -4   8  -5   41.50    1.80
  -4   8  -5   40.60    1.60
   4  -8   5   35.80    2.80
   4  -8   5   43.10    3.40
  -5   8  -5   11.60    1.60
  -5   8  -5   10.60    1.20
  -5   8  -5    9.20    2.00
   5  -8   5   12.20    2.10
   5  -8   5   10.30    1.00
   5   7  -5   21.20    2.50
   5   7  -5   18.70    2.30
  -5  -7   5   21.20    2.20
  -5  -7   5   27.40    2.40
   4   7  -5    6.50    1.60
   4   7  -5    7.20    1.60
   4   7  -5    3.90    1.50
   4   7  -5    7.80    1.80
  -4  -7   5    6.50    1.30
  -4  -7   5    6.40    1.20
  -4  -7   5    1.60    3.10
   3   7  -5    5.60    1.40
   3   7  -5    4.20    1.30
   3   7  -5    5.50    1.40
  -3  -7   5    4.00    1.00
  -3  -7   5    6.50    2.00
  -3  -7   5    4.80    1.40
  -3  -7   5    4.50    1.10
   2   7  -5    7.30    1.50
   2   7  -5    7.70    1.60
   2   7  -5    5.50    1.00
   2   7  -5    6.60    1.10
  -2  -7   5    5.80    0.80
  -2  -7   5    6.90    1.30
  -2  -7   5    3.90    1.50
  -2  -7   5    6.60    0.80
  -2  -7   5    5.90    1.40
  -2  -7   5    5.60    0.70
   1   7  -5   36.10    1.60
   1   7  -5   38.00    2.60
   1   7  -5   37.00    2.40
   1   7  -5   36.70    1.60
  -1  -7   5   32.70    2.90
  -1  -7   5   36.80    1.40
  -1  -7   5   38.90    2.50
  -1  -7   5   34.60    1.40
  -1  -7   5   36.50    1.60
  -1  -7   5   38.40    2.50
   0   7  -5    7.00    1.40
   0   7  -5    6.30    1.20
   0  -7   5    5.10    1.30
   0  -7   5    9.20    1.50
   0  -7   5    7.20    0.90
   0  -7   5    8.90    1.40
  -1   7  -5   -1.30    1.00
   1  -7   5    0.50    0.60
   1  -7   5    0.00    1.30
   1  -7   5    0.30    1.00
   1  -7   5    0.90    1.30
   1  -7   5   -1.40    0.70
   1  -7   5   -2.00    1.20
  -2   7  -5   33.90    2.60
  -2   7  -5   34.40    2.40
   2  -7   5   35.10    2.00
   2  -7   5   31.40    2.70
   2  -7   5   29.30    2.30
   2  -7   5   32.60    1.40
   2  -7   5   34.00    2.70
  -3   7  -5  254.07    6.20
  -3   7  -5  261.87    7.80
  -3   7  -5  230.38    9.50
  -3   7  -5  260.27    6.40
   3  -7   5  255.57    7.50
   3  -7   5  265.07    6.10
   3  -7   5  251.77    7.30
   3  -7   5  242.58    6.10
   3  -7   5  239.28    7.90
   3  -7   5  256.67    7.60
  -4   7  -5   22.60    1.90
  -4   7  -5   26.50    2.80
  -4   7  -5   21.30    2.40
   4  -7   5   20.10    1.50
   4  -7   5   25.90    2.80
   4  -7   5   24.20    2.50
   4  -7   5   20.80    2.20
   4  -7   5   25.30    2.90
   4  -7   5   20.00    1.30
  -5   7  -5    1.50    1.40
  -5   7  -5    0.20    1.30
  -5   7  -5    2.10    1.10
   5  -7   5    2.10    1.30
   5  -7   5    0.90    1.00
   5  -7   5    2.20    0.80
   5  -7   5   -1.20    1.40
  -6   7  -5    5.20    1.80
  -6   7  -5    5.00    1.50
  -6   7  -5    6.00    1.80
   6  -7   5    3.90    2.10
   6  -7   5    5.50    1.40
   6  -7   5    2.80    1.10
   6  -7   5    3.60    1.60
   6   6  -5    3.00    2.00
  -6  -6   5    7.60    2.00
  -6  -6   5    1.50    1.40
   5   6  -5   -0.60    1.20
   5   6  -5    1.00    1.60
   5   6  -5    1.80    1.90
   5   6  -5    0.20    1.20
  -5  -6   5    2.00    1.40
  -5  -6   5   -0.40    1.00
   4   6  -5   -0.20    0.90
   4   6  -5    1.10    1.10
   4   6  -5    2.20    1.40
   4   6  -5    1.40    1.20
  -4  -6   5   -0.50    0.80
  -4  -6   5    1.20    1.00
   3   6  -5   21.40    2.20
   3   6  -5   24.10    2.00
   3   6  -5   18.10    1.80
   3   6  -5   19.60    1.90
  -3  -6   5   19.90    1.60
  -3  -6   5   20.40    2.40
  -3  -6   5   21.50    1.60
   2   6  -5   61.99    2.90
   2   6  -5   64.69    3.20
   2   6  -5   60.49    2.50
   2   6  -5   63.09    2.40
  -2  -6   5   63.09    2.00
  -2  -6   5   58.99    2.20
  -2  -6   5   62.59    2.30
  -2  -6   5   60.89    2.70
  -2  -6   5   58.69    3.10
   1   6  -5   14.80    1.80
   1   6  -5   16.80    1.30
   1   6  -5   15.30    1.60
   1   6  -5   17.40    1.20
  -1  -6   5   17.60    1.70
  -1  -6   5   14.50    0.90
  -1  -6   5   15.00    1.00
  -1  -6   5   17.30    2.00
  -1  -6   5   18.30    1.10
  -1  -6   5   18.00    1.80
   0   6  -5   57.19    2.40
   0   6  -5   60.79    1.90
   0   6  -5   58.09    1.90
   0   6  -5   58.19    2.60
   0   6  -5   60.79    2.90
   0  -6   5   64.29    2.90
   0  -6   5   56.29    2.10
   0  -6   5   60.29    1.80
   0  -6   5   60.59    2.90
   0  -6   5   59.69    1.80
   0  -6   5   62.09    2.70
  -1   6  -5   43.50    2.40
  -1   6  -5   33.60    2.40
  -1   6  -5   39.40    2.30
  -1   6  -5   39.10    1.40
  -1   6  -5   39.80    1.40
   1  -6   5   37.00    2.40
   1  -6   5   39.10    1.30
   1  -6   5   42.20    1.90
   1  -6   5   40.80    2.30
   1  -6   5   36.60    2.10
   1  -6   5   40.40    2.60
   1  -6   5   40.30    1.30
  -2   6  -5   74.69    2.20
  -2   6  -5   75.49    3.30
  -2   6  -5   72.39    2.30
  -2   6  -5   74.39    3.30
   2  -6   5   75.49    3.00
   2  -6   5   76.79    2.20
   2  -6   5   70.89    2.10
   2  -6   5   74.19    3.40
   2  -6   5   67.79    3.10
   2  -6   5   74.99    2.90
   2  -6   5   74.29    2.20
  -3   6  -5   33.70    1.50
  -3   6  -5   33.20    1.70
  -3   6  -5   32.50    2.30
  -3   6  -5   30.90    2.40
   3  -6   5   35.80    2.20
   3  -6   5   33.30    2.40
   3  -6   5   33.50    1.40
   3  -6   5   30.60    1.50
   3  -6   5   34.80    2.70
   3  -6   5   31.80    2.10
  -4   6  -5  133.29    4.00
  -4   6  -5  133.49    4.80
  -4   6  -5  139.89    4.30
  -4   6  -5  131.99    5.00
   4  -6   5  134.99    4.80
   4  -6   5  133.79    5.30
   4  -6   5  132.99    4.70
   4  -6   5  130.29    4.10
   4  -6   5  135.09    4.60
   4  -6   5  138.89    3.90
  -5   6  -5   16.00    2.00
  -5   6  -5   17.60    1.80
  -5   6  -5   17.70    2.20
  -5   6  -5   19.20    2.30
   5  -6   5   18.60    1.60
   5  -6   5   14.10    1.70
   5  -6   5   23.50    2.40
   5  -6   5   15.10    1.90
  -6   6  -5    2.60    1.30
  -6   6  -5    1.60    1.70
  -6   6  -5   -1.90    1.40
   6  -6   5    1.60    1.30
   6  -6   5    1.80    1.00
   6  -6   5    1.90    1.40
  -7   6  -5   23.40    2.80
  -7   6  -5   24.00    3.00
   7  -6   5   27.30    2.90
   7  -6   5   24.90    2.40
   7  -6   5   20.30    2.50
   7   5  -5   22.60    3.00
  -7  -5   5   24.90    3.00
  -7  -5   5   21.40    2.80
   6   5  -5    0.00    1.60
   6   5  -5    0.80    1.20
  -6  -5   5    1.40    1.30
  -6  -5   5    0.80    1.70
   5   5  -5   76.49    3.30
   5   5  -5   73.29    3.70
   5   5  -5   79.29    3.60
  -5  -5   5   82.29    3.60
  -5  -5   5   68.39    3.90
   4   5  -5   39.90    2.50
   4   5  -5   34.40    2.30
   4   5  -5   36.40    1.30
   4   5  -5   34.20    2.40
  -4  -5   5   36.30    2.20
  -4  -5   5   39.50    2.20
   3   5  -5  162.38    5.00
   3   5  -5  153.48    4.10
   3   5  -5  159.68    4.90
   3   5  -5  160.28    4.80
   3   5  -5  157.88    5.20
  -3  -5   5  160.28    4.70
  -3  -5   5  161.28    5.20
  -3  -5   5  155.38    4.70
   2   5  -5    1.90    0.50
   2   5  -5    1.00    0.80
   2   5  -5    0.50    0.70
   2   5  -5    2.80    0.80
   2   5  -5    1.60    1.00
  -2  -5   5    2.60    0.50
  -2  -5   5    1.90    0.90
  -2  -5   5    2.00    0.60
  -2  -5   5    1.70    0.70
  -2  -5   5    0.90    0.60
   1   5  -5  133.59    3.80
   1   5  -5  134.89    4.20
   1   5  -5  140.49    4.60
   1   5  -5  137.09    3.90
   1   5  -5  140.09    3.80
  -1  -5   5  132.29    3.70
  -1  -5   5  135.79    4.20
  -1  -5   5  138.19    3.80
  -1  -5   5  136.09    4.50
  -1  -5   5  133.89    3.70
   0   5  -5    2.80    0.70
   0   5  -5    3.00    0.70
   0   5  -5    3.80    0.80
   0   5  -5    2.70    0.50
   0   5  -5    3.30    0.80
   0   5  -5    3.40    0.60
   0  -5   5    2.40    0.80
   0  -5   5    4.50    0.60
   0  -5   5    3.30    1.00
   0  -5   5    4.00    0.50
   0  -5   5    4.60    0.70
   0  -5   5    4.10    1.00
  -1   5  -5  303.47    8.20
  -1   5  -5  303.47    8.00
  -1   5  -5  309.77    7.40
  -1   5  -5  302.07    8.40
   1  -5   5  299.87    7.80
   1  -5   5  298.57    8.20
   1  -5   5  302.67    7.40
   1  -5   5  302.67    7.90
   1  -5   5  307.47    8.30
   1  -5   5  306.97    8.00
   1  -5   5  293.27    7.30
  -2   5  -5   36.30    2.10
  -2   5  -5   34.20    2.00
  -2   5  -5   34.20    2.10
  -2   5  -5   35.20    1.40
  -2   5  -5   35.20    1.50
   2  -5   5   35.40    1.10
   2  -5   5   35.30    1.90
   2  -5   5   35.40    1.40
   2  -5   5   35.20    1.40
   2  -5   5   34.50    2.00
   2  -5   5   34.20    1.10
   2  -5   5   34.40    1.80
  -3   5  -5   19.20    1.80
  -3   5  -5   17.10    1.80
  -3   5  -5   19.40    1.40
  -3   5  -5   17.00    1.90
  -3   5  -5   17.60    1.30
   3  -5   5   19.40    1.20
   3  -5   5   17.30    1.90
   3  -5   5   20.00    1.80
   3  -5   5   15.60    1.20
   3  -5   5   20.60    1.70
  -4   5  -5   61.49    2.90
  -4   5  -5   65.49    3.10
  -4   5  -5   63.09    2.50
  -4   5  -5   63.69    2.70
   4  -5   5   65.99    3.00
   4  -5   5   63.19    2.80
   4  -5   5   64.49    2.50
   4  -5   5   71.79    3.00
   4  -5   5   63.39    2.60
  -5   5  -5   17.70    2.20
  -5   5  -5   18.80    1.90
  -5   5  -5   21.80    1.90
   5  -5   5   21.70    1.90
   5  -5   5   19.70    1.70
  -6   5  -5   45.60    2.50
  -6   5  -5   49.90    3.20
  -6   5  -5   43.50    3.30
  -6   5  -5   49.70    2.90
   6  -5   5   50.49    3.00
   6  -5   5   48.30    3.10
   6  -5   5   48.80    2.60
  -7   5  -5    1.00    1.60
  -7   5  -5    1.00    1.20
  -7   5  -5   -2.20    1.60
   7  -5   5   -1.10    1.40
   7  -5   5   -2.50    1.20
   7  -5   5   -0.90    1.80
   7   4  -5   54.29    2.70
   7   4  -5   48.30    2.30
   7   4  -5   53.09    4.00
   7   4  -5   50.49    2.40
  -7  -4   5   48.10    3.50
  -7  -4   5   55.29    4.10
   6   4  -5    1.20    1.00
   6   4  -5   -0.50    0.60
   6   4  -5    0.10    1.80
   6   4  -5    1.20    1.40
  -6  -4   5    0.90    1.40
  -6  -4   5    0.00    1.10
  -6  -4   5    2.20    1.60
   5   4  -5   -0.10    0.50
   5   4  -5   -1.10    1.30
   5   4  -5   -1.40    1.10
  -5  -4   5    0.50    1.00
   4   4  -5    0.70    1.00
   4   4  -5    0.80    0.80
   4   4  -5    1.30    0.50
   4   4  -5    1.60    1.00
  -4  -4   5    0.90    0.80
  -4  -4   5   -0.10    0.80
   3   4  -5  296.47    8.00
   3   4  -5  287.47    7.80
   3   4  -5  303.67    7.80
   3   4  -5  290.07    7.10
  -3  -4   5  287.57    7.30
  -3  -4   5  291.37    7.80
  -3  -4   5  291.77    7.70
   2   4  -5    0.40    0.60
   2   4  -5    0.10    0.60
   2   4  -5    0.30    0.60
   2   4  -5   -0.10    0.50
   2   4  -5    0.40    0.40
  -2  -4   5    0.40    0.30
  -2  -4   5    0.30    0.50
  -2  -4   5    0.10    0.50
  -2  -4   5    0.50    0.70
  -2  -4   5    1.30    0.50
   1   4  -5   73.09    2.50
   1   4  -5   74.29    2.90
   1   4  -5   72.79    2.30
   1   4  -5   71.19    2.40
   1   4  -5   77.29    2.40
  -1  -4   5   74.89    2.30
  -1  -4   5   72.09    2.30
  -1  -4   5   72.79    2.60
  -1  -4   5   73.59    2.70
  -1  -4   5   75.19    2.40
   0   4  -5  347.47    8.80
   0   4  -5  345.37    8.60
   0   4  -5  338.47    9.00
   0   4  -5  351.96    8.80
   0   4  -5  363.06    9.30
   0   4  -5  363.36    8.60
   0  -4   5  359.16    8.60
   0  -4   5  357.16    8.70
   0  -4   5  355.96    9.10
   0  -4   5  342.27    8.50
  -1   4  -5   33.90    1.40
  -1   4  -5   35.00    1.70
  -1   4  -5   32.70    1.80
  -1   4  -5   32.30    1.30
  -1   4  -5   33.20    1.70
   1  -4   5   32.30    1.50
   1  -4   5   32.80    1.60
   1  -4   5   34.70    1.30
   1  -4   5   33.20    1.30
   1  -4   5   33.70    1.20
   1  -4   5   33.00    1.60
  -2   4  -5   12.90    1.30
  -2   4  -5   12.60    1.00
  -2   4  -5    9.90    1.30
  -2   4  -5   10.60    1.30
   2  -4   5   12.50    1.00
   2  -4   5   11.90    1.10
   2  -4   5   10.60    0.90
   2  -4   5   11.60    1.20
   2  -4   5   10.30    1.10
  -3   4  -5   53.29    2.60
  -3   4  -5   52.19    2.10
  -3   4  -5   53.49    2.40
  -3   4  -5   54.39    2.20
  -3   4  -5   55.49    2.60
   3  -4   5   55.09    2.40
   3  -4   5   57.79    2.30
   3  -4   5   55.79    2.10
   3  -4   5   54.19    2.20
  -4   4  -5  162.68    4.90
  -4   4  -5  168.58    5.00
  -4   4  -5  163.08    4.80
   4  -4   5  160.58    4.90
   4  -4   5  164.58    5.20
   4  -4   5  157.28    4.80
   4  -4   5  176.68    4.90
  -5   4  -5   13.40    1.40
  -5   4  -5   10.20    1.30
  -5   4  -5   13.30    1.70
  -5   4  -5   11.40    1.60
   5  -4   5   12.50    1.50
   5  -4   5   12.20    1.50
   5  -4   5   15.20    1.90
  -6   4  -5   65.29    2.60
  -6   4  -5   67.69    3.30
  -6   4  -5   68.49    2.70
  -6   4  -5   68.39    3.70
   6  -4   5   69.99    3.50
   6  -4   5   63.89    3.40
   6  -4   5   63.99    3.10
  -7   4  -5    7.50    1.80
  -7   4  -5    7.40    1.20
   7  -4   5    3.50    1.40
   7  -4   5    5.00    2.00
   7  -4   5    4.90    1.60
   8   3  -5    2.90    2.20
   8   3  -5    3.10    1.60
   8   3  -5    3.50    1.50
  -8  -3   5    4.40    1.90
  -8  -3   5    3.50    2.40
   7   3  -5    1.90    0.90
   7   3  -5    2.80    1.80
   7   3  -5    3.70    1.30
   7   3  -5    4.00    2.20
  -7  -3   5    1.50    1.90
  -7  -3   5    1.70    1.30
  -7  -3   5    5.00    2.00
   6   3  -5  109.89    3.70
   6   3  -5  107.99    4.50
   6   3  -5  110.19    3.50
   6   3  -5  111.89    4.50
  -6  -3   5  111.09    4.40
  -6  -3   5  104.59    4.40
  -6  -3   5  104.29    4.40
   5   3  -5  126.99    4.10
   5   3  -5  126.39    3.70
   5   3  -5  127.29    4.60
   5   3  -5  126.79    4.60
  -5  -3   5  126.59    4.50
  -5  -3   5  129.69    4.50
  -5  -3   5  131.29    4.50
   4   3  -5  209.78    5.90
   4   3  -5  212.78    6.10
   4   3  -5  211.68    6.10
   4   3  -5  204.48    5.40
  -4  -3   5  201.18    6.00
  -4  -3   5  210.98    6.00
  -4  -3   5  209.78    6.10
   3   3  -5   31.10    1.30
   3   3  -5   30.90    1.70
   3   3  -5   29.90    1.70
  -3  -3   5   30.70    1.10
  -3  -3   5   31.60    1.70
  -3  -3   5   31.30    1.70
   2   3  -5   86.09    2.60
   2   3  -5   88.29    2.80
   2   3  -5   89.59    3.00
   2   3  -5   87.99    2.80
  -2  -3   5   86.29    2.50
  -2  -3   5   88.69    2.80
  -2  -3   5   86.39    2.50
  -2  -3   5   89.49    2.90
  -2  -3   5   85.89    2.70
  -2  -3   5   84.69    2.80
   1   3  -5   41.00    1.50
   1   3  -5   41.60    1.60
   1   3  -5   42.20    1.60
   1   3  -5   40.40    1.60
  -1  -3   5   39.60    1.70
  -1  -3   5   40.30    1.60
  -1  -3   5   41.80    1.50
  -1  -3   5   41.90    1.60
  -1  -3   5   39.70    1.50
   0   3  -5  464.05   11.20
   0   3  -5  462.35   11.50
   0   3  -5  468.75   11.40
   0   3  -5  468.35   11.30
   0  -3   5  475.05   11.20
   0  -3   5  470.65   11.30
   0  -3   5  478.25   11.40
   0  -3   5  476.45   11.50
   0  -3   5  472.35   11.20
  -1   3  -5   46.90    1.70
  -1   3  -5   46.30    1.90
  -1   3  -5   44.80    1.90
  -1   3  -5   44.40    1.60
   1  -3   5   45.40    1.50
   1  -3   5   45.00    1.60
   1  -3   5   43.80    1.70
   1  -3   5   46.70    1.80
   1  -3   5   47.50    1.70
   1  -3   5   44.40    1.30
  -2   3  -5   34.10    1.50
  -2   3  -5   34.90    1.80
  -2   3  -5   33.70    1.50
  -2   3  -5   34.30    1.80
   2  -3   5   35.60    1.50
   2  -3   5   32.80    1.50
   2  -3   5   35.00    1.60
   2  -3   5   33.40    1.40
  -3   3  -5    9.80    1.00
  -3   3  -5   12.10    1.10
  -3   3  -5    9.20    1.10
  -3   3  -5   11.30    1.30
   3  -3   5   12.80    1.10
   3  -3   5   12.00    1.20
   3  -3   5   10.70    1.10
   3  -3   5   11.60    1.10
  -4   3  -5   81.19    2.80
  -4   3  -5   77.19    3.30
  -4   3  -5   77.99    3.20
  -4   3  -5   82.49    3.00
   4  -3   5   84.49    3.10
   4  -3   5   79.59    3.00
   4  -3   5   79.69    3.10
  -5   3  -5  118.89    3.60
  -5   3  -5  122.69    4.40
  -5   3  -5  101.89    3.20
  -5   3  -5  125.29    4.10
  -5   3  -5  116.89    3.00
   5  -3   5  119.79    4.10
   5  -3   5  115.79    4.40
   5  -3   5  122.69    4.20
  -6   3  -5   14.70    1.30
  -6   3  -5   14.50    2.10
  -6   3  -5   13.60    1.20
  -6   3  -5   11.70    1.00
  -6   3  -5   17.30    2.10
  -6   3  -5   14.10    1.40
   6  -3   5   15.90    2.00
   6  -3   5   10.50    2.90
   6  -3   5   13.30    1.60
  -7   3  -5    3.10    0.80
  -7   3  -5    2.80    1.10
  -7   3  -5    2.60    1.60
  -7   3  -5    3.60    1.00
   7  -3   5    2.00    1.30
   7  -3   5    2.30    2.00
   7  -3   5    2.50    1.40
   8   2  -5    5.60    1.60
   8   2  -5    8.70    2.10
  -8  -2   5    4.30    1.80
  -8  -2   5    2.70    2.20
   7   2  -5   46.60    2.00
   7   2  -5   52.09    3.50
   7   2  -5   46.70    3.60
  -7  -2   5   46.70    3.50
  -7  -2   5   44.80    3.10
  -7  -2   5   48.70    3.30
   6   2  -5    4.70    1.40
   6   2  -5    2.20    1.50
   6   2  -5    4.30    0.90
  -6  -2   5    2.60    1.20
  -6  -2   5    0.90    1.20
  -6  -2   5    3.10    1.30
   5   2  -5    2.40    0.80
   5   2  -5    3.40    1.10
   5   2  -5    2.40    0.70
   5   2  -5    4.00    1.10
  -5  -2   5    3.80    1.20
  -5  -2   5    1.20    1.00
  -5  -2   5    4.50    1.10
   4   2  -5    0.30    0.50
   4   2  -5    0.20    0.60
   4   2  -5   -0.40    0.80
  -4  -2   5    0.30    0.70
  -4  -2   5   -0.10    0.60
  -4  -2   5    0.80    0.70
   3   2  -5  188.18    4.90
   3   2  -5  185.78    5.30
   3   2  -5  191.08    5.30
  -3  -2   5  188.08    5.30
  -3  -2   5  193.38    5.40
  -3  -2   5  185.28    5.20
   2   2  -5   50.49    1.90
   2   2  -5   48.30    1.70
   2   2  -5   50.19    1.90
  -2  -2   5   49.50    1.90
  -2  -2   5   49.10    1.70
  -2  -2   5   48.10    1.90
  -2  -2   5   50.39    1.70
  -2  -2   5   52.19    1.90
   1   2  -5   58.99    1.90
   1   2  -5   58.99    1.90
   1   2  -5   59.19    1.90
   1   2  -5   56.99    2.00
   1   2  -5   60.09    2.00
  -1  -2   5   59.89    1.90
  -1  -2   5   59.79    1.90
  -1  -2   5   57.09    1.90
  -1  -2   5   62.69    2.10
  -1  -2   5   60.59    1.90
   0   2  -5  126.89    3.30
   0   2  -5  130.89    3.70
   0   2  -5  138.79    3.60
   0   2  -5  128.49    3.60
   0   2  -5  134.99    3.60
   0   2  -5  129.69    3.40
   0  -2   5  128.89    3.60
   0  -2   5  134.69    3.70
   0  -2   5  131.49    3.60
   0  -2   5  135.09    3.50
  -1   2  -5  364.46    8.80
  -1   2  -5  344.57    8.70
  -1   2  -5  326.67    8.50
  -1   2  -5  362.26    8.80
   1  -2   5  352.56    8.40
   1  -2   5  362.66    8.70
   1  -2   5  353.16    8.30
   1  -2   5  355.86    8.80
   1  -2   5  360.96    8.80
  -2   2  -5 1007.90   23.60
  -2   2  -5 1008.20   23.40
  -2   2  -5  948.81   22.90
  -2   2  -5  999.70   23.50
   2  -2   5 1013.30   23.50
   2  -2   5  981.70   23.10
   2  -2   5 1004.10   23.40
   2  -2   5  994.50   23.50
  -3   2  -5  114.79    2.90
  -3   2  -5  102.59    4.00
  -3   2  -5  110.99    3.70
  -3   2  -5  115.89    3.50
   3  -2   5  112.89    3.20
   3  -2   5  115.29    3.60
   3  -2   5  120.99    3.60
   3  -2   5  111.79    3.60
  -4   2  -5   88.89    3.10
  -4   2  -5   88.69    3.30
  -4   2  -5   84.09    2.40
  -4   2  -5   85.99    3.40
   4  -2   5   80.69    3.10
   4  -2   5   85.29    3.20
   4  -2   5   85.89    3.30
  -5   2  -5  194.38    5.80
  -5   2  -5  187.88    6.00
  -5   2  -5  187.18    4.90
  -5   2  -5  187.08    5.00
  -5   2  -5  187.38    6.00
   5  -2   5  192.88    6.00
   5  -2   5  182.48    5.80
   5  -2   5  192.28    5.80
  -6   2  -5  123.39    4.50
  -6   2  -5  118.69    3.60
  -6   2  -5  109.89    4.80
   6  -2   5  111.69    4.30
   6  -2   5  130.59    4.90
   6  -2   5  121.39    4.50
  -7   2  -5   27.50    2.40
  -7   2  -5   26.80    3.90
  -7   2  -5   27.40    2.00
   7  -2   5   40.30    3.70
   7  -2   5   28.00    2.60
   7  -2   5   29.40    2.70
   8   1  -5    9.50    2.50
   8   1  -5   13.20    2.10
  -8  -1   5    8.60    2.40
  -8  -1   5   13.30    2.30
  -8  -1   5   12.20    2.40
   7   1  -5   78.59    4.10
   7   1  -5   76.89    2.60
   7   1  -5   80.29    3.80
  -7  -1   5   76.69    3.80
  -7  -1   5   72.19    4.00
  -7  -1   5   74.89    3.80
   6   1  -5  122.79    4.60
   6   1  -5  123.09    4.60
  -6  -1   5  129.59    4.70
  -6  -1   5  120.69    4.40
  -6  -1   5  126.69    4.60
   5   1  -5  116.79    4.10
   5   1  -5  120.69    4.10
  -5  -1   5  114.09    4.10
  -5  -1   5  122.39    4.10
  -5  -1   5  114.19    4.00
   4   1  -5   27.20    1.70
   4   1  -5   26.10    1.70
  -4  -1   5   27.80    1.70
  -4  -1   5   29.40    1.70
   3   1  -5  790.32   18.40
   3   1  -5  758.32   18.30
   3   1  -5  739.93   18.40
   3   1  -5  758.32   18.10
  -3  -1   5  766.12   18.40
  -3  -1   5  752.32   18.30
  -3  -1   5  786.72   18.30
   2   1  -5  262.77    6.50
   2   1  -5  258.27    6.60
   2   1  -5  270.47    6.60
   2   1  -5  261.57    6.60
  -2  -1   5  261.87    6.60
  -2  -1   5  252.97    6.60
  -2  -1   5  222.98    6.50
  -2  -1   5  256.87    6.10
   1   1  -5   64.89    2.10
   1   1  -5   63.09    2.10
   1   1  -5   65.79    2.10
   1   1  -5   63.89    1.80
   1   1  -5   63.69    2.00
  -1  -1   5   65.19    2.10
  -1  -1   5   58.99    2.00
  -1  -1   5   65.39    2.00
  -1  -1   5   62.99    2.10
   0   1  -5  197.88    5.10
   0   1  -5  189.88    5.00
   0   1  -5  187.48    5.00
   0   1  -5  194.68    4.90
   0  -1   5  194.88    5.00
   0  -1   5  186.48    4.80
   0  -1   5  195.88    5.00
   0  -1   5  187.38    5.00
  -1   1  -5  357.66    8.60
  -1   1  -5  366.36    8.90
  -1   1  -5  358.66    8.90
  -1   1  -5  367.26    9.00
   1  -1   5  366.26    8.90
   1  -1   5  354.06    8.90
   1  -1   5  353.36    8.60
   1  -1   5  360.86    8.90
  -2   1  -5  948.31   22.60
  -2   1  -5  998.30   23.20
  -2   1  -5  958.90   23.10
  -2   1  -5  975.90   23.00
   2  -1   5  996.30   23.10
   2  -1   5  982.60   23.10
   2  -1   5  964.40   22.50
   2  -1   5  984.50   23.00
  -3   1  -5  229.48    6.30
  -3   1  -5  233.08    6.50
  -3   1  -5  223.18    6.20
  -3   1  -5  228.18    5.80
   3  -1   5  231.28    6.30
   3  -1   5  239.28    6.40
   3  -1   5  229.08    6.20
  -4   1  -5    0.10    0.50
  -4   1  -5    0.10    0.70
  -4   1  -5   -1.30    0.80
  -4   1  -5   -0.10    0.70
   4  -1   5    0.30    0.60
   4  -1   5   -0.60    0.80
   4  -1   5   -0.20    0.70
  -5   1  -5  219.68    6.60
  -5   1  -5  219.88    6.00
  -5   1  -5  226.68    7.00
  -5   1  -5  224.08    6.60
   5  -1   5  228.48    6.80
   5  -1   5  230.08    6.90
   5  -1   5  223.98    6.50
  -6   1  -5    3.40    1.30
  -6   1  -5    4.30    1.70
  -6   1  -5    3.90    1.10
   6  -1   5    8.90    1.90
   6  -1   5    3.80    1.30
   6  -1   5    4.30    1.40
  -7   1  -5   32.30    2.40
  -7   1  -5   27.30    2.90
   7  -1   5   31.30    3.90
   7  -1   5   30.50    2.80
   7  -1   5   29.20    2.90
   9   0  -5   -3.20    1.80
   9   0  -5    2.00    1.90
  -9   0   5    2.50    2.30
   8   0  -5    5.30    2.20
   8   0  -5    5.10    1.80
  -8   0   5    3.80    1.80
  -8   0   5    2.90    2.30
  -8   0   5    6.50    2.10
   7   0  -5  128.99    5.10
   7   0  -5  136.79    5.20
  -7   0   5  132.69    5.10
  -7   0   5  130.99    4.80
  -7   0   5  124.59    5.00
   6   0  -5    2.80    1.20
   6   0  -5    4.50    1.20
  -6   0   5    4.20    1.20
  -6   0   5    6.50    1.40
  -6   0   5    4.70    1.30
   5   0  -5  276.97    7.70
   5   0  -5  278.27    7.70
  -5   0   5  270.47    7.40
  -5   0   5  268.17    7.70
  -5   0   5  277.27    7.70
   4   0  -5    5.10    0.90
   4   0  -5    4.40    0.90
   4   0  -5    3.60    0.70
  -4   0   5    4.30    0.90
  -4   0   5    4.80    0.90
  -4   0   5    4.90    0.90
   3   0  -5    7.50    1.00
   3   0  -5    9.70    1.00
   3   0  -5    9.10    0.90
  -3   0   5    7.80    0.90
  -3   0   5    9.40    1.00
  -3   0   5    8.80    1.10
  -3   0   5    8.60    0.60
   2   0  -5   59.39    2.10
   2   0  -5   57.39    2.10
   2   0  -5   62.99    2.10
   2   0  -5   61.79    2.10
  -2   0   5   58.99    2.00
  -2   0   5   56.99    2.00
  -2   0   5   55.09    2.10
   1   0  -5  138.29    3.80
   1   0  -5  135.79    3.80
   1   0  -5  137.39    3.90
   1   0  -5  142.89    3.90
  -1   0   5  137.39    3.80
  -1   0   5  144.09    3.90
  -1   0   5  141.39    3.90
  -1   0   5  146.09    3.80
   0   0  -5    5.50    0.70
   0   0  -5    3.80    0.60
   0   0  -5    4.50    0.50
   0   0  -5    3.60    0.50
   0   0   5    3.70    0.60
   0   0   5    4.40    0.60
   0   0   5    4.50    0.60
   0   0   5    3.50    0.50
  -1   0  -5    0.30    0.40
  -1   0  -5   -0.40    0.30
  -1   0  -5    0.00    0.30
  -1   0  -5    1.20    0.60
   1   0   5    0.00    0.40
   1   0   5    0.10    0.40
   1   0   5    0.00    0.40
   1   0   5   -0.20    0.30
   1   0   5    0.00    0.20
  -2   0  -5   26.40    1.50
  -2   0  -5   27.90    1.40
  -2   0  -5   29.30    1.50
  -2   0  -5   26.90    1.20
   2   0   5   28.00    1.50
   2   0   5   27.40    1.30
   2   0   5   29.10    1.50
  -3   0  -5   81.09    2.90
  -3   0  -5   77.59    2.80
  -3   0  -5   85.39    2.60
  -3   0  -5   85.89    3.30
   3   0   5   76.69    2.90
   3   0   5   83.69    2.70
   3   0   5   85.79    3.20
  -4   0  -5  143.99    4.60
  -4   0  -5  145.69    4.70
  -4   0  -5  155.18    5.00
  -4   0  -5  151.08    4.30
   4   0   5  147.09    4.50
   4   0   5  154.78    4.90
   4   0   5  146.39    4.80
  -5   0  -5   82.19    3.40
  -5   0  -5   83.39    3.80
  -5   0  -5   84.09    3.40
  -5   0  -5   82.49    3.00
   5   0   5   88.19    3.80
   5   0   5   79.59    3.50
   5   0   5   82.19    3.20
  -6   0  -5  163.08    5.00
  -6   0  -5  159.78    4.20
  -6   0  -5  151.38    6.00
  -6   0  -5  163.08    5.60
   6   0   5  163.58    5.20
   6   0   5  159.88    5.70
   6   0   5  158.78    6.00
  -7   0  -5    2.10    1.50
  -7   0  -5   -0.10    1.50
   7   0   5    1.10    1.60
   7   0   5    3.40    1.80
   9  -1  -5   69.79    4.30
  -9   1   5   72.19    4.70
   8  -1  -5   -0.50    1.90
   8  -1  -5    1.40    1.20
  -8   1   5    3.70    1.80
   7  -1  -5   18.00    2.10
  -7   1   5   21.80    2.40
  -7   1   5   16.90    1.90
  -7   1   5   18.20    2.10
   6  -1  -5   27.60    2.40
   6  -1  -5   29.00    2.10
  -6   1   5   31.20    2.30
  -6   1   5   29.10    2.20
  -6   1   5   26.60    2.30
   5  -1  -5    3.20    0.80
   5  -1  -5    5.40    1.20
   5  -1  -5    3.60    0.80
  -5   1   5    5.50    1.00
  -5   1   5    4.70    1.00
  -5   1   5    5.70    1.10
   4  -1  -5    7.00    0.90
   4  -1  -5    6.40    1.00
   4  -1  -5    6.00    0.90
  -4   1   5    5.90    0.90
  -4   1   5    7.10    1.00
  -4   1   5    8.40    1.00
  -4   1   5    7.80    0.70
   3  -1  -5    8.40    1.10
   3  -1  -5    7.60    0.90
   3  -1  -5    7.50    0.90
  -3   1   5    7.60    1.00
  -3   1   5    8.40    1.00
  -3   1   5    8.20    0.50
  -3   1   5    8.00    1.00
  -3   1   5    7.00    0.70
   2  -1  -5  269.47    6.80
   2  -1  -5  266.87    6.90
   2  -1  -5  273.47    6.90
   2  -1  -5  272.37    6.80
  -2   1   5  239.48    6.70
  -2   1   5  274.37    6.90
  -2   1   5  261.57    6.80
   1  -1  -5   36.90    1.50
   1  -1  -5   36.70    1.50
   1  -1  -5   35.40    1.50
   1  -1  -5   34.40    1.40
   1  -1  -5   37.50    1.30
  -1   1   5   36.40    1.50
  -1   1   5   35.60    1.50
  -1   1   5   34.30    1.40
   0  -1  -5  311.87    7.80
   0  -1  -5  310.97    7.80
   0  -1  -5  321.77    7.90
   0  -1  -5  305.47    7.50
   0  -1  -5  323.97    7.80
   0   1   5  315.07    7.80
   0   1   5  317.27    7.80
   0   1   5  296.97    7.80
   0   1   5  296.47    7.80
  -1  -1  -5  156.78    4.30
  -1  -1  -5  151.38    4.40
  -1  -1  -5  152.18    4.20
  -1  -1  -5  152.68    4.20
   1   1   5  149.29    3.90
   1   1   5  155.78    4.20
   1   1   5  152.58    4.30
   1   1   5  149.49    4.30
   1   1   5  147.09    4.20
  -2  -1  -5  136.19    4.20
  -2  -1  -5  128.29    3.80
  -2  -1  -5  130.29    3.80
  -2  -1  -5  134.09    3.90
   2   1   5  129.79    3.70
   2   1   5  127.99    3.60
   2   1   5  133.69    4.00
  -3  -1  -5    3.00    1.00
  -3  -1  -5    3.50    0.70
  -3  -1  -5    3.20    0.70
  -3  -1  -5    2.90    0.80
   3   1   5    2.70    0.90
   3   1   5    2.50    0.80
   3   1   5    2.40    0.60
  -4  -1  -5  109.49    3.90
  -4  -1  -5  119.79    4.30
  -4  -1  -5  110.59    3.70
   4   1   5  114.09    4.10
   4   1   5  108.59    3.50
   4   1   5  106.49    4.10
  -5  -1  -5  218.68    7.00
  -5  -1  -5  213.98    6.30
  -5  -1  -5  222.98    6.70
  -5  -1  -5  216.08    6.40
   5   1   5  213.28    7.00
   5   1   5  221.68    6.20
   5   1   5  218.28    6.80
  -6  -1  -5    1.20    1.00
  -6  -1  -5    2.60    1.30
  -6  -1  -5   -0.90    1.80
  -6  -1  -5   -1.30    1.00
   6   1   5    1.10    1.50
   6   1   5   -1.10    1.90
   6   1   5    0.00    1.00
  -7  -1  -5    4.10    1.80
  -7  -1  -5    2.50    1.60
   7   1   5    5.80    1.70
   7   1   5   -0.10    1.90
   9  -2  -5   10.30    2.90
   9  -2  -5    8.00    2.10
  -9   2   5    7.50    3.70
  -9   2   5    3.10    2.20
   8  -2  -5    2.80    1.50
   8  -2  -5    0.30    1.90
  -8   2   5   -0.30    1.70
  -8   2   5    1.40    1.60
   7  -2  -5  239.88    7.50
   7  -2  -5  239.18    7.40
  -7   2   5  232.68    7.40
  -7   2   5  242.38    7.50
  -7   2   5  242.58    7.10
   6  -2  -5   17.70    2.00
   6  -2  -5   14.30    1.60
   6  -2  -5   17.90    1.80
  -6   2   5   20.00    2.00
  -6   2   5   18.90    2.10
  -6   2   5   16.20    2.00
   5  -2  -5  193.68    5.50
   5  -2  -5  196.98    5.70
   5  -2  -5  182.08    5.60
  -5   2   5  183.98    5.50
  -5   2   5  185.58    5.70
  -5   2   5  188.28    5.10
  -5   2   5  169.58    5.30
   4  -2  -5  228.28    6.50
   4  -2  -5  239.78    6.60
   4  -2  -5  238.08    6.50
  -4   2   5  237.68    6.00
  -4   2   5  238.68    6.30
  -4   2   5  240.78    6.60
  -4   2   5  244.48    6.50
  -4   2   5  226.58    6.50
   3  -2  -5  246.78    6.40
   3  -2  -5  238.58    6.40
   3  -2  -5  233.28    6.30
  -3   2   5  243.18    6.40
  -3   2   5  224.88    6.20
  -3   2   5  244.18    6.30
  -3   2   5  235.28    6.40
   2  -2  -5  614.44   14.60
   2  -2  -5  624.34   15.00
   2  -2  -5  621.74   15.00
  -2   2   5  628.04   15.10
  -2   2   5  624.94   15.10
  -2   2   5  638.44   15.10
  -2   2   5  623.34   14.90
   1  -2  -5  134.09    3.70
   1  -2  -5  136.39    3.80
   1  -2  -5  124.19    3.80
   1  -2  -5  130.99    3.70
   1  -2  -5  131.49    3.80
  -1   2   5  133.29    3.80
  -1   2   5  132.99    3.90
  -1   2   5  132.19    3.70
   0  -2  -5  706.23   16.50
   0  -2  -5  684.03   16.50
   0  -2  -5  675.73   16.40
   0  -2  -5  680.13   16.60
   0  -2  -5  701.33   16.70
   0   2   5  703.03   16.70
   0   2   5  694.63   16.40
   0   2   5  696.03   16.60
   0   2   5  696.73   16.50
   0   2   5  687.43   16.30
  -1  -2  -5   21.40    1.20
  -1  -2  -5   22.60    1.30
  -1  -2  -5   22.20    1.40
  -1  -2  -5   22.50    1.40
   1   2   5   22.90    1.20
   1   2   5   22.80    1.30
   1   2   5   22.80    1.10
   1   2   5   21.00    0.90
  -2  -2  -5  102.29    3.10
  -2  -2  -5   92.79    3.20
  -2  -2  -5  104.39    3.50
  -2  -2  -5   99.69    3.30
   2   2   5   98.69    3.40
   2   2   5   99.69    3.00
   2   2   5   97.09    3.30
   2   2   5   99.59    3.00
  -3  -2  -5   28.60    1.60
  -3  -2  -5   29.20    2.20
  -3  -2  -5   29.70    1.70
  -3  -2  -5   27.90    1.80
   3   2   5   27.70    1.50
   3   2   5   28.70    2.00
   3   2   5   27.80    1.50
   3   2   5   26.60    2.00
  -4  -2  -5   32.10    1.90
  -4  -2  -5   24.70    1.90
  -4  -2  -5   30.10    2.60
  -4  -2  -5   25.50    2.00
   4   2   5   29.20    2.40
   4   2   5   29.40    1.70
   4   2   5   24.00    2.10
  -5  -2  -5   80.89    3.50
  -5  -2  -5   81.69    3.50
  -5  -2  -5   82.89    3.40
  -5  -2  -5   79.99    4.20
  -5  -2  -5   83.09    3.30
   5   2   5   83.39    3.90
   5   2   5   75.09    4.10
   5   2   5   84.89    3.10
  -6  -2  -5   16.60    1.90
  -6  -2  -5   18.20    1.90
  -6  -2  -5   13.60    1.90
  -6  -2  -5   12.10    2.50
   6   2   5   16.90    2.20
   6   2   5   19.30    2.40
   8  -3  -5   22.30    2.40
   8  -3  -5   20.80    2.00
   8  -3  -5   20.30    2.50
   8  -3  -5   19.30    2.50
  -8   3   5   23.80    2.90
  -8   3   5   23.30    2.70
  -8   3   5   17.90    2.30
   7  -3  -5   45.00    2.80
   7  -3  -5   41.50    3.00
   7  -3  -5   38.80    2.50
   7  -3  -5   42.60    2.50
  -7   3   5   48.70    3.20
  -7   3   5   40.10    2.50
  -7   3   5   32.80    3.00
  -7   3   5   44.20    3.00
   6  -3  -5   90.89    3.60
   6  -3  -5   93.19    3.50
   6  -3  -5   92.09    3.80
  -6   3   5   86.39    3.60
  -6   3   5   94.79    3.80
  -6   3   5   95.79    3.70
  -6   3   5   92.69    3.30
   5  -3  -5   13.80    1.60
   5  -3  -5   13.10    1.40
   5  -3  -5   13.80    1.50
  -5   3   5   11.50    1.40
  -5   3   5   13.20    1.50
  -5   3   5   10.30    1.40
  -5   3   5   12.20    1.30
  -5   3   5   11.10    1.30
   4  -3  -5  111.89    3.70
   4  -3  -5  113.19    3.70
   4  -3  -5  114.19    3.70
  -4   3   5  109.99    3.30
  -4   3   5  107.99    3.70
  -4   3   5  108.79    3.80
  -4   3   5  116.49    3.70
  -4   3   5  109.59    3.60
   3  -3  -5   44.50    1.90
   3  -3  -5   47.50    2.00
   3  -3  -5   46.30    2.00
  -3   3   5   45.10    1.90
  -3   3   5   45.40    2.00
  -3   3   5   44.20    2.10
  -3   3   5   43.60    2.10
   2  -3  -5  128.09    3.80
   2  -3  -5  124.29    3.50
   2  -3  -5  123.49    3.70
   2  -3  -5  124.79    3.80
   2  -3  -5  122.59    3.60
  -2   3   5  125.29    3.90
  -2   3   5  112.99    3.90
  -2   3   5  121.49    3.70
  -2   3   5  134.19    4.00
   1  -3  -5   33.20    1.70
   1  -3  -5   33.90    1.50
   1  -3  -5   32.10    1.60
   1  -3  -5   33.80    1.70
   1  -3  -5   32.00    1.60
  -1   3   5   29.60    1.80
  -1   3   5   30.60    1.50
  -1   3   5   33.60    1.60
  -1   3   5   34.10    1.80
  -1   3   5   32.70    1.80
   0  -3  -5  608.64   14.50
   0  -3  -5  605.84   14.80
   0  -3  -5  602.74   14.60
   0  -3  -5  605.74   14.60
   0  -3  -5  593.54   14.70
   0   3   5  584.54   14.40
   0   3   5  609.64   14.60
   0   3   5  614.14   14.70
   0   3   5  614.84   14.90
   0   3   5  594.04   14.60
  -1  -3  -5    2.50    0.70
  -1  -3  -5    3.40    0.80
  -1  -3  -5    3.70    0.70
  -1  -3  -5    3.00    0.70
   1   3   5    2.10    0.70
   1   3   5    3.00    0.50
   1   3   5    3.00    0.80
   1   3   5    3.50    0.70
  -2  -3  -5  160.68    4.90
  -2  -3  -5  166.08    4.80
  -2  -3  -5  162.48    4.50
  -2  -3  -5  170.68    5.10
   2   3   5  153.78    5.00
   2   3   5  162.78    4.50
   2   3   5  159.68    4.70
   2   3   5  159.88    4.90
  -3  -3  -5    2.50    0.90
  -3  -3  -5    2.10    0.70
  -3  -3  -5    1.90    1.20
  -3  -3  -5    3.30    1.00
   3   3   5    1.30    1.00
   3   3   5    0.90    0.70
   3   3   5    4.30    1.20
   3   3   5    1.80    0.70
  -4  -3  -5    5.90    1.10
  -4  -3  -5    8.10    1.40
  -4  -3  -5    4.80    1.60
  -4  -3  -5    9.50    1.20
   4   3   5   11.70    1.50
   4   3   5    8.70    1.10
   4   3   5    4.90    1.30
   4   3   5    4.20    1.40
  -5  -3  -5    5.10    1.20
  -5  -3  -5    4.80    1.20
  -5  -3  -5    5.70    1.70
  -5  -3  -5    3.70    1.50
  -5  -3  -5    4.60    1.90
   5   3   5    5.30    1.20
   5   3   5    5.40    1.80
   5   3   5    5.00    1.10
  -6  -3  -5   35.60    2.80
  -6  -3  -5   37.10    4.40
  -6  -3  -5   44.60    3.30
  -6  -3  -5   36.10    3.40
   6   3   5   43.70    3.70
   6   3   5   35.20    2.80
   6   3   5   38.00    2.60
   8  -4  -5    8.00    1.90
   8  -4  -5    9.40    2.00
   8  -4  -5    8.50    2.20
   8  -4  -5    7.70    1.50
  -8   4   5    8.30    1.80
  -8   4   5    7.90    2.10
  -8   4   5    9.80    2.00
  -8   4   5    6.30    2.20
   7  -4  -5  133.89    5.00
   7  -4  -5  141.39    4.80
   7  -4  -5  137.89    5.30
  -7   4   5  149.49    4.90
  -7   4   5  135.79    4.90
  -7   4   5  130.29    5.10
  -7   4   5  130.69    5.00
  -7   4   5  141.79    5.30
   6  -4  -5    0.10    1.10
   6  -4  -5    1.20    1.00
   6  -4  -5    0.70    0.90
  -6   4   5    3.10    1.30
  -6   4   5    0.60    0.90
  -6   4   5    0.40    1.20
  -6   4   5   -0.50    1.00
  -6   4   5    2.00    1.20
   5  -4  -5   93.29    3.40
   5  -4  -5   87.89    3.40
   5  -4  -5   94.59    3.40
  -5   4   5   90.69    3.20
  -5   4   5   90.69    3.60
  -5   4   5   92.19    3.50
  -5   4   5   89.99    3.60
  -5   4   5   90.79    3.30
  -5   4   5   90.99    3.50
   4  -4  -5    1.10    0.70
   4  -4  -5   -0.40    0.60
   4  -4  -5    0.00    0.70
  -4   4   5   -0.60    0.70
  -4   4   5   -0.80    0.70
  -4   4   5   -0.10    0.80
  -4   4   5   -1.50    0.80
  -4   4   5    0.90    0.90
   3  -4  -5    4.00    1.00
   3  -4  -5    2.90    0.70
   3  -4  -5    2.50    0.70
   3  -4  -5    3.90    0.80
   3  -4  -5    2.80    0.70
  -3   4   5    3.80    0.90
  -3   4   5    2.40    0.70
  -3   4   5    3.50    0.90
  -3   4   5    3.10    0.90
  -3   4   5    3.30    1.00
   2  -4  -5    9.70    1.10
   2  -4  -5   11.20    1.30
   2  -4  -5   13.00    1.40
   2  -4  -5   11.80    1.20
   2  -4  -5   12.50    1.20
  -2   4   5   11.60    1.30
  -2   4   5   10.60    1.30
  -2   4   5   11.50    1.30
  -2   4   5   13.80    1.60
  -2   4   5   11.50    1.40
   1  -4  -5   66.09    2.50
   1  -4  -5   69.09    2.80
   1  -4  -5   67.49    2.70
   1  -4  -5   69.59    2.40
   1  -4  -5   70.19    2.60
   1  -4  -5   67.59    2.70
  -1   4   5   73.19    3.00
  -1   4   5   65.29    2.50
  -1   4   5   69.79    2.50
  -1   4   5   67.59    2.50
  -1   4   5   70.89    2.90
   0  -4  -5   56.49    2.20
   0  -4  -5   56.69    2.20
   0  -4  -5   53.59    2.50
   0  -4  -5   55.99    2.30
   0  -4  -5   57.59    2.50
   0   4   5   57.69    2.30
   0   4   5   56.79    2.30
   0   4   5   56.49    2.10
   0   4   5   57.49    2.40
   0   4   5   53.49    2.60
  -1  -4  -5   18.30    1.70
  -1  -4  -5   17.80    1.30
  -1  -4  -5   19.50    1.60
  -1  -4  -5   19.00    1.40
   1   4   5   17.20    1.70
   1   4   5   14.40    1.40
   1   4   5   16.70    1.20
   1   4   5   18.30    1.70
  -2  -4  -5  205.88    6.20
  -2  -4  -5  205.68    6.10
  -2  -4  -5  200.28    5.80
  -2  -4  -5  199.08    5.40
   2   4   5  202.38    5.90
   2   4   5  207.48    6.00
   2   4   5  197.98    6.00
  -3  -4  -5  103.89    4.80
  -3  -4  -5  121.49    3.60
  -3  -4  -5  122.29    4.70
   3   4   5  121.59    4.60
   3   4   5  121.99    4.20
   3   4   5  124.19    4.40
  -4  -4  -5    1.40    1.70
  -4  -4  -5    1.60    1.30
  -4  -4  -5    0.00    0.90
  -4  -4  -5    1.80    0.90
  -4  -4  -5    3.10    1.60
   4   4   5    0.60    1.00
   4   4   5    2.90    2.70
   4   4   5    2.80    1.60
  -5  -4  -5   -0.70    1.40
  -5  -4  -5   -0.40    2.10
  -5  -4  -5    1.40    1.20
  -5  -4  -5    1.90    2.00
   5   4   5   -1.00    1.80
   5   4   5   -2.90    1.20
   8  -5  -5    8.40    1.90
   8  -5  -5    6.20    2.00
   8  -5  -5   10.70    2.20
   8  -5  -5    6.60    1.80
  -8   5   5    7.10    2.20
  -8   5   5    9.80    2.10
  -8   5   5    7.10    2.40
  -8   5   5    8.50    2.00
   7  -5  -5   29.40    3.00
   7  -5  -5   33.40    2.60
   7  -5  -5   32.90    2.90
   7  -5  -5   28.10    2.50
  -7   5   5   33.70    2.90
  -7   5   5   29.30    3.20
  -7   5   5   31.60    3.30
  -7   5   5   32.70    2.80
   6  -5  -5   40.30    2.70
   6  -5  -5   36.60    2.50
   6  -5  -5   35.50    2.40
  -6   5   5   38.80    2.60
  -6   5   5   38.70    2.70
  -6   5   5   30.50    2.70
  -6   5   5   37.20    2.90
  -6   5   5   39.20    2.70
   5  -5  -5   13.90    1.60
   5  -5  -5   12.70    1.40
   5  -5  -5    9.50    1.30
  -5   5   5   11.50    1.40
  -5   5   5    8.90    1.50
  -5   5   5   10.20    1.30
  -5   5   5   11.10    1.50
  -5   5   5   12.50    1.70
  -5   5   5   13.20    1.70
   4  -5  -5   25.20    1.70
   4  -5  -5   22.50    1.90
   4  -5  -5   24.80    1.60
   4  -5  -5   25.60    2.40
  -4   5   5   25.20    2.20
  -4   5   5   24.80    2.00
  -4   5   5   25.90    2.20
  -4   5   5   23.70    1.70
  -4   5   5   23.40    2.00
   3  -5  -5   16.90    1.60
   3  -5  -5   19.50    2.10
   3  -5  -5   20.10    1.50
   3  -5  -5   18.40    1.40
  -3   5   5   19.10    1.50
  -3   5   5   18.40    1.90
  -3   5   5   21.00    1.90
  -3   5   5   19.90    2.00
  -3   5   5   17.40    1.80
   2  -5  -5   22.40    1.50
   2  -5  -5   26.50    2.00
   2  -5  -5   29.20    1.90
   2  -5  -5   26.20    1.80
   2  -5  -5   21.40    2.10
  -2   5   5   26.40    2.10
  -2   5   5   29.20    2.20
  -2   5   5   24.50    1.90
  -2   5   5   27.30    1.60
  -2   5   5   26.80    1.90
   1  -5  -5  998.60   24.00
   1  -5  -5 1007.90   24.10
   1  -5  -5 1001.20   23.50
   1  -5  -5  973.40   23.50
   1  -5  -5 1013.60   24.00
   1  -5  -5  943.71   23.60
  -1   5   5 1006.30   23.50
  -1   5   5 1020.40   24.50
  -1   5   5  976.50   23.60
  -1   5   5  995.90   23.80
   0  -5  -5   71.19    2.60
   0  -5  -5   69.89    3.10
   0  -5  -5   70.59    2.80
   0  -5  -5   72.79    3.00
   0  -5  -5   68.79    2.60
   0   5   5   71.49    3.00
   0   5   5   68.09    2.80
   0   5   5   67.99    2.70
   0   5   5   70.69    3.30
  -1  -5  -5   77.99    2.70
  -1  -5  -5   78.89    2.90
  -1  -5  -5   73.09    3.10
  -1  -5  -5   76.29    3.30
   1   5   5   79.29    3.20
   1   5   5   77.69    3.60
   1   5   5   76.29    3.20
   1   5   5   80.79    3.30
  -2  -5  -5   53.19    3.60
  -2  -5  -5   60.29    3.00
  -2  -5  -5   53.69    2.90
  -2  -5  -5   54.09    2.10
   2   5   5   54.59    3.00
   2   5   5   53.19    2.80
   2   5   5   52.69    3.10
   2   5   5   56.09    2.90
  -3  -5  -5   14.40    1.70
  -3  -5  -5   14.10    1.40
  -3  -5  -5   15.50    2.50
  -3  -5  -5   12.90    1.80
   3   5   5   15.90    2.10
   3   5   5   14.20    1.90
   3   5   5   11.80    2.00
  -4  -5  -5    6.70    1.70
  -4  -5  -5    9.20    2.50
  -4  -5  -5   11.00    2.20
  -4  -5  -5    7.40    1.50
  -4  -5  -5   11.80    1.30
   4   5   5    7.80    2.10
   4   5   5    9.80    1.70
   7  -6  -5   26.30    2.70
   7  -6  -5   31.80    2.70
   7  -6  -5   27.50    3.80
   7  -6  -5   35.50    2.90
  -7   6   5   29.60    3.60
  -7   6   5   33.20    3.30
  -7   6   5   24.50    2.60
  -7   6   5   29.30    3.70
   6  -6  -5   -0.50    1.20
   6  -6  -5   -1.20    1.80
   6  -6  -5    0.60    1.20
  -6   6   5   -1.10    1.30
  -6   6   5    1.60    1.40
  -6   6   5    0.10    1.60
  -6   6   5    0.30    1.50
  -6   6   5   -0.50    1.70
   5  -6  -5   -0.10    0.90
   5  -6  -5   -0.50    1.70
   5  -6  -5    0.50    0.90
   5  -6  -5   -0.60    1.70
   5  -6  -5    2.70    1.10
  -5   6   5   -0.80    1.20
  -5   6   5    0.10    1.10
  -5   6   5    1.70    1.50
  -5   6   5   -1.10    1.30
  -5   6   5   -0.90    1.20
   4  -6  -5   21.90    1.60
   4  -6  -5   20.40    2.70
   4  -6  -5   23.40    2.50
   4  -6  -5   21.10    1.60
   4  -6  -5   21.10    2.10
  -4   6   5   18.70    1.80
  -4   6   5   22.70    2.20
  -4   6   5   22.70    2.70
  -4   6   5   20.50    2.50
  -4   6   5   19.40    2.40
   3  -6  -5  106.79    4.10
   3  -6  -5  108.49    3.40
   3  -6  -5  110.19    4.10
   3  -6  -5  114.39    4.60
   3  -6  -5  113.09    3.50
  -3   6   5  108.59    4.30
  -3   6   5  111.89    4.20
  -3   6   5   93.19    5.00
  -3   6   5  108.39    3.80
  -3   6   5  112.49    3.50
   2  -6  -5   -0.10    0.80
   2  -6  -5   -0.10    0.70
   2  -6  -5    0.90    1.00
   2  -6  -5   -0.30    1.20
   2  -6  -5    0.90    0.70
   2  -6  -5   -1.00    1.40
  -2   6   5    0.40    1.10
  -2   6   5    3.30    1.20
  -2   6   5    2.10    1.20
  -2   6   5    0.60    0.90
   1  -6  -5   54.39    2.70
   1  -6  -5   57.09    2.30
   1  -6  -5   60.39    3.10
   1  -6  -5   60.89    2.50
   1  -6  -5   58.29    3.30
  -1   6   5   59.59    2.80
  -1   6   5   58.49    2.50
  -1   6   5   50.79    3.10
   0  -6  -5   99.39    3.70
   0  -6  -5  107.69    3.50
   0  -6  -5  105.09    3.60
   0  -6  -5  107.39    5.10
   0  -6  -5  113.49    4.20
   0  -6  -5  109.29    4.40
   0   6   5  109.29    4.50
   0   6   5  111.09    3.80
   0   6   5  107.19    3.70
   0   6   5  101.69    3.80
  -1  -6  -5    3.80    1.20
  -1  -6  -5    0.70    1.10
  -1  -6  -5    1.60    0.80
  -1  -6  -5    2.10    1.90
   1   6   5    4.00    1.60
   1   6   5    2.20    1.20
   1   6   5    0.50    1.30
  -2  -6  -5    3.00    1.50
  -2  -6  -5    5.90    2.20
  -2  -6  -5    4.30    1.50
  -2  -6  -5    5.80    0.90
  -2  -6  -5    3.40    1.00
   2   6   5    3.50    1.80
   2   6   5    1.60    1.40
   2   6   5    5.70    1.60
   2   6   5    4.20    1.40
  -3  -6  -5    7.40    2.30
  -3  -6  -5    8.80    1.90
  -3  -6  -5    5.30    4.00
  -3  -6  -5    6.50    1.40
  -3  -6  -5    7.00    0.80
   3   6   5    8.20    2.00
   3   6   5    6.60    1.70
   3   6   5    3.50    1.80
   6  -7  -5   39.30    3.10
   6  -7  -5   28.80    2.40
  -6   7   5   23.20    2.70
  -6   7   5   30.10    2.70
  -6   7   5   28.50    3.10
  -6   7   5   33.10    3.00
   5  -7  -5    4.90    1.40
   5  -7  -5    1.60    1.30
   5  -7  -5    1.40    0.90
  -5   7   5    2.20    1.90
  -5   7   5   -1.20    1.50
  -5   7   5    3.50    1.60
  -5   7   5   -0.50    1.60
  -5   7   5    0.40    1.30
   4  -7  -5   15.80    1.50
   4  -7  -5   14.50    1.80
   4  -7  -5   17.90    1.70
  -4   7   5   15.40    1.90
  -4   7   5   16.30    2.40
  -4   7   5   16.50    2.00
  -4   7   5   12.80    2.10
  -4   7   5   15.20    1.70
   3  -7  -5    2.40    1.30
   3  -7  -5    3.20    0.90
   3  -7  -5    4.60    0.90
   3  -7  -5    2.80    2.10
   3  -7  -5    3.70    1.60
  -3   7   5    2.50    1.60
  -3   7   5    0.50    1.90
  -3   7   5    4.20    1.50
  -3   7   5    2.50    1.20
   2  -7  -5   12.00    1.70
   2  -7  -5   11.30    1.20
   2  -7  -5   11.90    1.80
   2  -7  -5   12.00    2.20
   2  -7  -5   13.10    1.40
   2  -7  -5   11.50    2.10
  -2   7   5   10.00    1.70
  -2   7   5   11.80    1.50
  -2   7   5   12.90    2.00
  -2   7   5   11.20    1.40
   1  -7  -5   87.29    3.20
   1  -7  -5   99.39    3.20
   1  -7  -5   94.59    3.60
   1  -7  -5   92.69    3.90
   1  -7  -5   85.69    4.40
   1  -7  -5   89.89    4.60
  -1   7   5  100.09    4.60
  -1   7   5   91.09    3.60
  -1   7   5   98.29    3.90
  -1   7   5   89.59    3.60
   0  -7  -5   11.70    1.40
   0  -7  -5   14.40    1.90
   0  -7  -5   15.30    2.50
   0  -7  -5   13.70    1.90
   0   7   5    8.00    1.80
   0   7   5   11.00    1.70
   0   7   5   12.90    2.60
  -1  -7  -5    0.90    1.30
  -1  -7  -5    2.00    0.90
  -1  -7  -5    1.70    1.00
  -1  -7  -5    2.50    1.30
   1   7   5    1.70    1.40
   1   7   5    4.10    1.80
   1   7   5    2.00    1.80
   1   7   5    2.50    1.50
  -2  -7  -5   24.70    2.80
   2   7   5   16.70    2.20
   2   7   5   20.80    2.90
   3  -8  -5    4.20    1.50
   3  -8  -5    3.00    2.20
   3  -8  -5   -0.80    1.00
   3  -8  -5    1.60    0.70
  -3   8   5    1.00    1.70
  -3   8   5    1.40    2.00
   2  -8  -5    7.30    1.10
   2  -8  -5   10.80    1.10
   2  -8  -5    6.60    1.80
   2  -8  -5    4.70    2.30
   2  -8  -5   10.80    1.90
  -2   8   5   10.10    1.90
  -2   8   5    9.30    2.20
  -2   8   5    9.50    1.60
   1  -8  -5   67.29    3.90
   1  -8  -5   76.99    3.30
   1  -8  -5   75.79    2.80
   1  -8  -5   77.79    3.50
  -1   8   5   71.09    3.50
  -1   8   5   72.49    4.50
   2   9  -6   16.80    2.40
   2   9  -6   14.00    1.30
   2   9  -6   16.40    2.00
   2   9  -6   15.70    2.40
   1   9  -6    4.60    1.50
   1   9  -6    4.90    1.90
  -1  -9   6    4.90    2.10
  -1  -9   6    2.80    0.90
   0   9  -6   10.50    2.10
   0   9  -6   11.50    2.10
   0  -9   6   12.70    1.40
   0  -9   6   16.00    3.30
   0  -9   6   15.90    1.70
  -1   9  -6   10.60    2.20
   1  -9   6    9.80    1.40
   1  -9   6   14.30    1.80
  -2   9  -6   12.60    2.20
   2  -9   6   16.10    1.60
   2  -9   6   15.70    2.00
  -3   9  -6   -0.50    1.80
  -3   9  -6    1.70    1.70
   3  -9   6   -3.00    1.30
   3  -9   6    0.30    0.70
  -4   9  -6   24.00    3.20
   4  -9   6   23.80    2.90
   4   8  -6   46.40    3.40
   4   8  -6   45.70    3.90
   4   8  -6   45.70    3.50
  -4  -8   6   49.20    2.70
  -4  -8   6   53.19    2.70
   3   8  -6   41.80    3.10
   3   8  -6   40.50    3.50
   3   8  -6   35.00    2.80
   3   8  -6   39.90    2.90
  -3  -8   6   41.80    2.20
  -3  -8   6   39.00    2.20
   2   8  -6   85.89    4.00
   2   8  -6   82.29    3.10
   2   8  -6   78.09    4.30
  -2  -8   6   77.89    3.80
  -2  -8   6   82.49    2.60
  -2  -8   6   85.59    2.70
  -2  -8   6   78.59    2.50
  -2  -8   6   71.49    4.10
   1   8  -6   46.60    3.30
   1   8  -6   42.90    3.00
   1   8  -6   46.30    1.80
   1   8  -6   43.00    1.80
  -1  -8   6   44.50    2.00
  -1  -8   6   43.90    3.20
  -1  -8   6   39.70    3.80
  -1  -8   6   39.00    3.30
   0   8  -6    4.20    1.60
   0   8  -6    3.30    1.50
   0  -8   6    5.90    1.80
   0  -8   6    8.30    2.20
   0  -8   6    6.80    1.80
   0  -8   6    4.60    1.00
  -1   8  -6    0.30    1.30
   1  -8   6    1.70    1.50
   1  -8   6    1.60    1.90
   1  -8   6    1.10    1.40
   1  -8   6    0.10    1.70
   1  -8   6    1.00    0.80
   1  -8   6    1.00    0.80
  -2   8  -6   39.80    3.20
  -2   8  -6   40.30    2.90
   2  -8   6   39.00    2.90
   2  -8   6   43.00    1.80
   2  -8   6   40.30    3.50
   2  -8   6   35.10    3.50
   2  -8   6   37.00    2.30
  -3   8  -6   18.60    2.30
  -3   8  -6   23.60    3.10
   3  -8   6   20.50    2.30
   3  -8   6   16.10    2.00
   3  -8   6   15.40    0.90
  -4   8  -6    2.40    1.10
  -4   8  -6    4.90    0.90
  -4   8  -6    4.10    1.60
  -4   8  -6    2.80    1.90
   4  -8   6    1.00    1.60
   4  -8   6    4.50    1.40
   4  -8   6    3.40    0.70
   4  -8   6    3.00    0.70
  -5   8  -6   11.50    1.70
  -5   8  -6   11.90    2.00
   5  -8   6   10.70    1.30
   5  -8   6   10.70    1.10
   5  -8   6    9.70    1.90
   5   7  -6   16.90    2.50
   5   7  -6   21.90    3.00
   5   7  -6   18.00    2.30
  -5  -7   6   20.20    2.30
  -5  -7   6   21.60    2.30
   4   7  -6   72.19    3.60
   4   7  -6   77.09    3.80
   4   7  -6   64.49    3.70
   4   7  -6   79.99    4.00
  -4  -7   6   70.39    4.60
  -4  -7   6   76.29    3.20
  -4  -7   6   73.29    3.30
   3   7  -6  232.58    7.10
   3   7  -6  226.68    7.40
   3   7  -6  214.98    6.40
   3   7  -6  232.58    6.60
  -3  -7   6  219.88    6.20
  -3  -7   6  224.28    6.30
  -3  -7   6  212.28    7.30
   2   7  -6    2.50    1.00
   2   7  -6    3.60    1.30
   2   7  -6    3.80    1.00
  -2  -7   6    2.60    0.60
  -2  -7   6    0.40    1.50
  -2  -7   6    1.20    1.30
  -2  -7   6    2.70    0.70
  -2  -7   6    3.40    1.20
  -2  -7   6    2.80    0.70
   1   7  -6   30.30    2.60
   1   7  -6   26.40    2.20
   1   7  -6   28.10    1.50
   1   7  -6   27.00    1.80
  -1  -7   6   25.40    2.30
  -1  -7   6   26.50    1.20
  -1  -7   6   24.70    2.30
  -1  -7   6   25.00    1.30
  -1  -7   6   26.00    2.80
  -1  -7   6   26.00    1.50
   0   7  -6    7.30    1.60
   0   7  -6    7.00    1.30
   0   7  -6    5.80    0.70
   0   7  -6    6.30    0.90
   0  -7   6    5.10    0.80
   0  -7   6    6.60    0.70
   0  -7   6    5.20    1.30
   0  -7   6    6.50    1.40
   0  -7   6    7.70    1.70
  -1   7  -6   12.00    1.70
  -1   7  -6   12.70    1.00
  -1   7  -6   13.20    1.70
  -1   7  -6   12.10    1.00
   1  -7   6   13.10    1.90
   1  -7   6   13.00    1.50
   1  -7   6   10.80    1.70
   1  -7   6   11.00    1.40
   1  -7   6   11.20    1.70
  -2   7  -6   12.70    1.70
  -2   7  -6   11.50    1.50
  -2   7  -6   13.90    2.00
  -2   7  -6   12.30    1.10
   2  -7   6   13.60    0.90
   2  -7   6   14.60    1.90
   2  -7   6   10.00    1.80
   2  -7   6   10.80    1.10
   2  -7   6   13.40    1.10
   2  -7   6   11.90    2.00
   2  -7   6   13.10    0.90
   2  -7   6   10.50    1.30
  -3   7  -6   56.09    3.10
  -3   7  -6   56.19    2.30
  -3   7  -6   56.69    3.40
  -3   7  -6   57.49    2.10
   3  -7   6   63.19    3.40
   3  -7   6   56.19    3.80
   3  -7   6   55.19    3.00
   3  -7   6   57.39    2.00
   3  -7   6   54.69    2.10
   3  -7   6   59.79    2.90
  -4   7  -6   33.00    2.80
  -4   7  -6   35.40    2.30
  -4   7  -6   36.90    3.10
  -4   7  -6   35.10    1.90
   4  -7   6   35.10    2.80
   4  -7   6   35.60    1.70
   4  -7   6   37.80    3.60
   4  -7   6   43.60    2.70
   4  -7   6   34.60    1.90
   4  -7   6   36.10    3.20
  -5   7  -6    0.90    1.50
  -5   7  -6   -0.60    1.40
  -5   7  -6    2.80    1.70
  -5   7  -6    1.00    1.30
   5  -7   6    0.40    1.40
   5  -7   6    1.20    1.60
   5  -7   6   -0.50    1.00
   5  -7   6    1.30    0.90
   5  -7   6    2.50    2.00
  -6   7  -6    3.00    1.90
  -6   7  -6    2.80    1.60
   6  -7   6    3.60    1.70
   6  -7   6    3.10    1.40
   6  -7   6   -0.50    1.90
   6  -7   6    1.80    1.10
   6   6  -6    1.00    2.10
   6   6  -6    0.70    1.50
  -6  -6   6   -0.20    1.80
  -6  -6   6    2.40    1.50
   5   6  -6   35.10    3.40
   5   6  -6   48.40    3.50
   5   6  -6   38.50    2.90
   5   6  -6   40.00    2.80
  -5  -6   6   42.60    2.70
  -5  -6   6   45.70    3.00
   4   6  -6   34.40    2.60
   4   6  -6   40.10    2.80
   4   6  -6   40.00    2.60
   4   6  -6   39.50    2.80
  -4  -6   6   37.60    2.30
  -4  -6   6   37.80    3.10
  -4  -6   6   39.30    2.30
   3   6  -6   -1.30    1.00
   3   6  -6    1.40    1.00
   3   6  -6    0.60    1.00
   3   6  -6    0.50    0.60
   3   6  -6    1.10    1.00
  -3  -6   6    0.50    0.80
  -3  -6   6   -0.40    0.70
  -3  -6   6    1.30    1.30
  -3  -6   6    1.20    0.80
   2   6  -6   38.90    2.30
   2   6  -6   41.90    2.60
   2   6  -6   29.10    2.70
   2   6  -6   39.00    2.00
   2   6  -6   36.00    1.70
  -2  -6   6   40.60    2.70
  -2  -6   6   39.70    2.00
  -2  -6   6   42.40    1.90
  -2  -6   6   41.10    1.60
  -2  -6   6   38.80    2.20
   1   6  -6   62.69    3.10
   1   6  -6   64.29    2.80
   1   6  -6   62.39    2.30
   1   6  -6   64.49    2.30
   1   6  -6   63.59    2.50
  -1  -6   6   61.59    2.10
  -1  -6   6   64.49    2.80
  -1  -6   6   65.79    2.20
  -1  -6   6   62.69    3.10
  -1  -6   6   64.29    2.20
   0   6  -6   52.19    2.40
   0   6  -6   52.99    2.40
   0   6  -6   49.99    2.70
   0   6  -6   48.60    1.80
   0  -6   6   47.20    2.60
   0  -6   6   51.79    1.80
   0  -6   6   51.59    2.50
   0  -6   6   53.99    2.80
   0  -6   6   50.79    1.70
   0  -6   6   50.79    2.00
  -1   6  -6   -0.10    0.90
  -1   6  -6    0.80    0.70
  -1   6  -6    0.50    0.60
  -1   6  -6    0.50    0.90
   1  -6   6    0.30    1.00
   1  -6   6   -0.20    0.40
   1  -6   6    1.90    1.00
   1  -6   6    0.30    0.40
   1  -6   6    0.20    0.80
   1  -6   6    0.50    0.90
   1  -6   6    0.70    0.60
  -2   6  -6    4.00    1.00
  -2   6  -6    1.20    1.00
  -2   6  -6    2.20    1.00
  -2   6  -6    2.50    0.70
  -2   6  -6    3.00    0.60
   2  -6   6    1.20    0.80
   2  -6   6    2.60    0.90
   2  -6   6    2.70    0.60
   2  -6   6    2.80    0.50
   2  -6   6    2.70    0.60
   2  -6   6    2.50    0.40
   2  -6   6    3.10    1.40
   2  -6   6    1.20    1.10
  -3   6  -6  123.59    3.70
  -3   6  -6  123.89    3.80
  -3   6  -6  119.89    4.60
  -3   6  -6  125.99    4.60
   3  -6   6  125.29    3.70
   3  -6   6  124.99    4.30
   3  -6   6  123.59    4.50
   3  -6   6  121.49    3.60
   3  -6   6  125.79    4.20
  -4   6  -6   36.60    2.90
  -4   6  -6   35.70    2.30
  -4   6  -6   33.30    2.60
  -4   6  -6   34.40    2.00
   4  -6   6   33.90    2.00
   4  -6   6   36.50    2.80
   4  -6   6   32.50    3.60
   4  -6   6   37.20    1.90
   4  -6   6   37.50    2.40
  -5   6  -6   96.09    4.00
  -5   6  -6   91.79    4.40
  -5   6  -6   94.99    3.50
  -5   6  -6  103.59    4.10
   5  -6   6   97.09    4.30
   5  -6   6   97.69    4.10
   5  -6   6   99.09    4.00
   5  -6   6   94.69    3.70
   5  -6   6   95.19    3.70
  -6   6  -6   25.40    2.80
  -6   6  -6   30.10    3.20
  -6   6  -6   30.60    2.70
   6  -6   6   25.60    2.10
   6  -6   6   25.00    2.80
   6  -6   6   25.80    2.80
   7   5  -6   48.00    4.30
   7   5  -6   40.60    3.00
  -7  -5   6   30.80    3.80
  -7  -5   6   47.00    3.30
   6   5  -6    2.80    1.30
   6   5  -6   -0.10    0.80
   6   5  -6    2.00    0.70
   6   5  -6   -3.60    1.60
  -6  -5   6   -1.20    1.40
  -6  -5   6   -3.00    1.20
   5   5  -6   19.10    2.10
   5   5  -6   18.40    1.20
   5   5  -6   17.10    2.10
   5   5  -6   16.70    2.00
  -5  -5   6   18.70    2.10
  -5  -5   6   16.20    2.20
   4   5  -6    2.70    1.10
   4   5  -6    1.00    1.10
   4   5  -6    1.60    1.10
   4   5  -6    1.40    0.60
  -4  -5   6    1.80    1.00
  -4  -5   6    0.10    1.00
   3   5  -6  134.09    3.80
   3   5  -6  142.49    4.80
   3   5  -6  140.19    4.50
   3   5  -6  137.19    4.40
   3   5  -6  136.39    4.40
  -3  -5   6  137.29    4.00
  -3  -5   6  137.49    4.60
  -3  -5   6  136.29    4.30
  -3  -5   6  140.59    4.30
   2   5  -6    0.60    0.60
   2   5  -6    0.60    0.60
   2   5  -6    1.90    0.70
   2   5  -6    0.60    0.80
   2   5  -6    1.30    0.70
  -2  -5   6    1.20    0.70
  -2  -5   6    0.70    0.40
  -2  -5   6    1.80    1.00
  -2  -5   6    1.00    0.60
  -2  -5   6    0.20    0.50
   1   5  -6  111.99    4.10
   1   5  -6  111.59    3.40
   1   5  -6  114.89    3.70
   1   5  -6  115.89    3.50
  -1  -5   6  114.19    3.90
  -1  -5   6  115.99    3.40
  -1  -5   6  112.19    3.70
  -1  -5   6  116.09    3.30
  -1  -5   6  115.59    3.40
   0   5  -6   39.40    2.00
   0   5  -6   43.40    2.20
   0   5  -6   37.30    1.90
   0   5  -6   38.00    1.60
   0   5  -6   37.10    1.80
   0   5  -6   36.10    1.60
   0  -5   6   36.40    1.40
   0  -5   6   36.90    2.50
   0  -5   6   35.90    1.60
   0  -5   6   35.50    1.50
   0  -5   6   37.60    1.70
   0  -5   6   35.50    2.20
  -1   5  -6  147.99    4.00
  -1   5  -6  137.49    3.90
  -1   5  -6  139.79    4.50
  -1   5  -6  137.59    4.80
  -1   5  -6  148.29    4.70
   1  -5   6  145.19    3.90
   1  -5   6  150.08    4.50
   1  -5   6  146.69    4.30
   1  -5   6  151.08    4.00
   1  -5   6  148.99    4.30
   1  -5   6  146.79    3.80
  -2   5  -6   93.79    3.70
  -2   5  -6   92.29    3.60
  -2   5  -6   98.19    3.70
  -2   5  -6   98.79    3.10
  -2   5  -6   97.59    3.00
   2  -5   6  101.99    3.50
   2  -5   6  101.79    3.40
   2  -5   6  102.89    3.30
   2  -5   6   96.79    3.00
   2  -5   6   95.69    3.00
  -3   5  -6    4.90    0.90
  -3   5  -6    4.20    1.10
  -3   5  -6    3.60    1.20
  -3   5  -6    6.00    0.80
  -3   5  -6    3.70    1.10
   3  -5   6    5.10    1.00
   3  -5   6    3.70    0.90
   3  -5   6    4.00    0.70
   3  -5   6    5.80    1.00
   3  -5   6    3.70    1.10
  -4   5  -6  145.99    4.70
  -4   5  -6  137.89    5.00
  -4   5  -6  136.69    4.30
  -4   5  -6  139.69    4.50
   4  -5   6  134.79    4.40
   4  -5   6  139.29    4.70
   4  -5   6  135.09    4.40
   4  -5   6  139.89    4.30
   4  -5   6  143.19    4.60
  -5   5  -6   22.60    2.50
  -5   5  -6   23.70    2.00
  -5   5  -6   21.80    2.20
  -5   5  -6   21.70    2.40
   5  -5   6   22.30    2.10
   5  -5   6   23.00    1.80
   5  -5   6   22.30    2.20
  -6   5  -6   15.00    1.90
  -6   5  -6   17.20    2.20
  -6   5  -6   18.20    2.30
  -6   5  -6   12.60    2.20
   6  -5   6   13.10    1.90
   6  -5   6   16.00    2.30
   6  -5   6   14.40    1.90
  -7   5  -6   24.30    3.10
   7  -5   6   18.00    2.00
   7  -5   6   23.00    2.80
   7  -5   6   20.30    2.40
   7   4  -6   20.80    2.70
   7   4  -6   19.40    2.00
   7   4  -6   20.30    2.10
  -7  -4   6   14.90    2.10
  -7  -4   6   17.30    2.40
   6   4  -6   28.20    2.80
   6   4  -6   30.80    2.20
   6   4  -6   18.00    2.40
   6   4  -6   26.60    1.70
  -6  -4   6   21.70    2.50
  -6  -4   6   28.00    2.40
  -6  -4   6   28.30    3.00
   5   4  -6   20.50    2.40
   5   4  -6   26.20    2.00
   5   4  -6   22.50    2.40
   5   4  -6   24.00    1.50
  -5  -4   6   25.20    2.30
  -5  -4   6   23.70    2.10
  -5  -4   6   22.10    2.40
   4   4  -6    8.60    1.00
   4   4  -6    9.00    1.40
   4   4  -6    6.90    1.30
   4   4  -6    6.40    1.10
  -4  -4   6    9.00    1.30
  -4  -4   6    6.60    1.20
  -4  -4   6    6.60    1.10
   3   4  -6   12.30    1.50
   3   4  -6   14.00    1.10
   3   4  -6   12.20    1.60
   3   4  -6   14.60    1.50
  -3  -4   6   12.60    1.50
  -3  -4   6   13.20    1.40
  -3  -4   6   15.40    1.60
  -3  -4   6   14.30    1.00
  -3  -4   6   14.50    1.30
   2   4  -6  503.35   12.50
   2   4  -6  512.05   12.60
   2   4  -6  499.35   12.50
   2   4  -6  496.95   12.20
   2   4  -6  510.45   13.00
  -2  -4   6  507.85   12.40
  -2  -4   6  499.45   12.20
  -2  -4   6  508.85   12.50
  -2  -4   6  517.85   12.70
  -2  -4   6  500.65   12.30
  -2  -4   6  518.65   12.60
   1   4  -6  475.05   11.70
   1   4  -6  478.55   12.30
   1   4  -6  477.55   11.70
   1   4  -6  464.25   11.70
   1   4  -6  496.95   11.70
  -1  -4   6  483.05   11.70
  -1  -4   6  471.15   11.70
  -1  -4   6  485.15   11.60
  -1  -4   6  465.75   11.90
  -1  -4   6  484.45   11.60
   0   4  -6   26.80    1.30
   0   4  -6   27.70    1.30
   0   4  -6   29.80    1.60
   0   4  -6   24.80    1.50
   0   4  -6   28.10    1.70
   0  -4   6   26.20    1.30
   0  -4   6   27.30    1.30
   0  -4   6   24.70    1.30
   0  -4   6   28.50    1.70
   0  -4   6   28.50    1.20
  -1   4  -6   35.40    1.80
  -1   4  -6   33.40    1.90
  -1   4  -6   34.40    1.50
  -1   4  -6   33.40    1.50
  -1   4  -6   33.10    1.80
   1  -4   6   34.00    1.50
   1  -4   6   36.50    1.70
   1  -4   6   34.60    1.50
   1  -4   6   33.20    1.50
   1  -4   6   35.40    1.70
   1  -4   6   33.90    1.20
  -2   4  -6  168.58    5.30
  -2   4  -6  177.38    5.30
  -2   4  -6  174.98    4.90
  -2   4  -6  176.98    4.80
  -2   4  -6  183.38    5.30
   2  -4   6  176.38    5.10
   2  -4   6  170.88    5.00
   2  -4   6  176.98    4.80
   2  -4   6  185.08    4.90
  -3   4  -6  102.59    3.60
  -3   4  -6  104.99    3.80
  -3   4  -6  105.19    3.30
  -3   4  -6  102.69    3.90
  -3   4  -6  108.79    3.50
   3  -4   6  104.59    3.30
   3  -4   6  103.69    3.60
   3  -4   6   99.79    3.40
   3  -4   6  102.29    3.30
   3  -4   6   98.09    3.80
  -4   4  -6    3.30    1.30
  -4   4  -6    6.60    1.20
  -4   4  -6    3.40    1.10
  -4   4  -6    5.00    1.00
   4  -4   6    4.90    1.00
   4  -4   6    4.60    0.90
   4  -4   6    4.50    1.00
   4  -4   6    5.60    1.10
  -5   4  -6  203.88    6.00
  -5   4  -6  196.08    6.30
  -5   4  -6  198.98    5.80
   5  -4   6  198.68    6.00
   5  -4   6  205.58    6.20
   5  -4   6  188.98    6.60
  -6   4  -6   47.00    2.50
  -6   4  -6   54.99    3.00
  -6   4  -6   45.40    3.70
   6  -4   6   47.50    3.30
   6  -4   6   54.69    3.20
   6  -4   6   51.09    2.80
  -7   4  -6    0.40    1.70
   7  -4   6   -0.60    1.30
   7  -4   6    2.10    1.50
   7  -4   6    2.40    2.00
   8   3  -6    4.00    1.10
   8   3  -6    5.90    2.20
   8   3  -6    6.20    1.70
   8   3  -6    2.70    1.60
  -8  -3   6   -1.20    1.60
  -8  -3   6    2.20    2.80
   7   3  -6   12.80    2.30
   7   3  -6   12.90    1.50
   7   3  -6   15.70    1.70
  -7  -3   6    9.20    2.60
  -7  -3   6   15.50    2.00
  -7  -3   6   12.70    2.00
   6   3  -6   11.50    1.90
   6   3  -6   11.10    1.20
   6   3  -6    6.70    1.70
   6   3  -6    8.30    1.20
  -6  -3   6    5.20    1.50
  -6  -3   6   11.00    1.80
   5   3  -6    0.80    1.00
   5   3  -6   -0.60    0.70
   5   3  -6   -0.60    1.10
   5   3  -6    0.90    0.80
  -5  -3   6    1.10    0.90
  -5  -3   6   -2.00    0.90
  -5  -3   6    0.30    1.00
   4   3  -6   29.70    1.50
   4   3  -6   30.50    2.00
   4   3  -6   32.60    1.80
   4   3  -6   31.00    2.10
  -4  -3   6   31.40    2.00
  -4  -3   6   32.20    2.00
  -4  -3   6   32.00    2.00
   3   3  -6    4.50    0.90
   3   3  -6    4.40    0.90
   3   3  -6    6.60    0.80
  -3  -3   6    5.60    1.00
  -3  -3   6    4.90    0.90
  -3  -3   6    6.30    0.60
  -3  -3   6    6.00    0.90
  -3  -3   6    6.30    0.90
   2   3  -6   20.80    1.20
   2   3  -6   22.90    1.40
   2   3  -6   18.90    1.30
  -2  -3   6   21.00    1.30
  -2  -3   6   19.80    1.10
  -2  -3   6   19.30    1.30
  -2  -3   6   19.90    1.30
  -2  -3   6   19.60    1.20
   1   3  -6    1.60    0.50
   1   3  -6    1.20    0.50
   1   3  -6    1.80    0.40
   1   3  -6    3.00    0.60
   1   3  -6    2.60    0.60
  -1  -3   6    2.20    0.60
  -1  -3   6    2.60    0.50
  -1  -3   6    1.80    0.60
  -1  -3   6    2.70    0.60
  -1  -3   6    2.20    0.50
   0   3  -6   17.70    1.20
   0   3  -6   16.20    0.90
   0   3  -6   17.70    1.10
   0   3  -6   18.30    1.00
   0   3  -6   18.60    1.10
   0  -3   6   17.90    1.10
   0  -3   6   19.00    1.10
   0  -3   6   15.90    0.90
   0  -3   6   16.60    1.00
  -1   3  -6  128.29    3.90
  -1   3  -6  127.49    3.90
  -1   3  -6  128.49    3.70
  -1   3  -6  120.99    3.60
   1  -3   6  123.29    3.60
   1  -3   6  125.49    3.30
   1  -3   6  123.69    3.60
   1  -3   6  125.19    3.70
   1  -3   6  124.69    3.20
  -2   3  -6   60.99    2.20
  -2   3  -6   61.79    3.30
   2  -3   6   62.89    2.30
   2  -3   6   63.39    2.00
   2  -3   6   61.99    2.30
   2  -3   6   61.59    2.40
   2  -3   6   65.09    2.20
   2  -3   6   63.49    1.70
  -3   3  -6  403.96   10.30
  -3   3  -6  403.46   10.20
   3  -3   6  401.96   10.20
   3  -3   6  399.56   10.00
   3  -3   6  400.06   10.30
   3  -3   6  402.16   10.40
  -4   3  -6    0.70    0.70
  -4   3  -6    1.30    1.00
  -4   3  -6    3.00    1.20
  -4   3  -6    0.30    0.80
   4  -3   6    0.60    0.70
   4  -3   6    2.00    1.00
   4  -3   6    0.70    0.70
   4  -3   6    0.70    0.80
  -5   3  -6    0.60    0.50
  -5   3  -6    1.80    0.90
  -5   3  -6    0.00    1.20
  -5   3  -6   -2.00    1.10
  -5   3  -6    2.20    1.10
   5  -3   6    1.80    1.00
   5  -3   6    0.50    0.90
   5  -3   6    0.50    1.20
  -6   3  -6    1.10    0.60
  -6   3  -6    0.00    1.20
  -6   3  -6    1.00    1.80
  -6   3  -6    1.80    0.70
  -6   3  -6   -0.20    0.80
   6  -3   6    3.40    1.60
   6  -3   6   -0.20    1.00
   6  -3   6    0.90    1.20
  -7   3  -6   21.20    1.50
  -7   3  -6   18.60    1.70
  -7   3  -6   18.50    2.60
   7  -3   6   21.20    2.70
   7  -3   6   23.70    2.80
   7  -3   6   15.30    2.00
   8   2  -6   27.30    1.80
   8   2  -6   24.20    2.80
  -8  -2   6   35.90    4.00
  -8  -2   6   27.20    3.10
   7   2  -6   10.50    1.20
   7   2  -6    8.50    2.10
   7   2  -6   10.00    1.60
   7   2  -6    9.70    2.00
  -7  -2   6   10.00    2.00
  -7  -2   6   10.60    2.10
  -7  -2   6    7.30    1.70
   6   2  -6    4.20    1.10
   6   2  -6    2.40    1.50
   6   2  -6    4.60    1.40
   6   2  -6    5.40    1.00
  -6  -2   6    6.50    1.50
  -6  -2   6    3.30    1.40
  -6  -2   6    3.00    1.30
   5   2  -6  134.89    4.70
   5   2  -6  141.69    4.80
   5   2  -6  139.39    4.20
  -5  -2   6  135.59    4.60
  -5  -2   6  137.59    4.70
  -5  -2   6  137.49    4.70
   4   2  -6   39.00    1.80
   4   2  -6   37.20    2.00
   4   2  -6   41.50    2.20
  -4  -2   6   36.90    2.00
  -4  -2   6   39.20    2.00
  -4  -2   6   38.20    2.10
   3   2  -6  361.36    9.60
   3   2  -6  379.06    9.30
   3   2  -6  379.96    9.70
  -3  -2   6  379.46    9.60
  -3  -2   6  378.16    9.60
  -3  -2   6  376.76    9.70
   2   2  -6  351.56    8.90
   2   2  -6  351.56    8.90
   2   2  -6  355.76    8.70
  -2  -2   6  347.07    8.80
  -2  -2   6  355.66    8.90
  -2  -2   6  344.47    8.50
  -2  -2   6  352.36    8.80
  -2  -2   6  357.66    9.00
   1   2  -6 1417.16   32.60
   1   2  -6 1372.06   32.40
   1   2  -6 1401.86   32.50
   1   2  -6 1407.86   32.60
   1   2  -6 1399.26   32.60
  -1  -2   6 1416.06   32.70
  -1  -2   6 1435.46   32.60
  -1  -2   6 1403.86   32.60
  -1  -2   6 1353.66   32.50
   0   2  -6    1.80    0.50
   0   2  -6    1.40    0.60
   0   2  -6    1.50    0.40
   0   2  -6    1.40    0.40
   0   2  -6    1.60    0.50
   0   2  -6    1.50    0.30
   0  -2   6    2.80    0.60
   0  -2   6    1.70    0.50
   0  -2   6    1.10    0.50
   0  -2   6    1.60    0.40
  -1   2  -6  973.40   22.60
  -1   2  -6  934.31   22.10
  -1   2  -6  955.50   22.60
  -1   2  -6  936.11   22.50
   1  -2   6  936.21   22.10
   1  -2   6  925.41   21.90
   1  -2   6  974.50   22.60
   1  -2   6  980.30   22.50
   1  -2   6  976.20   22.60
  -2   2  -6   86.19    2.40
  -2   2  -6   88.69    2.80
  -2   2  -6   83.89    3.30
  -2   2  -6   74.99    3.10
   2  -2   6   85.19    2.90
   2  -2   6   90.39    2.90
   2  -2   6   86.49    2.50
   2  -2   6   84.89    2.90
  -3   2  -6  179.08    5.50
  -3   2  -6  195.58    5.60
  -3   2  -6  185.48    4.70
  -3   2  -6  192.68    5.40
   3  -2   6  186.68    4.90
   3  -2   6  187.68    5.40
   3  -2   6  190.98    5.40
   3  -2   6  188.38    5.50
  -4   2  -6    8.20    0.80
  -4   2  -6    7.90    1.10
  -4   2  -6    7.10    1.20
  -4   2  -6    6.40    1.20
   4  -2   6    8.60    1.10
   4  -2   6    9.80    1.20
   4  -2   6   10.30    1.40
  -5   2  -6  215.48    5.60
  -5   2  -6  216.18    6.50
  -5   2  -6  213.18    6.70
  -5   2  -6  213.98    6.80
   5  -2   6  216.38    6.70
   5  -2   6  216.88    6.50
   5  -2   6  217.28    6.60
  -6   2  -6   42.00    1.80
  -6   2  -6   43.90    2.00
  -6   2  -6   38.90    3.60
  -6   2  -6   36.80    2.90
   6  -2   6   43.00    2.60
   6  -2   6   40.90    3.20
   6  -2   6   37.40    3.30
  -7   2  -6   26.80    2.60
  -7   2  -6   25.90    3.00
  -7   2  -6   30.20    2.20
   7  -2   6   24.80    3.20
   7  -2   6   29.10    2.80
   7  -2   6   28.20    2.90
   8   1  -6    4.60    1.00
   8   1  -6    4.00    1.60
  -8  -1   6    4.10    1.70
  -8  -1   6    6.20    2.80
   7   1  -6   29.40    2.60
   7   1  -6   29.60    3.20
   7   1  -6   28.60    1.80
  -7  -1   6   38.20    3.00
  -7  -1   6   29.40    3.00
   6   1  -6   30.50    2.50
   6   1  -6   30.50    2.50
  -6  -1   6   24.30    2.30
  -6  -1   6   25.20    2.30
  -6  -1   6   26.20    2.30
   5   1  -6   20.70    2.00
   5   1  -6   21.10    1.80
  -5  -1   6   20.10    1.90
  -5  -1   6   19.80    1.90
  -5  -1   6   19.60    1.90
   4   1  -6   63.29    2.60
   4   1  -6   60.79    2.70
   4   1  -6   61.39    2.40
  -4  -1   6   67.99    2.70
  -4  -1   6   65.69    2.60
  -4  -1   6   63.49    2.60
   3   1  -6  674.33   16.00
   3   1  -6  630.94   15.90
   3   1  -6  637.34   16.30
   3   1  -6  667.63   15.70
  -3  -1   6  656.13   15.90
  -3  -1   6  658.93   16.00
  -3  -1   6  653.73   15.80
   2   1  -6   69.89    2.40
   2   1  -6   72.19    2.50
   2   1  -6   74.59    2.40
   2   1  -6   70.39    2.50
  -2  -1   6   74.49    2.50
  -2  -1   6   75.39    2.60
  -2  -1   6   73.69    2.50
  -2  -1   6   72.89    1.90
   1   1  -6  364.86    9.90
   1   1  -6  415.06   10.20
   1   1  -6  420.56   10.10
   1   1  -6  424.66   10.10
   1   1  -6  386.66   10.10
  -1  -1   6  424.26   10.20
  -1  -1   6  422.86   10.00
  -1  -1   6  426.76   10.10
  -1  -1   6  413.66   10.10
   0   1  -6  144.89    4.10
   0   1  -6  144.59    3.90
   0   1  -6  145.49    4.10
   0   1  -6  150.68    4.20
   0  -1   6  147.39    4.10
   0  -1   6  152.08    4.10
   0  -1   6  141.39    3.90
   0  -1   6  146.09    4.20
  -1   1  -6    5.90    0.60
  -1   1  -6    7.10    0.90
  -1   1  -6    5.70    0.80
  -1   1  -6    6.10    0.80
   1  -1   6    6.10    0.80
   1  -1   6    6.50    0.80
   1  -1   6    5.50    0.70
   1  -1   6    6.60    0.70
  -2   1  -6   50.69    2.10
  -2   1  -6   49.99    2.10
  -2   1  -6   50.89    1.80
  -2   1  -6   50.29    2.20
   2  -1   6   52.59    2.00
   2  -1   6   52.59    2.20
   2  -1   6   52.39    2.20
   2  -1   6   49.60    1.60
  -3   1  -6   14.10    1.40
  -3   1  -6   14.30    1.30
  -3   1  -6   13.20    1.00
  -3   1  -6   15.10    1.50
   3  -1   6   15.70    1.30
   3  -1   6   13.70    1.40
  -4   1  -6   -0.10    0.70
  -4   1  -6    0.30    0.60
  -4   1  -6   -0.60    0.70
  -4   1  -6    0.70    1.00
   4  -1   6   -0.90    0.80
   4  -1   6    0.40    0.70
   4  -1   6   -0.10    1.00
  -5   1  -6  274.57    7.00
  -5   1  -6  270.27    7.70
  -5   1  -6  264.77    7.70
  -5   1  -6  240.28    7.90
   5  -1   6  264.17    7.90
   5  -1   6  269.77    7.50
   5  -1   6  267.47    7.80
  -6   1  -6    2.40    1.90
  -6   1  -6    1.00    0.90
   6  -1   6   -1.90    1.70
   6  -1   6    0.00    1.20
   6  -1   6    1.20    1.20
  -7   1  -6   45.20    3.50
  -7   1  -6   47.50    2.70
   7  -1   6   50.79    3.50
   7  -1   6   41.40    3.10
   9   0  -6    9.90    2.50
  -9   0   6   10.30    2.50
   8   0  -6   12.90    2.00
   8   0  -6   16.10    1.40
   8   0  -6   15.50    2.60
  -8   0   6   16.30    2.50
  -8   0   6   16.30    2.40
   7   0  -6   -0.10    1.60
  -7   0   6   -2.20    1.40
  -7   0   6    0.30    1.30
  -7   0   6   -0.40    1.40
   6   0  -6   64.49    3.20
   6   0  -6   63.59    3.10
  -6   0   6   60.29    3.00
  -6   0   6   64.19    3.20
  -6   0   6   58.69    3.10
   5   0  -6  467.75   11.90
   5   0  -6  462.15   11.90
   5   0  -6  447.16   11.70
  -5   0   6  444.36   11.90
  -5   0   6  456.15   11.80
  -5   0   6  462.55   11.70
   4   0  -6  429.96   10.80
   4   0  -6  427.96   11.00
   4   0  -6  422.56   10.90
  -4   0   6  414.56   10.10
  -4   0   6  432.66   10.90
  -4   0   6  418.36   11.00
  -4   0   6  431.86   10.80
   3   0  -6  139.39    4.20
   3   0  -6  136.09    4.10
   3   0  -6  133.99    4.10
   3   0  -6  138.09    4.10
  -3   0   6  135.99    4.10
  -3   0   6  132.39    4.20
  -3   0   6  144.29    4.20
   2   0  -6  175.58    4.70
   2   0  -6  169.38    4.70
   2   0  -6  163.38    4.70
   2   0  -6  169.48    4.70
  -2   0   6  163.48    4.60
  -2   0   6  162.38    4.80
  -2   0   6  176.38    4.70
   1   0  -6  799.62   18.50
   1   0  -6  767.22   18.50
   1   0  -6  760.32   18.50
   1   0  -6  749.13   18.60
  -1   0   6  802.12   18.60
  -1   0   6  793.62   18.60
  -1   0   6  767.62   18.50
  -1   0   6  802.92   18.50
   0   0  -6    3.20    0.70
   0   0  -6    3.10    0.50
   0   0  -6    2.90    0.50
   0   0  -6    2.20    0.60
   0   0   6    3.10    0.60
   0   0   6    2.80    0.60
   0   0   6    3.00    0.60
   0   0   6    3.30    0.60
  -1   0  -6   42.60    1.80
  -1   0  -6   41.80    1.80
  -1   0  -6   42.80    2.00
  -1   0  -6   41.40    1.60
   1   0   6   41.50    1.70
   1   0   6   42.20    1.80
   1   0   6   41.40    1.80
   1   0   6   43.10    1.80
   1   0   6   39.80    1.20
  -2   0  -6   20.50    1.60
  -2   0  -6   17.30    1.40
  -2   0  -6   20.00    1.20
  -2   0  -6   18.20    1.30
   2   0   6   18.60    1.30
   2   0   6   17.00    1.40
   2   0   6   20.40    1.50
  -3   0  -6   82.69    3.10
  -3   0  -6   87.59    3.10
  -3   0  -6   82.89    2.80
  -3   0  -6   83.29    3.30
   3   0   6   83.79    3.20
   3   0   6   84.99    3.30
   3   0   6   83.39    2.90
  -4   0  -6  199.68    6.30
  -4   0  -6  198.28    5.90
  -4   0  -6  207.68    6.00
  -4   0  -6  196.88    5.60
   4   0   6  192.98    5.70
   4   0   6  201.08    6.10
   4   0   6  198.28    6.20
  -5   0  -6   68.89    3.30
  -5   0  -6   72.09    2.90
  -5   0  -6   74.99    3.80
  -5   0  -6   72.89    3.20
   5   0   6   74.99    3.10
   5   0   6   73.09    3.40
   5   0   6   71.99    3.70
  -6   0  -6   31.20    3.80
  -6   0  -6   31.20    2.70
  -6   0  -6   32.00    2.30
   6   0   6   29.70    3.10
   6   0   6   28.00    2.50
   6   0   6   27.60    2.70
  -7   0  -6    1.10    1.70
  -7   0  -6    0.00    1.50
   7   0   6   -0.90    1.80
   7   0   6    1.50    1.70
   9  -1  -6   21.80    2.60
  -9   1   6   22.60    3.00
   8  -1  -6    7.40    1.80
   8  -1  -6    9.60    2.20
  -8   1   6    8.20    2.10
  -8   1   6   10.80    2.30
   7  -1  -6    3.60    1.50
   7  -1  -6    1.30    1.20
  -7   1   6    4.60    1.50
  -7   1   6    3.60    1.60
  -7   1   6    1.30    1.40
   6  -1  -6    1.10    1.00
   6  -1  -6    0.80    0.80
   6  -1  -6    0.70    1.20
  -6   1   6    0.10    1.10
  -6   1   6    1.50    1.10
  -6   1   6   -0.80    0.90
   5  -1  -6  281.67    7.80
   5  -1  -6  283.87    7.60
   5  -1  -6  267.57    9.20
  -5   1   6  274.07    7.80
  -5   1   6  273.67    7.70
  -5   1   6  276.97    7.60
   4  -1  -6   91.09    3.20
   4  -1  -6   84.99    3.10
   4  -1  -6   80.39    3.00
  -4   1   6   86.59    2.60
  -4   1   6   82.39    3.00
  -4   1   6   76.09    2.40
  -4   1   6   88.79    3.10
  -4   1   6   84.59    3.10
   3  -1  -6   33.70    1.70
   3  -1  -6   33.50    1.80
   3  -1  -6   33.10    1.70
   3  -1  -6   37.60    1.80
  -3   1   6   34.10    1.50
  -3   1   6   32.40    1.60
  -3   1   6   33.10    1.70
  -3   1   6   35.00    1.80
   2  -1  -6  141.39    4.20
   2  -1  -6  140.39    4.20
   2  -1  -6  143.19    4.20
   2  -1  -6  148.09    4.20
  -2   1   6  144.89    4.20
  -2   1   6  141.49    4.10
  -2   1   6  141.59    4.10
   1  -1  -6   55.79    1.80
   1  -1  -6   54.99    2.10
   1  -1  -6   58.19    2.10
   1  -1  -6   56.69    2.20
  -1   1   6   59.39    2.10
  -1   1   6   58.39    2.10
  -1   1   6   60.59    2.20
   0  -1  -6  637.04   15.50
   0  -1  -6  634.74   15.10
   0  -1  -6  612.24   15.50
   0  -1  -6  657.23   15.60
   0  -1  -6  660.53   15.60
   0   1   6  637.44   15.60
   0   1   6  669.13   15.60
   0   1   6  648.44   15.50
   0   1   6  649.93   15.50
  -1  -1  -6  126.09    3.80
  -1  -1  -6  129.69    3.70
  -1  -1  -6  122.39    3.80
  -1  -1  -6  127.29    3.90
   1   1   6  125.69    3.90
   1   1   6  125.09    3.70
   1   1   6  124.59    3.30
   1   1   6  123.99    3.80
  -2  -1  -6  843.32   20.00
  -2  -1  -6  813.92   19.50
  -2  -1  -6  824.92   19.60
  -2  -1  -6  822.02   19.70
   2   1   6  788.82   19.20
   2   1   6  822.22   19.90
   2   1   6  819.72   19.50
  -3  -1  -6    3.40    0.90
  -3  -1  -6    4.60    0.90
  -3  -1  -6    3.70    1.10
   3   1   6    4.90    0.80
   3   1   6    4.40    1.20
   3   1   6    2.70    0.90
  -4  -1  -6    2.40    1.30
  -4  -1  -6    3.70    1.00
  -4  -1  -6    0.90    0.90
  -4  -1  -6    1.90    0.90
   4   1   6    1.30    1.20
   4   1   6    1.70    0.90
   4   1   6    1.80    1.10
  -5  -1  -6   54.09    2.90
  -5  -1  -6   52.19    3.40
  -5  -1  -6   59.49    3.70
  -5  -1  -6   58.69    3.00
   5   1   6   57.79    3.60
   5   1   6   63.09    2.70
   5   1   6   53.69    3.30
  -6  -1  -6   27.10    2.50
  -6  -1  -6   25.40    2.30
  -6  -1  -6   25.90    3.20
  -6  -1  -6   23.10    2.50
   6   1   6   21.10    2.40
   6   1   6   22.10    2.50
   8  -2  -6    1.60    1.50
   8  -2  -6    2.00    2.00
  -8   2   6    2.00    2.00
  -8   2   6    4.40    1.90
   7  -2  -6   81.59    4.00
   7  -2  -6   76.69    3.70
  -7   2   6   75.49    3.70
  -7   2   6   78.49    4.00
  -7   2   6   75.89    3.80
   6  -2  -6   44.30    2.80
   6  -2  -6   43.50    2.50
   6  -2  -6   47.20    2.50
  -6   2   6   42.50    2.10
  -6   2   6   42.90    2.60
  -6   2   6   44.70    2.80
  -6   2   6   45.50    2.60
   5  -2  -6   10.60    1.30
   5  -2  -6   11.10    1.50
   5  -2  -6   14.90    1.60
  -5   2   6   12.30    1.40
  -5   2   6   11.30    1.40
  -5   2   6   11.90    1.50
  -5   2   6    9.80    1.00
  -5   2   6   12.60    1.20
   4  -2  -6   47.50    2.20
   4  -2  -6   47.20    2.20
   4  -2  -6   50.39    2.30
  -4   2   6   48.90    2.20
  -4   2   6   48.60    2.40
  -4   2   6   46.50    1.60
  -4   2   6   50.89    2.10
  -4   2   6   50.69    2.40
   3  -2  -6   95.49    3.30
   3  -2  -6   98.79    3.30
   3  -2  -6   97.39    3.20
  -3   2   6   96.39    3.10
  -3   2   6   92.99    3.10
  -3   2   6   98.39    3.30
  -3   2   6   97.19    3.30
   2  -2  -6  821.52   19.50
   2  -2  -6  837.52   19.60
   2  -2  -6  808.42   19.00
   2  -2  -6  847.12   19.70
   2  -2  -6  841.62   19.50
  -2   2   6  836.42   19.60
  -2   2   6  721.13   20.00
   1  -2  -6  265.67    6.80
   1  -2  -6  265.67    7.10
   1  -2  -6  277.17    7.10
   1  -2  -6  258.17    7.10
   1  -2  -6  270.07    7.00
  -1   2   6  279.47    7.10
   0  -2  -6    9.60    1.00
   0  -2  -6    8.50    1.00
   0  -2  -6    9.40    0.90
   0  -2  -6    9.80    1.10
   0  -2  -6    8.60    1.10
   0   2   6    8.70    1.10
   0   2   6    9.80    1.20
   0   2   6    9.50    1.10
  -1  -2  -6  183.38    5.10
  -1  -2  -6  176.48    4.90
  -1  -2  -6  180.28    5.00
  -1  -2  -6  169.48    5.10
   1   2   6  169.38    5.10
   1   2   6  170.88    4.40
   1   2   6  175.78    4.90
   1   2   6  180.78    4.70
   1   2   6  167.48    5.00
  -2  -2  -6   50.99    2.50
  -2  -2  -6   49.00    2.20
  -2  -2  -6   55.39    2.30
  -2  -2  -6   48.60    2.60
   2   2   6   48.40    2.10
   2   2   6   51.29    2.00
   2   2   6   47.90    2.40
   2   2   6   48.70    2.40
  -3  -2  -6   61.49    2.60
  -3  -2  -6   56.59    3.00
  -3  -2  -6   58.39    2.70
  -3  -2  -6   60.49    2.60
   3   2   6   59.29    2.40
   3   2   6   55.29    2.90
   3   2   6   58.99    2.80
   3   2   6   63.79    2.30
  -4  -2  -6    6.00    1.20
  -4  -2  -6    6.10    1.20
  -4  -2  -6    2.60    1.40
  -4  -2  -6    4.30    1.70
   4   2   6    5.40    1.00
   4   2   6    7.40    1.10
   4   2   6    4.60    1.60
   4   2   6    7.40    1.50
  -5  -2  -6    2.60    1.90
  -5  -2  -6    4.60    1.80
  -5  -2  -6    2.20    1.10
  -5  -2  -6    3.20    1.20
   5   2   6    7.10    3.30
   5   2   6    6.00    1.80
   5   2   6    6.30    1.20
  -6  -2  -6   81.59    5.90
  -6  -2  -6   75.19    3.80
  -6  -2  -6   74.79    3.90
   6   2   6   78.59    4.40
   6   2   6   83.49    3.60
   8  -3  -6   16.70    2.50
   8  -3  -6   17.60    2.40
  -8   3   6   20.20    2.50
  -8   3   6   20.80    2.70
  -8   3   6   19.60    2.70
   7  -3  -6    1.80    1.10
   7  -3  -6    0.90    1.50
   7  -3  -6   -0.80    1.00
  -7   3   6    1.40    1.10
  -7   3   6    0.80    1.50
  -7   3   6    2.10    1.60
  -7   3   6    1.00    1.70
   6  -3  -6  156.38    5.30
   6  -3  -6  156.48    5.10
  -6   3   6  166.28    5.30
  -6   3   6  161.28    4.70
  -6   3   6  155.88    5.20
  -6   3   6  162.08    5.60
   5  -3  -6   34.70    2.10
   5  -3  -6   36.50    2.20
   5  -3  -6   28.90    2.00
  -5   3   6   32.00    2.10
  -5   3   6   32.90    1.90
  -5   3   6   30.20    2.20
  -5   3   6   32.10    2.30
  -5   3   6   29.90    1.60
   4  -3  -6   23.90    1.80
   4  -3  -6   23.20    1.80
   4  -3  -6   25.20    1.70
  -4   3   6   24.60    1.90
  -4   3   6   25.10    1.70
  -4   3   6   22.60    1.90
  -4   3   6   28.40    1.70
   3  -3  -6   64.99    2.50
   3  -3  -6   66.19    2.60
   3  -3  -6   62.69    2.50
  -3   3   6   63.99    2.70
  -3   3   6   64.69    2.70
  -3   3   6   64.19    2.40
  -3   3   6   64.89    2.60
   2  -3  -6   91.79    3.10
   2  -3  -6   88.59    3.10
   2  -3  -6   89.09    3.20
   2  -3  -6   95.29    3.10
   2  -3  -6   93.69    2.80
   2  -3  -6   94.79    3.30
  -2   3   6   92.09    3.00
  -2   3   6   89.79    3.30
  -2   3   6   96.79    3.20
  -2   3   6   95.79    3.40
   1  -3  -6   45.30    2.00
   1  -3  -6   39.70    1.80
   1  -3  -6   40.60    2.30
   1  -3  -6   42.30    2.00
   1  -3  -6   43.00    2.00
  -1   3   6   42.50    2.00
  -1   3   6   43.10    1.90
  -1   3   6   45.60    1.90
  -1   3   6   44.40    2.20
   0  -3  -6   17.40    1.40
   0  -3  -6   15.10    1.40
   0  -3  -6   15.60    1.20
   0  -3  -6   16.00    1.50
   0  -3  -6   17.60    1.30
   0   3   6   14.20    1.40
   0   3   6   15.90    1.50
   0   3   6   14.10    1.10
   0   3   6   16.80    1.60
  -1  -3  -6  112.59    3.50
  -1  -3  -6  116.19    3.80
  -1  -3  -6  114.79    3.90
  -1  -3  -6  111.79    3.70
   1   3   6  109.59    3.10
   1   3   6  112.99    3.50
   1   3   6  118.39    3.90
   1   3   6  108.19    3.80
  -2  -3  -6   44.40    2.00
  -2  -3  -6   45.40    2.20
  -2  -3  -6   42.60    2.50
  -2  -3  -6   45.60    2.40
   2   3   6   46.90    2.50
   2   3   6   45.20    2.00
   2   3   6   42.60    2.10
   2   3   6   42.50    2.40
  -3  -3  -6   84.19    3.50
  -3  -3  -6   88.59    3.80
  -3  -3  -6   82.59    3.00
  -3  -3  -6   87.29    3.40
   3   3   6   82.89    3.00
   3   3   6   85.49    3.20
   3   3   6   80.29    3.70
   3   3   6   86.49    3.60
  -4  -3  -6   16.30    2.20
  -4  -3  -6   13.70    1.70
  -4  -3  -6   15.20    1.80
  -4  -3  -6   12.60    1.50
   4   3   6   13.40    1.70
   4   3   6   14.50    2.20
   4   3   6   13.50    1.70
   4   3   6   16.30    2.10
  -5  -3  -6   41.30    3.50
  -5  -3  -6   38.30    2.90
  -5  -3  -6   48.50    3.10
  -5  -3  -6   48.80    2.70
  -5  -3  -6   42.10    4.10
   5   3   6   45.70    2.50
   5   3   6   45.90    2.70
   8  -4  -6   11.90    1.90
   8  -4  -6   12.70    2.00
   8  -4  -6   12.60    2.40
   8  -4  -6    7.30    1.80
  -8   4   6   13.60    2.40
  -8   4   6    7.20    2.50
  -8   4   6   10.60    2.00
  -8   4   6   14.00    2.00
   7  -4  -6   38.10    2.80
   7  -4  -6   43.20    3.30
  -7   4   6   44.10    3.30
  -7   4   6   38.90    2.90
  -7   4   6   41.50    2.60
  -7   4   6   36.50    3.20
   6  -4  -6   25.90    2.20
   6  -4  -6   30.10    2.50
   6  -4  -6   25.00    2.20
  -6   4   6   30.30    2.70
  -6   4   6   27.30    2.50
  -6   4   6   29.10    2.70
  -6   4   6   28.50    2.10
   5  -4  -6    7.80    1.20
   5  -4  -6    7.90    1.20
   5  -4  -6    6.40    1.20
  -5   4   6    8.80    1.30
  -5   4   6    6.70    1.10
  -5   4   6    7.20    1.40
  -5   4   6    9.30    1.50
  -5   4   6   10.00    1.30
   4  -4  -6  258.67    7.30
   4  -4  -6  250.87    7.00
   4  -4  -6  260.37    7.10
  -4   4   6  253.87    7.30
  -4   4   6  253.07    6.90
  -4   4   6  252.27    7.20
  -4   4   6  259.37    7.40
  -4   4   6  259.47    7.30
   3  -4  -6   -0.40    0.60
   3  -4  -6    0.50    0.70
   3  -4  -6    0.00    0.90
   3  -4  -6    0.40    0.70
   3  -4  -6    0.60    0.70
  -3   4   6   -0.30    0.70
  -3   4   6   -0.30    0.80
  -3   4   6   -0.30    0.70
  -3   4   6    1.30    0.80
  -3   4   6   -0.90    0.80
   2  -4  -6   27.70    1.90
   2  -4  -6   27.80    1.80
   2  -4  -6   26.50    1.60
   2  -4  -6   26.40    1.60
   2  -4  -6   26.40    1.70
   2  -4  -6   28.50    2.00
  -2   4   6   27.70    1.80
  -2   4   6   30.50    2.10
  -2   4   6   26.70    1.80
  -2   4   6   24.30    1.60
  -2   4   6   27.20    2.00
   1  -4  -6   11.20    1.30
   1  -4  -6    8.80    1.20
   1  -4  -6    6.70    0.90
   1  -4  -6   10.00    1.20
   1  -4  -6    7.90    1.10
   1  -4  -6    7.00    1.00
  -1   4   6    9.50    1.40
  -1   4   6    7.70    1.10
  -1   4   6    7.40    1.10
  -1   4   6    7.40    1.30
  -1   4   6    8.00    1.00
   0  -4  -6   99.19    3.40
   0  -4  -6   96.59    3.20
   0  -4  -6   97.29    3.40
   0  -4  -6   97.09    3.60
   0   4   6   95.29    3.10
   0   4   6   92.99    3.40
   0   4   6   97.59    3.30
  -1  -4  -6    1.90    0.90
  -1  -4  -6    2.80    1.10
  -1  -4  -6    1.70    0.80
  -1  -4  -6    1.20    0.70
   1   4   6    2.00    0.70
   1   4   6    1.60    1.00
   1   4   6    1.70    1.10
   1   4   6    2.00    0.60
  -2  -4  -6    9.30    1.20
  -2  -4  -6   11.30    1.60
  -2  -4  -6   11.00    1.50
  -2  -4  -6   12.20    1.40
   2   4   6   12.10    1.60
   2   4   6   11.90    1.60
   2   4   6   10.80    1.60
  -3  -4  -6   55.29    3.20
  -3  -4  -6   48.70    2.80
  -3  -4  -6   49.60    2.30
  -3  -4  -6   47.90    2.60
   3   4   6   48.20    3.30
   3   4   6   55.39    3.30
   3   4   6   50.89    2.60
  -4  -4  -6    2.10    1.50
  -4  -4  -6    2.10    1.00
  -4  -4  -6    5.20    1.10
  -4  -4  -6    4.30    2.10
  -4  -4  -6    4.20    2.00
   4   4   6    3.80    1.80
   4   4   6    5.40    1.40
  -5  -4  -6   13.70    2.30
  -5  -4  -6   15.50    2.80
  -5  -4  -6   14.80    2.80
  -5  -4  -6   11.20    1.80
   5   4   6   11.50    2.70
   5   4   6   15.50    2.00
   7  -5  -6   10.80    2.00
   7  -5  -6    6.40    1.50
   7  -5  -6    5.40    1.90
   7  -5  -6    6.20    1.50
  -7   5   6    5.90    2.00
  -7   5   6    8.60    1.90
  -7   5   6    6.30    1.60
  -7   5   6    6.30    2.00
   6  -5  -6    3.50    1.30
   6  -5  -6    4.90    1.40
  -6   5   6    3.20    1.60
  -6   5   6    5.10    1.40
  -6   5   6    2.20    1.50
  -6   5   6    4.60    1.30
  -6   5   6    2.60    1.40
   5  -5  -6    8.80    1.30
   5  -5  -6   13.80    2.10
   5  -5  -6    6.30    1.20
   5  -5  -6   10.30    1.40
  -5   5   6    9.40    1.60
  -5   5   6    7.10    1.50
  -5   5   6    9.50    1.70
  -5   5   6    8.90    1.70
  -5   5   6    8.90    1.40
   4  -5  -6   13.40    1.60
   4  -5  -6   14.20    1.90
   4  -5  -6   10.40    1.40
   4  -5  -6   10.50    1.20
  -4   5   6    9.30    1.50
  -4   5   6   11.60    1.70
  -4   5   6   12.00    1.50
  -4   5   6   12.60    1.70
  -4   5   6   11.90    1.40
   3  -5  -6    3.00    1.00
   3  -5  -6    2.70    1.30
   3  -5  -6    2.60    0.90
   3  -5  -6    3.50    1.40
   3  -5  -6    2.00    0.80
  -3   5   6    4.20    0.90
  -3   5   6    2.30    1.10
  -3   5   6    2.70    1.30
  -3   5   6    3.10    1.20
  -3   5   6    2.40    1.10
   2  -5  -6   16.70    1.40
   2  -5  -6   13.50    1.70
   2  -5  -6   17.00    1.70
   2  -5  -6   19.40    1.60
   2  -5  -6   18.70    1.90
   2  -5  -6   16.00    1.80
  -2   5   6   15.60    1.60
  -2   5   6   16.40    1.80
  -2   5   6   17.40    2.20
  -2   5   6   18.00    1.80
  -2   5   6   15.20    1.90
   1  -5  -6   55.49    2.90
   1  -5  -6   55.79    2.30
   1  -5  -6   55.69    2.50
   1  -5  -6   51.99    2.60
   1  -5  -6   58.99    2.80
   1  -5  -6   51.29    2.50
  -1   5   6   52.59    2.50
  -1   5   6   52.39    2.50
  -1   5   6   57.49    3.10
  -1   5   6   52.09    3.00
  -1   5   6   57.49    2.60
   0  -5  -6    2.10    0.90
   0  -5  -6    2.50    0.80
   0  -5  -6    2.60    0.80
   0   5   6    2.90    1.10
   0   5   6    2.00    0.90
   0   5   6    0.40    1.10
   0   5   6    3.50    1.90
  -1  -5  -6   10.10    1.50
  -1  -5  -6   10.80    1.50
  -1  -5  -6   10.50    1.30
   1   5   6   11.50    1.80
   1   5   6   11.20    1.70
   1   5   6   11.50    1.60
   1   5   6    9.20    1.30
  -2  -5  -6   15.40    1.60
  -2  -5  -6   13.30    1.50
  -2  -5  -6   12.30    1.60
  -2  -5  -6   16.60    2.00
   2   5   6   19.20    2.40
   2   5   6   12.40    1.90
   2   5   6   12.90    1.80
   2   5   6   15.70    1.90
  -3  -5  -6   22.50    2.90
  -3  -5  -6   21.40    2.50
  -3  -5  -6   25.70    2.30
  -3  -5  -6   25.20    1.80
  -3  -5  -6   21.60    2.60
   3   5   6   20.20    2.50
   3   5   6   26.40    2.50
  -4  -5  -6    3.60    1.30
  -4  -5  -6    3.50    1.60
  -4  -5  -6    6.80    2.40
  -4  -5  -6    1.50    1.60
  -4  -5  -6   -0.10    2.40
   4   5   6    1.60    1.60
   4   5   6    4.00    2.20
   6  -6  -6   26.80    2.70
   6  -6  -6   20.60    2.80
   6  -6  -6   22.10    2.30
   6  -6  -6   21.40    2.30
  -6   6   6   22.70    2.40
  -6   6   6   26.20    2.90
  -6   6   6   23.60    2.60
  -6   6   6   22.50    3.30
   5  -6  -6    1.10    1.10
   5  -6  -6    0.90    1.10
   5  -6  -6    2.20    1.20
  -5   6   6    3.00    1.80
  -5   6   6    0.30    1.30
  -5   6   6    1.70    1.30
  -5   6   6    1.10    1.50
  -5   6   6    0.40    1.20
   4  -6  -6    9.60    1.30
   4  -6  -6    6.60    1.90
   4  -6  -6    6.70    1.40
   4  -6  -6    8.30    1.20
  -4   6   6    6.00    1.50
  -4   6   6    8.50    1.50
  -4   6   6    8.80    1.90
  -4   6   6    6.90    1.70
  -4   6   6    7.00    1.30
   3  -6  -6    0.80    1.10
   3  -6  -6    0.90    0.80
   3  -6  -6    3.10    1.20
   3  -6  -6    2.50    1.50
   3  -6  -6    2.60    0.90
  -3   6   6    2.60    1.30
  -3   6   6    1.00    1.10
  -3   6   6   -1.60    1.50
  -3   6   6    0.30    1.20
   2  -6  -6    1.00    0.80
   2  -6  -6    0.20    1.30
   2  -6  -6   -1.20    1.10
   2  -6  -6   -1.60    1.60
   2  -6  -6    0.50    1.10
   2  -6  -6   -0.50    0.80
  -2   6   6    0.40    1.20
  -2   6   6   -2.30    1.50
  -2   6   6    0.10    1.20
  -2   6   6    1.60    1.10
  -2   6   6    2.20    1.30
   1  -6  -6   54.19    2.40
   1  -6  -6   58.39    2.60
   1  -6  -6   54.69    3.20
   1  -6  -6   51.39    2.90
   1  -6  -6   56.59    2.70
   1  -6  -6   58.29    3.50
  -1   6   6   50.69    3.20
  -1   6   6   57.19    2.80
  -1   6   6   56.69    2.90
  -1   6   6   54.29    2.80
   0  -6  -6    1.20    1.10
   0  -6  -6    2.60    1.50
   0  -6  -6    3.70    1.10
   0  -6  -6    1.20    0.90
   0   6   6    4.90    1.40
   0   6   6    5.10    1.20
   0   6   6    4.20    1.30
   0   6   6    1.70    1.30
  -1  -6  -6   13.00    1.80
  -1  -6  -6   10.60    1.70
  -1  -6  -6    8.50    1.20
  -1  -6  -6   10.50    1.40
   1   6   6    9.50    1.80
   1   6   6    9.90    1.60
   1   6   6   12.40    1.80
   1   6   6   12.70    2.20
  -2  -6  -6   12.40    1.50
  -2  -6  -6   14.30    1.80
  -2  -6  -6   12.00    2.20
  -2  -6  -6    9.20    1.70
   2   6   6   13.50    2.20
   2   6   6   16.90    2.20
   2   6   6   19.50    2.10
   5  -7  -6    0.60    1.00
   5  -7  -6    0.10    1.30
   5  -7  -6   -2.10    1.40
  -5   7   6    0.40    1.70
  -5   7   6    0.20    1.40
  -5   7   6    0.70    1.70
   4  -7  -6   12.10    1.30
   4  -7  -6   11.90    1.90
  -4   7   6    9.00    2.00
  -4   7   6    7.80    2.20
  -4   7   6   12.60    1.60
  -4   7   6   12.10    1.90
   3  -7  -6    0.80    1.70
   3  -7  -6   -1.10    0.90
   3  -7  -6   -0.40    1.00
   3  -7  -6   -1.10    1.60
   3  -7  -6   -0.90    1.20
  -3   7   6    0.30    1.30
  -3   7   6    1.70    1.80
  -3   7   6   -0.20    1.50
  -3   7   6   -0.50    1.30
   2  -7  -6   41.60    3.50
   2  -7  -6   40.70    3.00
   2  -7  -6   41.00    3.00
   2  -7  -6   40.30    2.20
   2  -7  -6   37.20    2.30
  -2   7   6   44.90    2.90
  -2   7   6   49.50    3.60
  -2   7   6   41.40    2.80
  -2   7   6   41.90    3.00
   1  -7  -6  107.99    4.60
   1  -7  -6  110.59    3.90
   1  -7  -6  115.49    4.20
   1  -7  -6  105.49    5.00
   1  -7  -6  113.09    3.80
  -1   7   6  102.09    4.50
  -1   7   6  110.99    4.20
  -1   7   6  107.29    4.90
  -1   7   6  103.49    4.50
   0  -7  -6   31.10    2.40
   0  -7  -6   34.40    2.90
   0  -7  -6   31.40    2.10
   0  -7  -6   31.20    3.90
   0  -7  -6   32.40    2.30
   0   7   6   28.60    3.30
   0   7   6   28.50    3.10
   0   7   6   30.80    2.90
  -1  -7  -6    3.30    1.70
  -1  -7  -6    1.50    1.10
  -1  -7  -6    3.30    1.20
   1   7   6   -2.80    1.50
   1   7   6    1.80    2.00
   1   7   6    2.70    2.20
   2   9  -7    0.50    1.20
   2   9  -7   -3.10    2.00
   2   9  -7    0.40    1.70
  -2  -9   7   -2.30    1.80
  -2  -9   7    1.20    0.70
  -2  -9   7    0.20    0.60
  -2  -9   7    1.00    1.00
   1   9  -7   14.70    2.20
   1   9  -7   14.40    2.30
  -1  -9   7   19.60    1.70
  -1  -9   7   13.70    2.40
   0   9  -7   29.00    3.00
   0   9  -7   21.00    2.70
   0  -9   7   24.30    2.20
   0  -9   7   27.90    2.10
  -1   9  -7   -1.00    1.60
   1  -9   7    0.50    1.00
   1  -9   7   -0.60    1.00
  -2   9  -7    1.90    1.90
   2  -9   7    4.00    1.40
   2  -9   7    4.40    1.10
   2  -9   7    3.50    0.90
  -3   9  -7   19.00    2.90
  -3   9  -7   15.90    2.30
   3  -9   7   15.50    2.00
   4   8  -7   82.49    4.20
   4   8  -7   81.19    4.70
   4   8  -7   77.09    4.30
  -4  -8   7   78.09    3.40
  -4  -8   7   86.19    4.20
   3   8  -7   22.80    2.70
   3   8  -7   19.10    2.40
   3   8  -7   26.50    2.80
  -3  -8   7   25.40    1.90
   2   8  -7   48.60    3.70
   2   8  -7   47.30    2.50
   2   8  -7   45.10    3.20
  -2  -8   7   48.20    2.10
  -2  -8   7   44.70    2.00
  -2  -8   7   51.49    5.80
  -2  -8   7   48.80    3.20
  -2  -8   7   46.10    2.00
   1   8  -7    8.20    1.50
   1   8  -7    8.10    1.80
   1   8  -7    6.30    1.00
   1   8  -7    6.50    1.10
  -1  -8   7    4.20    2.00
  -1  -8   7    4.90    0.70
  -1  -8   7    5.10    0.90
  -1  -8   7    6.10    2.00
  -1  -8   7    4.90    1.70
   0   8  -7   33.60    3.20
   0   8  -7   37.10    1.60
   0   8  -7   34.80    1.60
   0  -8   7   36.20    3.80
   0  -8   7   37.70    3.20
   0  -8   7   37.20    3.20
   0  -8   7   35.10    2.10
  -1   8  -7  215.98    7.30
   1  -8   7  188.78    6.80
   1  -8   7  206.18    7.10
   1  -8   7  194.28    7.30
   1  -8   7  221.18    6.20
   1  -8   7  219.08    5.80
  -2   8  -7   94.89    4.60
  -2   8  -7   97.39    4.30
  -2   8  -7   97.49    2.80
  -2   8  -7   97.79    2.80
   2  -8   7  102.09    3.90
   2  -8   7  100.49    5.40
   2  -8   7   95.29    3.00
   2  -8   7   98.19    4.10
   2  -8   7   98.79    2.90
   2  -8   7   84.69    4.80
  -3   8  -7    3.30    1.50
  -3   8  -7    3.70    1.80
  -3   8  -7    2.80    0.90
  -3   8  -7    3.50    1.10
   3  -8   7    3.00    0.60
   3  -8   7    3.60    1.30
   3  -8   7    4.20    0.70
   3  -8   7    2.40    1.40
  -4   8  -7   19.70    2.50
  -4   8  -7   13.10    1.30
  -4   8  -7   16.10    2.50
  -4   8  -7   13.90    1.70
   4  -8   7   13.80    2.00
   4  -8   7   13.20    1.30
   4  -8   7   12.70    1.30
   4  -8   7   13.50    2.10
  -5   8  -7    1.20    1.90
  -5   8  -7    1.50    2.10
  -5   8  -7    0.60    1.80
   5  -8   7    2.80    2.10
   5  -8   7    2.10    1.00
   5  -8   7    1.30    1.70
   5   7  -7   12.00    2.10
   5   7  -7   14.30    2.20
   5   7  -7   13.50    2.50
  -5  -7   7   13.80    1.80
  -5  -7   7   14.40    2.00
   4   7  -7   -1.50    1.70
   4   7  -7    1.60    1.60
   4   7  -7    0.10    1.30
   4   7  -7   -0.20    1.50
  -4  -7   7    0.50    1.10
  -4  -7   7    0.10    1.10
  -4  -7   7    1.00    2.20
   3   7  -7  113.29    4.50
   3   7  -7  111.79    3.40
   3   7  -7  113.19    4.10
   3   7  -7  108.89    4.10
   3   7  -7  103.09    4.70
  -3  -7   7  115.09    4.00
  -3  -7   7  104.69    3.80
  -3  -7   7  108.09    3.70
  -3  -7   7  115.99    5.10
   2   7  -7   60.89    3.50
   2   7  -7   63.29    2.70
   2   7  -7   57.89    2.60
   2   7  -7   58.89    2.90
   2   7  -7   64.49    3.20
  -2  -7   7   68.99    3.70
  -2  -7   7   60.49    2.20
  -2  -7   7   60.29    3.10
  -2  -7   7   57.49    2.40
  -2  -7   7   59.29    2.30
   1   7  -7   45.20    2.10
   1   7  -7   46.80    2.00
   1   7  -7   44.00    2.60
   1   7  -7   47.20    2.50
  -1  -7   7   48.00    3.20
  -1  -7   7   45.50    2.00
  -1  -7   7   42.50    1.90
  -1  -7   7   44.70    1.90
  -1  -7   7   40.50    2.70
  -1  -7   7   45.70    2.80
   0   7  -7  134.29    4.50
   0   7  -7  127.59    3.90
   0   7  -7  133.79    3.80
   0   7  -7  132.69    5.30
   0   7  -7  133.99    4.60
   0  -7   7  138.79    4.90
   0  -7   7  130.89    4.80
   0  -7   7  132.39    5.20
   0  -7   7  133.39    4.10
   0  -7   7  126.79    3.60
   0  -7   7  137.69    3.70
  -1   7  -7   13.20    1.20
  -1   7  -7   11.40    1.70
  -1   7  -7   15.20    1.90
  -1   7  -7   12.70    1.70
  -1   7  -7   12.80    1.30
   1  -7   7   10.90    1.40
   1  -7   7   15.10    2.10
   1  -7   7   12.00    1.50
   1  -7   7   13.50    1.90
   1  -7   7   15.60    2.00
   1  -7   7   11.30    1.10
   1  -7   7   13.50    1.40
  -2   7  -7   28.00    2.70
  -2   7  -7   26.30    2.80
  -2   7  -7   24.80    3.80
  -2   7  -7   30.90    1.80
   2  -7   7   26.60    1.40
   2  -7   7   26.30    1.20
   2  -7   7   26.60    1.10
   2  -7   7   25.70    2.80
   2  -7   7   28.20    2.70
   2  -7   7   28.20    2.10
   2  -7   7   26.00    2.10
   2  -7   7   27.90    1.40
  -3   7  -7  148.59    4.40
  -3   7  -7  160.18    4.70
  -3   7  -7  158.58    5.60
  -3   7  -7  160.38    5.80
   3  -7   7  151.68    6.00
   3  -7   7  160.28    5.60
   3  -7   7  156.18    4.40
   3  -7   7  151.58    4.40
   3  -7   7  153.78    5.10
  -4   7  -7    3.90    1.70
  -4   7  -7    0.90    1.30
  -4   7  -7    5.30    1.40
  -4   7  -7    3.00    1.20
   4  -7   7    3.40    1.10
   4  -7   7    2.40    0.80
   4  -7   7    3.90    1.20
   4  -7   7    2.20    1.40
   4  -7   7    1.20    1.90
  -5   7  -7    5.40    1.50
  -5   7  -7    7.50    2.00
  -5   7  -7    8.00    1.90
  -5   7  -7    5.50    1.60
   5  -7   7    8.60    1.80
   5  -7   7    6.30    1.40
   5  -7   7    7.10    1.70
   5  -7   7    6.90    2.20
   5  -7   7    6.50    1.20
   6   6  -7   12.90    2.40
   6   6  -7   15.80    2.50
  -6  -6   7   19.40    2.40
  -6  -6   7   19.20    2.40
   5   6  -7   12.70    2.20
   5   6  -7   11.20    2.30
   5   6  -7   13.20    1.30
   5   6  -7   14.70    1.90
   5   6  -7   12.40    1.80
  -5  -6   7   12.90    1.80
  -5  -6   7   16.80    2.10
  -5  -6   7   12.80    2.20
   4   6  -7  103.19    4.30
   4   6  -7  101.19    4.40
   4   6  -7   91.99    3.00
   4   6  -7   89.79    4.60
   4   6  -7  100.89    4.10
  -4  -6   7  104.19    3.80
  -4  -6   7   94.29    4.40
   3   6  -7   59.29    2.30
   3   6  -7   64.19    3.00
   3   6  -7   64.59    3.40
   3   6  -7   63.69    3.00
   3   6  -7   62.09    2.90
  -3  -6   7   64.29    2.70
  -3  -6   7   59.29    3.40
  -3  -6   7   63.09    2.60
  -3  -6   7   65.89    2.80
   2   6  -7   81.59    3.20
   2   6  -7   87.29    3.10
   2   6  -7   82.09    2.90
   2   6  -7   84.29    3.80
   2   6  -7   84.99    3.40
  -2  -6   7   86.59    3.00
  -2  -6   7   86.89    3.30
  -2  -6   7   83.69    2.80
  -2  -6   7   83.09    3.70
  -2  -6   7   81.69    2.70
   1   6  -7   49.99    2.30
   1   6  -7   46.50    2.80
   1   6  -7   49.90    2.30
   1   6  -7   49.40    2.10
   1   6  -7   49.40    2.40
  -1  -6   7   49.30    2.80
  -1  -6   7   46.90    2.00
  -1  -6   7   49.99    2.40
  -1  -6   7   49.99    2.00
  -1  -6   7   46.00    1.90
  -1  -6   7   47.20    2.60
   0   6  -7  228.88    6.90
   0   6  -7  223.38    5.80
   0   6  -7  215.68    6.20
   0   6  -7  219.78    6.60
   0   6  -7  218.68    6.20
   0   6  -7  215.58    5.80
   0  -6   7  218.88    5.80
   0  -6   7  227.48    6.60
   0  -6   7  215.48    5.60
   0  -6   7  212.98    6.40
   0  -6   7  213.58    6.00
   0  -6   7  221.38    5.90
   0  -6   7  217.78    6.70
  -1   6  -7  223.48    5.80
  -1   6  -7  227.68    6.70
  -1   6  -7  219.48    6.90
  -1   6  -7  216.48    5.80
  -1   6  -7  230.98    6.50
   1  -6   7  224.78    6.80
   1  -6   7  213.88    5.70
   1  -6   7  208.78    5.80
   1  -6   7  219.18    6.20
   1  -6   7  211.18    6.40
   1  -6   7  225.78    6.20
   1  -6   7  214.68    5.70
  -2   6  -7  291.27    8.40
  -2   6  -7  297.97    7.50
  -2   6  -7  294.97    8.30
  -2   6  -7  278.17    7.30
  -2   6  -7  295.67    8.50
   2  -6   7  290.07    8.10
   2  -6   7  287.67    7.90
   2  -6   7  277.97    6.80
   2  -6   7  274.87    7.30
   2  -6   7  288.37    7.40
   2  -6   7  284.87    7.70
  -3   6  -7   18.90    2.30
  -3   6  -7   16.20    1.70
  -3   6  -7   21.30    2.40
  -3   6  -7   17.50    1.80
  -3   6  -7   17.10    2.10
   3  -6   7   17.40    1.80
   3  -6   7   17.20    1.50
   3  -6   7   14.90    1.90
   3  -6   7   13.50    1.30
   3  -6   7   17.80    2.20
  -4   6  -7    5.60    1.30
  -4   6  -7    5.80    1.10
  -4   6  -7    4.90    1.50
  -4   6  -7    4.10    1.30
   4  -6   7    3.60    0.90
   4  -6   7    5.10    1.20
   4  -6   7    4.00    1.10
   4  -6   7    3.70    1.30
   4  -6   7    3.70    1.60
  -5   6  -7   56.39    3.40
  -5   6  -7   56.59    2.80
  -5   6  -7   50.09    3.40
  -5   6  -7   50.89    3.40
   5  -6   7   51.09    3.50
   5  -6   7   50.29    2.60
   5  -6   7   50.59    3.10
   5  -6   7   48.20    3.10
   5  -6   7   55.19    3.00
  -6   6  -7   41.20    3.30
  -6   6  -7   35.20    3.10
  -6   6  -7   47.90    3.60
   6  -6   7   43.30    3.30
   6  -6   7   42.30    3.40
   6  -6   7   37.80    2.60
   6  -6   7   43.50    3.30
   7   5  -7    3.80    1.50
   7   5  -7    2.50    2.50
   7   5  -7    4.40    1.60
   7   5  -7    1.90    1.40
  -7  -5   7   -3.40    1.50
  -7  -5   7    1.30    2.10
   6   5  -7   11.50    1.70
   6   5  -7    7.30    2.10
   6   5  -7    7.20    1.10
  -6  -5   7    9.70    1.80
  -6  -5   7    9.20    1.90
   5   5  -7  272.97    8.10
   5   5  -7  273.77    7.00
   5   5  -7  268.57    8.10
   5   5  -7  290.47    8.40
  -5  -5   7  277.37    8.00
  -5  -5   7  259.57    8.20
  -5  -5   7  279.77    8.10
   4   5  -7   30.40    2.40
   4   5  -7   30.00    1.60
   4   5  -7   29.70    2.30
   4   5  -7   29.90    2.50
  -4  -5   7   24.40    2.10
  -4  -5   7   28.90    2.40
  -4  -5   7   28.30    2.20
  -4  -5   7   29.20    2.50
   3   5  -7    7.00    1.20
   3   5  -7    6.60    1.20
   3   5  -7    7.70    1.20
   3   5  -7    6.10    1.30
   3   5  -7    7.40    0.90
  -3  -5   7    7.20    0.90
  -3  -5   7    7.70    1.30
  -3  -5   7    6.30    1.00
  -3  -5   7    7.60    1.10
  -3  -5   7    6.30    1.20
   2   5  -7   43.60    2.10
   2   5  -7   47.40    2.60
   2   5  -7   44.20    2.00
   2   5  -7   43.90    2.20
   2   5  -7   46.10    2.10
  -2  -5   7   42.80    2.00
  -2  -5   7   44.60    2.10
  -2  -5   7   43.90    1.80
  -2  -5   7   44.00    2.00
  -2  -5   7   45.10    2.40
  -2  -5   7   47.90    2.30
   1   5  -7   50.49    2.20
   1   5  -7   52.69    2.70
   1   5  -7   52.29    2.10
   1   5  -7   51.99    2.20
   1   5  -7   50.99    2.20
  -1  -5   7   50.69    2.10
  -1  -5   7   49.90    2.40
  -1  -5   7   47.50    1.90
  -1  -5   7   53.89    2.20
  -1  -5   7   51.79    2.60
  -1  -5   7   52.09    2.10
   0   5  -7   41.20    1.90
   0   5  -7   43.10    2.40
   0   5  -7   45.30    1.90
   0   5  -7   43.90    2.20
   0   5  -7   41.00    2.50
   0  -5   7   44.00    1.90
   0  -5   7   44.60    2.40
   0  -5   7   43.70    1.80
   0  -5   7   43.20    1.70
   0  -5   7   42.90    1.80
  -1   5  -7    7.90    1.20
  -1   5  -7    8.30    1.00
  -1   5  -7   10.00    1.20
  -1   5  -7    9.40    1.00
  -1   5  -7    9.20    1.20
   1  -5   7    8.50    0.80
   1  -5   7    9.20    1.00
   1  -5   7    9.30    1.10
   1  -5   7    9.00    1.20
   1  -5   7    9.10    1.00
   1  -5   7    8.10    1.10
  -2   5  -7    1.30    0.90
  -2   5  -7    0.80    1.00
  -2   5  -7    3.40    0.80
  -2   5  -7    2.40    0.80
  -2   5  -7    2.80    1.10
   2  -5   7    3.80    0.90
   2  -5   7    3.50    0.70
   2  -5   7    2.20    0.90
   2  -5   7    3.90    0.80
  -3   5  -7  240.58    6.50
  -3   5  -7  241.78    7.30
  -3   5  -7  239.98    7.30
  -3   5  -7  248.68    7.20
  -3   5  -7  240.48    6.70
   3  -5   7  247.68    7.00
   3  -5   7  237.48    6.60
   3  -5   7  247.68    6.60
   3  -5   7  239.48    6.60
   3  -5   7  240.38    6.90
  -4   5  -7   35.20    2.50
  -4   5  -7   31.30    2.10
  -4   5  -7   34.90    2.90
  -4   5  -7   36.80    2.40
  -4   5  -7   32.00    2.40
   4  -5   7   35.20    2.10
   4  -5   7   31.40    2.40
   4  -5   7   32.40    2.20
   4  -5   7   33.50    1.90
   4  -5   7   32.70    2.30
  -5   5  -7   36.50    2.90
  -5   5  -7   33.80    2.50
  -5   5  -7   31.30    3.00
  -5   5  -7   30.30    2.60
   5  -5   7   33.50    2.20
   5  -5   7   29.40    2.60
   5  -5   7   42.70    2.80
  -6   5  -7    2.40    1.50
  -6   5  -7    6.10    1.70
  -6   5  -7    2.40    1.50
   6  -5   7    4.80    1.30
   6  -5   7    1.60    1.80
   6  -5   7    0.70    1.40
   7   4  -7    0.80    1.20
   7   4  -7    3.40    2.20
  -7  -4   7    3.80    2.00
  -7  -4   7    4.60    1.50
   6   4  -7   44.60    2.30
   6   4  -7   48.70    3.40
   6   4  -7   44.80    2.70
   6   4  -7   41.20    3.50
  -6  -4   7   43.40    2.90
  -6  -4   7   43.10    3.10
  -6  -4   7   43.40    3.40
   5   4  -7    8.00    1.60
   5   4  -7    9.20    1.60
   5   4  -7    8.70    1.10
   5   4  -7    6.50    1.20
  -5  -4   7    6.10    1.40
  -5  -4   7    5.60    1.40
  -5  -4   7    6.50    1.30
   4   4  -7    0.40    0.80
   4   4  -7    1.00    1.00
   4   4  -7    1.20    0.70
   4   4  -7   -0.40    1.00
  -4  -4   7    0.90    1.00
  -4  -4   7    1.40    0.90
  -4  -4   7    2.20    1.00
  -4  -4   7    1.80    1.10
   3   4  -7    2.50    1.00
   3   4  -7    1.80    0.90
   3   4  -7    1.70    0.90
   3   4  -7    0.60    0.60
  -3  -4   7    0.80    0.80
  -3  -4   7    1.70    0.80
  -3  -4   7    0.60    0.70
  -3  -4   7    2.10    0.60
  -3  -4   7    1.70    0.80
   2   4  -7    9.40    1.10
   2   4  -7   10.80    1.20
   2   4  -7    8.10    0.90
   2   4  -7   10.10    1.30
   2   4  -7   11.10    1.40
  -2  -4   7    9.10    1.00
  -2  -4   7   11.80    1.30
  -2  -4   7   11.30    1.10
  -2  -4   7    9.80    1.10
  -2  -4   7   10.70    1.00
   1   4  -7  116.69    3.40
   1   4  -7  114.99    3.60
   1   4  -7  118.39    3.60
   1   4  -7  115.09    3.60
  -1  -4   7  113.09    3.60
  -1  -4   7  118.19    3.50
  -1  -4   7  118.39    3.50
  -1  -4   7  115.09    3.40
  -1  -4   7  112.19    3.70
   0   4  -7  483.35   11.90
   0   4  -7  499.15   12.20
   0   4  -7  470.45   12.40
   0   4  -7  484.35   12.00
   0   4  -7  501.65   12.30
   0  -4   7  494.95   12.10
   0  -4   7  495.95   12.10
   0  -4   7  491.85   11.80
   0  -4   7  498.55   11.90
  -1   4  -7   68.19    2.50
  -1   4  -7   72.69    2.80
  -1   4  -7   72.79    2.90
  -1   4  -7   74.19    2.50
   1  -4   7   72.79    2.50
   1  -4   7   72.39    2.10
   1  -4   7   73.29    2.60
   1  -4   7   69.69    2.30
   1  -4   7   71.99    2.50
  -2   4  -7  235.88    6.30
  -2   4  -7  235.88    6.60
  -2   4  -7  224.28    6.60
  -2   4  -7  224.78    6.50
  -2   4  -7  217.98    6.10
   2  -4   7  224.68    6.10
   2  -4   7  225.88    5.90
   2  -4   7  223.28    6.30
   2  -4   7  224.78    6.10
  -3   4  -7    1.10    0.90
  -3   4  -7    2.70    1.00
  -3   4  -7    2.30    0.90
  -3   4  -7    1.50    0.90
  -3   4  -7    1.10    0.80
   3  -4   7    1.90    1.00
   3  -4   7    2.40    0.80
   3  -4   7    2.80    0.70
   3  -4   7    1.10    0.80
   3  -4   7    0.20    0.80
  -4   4  -7  416.56   11.00
  -4   4  -7  407.46   11.40
  -4   4  -7  414.36   10.80
  -4   4  -7  422.66   10.90
   4  -4   7  404.26   11.00
   4  -4   7  420.46   10.60
   4  -4   7  426.66   11.00
   4  -4   7  420.76   10.90
  -5   4  -7   46.80    3.40
  -5   4  -7   56.69    2.90
  -5   4  -7   51.59    3.30
  -5   4  -7   54.69    2.70
   5  -4   7   50.79    2.60
   5  -4   7   55.49    3.20
   5  -4   7   52.19    2.90
  -6   4  -7    7.10    1.70
  -6   4  -7    4.20    1.30
   6  -4   7    5.50    1.40
   6  -4   7    6.50    1.50
   6  -4   7    3.70    1.90
  -7   4  -7   34.70    3.70
   7  -4   7   34.10    4.10
   7  -4   7   36.00    2.90
   7  -4   7   33.80    3.30
   8   3  -7    2.30    2.10
   8   3  -7   -1.00    1.20
   8   3  -7   -0.50    1.70
  -8  -3   7   -1.40    1.70
   7   3  -7    5.50    2.10
   7   3  -7    5.70    1.20
   7   3  -7    5.00    1.40
  -7  -3   7    5.60    1.40
  -7  -3   7    8.10    2.10
   6   3  -7   -1.00    1.40
   6   3  -7   -0.60    0.90
   6   3  -7    1.30    1.40
   6   3  -7   -0.40    1.00
  -6  -3   7    3.00    1.30
  -6  -3   7   -0.70    1.30
  -6  -3   7   -1.00    1.10
   5   3  -7  201.38    6.20
   5   3  -7  182.88    6.10
   5   3  -7  191.28    5.80
   5   3  -7  189.68    5.40
  -5  -3   7  184.18    6.00
  -5  -3   7  199.48    6.00
  -5  -3   7  188.58    6.00
   4   3  -7  182.68    5.70
   4   3  -7  194.68    5.30
   4   3  -7  190.28    5.80
  -4  -3   7  195.38    5.80
  -4  -3   7  188.18    5.70
  -4  -3   7  191.48    5.80
   3   3  -7    1.10    0.60
   3   3  -7    0.90    0.90
   3   3  -7    2.20    0.80
  -3  -3   7    0.40    0.70
  -3  -3   7    2.00    0.80
  -3  -3   7    1.50    0.70
  -3  -3   7    2.20    0.50
  -3  -3   7    1.40    0.80
   2   3  -7  281.97    7.70
   2   3  -7  301.27    7.70
   2   3  -7  290.67    7.50
  -2  -3   7  289.17    7.50
  -2  -3   7  293.87    7.50
  -2  -3   7  299.07    7.70
  -2  -3   7  287.77    7.50
  -2  -3   7  289.37    7.60
   1   3  -7   27.50    1.50
   1   3  -7   29.40    1.20
   1   3  -7   28.50    1.30
   1   3  -7   30.20    1.60
   1   3  -7   29.80    1.50
  -1  -3   7   28.20    1.50
  -1  -3   7   29.50    1.40
  -1  -3   7   30.40    1.50
  -1  -3   7   26.90    1.40
  -1  -3   7   27.40    1.50
   0   3  -7  255.67    6.70
   0   3  -7  259.47    6.70
   0   3  -7  248.58    6.40
   0   3  -7  257.17    6.70
   0   3  -7  249.18    6.20
   0   3  -7  242.78    6.60
   0  -3   7  251.47    6.40
   0  -3   7  257.97    6.70
   0  -3   7  252.87    6.50
   0  -3   7  251.87    6.70
  -1   3  -7   60.49    2.30
  -1   3  -7   55.79    1.80
  -1   3  -7   61.49    2.40
  -1   3  -7   60.39    2.40
  -1   3  -7   59.49    2.20
   1  -3   7   58.19    2.20
   1  -3   7   56.39    1.70
   1  -3   7   57.59    1.80
   1  -3   7   56.99    2.20
   1  -3   7   59.19    2.30
  -2   3  -7   10.40    0.70
  -2   3  -7   11.10    1.30
  -2   3  -7    8.90    1.10
  -2   3  -7   11.00    1.10
   2  -3   7    9.30    1.20
   2  -3   7   11.40    0.80
   2  -3   7   10.60    1.10
   2  -3   7   11.40    0.70
   2  -3   7    8.70    1.00
   2  -3   7   10.70    1.10
  -3   3  -7   70.99    2.70
  -3   3  -7   68.19    2.90
  -3   3  -7   66.69    1.90
  -3   3  -7   71.09    3.10
   3  -3   7   70.79    2.80
   3  -3   7   72.29    2.90
   3  -3   7   69.69    2.50
   3  -3   7   65.19    2.70
  -4   3  -7   52.59    1.60
  -4   3  -7   60.99    2.70
  -4   3  -7   54.49    3.00
  -4   3  -7   54.29    2.90
   4  -3   7   56.59    2.20
   4  -3   7   55.39    2.60
   4  -3   7   54.69    2.70
  -5   3  -7   23.20    2.60
  -5   3  -7   20.30    1.90
  -5   3  -7   21.70    2.60
  -5   3  -7   19.80    2.10
  -5   3  -7   19.90    1.40
   5  -3   7   20.60    2.30
   5  -3   7   23.30    1.90
  -6   3  -7    2.10    1.50
  -6   3  -7    2.10    1.00
  -6   3  -7    2.10    0.70
  -6   3  -7    1.80    0.60
   6  -3   7    2.40    1.30
   6  -3   7   -0.20    1.90
   6  -3   7    1.00    1.10
  -7   3  -7   46.20    2.60
  -7   3  -7   47.10    3.70
  -7   3  -7   46.10    1.90
   7  -3   7   45.50    3.10
   7  -3   7   46.70    4.50
   7  -3   7   43.00    3.50
   8   2  -7   10.40    1.90
   8   2  -7   11.80    1.40
   8   2  -7   11.30    2.40
  -8  -2   7   12.40    2.20
   7   2  -7   13.70    2.40
   7   2  -7   14.80    1.70
   7   2  -7   21.10    1.90
  -7  -2   7   16.90    2.30
  -7  -2   7   12.30    1.90
  -7  -2   7   17.80    2.30
   6   2  -7   34.80    2.80
   6   2  -7   42.00    2.90
   6   2  -7   34.00    2.30
  -6  -2   7   38.40    2.70
  -6  -2   7   38.80    2.80
  -6  -2   7   41.10    2.80
   5   2  -7    6.40    1.30
   5   2  -7   10.20    1.50
   5   2  -7    8.20    1.20
  -5  -2   7    9.40    1.50
  -5  -2   7   10.10    1.40
  -5  -2   7    9.10    1.40
   4   2  -7    1.30    0.80
   4   2  -7    2.70    0.80
   4   2  -7    1.60    1.00
  -4  -2   7    1.40    1.10
  -4  -2   7    1.50    0.70
  -4  -2   7    2.60    0.90
   3   2  -7  142.39    4.20
   3   2  -7  143.59    4.40
   3   2  -7  140.89    4.40
  -3  -2   7  140.59    3.80
  -3  -2   7  137.29    4.30
  -3  -2   7  149.19    4.40
  -3  -2   7  141.49    4.40
   2   2  -7    9.70    1.00
   2   2  -7   10.30    1.00
   2   2  -7    9.50    1.20
   2   2  -7   10.40    1.10
  -2  -2   7    9.80    0.80
  -2  -2   7   11.40    1.10
  -2  -2   7   11.70    1.50
  -2  -2   7    9.80    1.10
  -2  -2   7   10.60    1.00
   1   2  -7  310.57    7.90
   1   2  -7  293.87    7.80
   1   2  -7  306.77    7.60
   1   2  -7  319.07    7.90
   1   2  -7  298.87    7.70
  -1  -2   7  302.87    7.90
  -1  -2   7  309.17    8.00
  -1  -2   7  304.87    7.70
  -1  -2   7  313.47    7.80
   0   2  -7  328.27    8.30
   0   2  -7  335.77    8.50
   0   2  -7  337.57    8.50
   0   2  -7  323.07    8.40
   0   2  -7  322.67    8.20
   0  -2   7  330.07    8.20
   0  -2   7  332.07    8.50
   0  -2   7  337.47    8.40
   0  -2   7  332.87    8.40
  -1   2  -7   62.69    2.00
  -1   2  -7   62.99    2.30
   1  -2   7   64.09    2.40
   1  -2   7   61.99    2.30
   1  -2   7   62.69    2.30
   1  -2   7   58.89    1.90
  -2   2  -7   30.80    1.90
  -2   2  -7   34.00    1.90
  -2   2  -7   30.70    1.60
  -2   2  -7   30.40    1.30
   2  -2   7   34.90    1.70
   2  -2   7   29.90    1.40
   2  -2   7   32.10    1.30
   2  -2   7   33.60    1.70
   2  -2   7   33.10    1.80
  -3   2  -7   19.40    1.80
  -3   2  -7   23.80    1.90
  -3   2  -7   21.80    1.70
  -3   2  -7   20.70    1.10
   3  -2   7   21.10    1.20
   3  -2   7   22.30    1.80
   3  -2   7   20.20    1.60
   3  -2   7   21.10    1.60
  -4   2  -7    6.30    1.30
  -4   2  -7    6.50    0.80
  -4   2  -7    5.20    1.20
  -4   2  -7    8.00    1.30
   4  -2   7    6.90    1.10
   4  -2   7    9.60    1.50
   4  -2   7    6.70    1.20
  -5   2  -7    1.20    0.70
  -5   2  -7    0.20    1.20
  -5   2  -7    2.00    1.40
  -5   2  -7   -0.10    1.40
   5  -2   7    0.70    1.10
   5  -2   7   -0.30    1.00
   5  -2   7    0.50    1.20
  -6   2  -7    0.60    1.70
  -6   2  -7   -0.90    1.60
  -6   2  -7    2.30    0.90
  -6   2  -7    0.50    1.00
   6  -2   7    0.10    1.80
   6  -2   7    1.80    1.30
   6  -2   7    0.00    1.30
  -7   2  -7    3.50    1.80
  -7   2  -7    3.90    1.30
   7  -2   7    4.80    1.70
   7  -2   7    1.40    1.60
   7  -2   7    5.00    2.90
   8   1  -7    3.70    1.90
   8   1  -7    6.50    1.20
  -8  -1   7    1.20    1.90
   7   1  -7    7.70    1.90
   7   1  -7    8.90    2.00
  -7  -1   7    8.40    1.90
  -7  -1   7    8.80    1.80
  -7  -1   7    6.70    1.80
   6   1  -7  368.26   10.40
   6   1  -7  373.76   10.40
   6   1  -7  368.06    9.90
  -6  -1   7  383.76   10.40
  -6  -1   7  377.06   10.50
  -6  -1   7  359.66   10.10
   5   1  -7  644.64   15.90
   5   1  -7  642.54   16.30
   5   1  -7  666.03   16.30
  -5  -1   7  632.54   16.00
  -5  -1   7  649.54   16.20
  -5  -1   7  625.64   16.30
   4   1  -7  206.98    6.00
   4   1  -7  209.38    6.10
   4   1  -7  206.88    5.80
   4   1  -7  201.78    6.00
  -4  -1   7  210.38    6.00
  -4  -1   7  213.58    6.10
  -4  -1   7  198.48    5.00
  -4  -1   7  203.68    6.00
   3   1  -7   75.09    2.90
   3   1  -7   81.59    2.90
   3   1  -7   82.39    3.00
   3   1  -7   81.99    2.80
  -3  -1   7   79.79    3.00
  -3  -1   7   78.99    3.80
  -3  -1   7   80.99    2.10
  -3  -1   7   82.19    2.90
   2   1  -7   23.50    1.50
   2   1  -7   22.40    1.40
   2   1  -7   23.80    1.60
   2   1  -7   22.40    1.30
  -2  -1   7   21.30    1.40
  -2  -1   7   21.30    1.40
  -2  -1   7   23.30    1.40
  -2  -1   7   20.40    1.40
   1   1  -7   41.70    1.90
   1   1  -7   39.40    1.30
   1   1  -7   37.50    1.70
   1   1  -7   40.40    1.70
   1   1  -7   39.50    1.70
  -1  -1   7   40.10    1.70
  -1  -1   7   36.60    1.70
  -1  -1   7   39.40    1.70
   0   1  -7  588.34   13.80
   0   1  -7  550.24   13.70
   0   1  -7  560.44   13.50
   0  -1   7  578.24   13.70
   0  -1   7  547.95   13.70
   0  -1   7  547.05   13.70
   0  -1   7  552.34   13.50
  -1   1  -7  243.38    6.30
  -1   1  -7  244.38    6.70
  -1   1  -7  242.78    6.70
  -1   1  -7  249.68    6.60
   1  -1   7  248.68    6.60
   1  -1   7  243.28    6.30
   1  -1   7  253.47    6.70
   1  -1   7  259.67    6.70
  -2   1  -7   13.10    1.40
  -2   1  -7   12.40    1.30
  -2   1  -7   15.90    1.60
  -2   1  -7   16.80    1.10
   2  -1   7   12.50    1.20
   2  -1   7   14.50    1.30
   2  -1   7   14.30    0.80
   2  -1   7   14.80    1.30
  -3   1  -7  106.49    3.80
  -3   1  -7  108.19    3.70
  -3   1  -7  109.69    3.30
  -3   1  -7  100.09    3.80
   3  -1   7  108.19    2.80
   3  -1   7  112.79    3.90
   3  -1   7  111.49    3.60
   3  -1   7  103.29    3.70
  -4   1  -7   40.60    2.70
  -4   1  -7   39.10    2.50
  -4   1  -7   41.30    2.40
  -4   1  -7   37.30    1.90
   4  -1   7   43.20    2.50
   4  -1   7   41.60    2.30
   4  -1   7   38.30    2.30
  -5   1  -7    1.00    0.90
  -5   1  -7    2.00    1.20
  -5   1  -7    1.00    1.30
  -5   1  -7    1.20    1.50
   5  -1   7    0.10    1.20
   5  -1   7    2.60    1.20
   5  -1   7    0.10    1.00
  -6   1  -7    0.50    1.10
  -6   1  -7    2.50    1.80
  -6   1  -7    1.90    1.30
   6  -1   7    2.50    1.30
   6  -1   7    0.00    2.00
   6  -1   7    4.70    1.60
  -7   1  -7    1.90    1.80
  -7   1  -7    0.90    1.50
   7  -1   7   -3.80    1.60
   7  -1   7    1.80    1.80
   8   0  -7    4.00    2.00
   8   0  -7    2.80    1.80
  -8   0   7    1.20    1.80
   7   0  -7  198.88    6.70
   7   0  -7  196.78    6.80
  -7   0   7  201.18    6.50
  -7   0   7  202.58    6.80
  -7   0   7  195.58    6.70
   6   0  -7   15.90    1.90
   6   0  -7   15.60    1.90
  -6   0   7   18.60    1.90
  -6   0   7   12.30    1.70
  -6   0   7   16.60    2.10
   5   0  -7  110.19    3.90
   5   0  -7  115.39    4.20
   5   0  -7  107.39    4.00
  -5   0   7  117.99    4.20
  -5   0   7  106.49    3.90
  -5   0   7  111.39    4.00
   4   0  -7  109.59    4.00
   4   0  -7  112.49    3.70
   4   0  -7  112.09    3.80
   4   0  -7  108.79    3.70
  -4   0   7  106.69    3.70
  -4   0   7  116.29    3.80
  -4   0   7  110.39    3.10
  -4   0   7  112.29    3.90
   3   0  -7   38.40    1.80
   3   0  -7   33.90    2.20
   3   0  -7   41.60    1.90
   3   0  -7   40.80    2.00
  -3   0   7   39.60    1.90
  -3   0   7   39.00    2.00
   2   0  -7   33.30    1.70
   2   0  -7   31.40    1.60
   2   0  -7   31.20    1.70
   2   0  -7   30.20    1.60
  -2   0   7   31.80    1.60
  -2   0   7   33.20    1.70
  -2   0   7   30.40    1.70
   1   0  -7   12.90    1.20
   1   0  -7   11.00    1.20
   1   0  -7   14.80    1.10
   1   0  -7   14.70    1.10
  -1   0   7   12.20    1.10
  -1   0   7   14.50    1.20
  -1   0   7   12.40    1.20
  -1   0   7   14.40    1.20
   0   0  -7   84.09    2.80
   0   0  -7   76.89    2.60
   0   0  -7   80.89    2.70
   0   0  -7   79.59    2.80
   0   0   7   79.19    2.70
   0   0   7   78.09    2.70
   0   0   7   78.89    2.80
   0   0   7   80.29    2.60
  -1   0  -7  408.56   10.10
  -1   0  -7  397.86   10.20
  -1   0  -7  384.16    9.80
  -1   0  -7  396.56   10.10
   1   0   7  404.86    9.90
   1   0   7  387.46   10.00
   1   0   7  393.06   10.10
  -2   0  -7   20.60    1.40
  -2   0  -7   17.90    1.50
  -2   0  -7   17.50    1.20
  -2   0  -7   19.30    1.80
   2   0   7   19.10    1.40
   2   0   7   19.10    0.70
   2   0   7   18.70    0.90
   2   0   7   17.60    1.50
   2   0   7   18.90    1.50
  -3   0  -7   27.20    1.70
  -3   0  -7   28.50    2.00
  -3   0  -7   31.00    2.20
  -3   0  -7   27.80    1.90
   3   0   7   26.10    1.80
   3   0   7   27.50    2.10
   3   0   7   29.50    2.00
  -4   0  -7    3.90    1.40
  -4   0  -7    3.30    1.10
  -4   0  -7    4.80    1.10
  -4   0  -7    3.70    0.90
   4   0   7    3.20    1.30
   4   0   7    2.90    1.00
   4   0   7    4.00    1.20
  -5   0  -7    6.70    1.50
  -5   0  -7    6.90    1.90
  -5   0  -7    6.30    1.20
  -5   0  -7    7.30    1.50
   5   0   7    8.60    1.60
   5   0   7    9.30    1.40
   5   0   7    5.40    1.80
  -6   0  -7    9.90    1.90
  -6   0  -7   18.60    2.30
  -6   0  -7   12.70    2.00
   6   0   7   13.10    2.20
   8  -1  -7    1.60    1.60
   8  -1  -7    2.70    2.20
  -8   1   7   -1.90    2.10
  -8   1   7    2.10    1.90
   7  -1  -7   26.30    2.50
   7  -1  -7   24.10    2.90
  -7   1   7   20.70    2.60
  -7   1   7   24.40    2.80
  -7   1   7   22.90    2.80
   6  -1  -7  299.87    8.90
   6  -1  -7  318.37    8.80
   6  -1  -7  308.67    8.90
  -6   1   7  316.77    8.70
  -6   1   7  316.77    8.90
  -6   1   7  317.87    9.10
   5  -1  -7  208.48    6.30
   5  -1  -7  214.28    6.40
   5  -1  -7  210.78    6.20
  -5   1   7  210.68    6.20
  -5   1   7  211.18    6.50
  -5   1   7  209.48    5.60
  -5   1   7  215.18    6.30
  -5   1   7  206.58    5.30
   4  -1  -7  441.66   11.20
   4  -1  -7  432.46   11.10
   4  -1  -7  413.46   11.10
   4  -1  -7  419.76   11.10
  -4   1   7  437.16   11.20
  -4   1   7  437.16   11.00
  -4   1   7  430.96   11.00
  -4   1   7  427.16   10.60
   3  -1  -7  172.88    5.50
   3  -1  -7  196.18    5.60
   3  -1  -7  199.38    5.60
   3  -1  -7  194.98    5.60
  -3   1   7  200.38    5.60
  -3   1   7  199.98    5.70
  -3   1   7  195.28    5.50
   2  -1  -7   12.30    1.20
   2  -1  -7   12.00    1.20
   2  -1  -7   13.40    1.20
   2  -1  -7   13.10    1.40
  -2   1   7   10.60    1.10
  -2   1   7   13.70    1.30
  -2   1   7   14.20    1.30
   1  -1  -7   50.99    2.10
   1  -1  -7   45.10    2.00
   1  -1  -7   46.80    1.60
   1  -1  -7   45.00    2.00
   1  -1  -7   47.40    2.10
  -1   1   7   49.99    2.10
  -1   1   7   48.00    2.30
   0  -1  -7   36.30    1.90
   0  -1  -7   40.60    1.80
   0  -1  -7   36.60    1.80
   0  -1  -7   37.10    1.70
   0   1   7   37.30    1.80
   0   1   7   39.70    1.90
   0   1   7   32.30    1.90
   0   1   7   39.90    1.90
  -1  -1  -7   81.79    2.80
  -1  -1  -7   77.89    2.80
  -1  -1  -7   83.29    3.10
   1   1   7   79.89    2.90
   1   1   7   80.99    3.00
   1   1   7   80.79    2.80
   1   1   7   79.99    2.90
   1   1   7   78.99    2.30
  -2  -1  -7   50.99    2.30
  -2  -1  -7   51.89    2.30
  -2  -1  -7   47.80    2.20
  -2  -1  -7   48.70    2.50
   2   1   7   51.69    2.20
   2   1   7   51.39    2.50
   2   1   7   51.29    1.80
   2   1   7   51.19    2.50
  -3  -1  -7   62.19    3.00
  -3  -1  -7   63.09    2.70
  -3  -1  -7   62.79    2.70
  -3  -1  -7   64.99    2.70
   3   1   7   64.59    3.00
   3   1   7   62.79    2.70
   3   1   7   58.49    3.00
   3   1   7   64.69    2.30
  -4  -1  -7   49.99    3.20
  -4  -1  -7   50.19    2.60
  -4  -1  -7   50.89    2.70
  -4  -1  -7   52.19    3.10
   4   1   7   55.89    3.00
   4   1   7   56.79    2.60
   4   1   7   51.89    3.10
  -5  -1  -7   70.29    3.50
  -5  -1  -7   73.89    3.30
  -5  -1  -7   76.39    3.50
  -5  -1  -7   62.79    4.30
   5   1   7   75.79    3.30
   5   1   7   73.79    3.80
  -6  -1  -7   19.20    2.40
  -6  -1  -7   29.00    2.90
  -6  -1  -7   25.60    2.80
   6   1   7   27.80    3.20
   6   1   7   23.50    2.70
   8  -2  -7    1.80    2.00
   8  -2  -7    4.10    1.70
  -8   2   7    3.40    1.40
  -8   2   7    2.90    2.10
  -8   2   7    5.80    2.30
   7  -2  -7   46.60    3.00
   7  -2  -7   49.10    3.40
   7  -2  -7   57.99    3.60
  -7   2   7   55.69    3.50
  -7   2   7   55.39    2.50
  -7   2   7   58.39    3.40
  -7   2   7   49.60    3.50
   6  -2  -7    3.60    1.20
   6  -2  -7    4.30    1.10
   6  -2  -7    1.60    1.30
  -6   2   7    2.30    1.40
  -6   2   7    2.30    1.40
  -6   2   7    3.80    0.80
  -6   2   7    2.30    1.10
   5  -2  -7   23.50    1.80
   5  -2  -7   20.40    1.90
  -5   2   7   17.60    1.10
  -5   2   7   21.70    1.50
  -5   2   7   19.30    2.20
  -5   2   7   19.20    2.00
  -5   2   7   19.00    1.90
   4  -2  -7   72.49    2.90
   4  -2  -7   71.19    2.90
   4  -2  -7   68.59    2.90
  -4   2   7   71.39    2.80
  -4   2   7   71.19    3.00
  -4   2   7   71.29    3.00
  -4   2   7   69.09    2.60
   3  -2  -7   38.30    2.10
   3  -2  -7   41.50    2.10
   3  -2  -7   40.70    2.00
   3  -2  -7   40.20    2.00
  -3   2   7   39.60    2.20
  -3   2   7   41.80    2.00
  -3   2   7   43.00    2.00
  -3   2   7   39.90    2.20
   2  -2  -7    0.20    0.60
   2  -2  -7   -1.10    0.70
   2  -2  -7    0.40    0.40
   2  -2  -7    1.00    0.70
   2  -2  -7    0.10    0.50
   2  -2  -7    0.10    0.60
  -2   2   7   -0.80    0.60
  -2   2   7   -0.70    0.60
  -2   2   7    0.20    0.60
   1  -2  -7   68.39    2.60
   1  -2  -7   69.49    2.50
   1  -2  -7   66.29    2.30
   1  -2  -7   67.79    2.60
   1  -2  -7   64.49    2.60
  -1   2   7   71.79    2.70
  -1   2   7   71.09    2.70
  -1   2   7   67.29    2.60
   0  -2  -7  160.18    4.80
   0  -2  -7  145.49    5.00
   0  -2  -7  159.18    4.80
   0  -2  -7  166.78    4.70
   0   2   7  160.38    4.70
   0   2   7  160.78    4.80
   0   2   7  160.38    4.80
  -1  -2  -7   48.90    2.60
  -1  -2  -7   57.39    2.40
  -1  -2  -7   56.49    2.60
  -1  -2  -7   54.39    2.30
   1   2   7   55.59    2.50
   1   2   7   57.19    2.60
   1   2   7   52.99    1.70
   1   2   7   55.59    2.40
   1   2   7   53.59    2.00
   1   2   7   57.79    2.50
  -2  -2  -7   94.09    3.40
  -2  -2  -7   87.89    3.30
  -2  -2  -7   89.69    3.20
  -2  -2  -7   95.19    3.80
   2   2   7   93.69    3.30
   2   2   7   93.29    3.60
   2   2   7   94.59    3.00
  -3  -2  -7   53.49    2.60
  -3  -2  -7   57.59    2.70
  -3  -2  -7   59.19    3.20
  -3  -2  -7   60.99    2.80
   3   2   7   56.99    3.10
   3   2   7   57.69    2.60
   3   2   7   59.09    2.40
   3   2   7   65.19    3.10
  -4  -2  -7    0.60    1.20
  -4  -2  -7   -0.10    1.60
  -4  -2  -7    0.50    1.00
  -4  -2  -7    0.00    0.90
   4   2   7   -1.10    1.40
   4   2   7   -0.50    1.00
   4   2   7    0.60    0.80
   4   2   7    1.10    1.40
  -5  -2  -7    6.20    1.50
  -5  -2  -7    4.70    1.50
  -5  -2  -7    4.30    1.40
  -5  -2  -7    6.60    2.30
   5   2   7    4.70    1.40
   5   2   7    4.10    1.90
   5   2   7    3.30    1.20
   8  -3  -7   -1.10    2.10
   8  -3  -7    0.60    1.40
  -8   3   7   -1.70    2.10
  -8   3   7    1.10    1.40
   7  -3  -7   11.20    1.60
   7  -3  -7    5.60    1.30
   7  -3  -7    7.70    1.90
  -7   3   7    9.10    1.90
  -7   3   7    7.10    1.30
  -7   3   7    8.80    2.10
   6  -3  -7   94.69    3.90
   6  -3  -7   95.19    4.10
   6  -3  -7  102.39    4.00
  -6   3   7   98.89    4.10
  -6   3   7  104.29    4.30
  -6   3   7   92.29    3.10
  -6   3   7   94.99    4.00
   5  -3  -7    9.00    1.50
   5  -3  -7    5.50    1.20
   5  -3  -7    6.00    1.10
  -5   3   7    7.90    1.40
  -5   3   7    6.70    1.40
  -5   3   7    4.90    1.30
  -5   3   7    7.50    1.10
   4  -3  -7    4.80    1.00
   4  -3  -7    6.80    1.10
   4  -3  -7    5.20    1.10
  -4   3   7    6.20    1.20
  -4   3   7    5.80    1.10
  -4   3   7    6.10    1.10
  -4   3   7    8.90    1.30
   3  -3  -7   -0.10    0.70
   3  -3  -7    0.90    0.90
   3  -3  -7    0.40    0.50
   3  -3  -7    0.30    0.80
   3  -3  -7    0.70    0.60
   3  -3  -7   -0.30    0.70
  -3   3   7   -0.20    0.80
  -3   3   7    0.50    0.70
  -3   3   7    0.10    0.90
  -3   3   7    1.00    0.80
   2  -3  -7   -0.20    0.70
   2  -3  -7    0.30    0.70
   2  -3  -7    0.20    0.80
   2  -3  -7    0.70    0.50
   2  -3  -7    0.10    0.60
   2  -3  -7    0.60    0.70
  -2   3   7    0.70    0.70
  -2   3   7   -0.30    0.70
  -2   3   7    1.00    0.80
  -2   3   7   -0.10    0.80
   1  -3  -7    2.90    0.80
   1  -3  -7    3.70    0.80
   1  -3  -7    3.30    0.80
   1  -3  -7    2.90    0.90
   1  -3  -7    4.10    0.90
  -1   3   7    4.40    1.00
  -1   3   7    5.10    0.90
  -1   3   7    4.50    0.90
  -1   3   7    3.30    1.00
   0  -3  -7   21.10    1.60
   0  -3  -7   20.60    1.60
   0  -3  -7   21.90    1.70
   0  -3  -7   20.40    1.60
   0   3   7   20.60    1.30
   0   3   7   22.70    1.70
   0   3   7   19.40    1.90
   0   3   7   21.50    1.70
  -1  -3  -7  212.88    5.90
  -1  -3  -7  208.48    6.30
  -1  -3  -7  215.48    6.30
  -1  -3  -7  217.28    6.10
   1   3   7  216.28    6.30
   1   3   7  210.38    6.20
   1   3   7  206.18    5.40
   1   3   7  212.08    5.80
  -2  -3  -7   25.10    2.30
  -2  -3  -7   22.10    1.70
  -2  -3  -7   20.90    1.70
  -2  -3  -7   26.00    2.00
   2   3   7   24.80    1.90
   2   3   7   29.70    2.40
   2   3   7   21.40    1.60
   2   3   7   24.90    2.40
  -3  -3  -7   15.00    1.80
  -3  -3  -7   14.00    1.70
  -3  -3  -7   15.70    2.00
   3   3   7   14.00    1.50
   3   3   7   14.00    1.80
   3   3   7   11.90    1.90
   3   3   7   16.40    1.60
  -4  -3  -7    3.50    1.90
  -4  -3  -7    6.00    1.30
  -4  -3  -7    1.70    1.50
  -4  -3  -7    6.10    1.20
   4   3   7    4.30    1.80
   4   3   7    6.80    1.20
   4   3   7    8.30    1.40
  -5  -3  -7   23.50    2.90
  -5  -3  -7   18.50    3.10
  -5  -3  -7   19.40    2.00
  -5  -3  -7   18.10    2.60
  -5  -3  -7   19.80    2.50
   5   3   7   21.80    2.80
   5   3   7   21.50    2.50
   5   3   7   26.80    3.50
   8  -4  -7    3.70    1.60
   8  -4  -7    4.40    2.30
   8  -4  -7    7.70    1.90
  -8   4   7    2.80    1.70
  -8   4   7    2.10    1.70
  -8   4   7    6.50    2.50
   7  -4  -7   73.29    3.80
   7  -4  -7   84.19    3.90
   7  -4  -7   84.89    4.10
  -7   4   7   83.69    3.30
  -7   4   7   85.79    4.40
  -7   4   7   72.29    4.20
   6  -4  -7    4.40    1.50
   6  -4  -7    4.70    1.70
   6  -4  -7    7.40    1.60
  -6   4   7    8.10    1.70
  -6   4   7    6.60    1.40
  -6   4   7    7.40    1.60
  -6   4   7    7.70    1.20
  -6   4   7    8.50    1.70
   5  -4  -7   58.69    3.00
   5  -4  -7   58.89    2.90
   5  -4  -7   65.49    2.90
  -5   4   7   59.39    2.90
  -5   4   7   55.49    2.90
  -5   4   7   58.19    3.20
  -5   4   7   61.99    3.30
   4  -4  -7   -1.60    1.00
   4  -4  -7    0.50    0.90
   4  -4  -7   -1.00    0.80
   4  -4  -7   -0.20    0.90
  -4   4   7    0.20    1.00
  -4   4   7    1.00    0.90
  -4   4   7    0.00    1.00
  -4   4   7    0.20    0.90
  -4   4   7    0.20    1.10
   3  -4  -7  173.58    5.50
   3  -4  -7  177.48    5.30
   3  -4  -7  176.98    5.60
   3  -4  -7  175.48    5.00
   3  -4  -7  179.28    5.50
   3  -4  -7  173.58    5.60
  -3   4   7  175.18    5.40
  -3   4   7  172.58    5.20
  -3   4   7  181.38    5.50
  -3   4   7  174.38    5.70
  -3   4   7  172.88    5.50
   2  -4  -7    2.00    0.80
   2  -4  -7   -0.20    0.90
   2  -4  -7    1.00    0.90
   2  -4  -7    1.00    1.00
   2  -4  -7    0.60    0.90
   2  -4  -7    1.40    0.80
  -2   4   7    2.30    1.00
  -2   4   7    1.70    1.00
  -2   4   7    0.10    1.00
  -2   4   7    1.70    0.90
  -2   4   7    0.10    0.90
   1  -4  -7    1.50    1.00
   1  -4  -7    1.80    0.80
   1  -4  -7    2.90    0.90
   1  -4  -7    1.30    0.80
   1  -4  -7    1.50    0.90
   1  -4  -7    2.00    0.90
  -1   4   7    2.10    0.90
  -1   4   7    2.10    1.20
  -1   4   7    1.10    1.00
  -1   4   7    1.40    0.80
  -1   4   7    2.30    1.10
   0  -4  -7    1.80    0.90
   0  -4  -7    3.30    0.90
   0  -4  -7    2.70    1.00
   0  -4  -7    2.90    0.90
   0   4   7    3.10    1.00
   0   4   7    3.70    1.10
   0   4   7    2.00    0.80
  -1  -4  -7   23.90    1.80
  -1  -4  -7   21.70    2.80
  -1  -4  -7   25.60    2.40
  -1  -4  -7   24.30    1.80
   1   4   7   23.80    1.50
   1   4   7   22.40    1.70
   1   4   7   25.30    2.10
  -2  -4  -7    4.90    1.50
  -2  -4  -7    4.70    1.10
  -2  -4  -7    4.50    1.20
  -2  -4  -7    3.40    1.00
   2   4   7    5.60    1.70
   2   4   7    5.10    1.50
   2   4   7    4.40    1.00
  -3  -4  -7   -0.30    1.60
  -3  -4  -7    1.00    1.00
  -3  -4  -7    0.20    1.30
  -3  -4  -7   -0.70    1.10
   3   4   7   -0.50    1.00
   3   4   7   -0.10    1.50
  -4  -4  -7    1.80    1.30
  -4  -4  -7   -1.60    1.40
  -4  -4  -7   -0.10    2.10
  -4  -4  -7   -2.50    1.20
  -4  -4  -7   -3.60    2.30
   4   4   7    3.00    2.20
   7  -5  -7   24.60    3.10
   7  -5  -7   25.30    2.80
   7  -5  -7   23.20    2.70
  -7   5   7   26.80    3.00
  -7   5   7   31.40    3.70
   6  -5  -7    4.30    1.50
   6  -5  -7    7.30    1.60
   6  -5  -7    4.80    1.40
  -6   5   7    6.50    1.50
  -6   5   7    3.00    1.70
  -6   5   7    5.80    1.80
  -6   5   7    6.90    2.00
   5  -5  -7   27.30    2.20
   5  -5  -7   29.60    2.40
   5  -5  -7   31.60    2.40
   5  -5  -7   27.60    3.20
  -5   5   7   29.70    2.80
  -5   5   7   29.20    2.90
  -5   5   7   26.50    2.40
  -5   5   7   28.90    2.50
  -5   5   7   34.30    2.60
   4  -5  -7   17.80    1.80
   4  -5  -7   17.00    2.00
   4  -5  -7   14.60    1.90
   4  -5  -7   17.10    1.90
  -4   5   7   17.60    2.00
  -4   5   7   17.10    1.80
  -4   5   7   17.90    2.20
  -4   5   7   20.50    2.30
  -4   5   7   20.00    2.00
   3  -5  -7   21.10    2.20
   3  -5  -7   21.10    1.80
   3  -5  -7   21.20    1.80
   3  -5  -7   23.90    2.60
   3  -5  -7   18.10    2.40
  -3   5   7   17.20    2.00
  -3   5   7   18.80    2.00
  -3   5   7   21.30    2.30
  -3   5   7   19.90    2.10
  -3   5   7   20.50    2.10
   2  -5  -7   75.39    2.90
   2  -5  -7   72.29    3.50
   2  -5  -7   68.79    4.00
   2  -5  -7   71.99    3.30
   2  -5  -7   69.19    2.90
   2  -5  -7   73.59    3.10
  -2   5   7   75.19    3.60
  -2   5   7   72.79    3.20
  -2   5   7   74.19    3.00
  -2   5   7   69.99    3.20
   1  -5  -7   23.90    2.20
   1  -5  -7   27.30    1.80
   1  -5  -7   30.30    2.20
   1  -5  -7   26.30    2.40
   1  -5  -7   26.80    2.10
   1  -5  -7   28.40    2.10
  -1   5   7   24.10    2.40
  -1   5   7   27.50    2.00
  -1   5   7   27.90    2.60
  -1   5   7   23.70    2.10
  -1   5   7   24.20    2.10
   0  -5  -7    4.70    1.30
   0  -5  -7    3.80    1.20
   0  -5  -7    5.30    1.10
   0   5   7    4.80    1.40
   0   5   7    3.00    1.00
   0   5   7    4.90    1.30
   0   5   7    2.50    1.30
  -1  -5  -7    6.50    1.60
  -1  -5  -7    5.30    1.20
  -1  -5  -7    6.10    1.10
  -1  -5  -7    4.00    1.30
   1   5   7    6.40    1.50
   1   5   7    1.20    1.50
   1   5   7    6.20    1.50
   1   5   7    4.40    1.10
  -2  -5  -7   23.00    3.00
  -2  -5  -7   28.50    2.60
  -2  -5  -7   27.70    2.10
  -2  -5  -7   26.10    2.10
   2   5   7   24.70    3.00
   2   5   7   27.30    2.40
  -3  -5  -7    9.40    1.40
  -3  -5  -7    6.40    1.40
  -3  -5  -7    5.70    2.30
  -3  -5  -7    8.50    1.80
  -3  -5  -7    6.50    2.80
   3   5   7    5.70    1.70
   3   5   7   10.10    2.20
   6  -6  -7    3.70    1.50
   6  -6  -7    5.40    1.60
   6  -6  -7    4.30    1.40
  -6   6   7    5.90    1.90
  -6   6   7    4.50    2.10
  -6   6   7    4.60    1.70
   5  -6  -7    1.80    1.20
   5  -6  -7    1.60    1.20
   5  -6  -7    2.40    1.30
  -5   6   7    3.50    1.90
  -5   6   7    0.70    1.50
  -5   6   7    2.20    1.50
  -5   6   7    0.90    1.60
   4  -6  -7    3.00    2.10
   4  -6  -7    4.90    1.20
   4  -6  -7    4.20    1.20
   4  -6  -7    5.00    1.40
  -4   6   7    3.70    1.50
  -4   6   7    6.90    1.70
  -4   6   7    5.80    1.70
  -4   6   7    4.80    2.00
  -4   6   7    4.90    1.40
   3  -6  -7   21.10    2.30
   3  -6  -7   27.40    2.40
   3  -6  -7   19.80    2.60
   3  -6  -7   26.70    3.00
   3  -6  -7   22.90    2.00
   3  -6  -7   25.70    2.80
  -3   6   7   23.30    2.30
  -3   6   7   25.60    2.80
  -3   6   7   21.50    2.20
  -3   6   7   20.40    2.60
  -3   6   7   24.40    2.50
   2  -6  -7   50.19    2.60
   2  -6  -7   45.60    3.40
   2  -6  -7   51.49    3.00
   2  -6  -7   43.60    3.00
   2  -6  -7   50.99    3.00
   2  -6  -7   39.40    2.80
  -2   6   7   48.30    2.90
  -2   6   7   47.90    3.00
  -2   6   7   46.10    2.80
  -2   6   7   46.60    3.40
   1  -6  -7    1.00    1.80
   1  -6  -7    0.50    1.10
   1  -6  -7    1.30    1.20
   1  -6  -7    0.80    0.90
   1  -6  -7   -0.20    1.10
   1  -6  -7   -0.40    1.40
  -1   6   7    0.50    1.20
  -1   6   7    2.30    1.40
  -1   6   7    0.60    1.20
  -1   6   7   -2.10    1.30
   0  -6  -7   -0.40    0.90
   0  -6  -7    0.30    1.10
   0  -6  -7    1.40    1.30
   0  -6  -7    0.50    1.10
   0  -6  -7    5.20    1.70
   0   6   7   -0.60    1.10
   0   6   7   -0.40    1.60
   0   6   7   -0.20    1.50
   0   6   7   -1.30    1.50
  -1  -6  -7    0.40    1.50
  -1  -6  -7    1.10    1.20
  -1  -6  -7   -1.00    1.40
  -1  -6  -7   -0.20    1.00
   1   6   7    3.10    1.40
   1   6   7    0.10    1.60
   1   6   7    1.00    1.70
  -2  -6  -7   68.49    2.90
  -2  -6  -7   72.89    3.40
  -2  -6  -7   83.79    4.40
  -2  -6  -7   67.49    3.90
   2   6   7   73.29    4.40
   2   6   7   74.89    3.90
   2   6   7   81.19    4.40
   4  -7  -7    7.90    1.90
   4  -7  -7    7.80    2.00
   4  -7  -7    7.90    1.50
  -4   7   7    6.80    1.90
  -4   7   7    7.60    1.80
  -4   7   7    3.20    1.90
  -4   7   7    1.30    1.90
   3  -7  -7   17.00    2.30
   3  -7  -7   15.90    1.60
   3  -7  -7   19.40    2.10
   3  -7  -7   23.70    3.10
   3  -7  -7   15.30    2.10
  -3   7   7   16.50    2.10
  -3   7   7   14.50    2.10
  -3   7   7   11.80    2.30
  -3   7   7   13.60    1.90
   2  -7  -7    1.60    2.00
   2  -7  -7    4.60    1.50
   2  -7  -7    2.90    1.20
   2  -7  -7    4.50    1.20
   2  -7  -7    3.10    1.70
  -2   7   7    0.90    1.80
  -2   7   7    3.50    1.80
  -2   7   7    1.30    1.70
  -2   7   7    2.10    1.70
   1  -7  -7   48.10    3.30
   1  -7  -7   43.60    4.10
   1  -7  -7   47.90    3.10
   1  -7  -7   49.99    3.10
   1  -7  -7   45.40    2.60
  -1   7   7   49.70    3.90
  -1   7   7   44.20    3.30
  -1   7   7   48.00    3.50
   2   9  -8   14.10    2.20
   2   9  -8   12.10    2.60
   2   9  -8   15.20    1.70
  -2  -9   8   13.80    1.60
  -2  -9   8   16.90    1.60
  -2  -9   8   11.70    1.40
  -2  -9   8   13.90    2.50
   1   9  -8   14.80    1.40
   1   9  -8    8.80    2.30
   1   9  -8   11.90    2.30
   1   9  -8   13.60    1.70
  -1  -9   8   14.00    1.80
  -1  -9   8   17.90    2.60
   0   9  -8   43.80    4.00
   0  -9   8   50.39    2.70
   0  -9   8   45.50    3.20
  -1   9  -8    0.90    2.00
   1  -9   8    1.10    1.00
   1  -9   8   -0.30    1.20
   1  -9   8    1.70    1.20
  -2   9  -8    2.60    2.10
  -2   9  -8   -2.50    1.70
   2  -9   8    0.10    1.80
   2  -9   8    1.50    0.70
   2  -9   8    0.40    0.90
   2  -9   8    1.40    1.40
  -3   9  -8    0.00    2.10
  -3   9  -8    1.50    1.70
   3  -9   8    2.00    1.50
   4   8  -8    9.50    2.30
   4   8  -8   10.20    2.20
   4   8  -8    8.60    2.20
  -4  -8   8   11.00    1.60
   3   8  -8    6.00    1.70
   3   8  -8    6.60    1.80
   3   8  -8    6.50    1.90
   3   8  -8    8.20    2.00
  -3  -8   8    8.10    1.20
  -3  -8   8    6.80    1.60
  -3  -8   8    6.00    1.30
   2   8  -8    9.40    1.80
   2   8  -8   10.50    1.60
   2   8  -8    9.90    1.50
   2   8  -8   14.00    2.20
  -2  -8   8   10.20    1.10
  -2  -8   8   10.20    1.20
  -2  -8   8    9.50    1.80
  -2  -8   8   10.30    1.20
   1   8  -8   36.50    3.20
   1   8  -8   39.00    3.00
   1   8  -8   36.30    2.90
   1   8  -8   38.20    2.20
  -1  -8   8   44.00    2.90
  -1  -8   8   41.60    3.30
  -1  -8   8   42.20    2.10
  -1  -8   8   40.30    1.90
  -1  -8   8   36.30    3.90
  -1  -8   8   37.80    1.70
   0   8  -8   76.39    2.80
   0   8  -8   78.49    3.90
   0   8  -8   73.99    3.80
   0   8  -8   77.29    2.70
   0   8  -8   78.19    4.10
   0  -8   8   69.89    4.10
   0  -8   8   79.89    3.20
   0  -8   8   82.19    3.30
   0  -8   8   84.89    3.10
   0  -8   8   70.59    4.70
  -1   8  -8   19.20    1.70
  -1   8  -8   16.10    1.70
  -1   8  -8   21.40    2.80
  -1   8  -8   18.80    2.50
   1  -8   8   18.70    1.90
   1  -8   8   19.20    1.20
   1  -8   8   17.30    1.20
   1  -8   8   10.80    2.10
   1  -8   8   20.60    1.80
  -2   8  -8    0.70    0.90
  -2   8  -8    0.80    1.60
  -2   8  -8    2.70    1.10
  -2   8  -8    1.30    1.30
   2  -8   8    2.10    0.70
   2  -8   8    3.00    0.70
   2  -8   8    2.20    0.60
   2  -8   8    1.70    1.10
   2  -8   8    3.30    1.20
   2  -8   8    2.90    1.40
  -3   8  -8    7.60    2.20
  -3   8  -8   12.20    1.40
  -3   8  -8   12.40    1.50
  -3   8  -8   11.80    2.10
   3  -8   8    9.40    1.20
   3  -8   8   11.10    1.30
   3  -8   8    9.40    1.70
   3  -8   8    9.40    1.70
  -4   8  -8   39.70    3.80
  -4   8  -8   36.40    2.40
  -4   8  -8   38.10    3.00
  -4   8  -8   43.30    3.60
   4  -8   8   37.60    2.20
   4  -8   8   40.90    2.20
   4  -8   8   34.50    3.20
   4  -8   8   38.40    3.10
   5   7  -8    0.10    1.60
   5   7  -8    1.00    2.20
   5   7  -8    6.80    2.00
  -5  -7   8    3.80    1.50
  -5  -7   8    1.30    1.60
   4   7  -8    9.10    1.80
   4   7  -8    7.70    1.90
   4   7  -8    4.60    1.10
   4   7  -8    4.90    1.60
   4   7  -8    6.70    1.90
  -4  -7   8    5.50    2.40
  -4  -7   8    6.10    1.40
  -4  -7   8    5.30    1.30
   3   7  -8    4.10    1.50
   3   7  -8    6.00    1.20
   3   7  -8    5.30    1.50
   3   7  -8    5.80    1.60
   3   7  -8    5.90    1.50
  -3  -7   8    5.70    1.70
  -3  -7   8    3.10    1.90
  -3  -7   8    2.90    1.10
  -3  -7   8    5.10    1.20
  -3  -7   8    4.70    1.20
   2   7  -8    8.00    1.50
   2   7  -8    7.20    1.30
   2   7  -8    5.30    1.40
   2   7  -8    9.00    1.30
   2   7  -8    7.70    1.60
  -2  -7   8    5.80    1.10
  -2  -7   8    6.10    0.90
  -2  -7   8    7.60    1.50
  -2  -7   8    8.10    1.00
  -2  -7   8    7.10    1.40
  -2  -7   8    3.40    1.70
   1   7  -8    3.50    1.20
   1   7  -8    2.60    0.90
   1   7  -8    4.60    1.30
   1   7  -8    1.40    1.10
   1   7  -8    0.90    1.30
  -1  -7   8    3.30    0.80
  -1  -7   8    4.60    1.70
  -1  -7   8    2.60    0.80
  -1  -7   8    3.10    1.30
  -1  -7   8    4.50    1.50
  -1  -7   8    3.60    1.20
  -1  -7   8    3.00    0.80
   0   7  -8  188.48    6.80
   0   7  -8  200.88    6.00
   0   7  -8  199.58    5.40
   0   7  -8  200.68    6.10
   0   7  -8  192.48    5.40
   0  -7   8  194.78    5.20
   0  -7   8  193.08    6.40
   0  -7   8  192.88    6.30
   0  -7   8  201.08    5.70
   0  -7   8  201.38    5.40
   0  -7   8  195.98    6.70
  -1   7  -8  199.18    5.30
  -1   7  -8  172.28    7.50
  -1   7  -8  190.38    6.80
  -1   7  -8  196.58    6.20
  -1   7  -8  191.88    5.30
   1  -7   8  185.38    6.30
   1  -7   8  195.78    5.80
   1  -7   8  203.08    6.60
   1  -7   8  189.38    5.10
   1  -7   8  195.68    5.20
   1  -7   8  189.78    5.20
  -2   7  -8   48.50    2.30
  -2   7  -8   55.39    3.40
  -2   7  -8   48.80    3.10
  -2   7  -8   51.09    2.40
   2  -7   8   55.19    2.10
   2  -7   8   52.89    2.70
   2  -7   8   50.49    1.60
   2  -7   8   51.69    2.10
   2  -7   8   47.80    3.30
   2  -7   8   49.90    3.60
   2  -7   8   48.10    2.60
  -3   7  -8   39.50    2.90
  -3   7  -8   30.30    3.40
  -3   7  -8   37.70    2.30
  -3   7  -8   40.80    2.50
   3  -7   8   40.80    2.00
   3  -7   8   40.20    3.20
   3  -7   8   40.10    2.50
   3  -7   8   38.90    2.10
   3  -7   8   37.30    2.60
  -4   7  -8   43.70    3.30
  -4   7  -8   48.70    2.70
  -4   7  -8   49.90    3.20
   4  -7   8   46.70    3.80
   4  -7   8   47.80    2.60
   4  -7   8   47.20    3.00
   4  -7   8   48.70    3.00
  -5   7  -8   10.70    2.10
  -5   7  -8    5.70    1.60
   5  -7   8    6.40    1.60
   5  -7   8    5.40    1.30
   5  -7   8   10.00    1.80
   5  -7   8    6.80    1.90
   5  -7   8    4.60    2.30
   6   6  -8   -0.40    1.10
   6   6  -8    0.20    1.60
   6   6  -8    1.20    2.20
  -6  -6   8    1.60    1.90
  -6  -6   8   -2.30    2.30
  -6  -6   8    1.20    1.50
   5   6  -8    0.90    1.00
   5   6  -8    1.40    1.40
   5   6  -8   -0.30    1.30
   5   6  -8    1.60    1.90
  -5  -6   8    0.10    1.40
  -5  -6   8    1.60    1.30
  -5  -6   8   -1.00    1.90
   4   6  -8   99.89    4.20
   4   6  -8   96.09    4.20
   4   6  -8  107.49    4.90
   4   6  -8  100.49    3.30
  -4  -6   8  103.79    4.00
  -4  -6   8  104.19    3.90
  -4  -6   8   93.29    4.30
  -4  -6   8   98.09    4.50
   3   6  -8  327.07    9.00
   3   6  -8  321.87    8.40
   3   6  -8  323.67    9.50
   3   6  -8  318.17    8.80
   3   6  -8  323.07    8.90
  -3  -6   8  324.17    8.60
  -3  -6   8  326.87    8.80
  -3  -6   8  325.37    9.30
  -3  -6   8  321.67    9.10
  -3  -6   8  335.77    8.60
   2   6  -8   16.70    1.80
   2   6  -8   15.30    1.70
   2   6  -8   15.30    1.80
   2   6  -8   13.60    1.70
   2   6  -8   11.90    1.60
  -2  -6   8   14.10    1.50
  -2  -6   8   14.40    1.60
  -2  -6   8   14.70    1.30
  -2  -6   8   12.30    1.70
  -2  -6   8   15.90    1.40
  -2  -6   8   16.20    1.80
   1   6  -8  676.43   16.60
   1   6  -8  695.23   16.80
   1   6  -8  688.33   17.60
   1   6  -8  679.43   16.50
   1   6  -8  667.73   16.40
  -1  -6   8  669.63   16.60
  -1  -6   8  685.63   17.00
  -1  -6   8  687.23   16.50
  -1  -6   8  681.93   17.10
  -1  -6   8  679.33   16.50
  -1  -6   8  661.83   16.30
   0   6  -8  360.96    9.40
   0   6  -8  358.36    9.80
   0   6  -8  356.86    9.50
   0   6  -8  359.06   10.20
   0   6  -8  360.86    9.10
   0  -6   8  338.37    8.90
   0  -6   8  361.46    9.90
   0  -6   8  359.66    9.80
   0  -6   8  355.06    9.60
   0  -6   8  350.96    9.10
   0  -6   8  356.76    9.10
   0  -6   8  359.66    9.30
  -1   6  -8   21.00    2.30
  -1   6  -8   21.80    2.10
  -1   6  -8   16.90    1.90
  -1   6  -8   16.60    1.50
   1  -6   8   17.80    1.70
   1  -6   8   17.50    1.20
   1  -6   8   17.70    1.30
   1  -6   8   13.90    1.70
   1  -6   8   16.80    1.40
  -2   6  -8   25.10    2.60
  -2   6  -8   22.80    2.20
  -2   6  -8   23.70    1.70
  -2   6  -8   22.70    1.80
  -2   6  -8   20.70    2.50
   2  -6   8   21.90    1.80
   2  -6   8   23.50    1.60
   2  -6   8   22.50    2.20
   2  -6   8   21.50    1.70
   2  -6   8   22.50    1.50
  -3   6  -8    4.60    1.50
  -3   6  -8    4.10    1.00
  -3   6  -8    3.80    1.30
  -3   6  -8    3.40    1.50
   3  -6   8    2.80    1.00
   3  -6   8    3.60    1.10
   3  -6   8    3.80    0.80
   3  -6   8    4.30    1.50
  -4   6  -8   33.40    2.80
  -4   6  -8   36.00    2.80
  -4   6  -8   37.70    2.30
  -4   6  -8   32.10    3.50
  -4   6  -8   36.30    3.00
   4  -6   8   35.10    2.40
   4  -6   8   27.20    2.40
   4  -6   8   31.40    2.30
   4  -6   8   36.30    3.00
  -5   6  -8    3.30    1.70
  -5   6  -8    2.90    1.40
  -5   6  -8    0.40    1.50
   5  -6   8    1.30    1.20
   5  -6   8    3.80    1.50
   5  -6   8    1.30    1.80
   5  -6   8    3.30    1.50
   5  -6   8    1.40    1.40
  -6   6  -8   15.90    2.30
  -6   6  -8   16.70    2.40
  -6   6  -8   22.50    2.50
   6  -6   8   19.90    2.30
   6  -6   8   21.40    2.30
   6  -6   8   22.30    2.60
   6  -6   8   22.80    2.50
   7   5  -8    1.00    1.90
   7   5  -8   -1.50    1.60
  -7  -5   8    2.00    2.20
  -7  -5   8    0.90    1.60
   6   5  -8   -1.00    1.90
   6   5  -8    0.00    1.10
   6   5  -8   -1.20    1.40
  -6  -5   8    0.00    1.40
  -6  -5   8   -1.30    1.50
   5   5  -8    0.50    1.50
   5   5  -8   -0.50    1.20
   5   5  -8   -0.60    1.60
   5   5  -8   -0.20    0.90
  -5  -5   8   -0.10    1.20
  -5  -5   8    0.90    1.70
  -5  -5   8    1.00    1.50
  -5  -5   8   -2.30    1.20
   4   5  -8  132.69    4.10
   4   5  -8  133.79    4.80
   4   5  -8  135.39    4.90
   4   5  -8  141.89    5.00
  -4  -5   8  136.49    4.80
  -4  -5   8  123.49    4.80
  -4  -5   8  141.89    4.70
  -4  -5   8  135.69    4.60
   3   5  -8   21.40    1.80
   3   5  -8   17.00    2.10
   3   5  -8   20.50    2.00
   3   5  -8   20.50    1.90
   3   5  -8   21.70    1.70
  -3  -5   8   18.50    1.60
  -3  -5   8   20.00    2.10
  -3  -5   8   22.10    1.70
  -3  -5   8   17.90    1.40
  -3  -5   8   18.90    1.50
  -3  -5   8   19.40    2.00
   2   5  -8    5.70    1.20
   2   5  -8    7.50    1.10
   2   5  -8    7.00    1.20
   2   5  -8    6.70    1.10
   2   5  -8    7.70    1.10
  -2  -5   8    6.90    1.00
  -2  -5   8    6.90    1.30
  -2  -5   8    6.80    1.00
  -2  -5   8    5.80    1.00
  -2  -5   8    8.10    1.00
  -2  -5   8    6.70    1.20
   1   5  -8  260.27    6.90
   1   5  -8  265.27    7.00
   1   5  -8  260.97    7.10
   1   5  -8  257.27    7.70
   1   5  -8  257.17    7.00
  -1  -5   8  265.67    7.00
  -1  -5   8  259.77    7.00
  -1  -5   8  255.47    7.30
  -1  -5   8  263.87    6.80
  -1  -5   8  257.87    7.00
   0   5  -8  228.68    6.20
   0   5  -8  237.28    6.70
   0   5  -8  237.48    6.60
   0   5  -8  233.38    6.30
   0   5  -8  236.28    6.30
   0   5  -8  236.78    7.10
   0  -5   8  236.08    6.40
   0  -5   8  227.78    6.10
   0  -5   8  235.58    6.40
   0  -5   8  227.78    6.20
  -1   5  -8   44.50    2.00
  -1   5  -8   45.70    2.50
  -1   5  -8   44.10    2.60
  -1   5  -8   42.00    2.30
  -1   5  -8   43.90    2.10
   1  -5   8   41.90    2.30
   1  -5   8   47.50    1.90
   1  -5   8   45.70    2.20
   1  -5   8   43.10    1.60
   1  -5   8   46.00    2.00
   1  -5   8   42.80    2.00
  -2   5  -8   65.79    3.00
  -2   5  -8   58.99    3.10
  -2   5  -8   56.29    3.00
  -2   5  -8   62.99    2.50
  -2   5  -8   61.49    2.60
   2  -5   8   64.69    2.50
   2  -5   8   61.09    2.50
   2  -5   8   61.29    2.80
   2  -5   8   57.79    2.30
   2  -5   8   62.89    2.80
  -3   5  -8   82.59    3.10
  -3   5  -8   80.49    3.90
  -3   5  -8   83.09    3.70
  -3   5  -8   81.29    3.60
  -3   5  -8   85.29    3.30
   3  -5   8   80.89    2.90
   3  -5   8   81.19    3.20
   3  -5   8   84.79    3.10
   3  -5   8   84.89    3.30
   3  -5   8   79.89    3.30
  -4   5  -8   46.80    3.50
  -4   5  -8   58.29    3.10
  -4   5  -8   50.69    3.00
  -4   5  -8   50.99    2.70
  -4   5  -8   48.70    3.10
   4  -5   8   53.29    3.20
   4  -5   8   50.19    2.80
   4  -5   8   53.49    2.90
   4  -5   8   52.79    2.50
   4  -5   8   53.79    2.80
  -5   5  -8    0.10    1.30
  -5   5  -8    3.50    1.70
  -5   5  -8    1.90    1.40
  -5   5  -8    0.70    1.40
   5  -5   8    0.70    1.20
   5  -5   8    0.70    1.50
   5  -5   8    1.30    1.00
   5  -5   8    2.30    1.10
  -6   5  -8   48.80    3.50
  -6   5  -8   55.99    3.40
  -6   5  -8   49.90    3.70
   6  -5   8   49.99    3.10
   6  -5   8   54.69    3.90
   6  -5   8   52.09    3.40
   7   4  -8   11.70    4.50
   7   4  -8   20.20    2.40
   7   4  -8   20.00    2.20
  -7  -4   8   18.90    2.60
  -7  -4   8   20.70    2.70
   6   4  -8    9.70    1.60
   6   4  -8    2.90    1.60
   6   4  -8    8.60    1.40
   6   4  -8    6.10    2.00
  -6  -4   8    5.40    2.00
  -6  -4   8    7.50    1.70
  -6  -4   8    7.40    1.60
   5   4  -8    7.90    1.80
   5   4  -8    6.80    1.60
   5   4  -8    8.90    1.50
  -5  -4   8    7.60    1.60
  -5  -4   8    5.60    1.40
   4   4  -8  134.29    4.10
   4   4  -8  136.49    4.80
   4   4  -8  135.59    4.70
   4   4  -8  138.59    4.80
  -4  -4   8  134.39    3.50
  -4  -4   8  134.59    4.50
  -4  -4   8  138.29    4.40
  -4  -4   8  135.49    4.70
  -4  -4   8  130.79    4.60
   3   4  -8   27.50    1.70
   3   4  -8   29.90    2.00
   3   4  -8   31.80    2.10
  -3  -4   8   27.80    1.40
  -3  -4   8   28.00    2.00
  -3  -4   8   31.00    2.00
  -3  -4   8   28.70    1.80
  -3  -4   8   24.30    1.90
   2   4  -8   29.80    1.90
   2   4  -8   28.90    1.60
   2   4  -8   30.50    1.80
   2   4  -8   30.80    1.80
  -2  -4   8   29.70    1.60
  -2  -4   8   30.90    1.80
  -2  -4   8   28.90    1.70
  -2  -4   8   30.80    1.70
  -2  -4   8   28.70    1.80
   1   4  -8  160.48    4.70
   1   4  -8  161.18    4.40
   1   4  -8  162.18    4.70
   1   4  -8  156.28    4.70
   1   4  -8  142.89    5.00
  -1  -4   8  162.58    4.60
  -1  -4   8  164.28    4.70
  -1  -4   8  165.28    4.80
  -1  -4   8  162.78    4.60
  -1  -4   8  159.68    4.70
   0   4  -8   28.70    1.70
   0   4  -8   26.70    1.60
   0   4  -8   27.80    1.60
   0   4  -8   27.80    1.30
   0   4  -8   28.40    1.90
   0  -4   8   28.90    1.40
   0  -4   8   26.30    1.60
   0  -4   8   30.70    1.70
   0  -4   8   27.20    1.60
  -1   4  -8    5.30    0.90
  -1   4  -8    5.20    1.00
  -1   4  -8    6.00    1.00
  -1   4  -8    5.80    0.90
   1  -4   8    6.70    0.90
   1  -4   8    4.70    0.90
   1  -4   8    6.80    0.80
   1  -4   8    5.50    0.90
  -2   4  -8  100.49    3.60
  -2   4  -8   98.19    3.80
  -2   4  -8  103.39    3.80
  -2   4  -8  102.69    3.40
   2  -4   8   99.99    3.40
   2  -4   8  105.39    3.40
   2  -4   8   98.49    2.90
   2  -4   8   98.49    2.60
   2  -4   8  103.69    3.60
   2  -4   8   99.49    3.40
  -3   4  -8   19.70    2.20
  -3   4  -8   20.60    1.90
  -3   4  -8   18.90    1.70
  -3   4  -8   20.30    1.90
   3  -4   8   20.90    1.30
   3  -4   8   21.60    1.90
   3  -4   8   18.00    1.80
   3  -4   8   23.00    1.80
   3  -4   8   19.10    1.60
  -4   4  -8    3.00    1.20
  -4   4  -8    6.40    1.60
  -4   4  -8    2.90    1.00
  -4   4  -8    3.50    1.40
   4  -4   8    4.70    1.10
   4  -4   8    7.70    1.30
   4  -4   8    5.00    1.50
  -5   4  -8    9.80    2.20
  -5   4  -8   10.00    1.60
  -5   4  -8    9.20    1.60
  -5   4  -8    5.50    1.80
   5  -4   8    8.30    1.50
   5  -4   8   10.70    1.70
   5  -4   8   10.70    1.50
  -6   4  -8    2.70    1.50
  -6   4  -8    5.90    1.70
   6  -4   8    2.20    1.40
   6  -4   8   -0.40    2.00
   6  -4   8    3.80    1.30
   8   3  -8    4.60    1.80
   8   3  -8    5.20    1.40
   8   3  -8    4.30    2.40
  -8  -3   8    6.30    2.10
   7   3  -8   23.30    2.40
   7   3  -8   18.10    2.50
   7   3  -8   21.50    2.10
  -7  -3   8   27.20    2.70
  -7  -3   8   15.10    2.30
   6   3  -8   14.30    2.20
   6   3  -8   17.50    2.20
   6   3  -8   15.00    1.80
   6   3  -8   18.10    2.00
  -6  -3   8   11.60    1.90
  -6  -3   8   16.70    2.00
  -6  -3   8   14.10    1.80
   5   3  -8   72.19    3.40
   5   3  -8   67.59    2.80
   5   3  -8   67.39    3.50
  -5  -3   8   71.29    3.30
  -5  -3   8   65.19    3.30
  -5  -3   8   69.09    3.30
   4   3  -8    0.30    0.80
   4   3  -8    0.30    1.00
   4   3  -8    2.00    1.10
  -4  -3   8    0.90    0.90
  -4  -3   8    1.20    0.70
  -4  -3   8    0.20    1.00
  -4  -3   8    0.80    1.00
   3   3  -8   51.09    2.30
   3   3  -8   55.39    2.50
   3   3  -8   52.69    2.50
  -3  -3   8   51.09    2.40
  -3  -3   8   53.69    2.10
  -3  -3   8   54.19    2.50
  -3  -3   8   59.19    2.50
   2   3  -8  150.28    4.40
   2   3  -8  139.39    4.40
   2   3  -8  144.39    4.30
  -2  -3   8  144.89    4.10
  -2  -3   8  140.99    4.40
  -2  -3   8  147.89    4.30
  -2  -3   8  135.19    4.70
  -2  -3   8  142.29    4.30
   1   3  -8  555.14   13.60
   1   3  -8  577.24   13.90
   1   3  -8  552.04   13.80
   1   3  -8  551.44   13.30
   1   3  -8  551.04   13.70
  -1  -3   8  572.54   13.80
  -1  -3   8  571.84   13.90
  -1  -3   8  561.74   13.60
  -1  -3   8  567.24   13.80
   0   3  -8   56.09    2.00
   0   3  -8   58.89    2.30
   0   3  -8   54.69    2.30
   0   3  -8   61.59    2.50
   0   3  -8   54.89    2.20
   0  -3   8   56.29    2.30
   0  -3   8   56.29    2.00
   0  -3   8   58.79    2.30
   0  -3   8   56.99    2.20
  -1   3  -8  258.47    6.90
  -1   3  -8  253.37    6.70
  -1   3  -8  258.37    6.80
  -1   3  -8  246.28    6.90
  -1   3  -8  245.58    6.30
   1  -3   8  251.67    6.80
   1  -3   8  249.68    6.80
   1  -3   8  247.98    6.30
   1  -3   8  240.48    6.80
  -2   3  -8   53.09    2.60
  -2   3  -8   49.90    1.70
  -2   3  -8   54.59    2.40
  -2   3  -8   52.79    2.60
   2  -3   8   54.29    1.70
   2  -3   8   52.99    2.40
   2  -3   8   55.59    2.30
   2  -3   8   56.59    2.40
   2  -3   8   51.69    2.10
   2  -3   8   52.69    1.60
  -3   3  -8   18.90    2.00
  -3   3  -8   23.50    2.00
  -3   3  -8   21.40    1.00
  -3   3  -8   20.50    1.70
   3  -3   8   22.40    1.70
   3  -3   8   23.90    1.80
   3  -3   8   21.70    1.50
   3  -3   8   20.80    1.90
  -4   3  -8   72.79    3.10
  -4   3  -8   68.39    2.10
  -4   3  -8   68.19    3.50
   4  -3   8   73.69    3.40
   4  -3   8   71.09    3.10
   4  -3   8   70.49    3.20
   4  -3   8   72.49    2.60
  -5   3  -8   -0.10    1.10
  -5   3  -8    0.30    1.10
  -5   3  -8    0.10    1.50
  -5   3  -8    0.10    0.50
  -5   3  -8   -2.10    1.50
   5  -3   8   -0.50    1.00
   5  -3   8   -0.10    1.00
   5  -3   8    0.50    1.40
  -6   3  -8   -1.30    0.70
  -6   3  -8    0.40    0.80
  -6   3  -8    2.10    1.40
  -6   3  -8    0.10    1.60
   6  -3   8    1.90    1.40
   6  -3   8   -1.50    2.00
   6  -3   8   -3.20    1.20
   8   2  -8    5.90    2.20
   8   2  -8    5.30    1.90
   8   2  -8    4.80    1.40
  -8  -2   8    3.80    1.90
   7   2  -8    6.60    1.90
   7   2  -8    7.50    1.30
   7   2  -8    7.50    2.10
   7   2  -8    6.90    1.60
  -7  -2   8    7.10    1.90
  -7  -2   8    8.70    1.80
  -7  -2   8    7.00    2.10
   6   2  -8  133.69    4.60
   6   2  -8  140.89    5.30
   6   2  -8  143.19    5.30
  -6  -2   8  139.89    5.20
  -6  -2   8  141.09    5.10
  -6  -2   8  135.99    5.30
   5   2  -8   50.09    2.80
   5   2  -8   57.29    2.60
   5   2  -8   54.89    3.00
  -5  -2   8   51.39    2.80
  -5  -2   8   50.59    2.90
  -5  -2   8   54.79    2.90
   4   2  -8    3.40    1.10
   4   2  -8    4.10    1.10
   4   2  -8    3.00    0.90
  -4  -2   8    1.10    0.90
  -4  -2   8    2.60    1.00
  -4  -2   8    1.30    0.90
  -4  -2   8    3.10    0.60
   3   2  -8    5.90    1.00
   3   2  -8    4.60    0.90
   3   2  -8    5.60    1.00
   3   2  -8    4.20    0.90
  -3  -2   8    7.30    1.10
  -3  -2   8    4.20    1.00
  -3  -2   8    5.20    0.60
  -3  -2   8    6.20    1.00
   2   2  -8   98.99    3.40
   2   2  -8   94.09    3.30
   2   2  -8  100.29    3.30
  -2  -2   8   97.19    3.40
  -2  -2   8   97.49    3.30
  -2  -2   8  104.69    3.30
  -2  -2   8   99.29    3.30
   1   2  -8  568.24   13.70
   1   2  -8  577.84   14.10
   1   2  -8  606.34   14.20
   1   2  -8  511.75   14.40
   1   2  -8  582.34   14.00
  -1  -2   8  577.34   13.90
  -1  -2   8  581.74   14.20
  -1  -2   8  583.34   14.00
  -1  -2   8  575.54   14.10
   0   2  -8    0.40    0.50
   0   2  -8    1.40    0.70
   0   2  -8    0.10    0.40
   0   2  -8    0.70    0.40
   0   2  -8    0.50    0.60
   0  -2   8    0.70    0.60
   0  -2   8    0.80    0.60
   0  -2   8    0.30    0.50
   0  -2   8    1.00    0.50
  -1   2  -8   20.80    1.20
  -1   2  -8   22.00    1.40
  -1   2  -8   19.40    1.50
  -1   2  -8   20.20    1.60
   1  -2   8   23.50    1.60
   1  -2   8   19.90    1.20
   1  -2   8   20.20    1.40
   1  -2   8   20.80    1.40
  -2   2  -8  321.27    8.30
  -2   2  -8  305.27    8.40
  -2   2  -8  326.97    8.50
  -2   2  -8  311.47    7.70
   2  -2   8  294.37    8.30
   2  -2   8  307.17    7.70
   2  -2   8  308.17    8.30
   2  -2   8  303.97    8.20
   2  -2   8  308.57    7.70
  -3   2  -8   95.29    3.70
  -3   2  -8   93.89    2.90
  -3   2  -8  100.59    3.50
  -3   2  -8   98.09    3.70
   3  -2   8   96.59    3.70
   3  -2   8   97.09    3.50
   3  -2   8   95.79    2.80
   3  -2   8   90.89    3.40
  -4   2  -8  189.48    6.40
  -4   2  -8  210.98    6.20
  -4   2  -8  200.88    6.50
  -4   2  -8  205.58    5.40
   4  -2   8  201.48    6.40
   4  -2   8  207.88    6.30
   4  -2   8  200.38    6.10
  -5   2  -8    9.60    1.90
  -5   2  -8    7.30    1.90
  -5   2  -8    8.50    1.10
  -5   2  -8    7.50    1.60
   5  -2   8    9.60    1.40
   5  -2   8   10.90    1.70
   5  -2   8    8.10    1.80
  -6   2  -8   22.80    2.30
  -6   2  -8   24.30    1.90
  -6   2  -8   24.00    2.50
   6  -2   8   22.10    2.60
   6  -2   8   22.00    2.80
   6  -2   8   23.40    2.70
   8   1  -8    2.20    1.80
   8   1  -8    0.40    1.90
  -8  -1   8    2.10    1.80
   7   1  -8    7.40    1.60
   7   1  -8    7.00    1.70
   7   1  -8    5.10    1.90
  -7  -1   8    9.90    2.10
  -7  -1   8    6.30    1.70
  -7  -1   8    9.80    1.90
   6   1  -8    5.90    1.50
   6   1  -8    8.00    1.80
   6   1  -8    6.60    1.30
  -6  -1   8    7.20    1.70
  -6  -1   8    6.20    1.50
  -6  -1   8    6.10    1.60
   5   1  -8  102.49    3.70
   5   1  -8   99.19    4.00
   5   1  -8   94.29    3.90
  -5  -1   8  100.39    3.90
  -5  -1   8  109.39    4.10
  -5  -1   8  104.09    3.90
   4   1  -8    2.90    1.10
   4   1  -8    2.70    0.80
   4   1  -8    3.40    0.90
   4   1  -8    3.10    1.00
  -4  -1   8    4.00    1.00
  -4  -1   8    3.20    1.00
  -4  -1   8    4.30    1.00
  -4  -1   8    4.00    0.50
  -4  -1   8    3.60    0.50
   3   1  -8   17.80    1.40
   3   1  -8   18.20    1.50
   3   1  -8   18.20    1.50
   3   1  -8   17.80    1.70
  -3  -1   8   17.20    1.60
  -3  -1   8   19.20    1.60
  -3  -1   8   19.50    1.50
   2   1  -8    1.30    0.70
   2   1  -8    1.50    0.60
   2   1  -8    1.70    0.60
   2   1  -8    1.60    0.90
  -2  -1   8    0.60    0.70
  -2  -1   8    1.80    0.60
  -2  -1   8    1.20    0.60
  -2  -1   8    1.80    0.60
   1   1  -8  379.46    9.30
   1   1  -8  383.06    9.80
   1   1  -8  390.96    9.90
   1   1  -8  384.16    9.90
  -1  -1   8  391.36    9.80
  -1  -1   8  396.86   10.00
  -1  -1   8  396.26   10.00
  -1  -1   8  397.96    9.90
   0   1  -8   10.20    1.00
   0   1  -8   11.50    1.20
   0   1  -8   13.10    1.30
   0   1  -8   14.50    1.30
   0  -1   8   13.10    1.20
   0  -1   8   14.70    1.20
   0  -1   8   14.30    1.30
   0  -1   8   13.90    1.20
  -1   1  -8  112.29    3.30
  -1   1  -8  109.79    3.70
  -1   1  -8  108.19    3.60
  -1   1  -8  105.29    3.70
   1  -1   8  109.49    3.30
   1  -1   8  112.49    3.70
   1  -1   8  112.19    3.60
  -2   1  -8  662.03   15.90
  -2   1  -8  635.14   15.80
  -2   1  -8  641.14   16.00
  -2   1  -8  631.44   15.40
   2  -1   8  672.03   15.90
   2  -1   8  652.23   15.80
   2  -1   8  612.54   15.00
   2  -1   8  621.04   15.30
   2  -1   8  621.54   15.90
  -3   1  -8  213.28    5.70
  -3   1  -8  208.18    6.30
  -3   1  -8  212.58    6.20
  -3   1  -8  212.88    6.50
   3  -1   8  205.08    5.10
   3  -1   8  209.48    6.40
   3  -1   8  215.48    6.40
   3  -1   8  209.68    6.10
  -4   1  -8  195.38    6.20
  -4   1  -8  191.58    6.20
  -4   1  -8  201.58    6.50
  -4   1  -8  199.88    5.50
   4  -1   8  201.88    6.00
   4  -1   8  191.38    6.20
   4  -1   8  202.48    6.40
  -5   1  -8    5.20    1.60
  -5   1  -8    6.00    1.80
  -5   1  -8    6.00    1.60
  -5   1  -8    7.90    1.20
   5  -1   8    6.70    1.90
   5  -1   8    5.90    1.40
  -6   1  -8    1.00    1.60
  -6   1  -8    1.20    1.90
  -6   1  -8    0.30    1.20
   6  -1   8   -0.50    1.40
   6  -1   8   -1.80    1.30
   8   0  -8    3.60    1.80
   8   0  -8   -2.50    2.20
  -8   0   8    2.80    1.90
   7   0  -8    9.70    2.20
   7   0  -8   12.70    1.80
  -7   0   8   15.00    2.20
  -7   0   8   13.30    3.90
  -7   0   8   11.20    2.00
   6   0  -8  122.29    4.80
   6   0  -8  117.89    4.50
   6   0  -8  121.89    4.70
  -6   0   8  123.59    4.60
  -6   0   8  125.89    4.70
  -6   0   8  117.99    4.60
   5   0  -8   48.20    2.50
   5   0  -8   46.50    2.70
   5   0  -8   46.20    2.50
   5   0  -8   44.80    2.50
  -5   0   8   46.40    2.60
  -5   0   8   45.20    1.60
  -5   0   8   49.10    2.80
  -5   0   8   46.40    2.70
   4   0  -8    5.80    1.10
   4   0  -8    6.20    1.30
   4   0  -8    7.20    1.10
  -4   0   8    6.60    0.70
  -4   0   8    5.20    1.10
  -4   0   8    6.10    1.10
  -4   0   8    5.80    1.20
   3   0  -8   22.50    1.70
   3   0  -8   22.00    2.00
   3   0  -8   24.50    1.50
   3   0  -8   25.20    1.70
  -3   0   8   22.90    1.60
  -3   0   8   24.90    1.70
  -3   0   8   24.10    1.70
   2   0  -8  820.62   19.70
   2   0  -8  824.62   19.70
   2   0  -8  802.52   19.60
   2   0  -8  825.62   19.60
  -2   0   8  805.42   19.80
  -2   0   8  812.22   19.60
  -2   0   8  810.02   19.60
   1   0  -8 1122.39   26.60
   1   0  -8 1136.89   26.60
   1   0  -8 1131.19   26.60
   1   0  -8 1134.89   26.70
   1   0  -8 1053.79   25.80
  -1   0   8 1101.49   26.60
  -1   0   8 1143.79   26.70
  -1   0   8 1155.28   26.80
   0   0  -8  155.18    4.50
   0   0  -8  157.98    4.70
   0   0  -8  156.58    4.60
   0   0   8  153.88    4.70
   0   0   8  159.88    4.80
   0   0   8  157.18    4.70
   0   0   8  160.68    4.60
  -1   0  -8  116.89    3.60
  -1   0  -8  116.59    4.00
  -1   0  -8  123.19    3.80
  -1   0  -8  112.59    3.80
   1   0   8  117.39    3.70
   1   0   8  117.59    3.90
   1   0   8  116.69    3.90
   1   0   8  119.09    3.80
  -2   0  -8  108.19    3.70
  -2   0  -8  105.89    3.70
  -2   0  -8  105.09    3.90
  -2   0  -8  107.39    3.50
   2   0   8  105.19    3.80
   2   0   8  105.29    3.70
   2   0   8  105.49    3.60
   2   0   8  102.69    2.80
  -3   0  -8    2.20    1.30
  -3   0  -8    4.50    1.10
  -3   0  -8    3.50    0.90
  -3   0  -8    1.10    0.90
   3   0   8    3.50    1.30
   3   0   8    4.10    1.00
   3   0   8    0.80    1.20
   3   0   8    3.30    0.60
  -4   0  -8    8.00    1.20
  -4   0  -8    6.90    1.30
  -4   0  -8    8.50    1.80
  -4   0  -8    7.70    1.50
   4   0   8    7.70    1.70
   4   0   8    9.40    1.40
   4   0   8    7.50    1.60
  -5   0  -8    3.90    1.40
  -5   0  -8    3.70    2.00
  -5   0  -8    5.70    1.30
  -5   0  -8    5.20    1.70
   5   0   8    7.90    1.80
   5   0   8    4.20    1.90
   5   0   8    3.70    1.40
  -6   0  -8   14.90    2.20
  -6   0  -8   12.80    2.30
  -6   0  -8   18.70    2.10
   6   0   8   16.50    2.10
   6   0   8   17.80    2.40
   8  -1  -8   -0.70    2.10
   8  -1  -8    0.50    1.60
  -8   1   8    3.10    2.00
   7  -1  -8   14.10    1.80
   7  -1  -8   21.50    2.60
  -7   1   8   16.20    2.20
  -7   1   8   17.50    2.20
  -7   1   8   16.70    2.20
   6  -1  -8    2.50    1.30
   6  -1  -8    0.60    1.30
   6  -1  -8    1.40    1.00
  -6   1   8   -1.30    1.20
  -6   1   8    1.60    0.60
  -6   1   8    0.70    1.40
  -6   1   8    1.50    1.20
   5  -1  -8   45.60    2.60
   5  -1  -8   49.60    2.80
   5  -1  -8   49.40    2.80
   5  -1  -8   52.69    2.50
  -5   1   8   49.90    2.00
  -5   1   8   45.80    2.80
  -5   1   8   51.89    2.70
  -5   1   8   51.99    2.70
   4  -1  -8   43.70    2.50
   4  -1  -8   48.00    2.40
   4  -1  -8   47.50    2.50
   4  -1  -8   48.40    2.40
  -4   1   8   49.99    2.50
  -4   1   8   46.70    2.40
  -4   1   8   48.00    2.00
  -4   1   8   45.60    2.50
   3  -1  -8  153.18    4.70
   3  -1  -8  152.08    4.70
   3  -1  -8  144.09    4.60
   3  -1  -8  145.29    4.70
  -3   1   8  147.39    4.60
  -3   1   8  151.58    4.70
  -3   1   8  152.48    4.80
   2  -1  -8   10.10    1.20
   2  -1  -8    8.90    1.10
   2  -1  -8    7.70    1.20
   2  -1  -8   12.10    1.20
  -2   1   8    8.30    1.10
  -2   1   8   10.40    1.20
  -2   1   8    8.50    1.10
   1  -1  -8  121.69    3.90
   1  -1  -8  124.99    3.40
   1  -1  -8  125.19    3.90
   1  -1  -8  120.89    3.90
   1  -1  -8  120.79    3.90
  -1   1   8  126.29    3.90
  -1   1   8  118.39    3.90
  -1   1   8  124.09    4.00
   0  -1  -8  132.39    4.20
   0  -1  -8  137.69    4.50
   0  -1  -8  131.29    4.20
   0  -1  -8  136.19    4.20
   0   1   8  135.69    4.30
   0   1   8  134.29    4.30
   0   1   8  141.09    4.30
   0   1   8  134.59    4.20
  -1  -1  -8   11.10    1.50
  -1  -1  -8   11.40    1.40
  -1  -1  -8   12.00    1.30
   1   1   8   12.80    1.50
   1   1   8   12.10    1.40
   1   1   8   12.80    1.40
   1   1   8   12.40    1.40
  -2  -1  -8   86.09    3.30
  -2  -1  -8   92.99    3.40
  -2  -1  -8   88.59    3.30
  -2  -1  -8   97.09    3.80
   2   1   8   94.29    3.60
   2   1   8   94.59    3.40
   2   1   8   95.79    3.70
   2   1   8   92.09    2.80
  -3  -1  -8   99.29    3.70
  -3  -1  -8   98.59    3.70
  -3  -1  -8   94.69    4.10
  -3  -1  -8  101.59    3.60
   3   1   8   99.39    3.10
   3   1   8   95.09    4.00
   3   1   8   99.19    4.00
   3   1   8  101.69    3.60
  -4  -1  -8    7.90    1.30
  -4  -1  -8   10.30    1.60
  -4  -1  -8   11.10    1.50
  -4  -1  -8    4.80    1.70
   4   1   8   11.50    1.90
   4   1   8   12.70    1.50
   4   1   8    9.80    1.10
   4   1   8    7.80    1.90
  -5  -1  -8   42.00    2.90
  -5  -1  -8   33.80    3.90
  -5  -1  -8   40.90    2.90
  -5  -1  -8   44.60    3.20
   5   1   8   49.80    3.50
   5   1   8   43.80    3.00
   5   1   8   44.80    2.40
   8  -2  -8    6.60    2.40
   8  -2  -8    5.50    1.90
  -8   2   8    8.00    2.50
  -8   2   8   10.50    1.60
   7  -2  -8   58.59    3.20
   7  -2  -8   62.69    3.80
   7  -2  -8   56.59    3.20
  -7   2   8   58.69    2.40
  -7   2   8   55.79    3.70
  -7   2   8   53.99    3.80
   6  -2  -8   -1.90    1.20
   6  -2  -8   -0.30    1.00
   6  -2  -8   -0.20    1.00
  -6   2   8    1.30    1.30
  -6   2   8    1.70    0.80
  -6   2   8    0.00    1.40
  -6   2   8    0.00    0.60
  -6   2   8    1.50    1.20
   5  -2  -8    0.70    0.90
   5  -2  -8    0.10    1.10
   5  -2  -8    0.90    0.90
  -5   2   8    2.00    1.10
  -5   2   8    0.20    0.70
  -5   2   8    0.30    1.20
  -5   2   8    2.00    1.20
   4  -2  -8   23.30    2.10
   4  -2  -8   23.70    2.10
   4  -2  -8   26.20    1.90
   4  -2  -8   21.40    1.80
  -4   2   8   21.50    2.00
  -4   2   8   24.10    1.60
  -4   2   8   22.20    1.80
  -4   2   8   24.80    2.10
   3  -2  -8  118.89    4.10
   3  -2  -8  114.99    4.00
   3  -2  -8  115.69    4.00
   3  -2  -8  118.49    4.00
  -3   2   8  116.59    3.90
  -3   2   8  121.29    4.10
  -3   2   8  122.79    4.10
  -3   2   8  108.19    3.80
   2  -2  -8  121.89    4.00
   2  -2  -8  121.49    4.00
   2  -2  -8  115.89    3.20
   2  -2  -8  115.99    4.00
   2  -2  -8  119.59    3.60
   2  -2  -8  117.79    3.90
  -2   2   8  120.19    4.10
  -2   2   8  123.99    3.90
  -2   2   8  119.49    4.00
   1  -2  -8  423.06   11.00
   1  -2  -8  419.66   10.60
   1  -2  -8  415.86   10.20
   1  -2  -8  414.06   10.70
   1  -2  -8  404.86   10.60
  -1   2   8  413.76   10.60
  -1   2   8  409.96   10.70
  -1   2   8  411.26   10.70
   0  -2  -8  117.59    4.00
   0  -2  -8  114.99    3.80
   0  -2  -8  109.39    3.70
   0  -2  -8  110.89    3.80
   0   2   8  112.99    3.80
   0   2   8  111.19    3.90
   0   2   8  116.09    4.00
  -1  -2  -8   31.40    2.20
  -1  -2  -8   32.70    2.00
  -1  -2  -8   30.00    1.90
  -1  -2  -8   29.30    1.90
   1   2   8   29.30    1.30
   1   2   8   31.70    2.10
   1   2   8   28.90    1.50
   1   2   8   29.30    2.00
   1   2   8   28.30    2.10
   1   2   8   29.40    2.10
  -2  -2  -8    2.90    1.00
  -2  -2  -8    3.30    1.00
  -2  -2  -8    3.40    1.00
  -2  -2  -8    0.70    1.20
   2   2   8    2.80    1.00
   2   2   8    2.30    0.70
   2   2   8    1.30    1.10
  -3  -2  -8   65.29    3.00
  -3  -2  -8   67.39    3.70
  -3  -2  -8   66.29    3.00
  -3  -2  -8   66.79    3.10
   3   2   8   66.29    3.00
   3   2   8   61.99    3.60
   3   2   8   65.89    3.30
   3   2   8   67.39    2.60
  -4  -2  -8    9.50    2.20
  -4  -2  -8   13.60    1.70
  -4  -2  -8   11.80    1.60
  -4  -2  -8   11.70    1.70
   4   2   8   11.30    1.70
   4   2   8   11.00    1.30
  -5  -2  -8   21.00    2.30
  -5  -2  -8   16.30    4.90
  -5  -2  -8   22.90    2.90
  -5  -2  -8   19.60    2.30
   5   2   8   23.70    2.80
   5   2   8   22.90    2.20
   5   2   8   22.40    2.70
   8  -3  -8    2.80    1.60
   8  -3  -8    1.90    1.70
   8  -3  -8    0.60    2.30
  -8   3   8    2.60    2.30
  -8   3   8   -0.40    1.40
   7  -3  -8   -0.90    1.30
   7  -3  -8   -1.80    1.70
   7  -3  -8   -2.20    1.30
  -7   3   8    0.00    1.90
  -7   3   8    0.00    1.80
  -7   3   8    2.10    1.00
   6  -3  -8    1.80    1.40
   6  -3  -8    1.50    1.20
   6  -3  -8    0.80    1.10
  -6   3   8   -0.10    1.00
  -6   3   8    0.80    1.40
  -6   3   8    0.60    1.40
  -6   3   8    0.80    1.50
   5  -3  -8   50.39    2.70
   5  -3  -8   40.50    3.20
   5  -3  -8   42.10    2.90
  -5   3   8   46.70    2.50
  -5   3   8   44.40    2.60
  -5   3   8   47.10    3.00
  -5   3   8   44.40    2.90
   4  -3  -8  152.48    5.10
   4  -3  -8  155.48    5.30
   4  -3  -8  157.38    5.10
   4  -3  -8  159.28    5.10
  -4   3   8  152.68    4.90
  -4   3   8  160.48    5.30
  -4   3   8  164.28    5.10
  -4   3   8  159.28    5.20
   3  -3  -8  113.89    4.00
   3  -3  -8  105.89    3.10
   3  -3  -8  113.39    3.90
   3  -3  -8  106.19    3.80
   3  -3  -8  107.29    4.00
   3  -3  -8  114.69    3.90
  -3   3   8  109.49    4.00
  -3   3   8  105.79    3.70
  -3   3   8  108.29    4.00
  -3   3   8  114.69    4.10
   2  -3  -8    1.20    0.80
   2  -3  -8    1.60    0.80
   2  -3  -8    1.10    0.90
   2  -3  -8   -0.40    0.90
   2  -3  -8    0.60    0.60
  -2   3   8    0.40    0.70
  -2   3   8    0.20    0.90
  -2   3   8    1.20    1.10
  -2   3   8    0.60    0.90
   1  -3  -8   27.50    1.80
   1  -3  -8   22.00    1.80
   1  -3  -8   27.50    1.80
   1  -3  -8   24.40    1.90
   1  -3  -8   26.60    1.90
  -1   3   8   26.70    1.90
  -1   3   8   26.70    1.70
  -1   3   8   27.20    2.00
  -1   3   8   24.50    2.10
   0  -3  -8    1.50    0.90
   0  -3  -8    1.40    1.00
   0  -3  -8   -0.10    0.90
   0  -3  -8    1.50    0.70
   0   3   8    1.60    1.00
   0   3   8    1.50    1.00
   0   3   8    2.10    0.70
   0   3   8    2.00    1.10
  -1  -3  -8   34.90    2.30
  -1  -3  -8   34.50    2.10
  -1  -3  -8   32.20    2.00
  -1  -3  -8   34.70    2.50
   1   3   8   33.10    1.80
   1   3   8   33.40    1.50
   1   3   8   34.20    2.50
   1   3   8   33.20    2.40
  -2  -3  -8   84.19    3.40
  -2  -3  -8   80.59    3.80
  -2  -3  -8   82.39    3.30
   2   3   8   90.19    3.80
   2   3   8   80.89    3.10
   2   3   8   78.89    3.80
   2   3   8   90.59    3.40
  -3  -3  -8   10.30    2.00
  -3  -3  -8   10.80    1.50
  -3  -3  -8   13.20    1.60
  -3  -3  -8   13.40    1.80
   3   3   8   11.80    2.00
   3   3   8   14.10    1.70
   3   3   8   13.00    1.60
  -4  -3  -8    5.50    1.70
  -4  -3  -8    6.20    2.30
  -4  -3  -8    2.70    1.40
  -4  -3  -8    4.80    1.50
   4   3   8    4.50    1.50
   4   3   8    5.60    1.30
   4   3   8    5.10    2.10
   7  -4  -8    7.30    1.80
   7  -4  -8    8.30    1.70
   7  -4  -8   11.70    2.20
  -7   4   8    7.30    2.20
   6  -4  -8    2.80    1.30
   6  -4  -8    3.50    1.40
   6  -4  -8    3.40    1.60
  -6   4   8    1.00    1.60
  -6   4   8    2.40    1.70
  -6   4   8    4.20    1.30
   5  -4  -8   11.00    1.70
   5  -4  -8   10.10    1.60
   5  -4  -8   11.00    1.50
  -5   4   8   11.20    1.60
  -5   4   8    8.40    1.70
  -5   4   8   10.60    1.80
  -5   4   8    9.30    1.50
   4  -4  -8    4.30    1.20
   4  -4  -8    2.40    1.30
   4  -4  -8    5.00    1.40
   4  -4  -8    6.90    1.20
  -4   4   8    3.70    1.20
  -4   4   8    5.40    1.50
  -4   4   8    5.50    1.50
  -4   4   8    5.90    1.30
   3  -4  -8  277.27    7.50
   3  -4  -8  265.37    7.50
   3  -4  -8  257.17    7.60
   3  -4  -8  252.47    6.80
   3  -4  -8  270.97    7.40
   3  -4  -8  254.47    7.60
  -3   4   8  252.77    7.30
  -3   4   8  264.07    7.80
  -3   4   8  268.47    7.50
  -3   4   8  257.57    7.70
  -3   4   8  259.67    7.60
   2  -4  -8  160.18    4.70
   2  -4  -8  164.98    5.00
   2  -4  -8  159.18    5.30
   2  -4  -8  157.78    5.20
   2  -4  -8  157.98    5.10
   2  -4  -8  161.98    5.10
  -2   4   8  164.58    5.50
  -2   4   8  158.08    5.40
  -2   4   8  158.98    5.00
  -2   4   8  160.78    5.30
  -2   4   8  159.98    5.00
   1  -4  -8   99.19    3.60
   1  -4  -8   94.69    3.60
   1  -4  -8   88.59    4.20
   1  -4  -8   84.79    3.80
   1  -4  -8   93.19    3.40
   1  -4  -8   96.79    3.60
  -1   4   8   90.19    3.50
  -1   4   8   90.89    3.90
  -1   4   8   97.29    3.80
  -1   4   8   87.09    3.90
  -1   4   8   98.59    3.40
   0  -4  -8    1.80    1.00
   0  -4  -8    2.40    1.30
   0  -4  -8    1.40    0.90
   0   4   8    3.30    1.30
   0   4   8    2.40    0.90
   0   4   8    1.90    1.20
  -1  -4  -8    5.00    1.40
  -1  -4  -8    5.10    1.20
  -1  -4  -8    5.30    1.50
  -1  -4  -8    3.70    1.10
   1   4   8    3.70    1.50
   1   4   8    4.00    1.00
   1   4   8    3.60    0.80
  -2  -4  -8   -0.70    1.20
  -2  -4  -8    0.10    1.00
  -2  -4  -8    0.60    1.00
  -2  -4  -8   -0.90    1.50
   2   4   8    0.20    1.00
   2   4   8    1.10    1.50
  -3  -4  -8    6.10    1.40
  -3  -4  -8    3.70    2.10
  -3  -4  -8    5.30    1.80
  -3  -4  -8    4.30    1.30
   3   4   8    4.50    2.10
   3   4   8    3.90    1.40
   6  -5  -8    8.40    1.70
   6  -5  -8    4.20    1.50
   6  -5  -8    2.20    2.00
  -6   5   8   10.80    2.20
  -6   5   8    7.40    1.60
  -6   5   8    6.50    1.90
   5  -5  -8   37.80    2.70
   5  -5  -8   40.60    2.80
   5  -5  -8   39.60    2.80
   5  -5  -8   31.30    3.60
  -5   5   8   39.80    3.00
  -5   5   8   42.10    3.70
  -5   5   8   37.40    2.90
  -5   5   8   37.00    2.80
  -5   5   8   41.00    3.40
   4  -5  -8    0.30    1.00
   4  -5  -8    1.60    1.50
   4  -5  -8    4.00    1.70
   4  -5  -8    3.90    1.30
   4  -5  -8    2.00    1.20
  -4   5   8    1.10    1.40
  -4   5   8    0.80    1.30
  -4   5   8    3.60    1.60
  -4   5   8    3.20    1.20
  -4   5   8    2.60    1.90
   3  -5  -8    4.70    1.20
   3  -5  -8    5.20    1.60
   3  -5  -8    5.40    1.40
   3  -5  -8    2.80    1.20
   3  -5  -8    3.30    1.10
   3  -5  -8    5.10    1.50
  -3   5   8    4.50    1.40
  -3   5   8    2.70    1.60
  -3   5   8    4.90    1.40
  -3   5   8    3.20    1.20
  -3   5   8    4.90    1.40
   2  -5  -8    3.80    1.10
   2  -5  -8    3.70    1.20
   2  -5  -8    2.20    1.00
   2  -5  -8    3.80    1.20
   2  -5  -8    4.80    1.50
   2  -5  -8    2.50    1.50
  -2   5   8    1.10    1.30
  -2   5   8    3.30    1.70
  -2   5   8    4.90    1.60
  -2   5   8    3.80    1.30
  -2   5   8    3.00    1.30
   1  -5  -8    1.30    1.20
   1  -5  -8    2.60    1.00
   1  -5  -8    2.60    1.10
   1  -5  -8    1.40    1.40
   1  -5  -8    4.10    1.40
   1  -5  -8    1.50    1.10
  -1   5   8    0.50    1.00
  -1   5   8    0.20    1.70
  -1   5   8    1.70    1.30
  -1   5   8    1.40    1.20
  -1   5   8    2.80    1.40
   0  -5  -8    0.90    1.10
   0  -5  -8    1.10    1.40
   0  -5  -8   -0.70    1.10
   0  -5  -8    1.20    1.00
   0   5   8    0.50    1.40
   0   5   8   -0.20    1.50
   0   5   8    0.40    1.00
   0   5   8    2.90    1.40
  -1  -5  -8    0.40    1.00
  -1  -5  -8   -1.10    1.30
  -1  -5  -8    0.10    1.10
  -1  -5  -8    0.20    1.60
   1   5   8    3.60    1.40
   1   5   8    1.20    1.50
  -2  -5  -8    2.90    1.30
  -2  -5  -8   -0.80    1.40
  -2  -5  -8    2.50    2.00
  -2  -5  -8   -0.40    1.20
   2   5   8   -0.30    1.80
   2   5   8    1.20    1.50
   5  -6  -8   21.70    2.50
   5  -6  -8   23.60    2.80
   5  -6  -8   20.10    2.40
  -5   6   8   18.40    2.60
  -5   6   8   19.80    2.50
  -5   6   8   20.40    2.50
   4  -6  -8  148.79    4.90
   4  -6  -8  145.59    4.90
   4  -6  -8  140.09    5.40
  -4   6   8  134.09    5.70
  -4   6   8  136.09    5.30
  -4   6   8  140.99    5.50
   3  -6  -8   19.70    2.60
   3  -6  -8   23.80    2.50
   3  -6  -8   22.10    2.50
   3  -6  -8   25.60    2.30
   3  -6  -8   24.50    2.10
   3  -6  -8   27.30    2.70
  -3   6   8   25.60    2.80
  -3   6   8   25.50    3.00
  -3   6   8   21.60    2.70
  -3   6   8   26.60    2.90
   2  -6  -8   31.20    3.40
   2  -6  -8   39.70    2.90
   2  -6  -8   33.80    2.70
   2  -6  -8   37.10    2.40
   2  -6  -8   34.50    3.00
   2  -6  -8   39.60    2.70
  -2   6   8   31.70    2.90
  -2   6   8   38.70    3.20
  -2   6   8   34.10    3.30
   1  -6  -8   23.10    2.10
   1  -6  -8   26.20    2.60
   1  -6  -8   16.60    2.00
   1  -6  -8   22.60    2.50
   1  -6  -8   23.10    2.60
   1  -6  -8   21.00    2.30
  -1   6   8   14.60    2.10
  -1   6   8   21.20    2.60
  -1   6   8   18.40    2.20
   0  -6  -8   -2.80    1.70
   0  -6  -8    2.10    1.60
   0  -6  -8   -1.40    1.10
   0  -6  -8    0.00    1.30
   0  -6  -8    0.80    1.40
   0   6   8   -1.20    1.30
   0   6   8    2.10    1.70
   0   6   8   -0.90    1.70
   1   9  -9   -3.00    1.50
   1   9  -9    0.10    2.10
   1   9  -9   -0.80    1.30
  -1  -9   9   -0.30    0.90
  -1  -9   9   -0.70    0.60
  -1  -9   9    0.80    2.10
  -1  -9   9    3.00    1.90
  -1  -9   9    0.50    1.00
   0   9  -9    8.20    1.80
   0   9  -9    6.80    1.20
   0   9  -9   12.00    2.50
   0  -9   9    7.20    1.40
   0  -9   9    7.90    1.70
  -1   9  -9    2.10    1.10
  -1   9  -9    1.90    2.20
  -1   9  -9    2.80    1.60
   1  -9   9    1.10    1.40
   1  -9   9    4.00    1.10
   1  -9   9    4.00    1.40
  -2   9  -9    1.80    1.70
  -2   9  -9    8.40    2.50
  -2   9  -9    8.20    1.30
   2  -9   9    7.90    1.00
   2  -9   9   11.40    1.70
   3   8  -9   -0.50    1.60
   3   8  -9   -0.80    1.50
   3   8  -9    2.50    1.70
   3   8  -9    0.10    1.70
   3   8  -9    1.50    1.70
  -3  -8   9    2.30    1.60
  -3  -8   9    2.50    2.20
  -3  -8   9   -1.30    1.10
  -3  -8   9    1.00    1.10
   2   8  -9   -2.80    1.40
   2   8  -9    1.00    1.80
   2   8  -9   -1.50    1.60
   2   8  -9   -2.70    1.40
   2   8  -9   -0.30    1.30
  -2  -8   9   -1.20    1.10
  -2  -8   9   -1.10    1.60
  -2  -8   9    1.10    0.80
  -2  -8   9   -0.70    0.80
  -2  -8   9    1.40    1.60
   1   8  -9   -0.60    1.20
   1   8  -9   -1.00    1.20
   1   8  -9   -0.10    1.30
   1   8  -9   -1.00    1.50
   1   8  -9    0.20    1.40
  -1  -8   9    0.00    1.40
  -1  -8   9    0.70    2.30
  -1  -8   9    0.10    0.90
  -1  -8   9   -0.50    0.90
  -1  -8   9   -1.50    1.60
  -1  -8   9    1.50    0.80
   0   8  -9   -1.60    1.40
   0   8  -9    1.30    1.70
   0   8  -9    2.00    1.20
   0  -8   9    2.60    0.90
   0  -8   9    0.40    0.70
   0  -8   9    1.90    2.10
   0  -8   9    1.60    1.10
   0  -8   9    1.00    1.90
   0  -8   9    2.20    1.00
  -1   8  -9   40.90    3.50
  -1   8  -9   41.70    2.30
  -1   8  -9   41.90    3.20
  -1   8  -9   34.80    3.40
   1  -8   9   39.50    2.10
   1  -8   9   37.70    2.90
   1  -8   9   29.60    3.80
   1  -8   9   38.70    1.90
   1  -8   9   36.60    1.90
  -2   8  -9    4.20    2.10
  -2   8  -9    6.80    1.50
  -2   8  -9    8.00    1.80
  -2   8  -9    4.90    1.90
   2  -8   9    8.00    1.40
   2  -8   9    7.60    1.10
   2  -8   9    6.00    1.60
   2  -8   9    6.30    1.00
  -3   8  -9    3.90    1.40
  -3   8  -9    2.60    2.10
  -3   8  -9    4.60    1.80
  -3   8  -9    1.70    1.50
   3  -8   9    2.60    1.00
   3  -8   9    2.00    1.50
   3  -8   9    4.20    1.00
   3  -8   9    5.00    1.40
  -4   8  -9   19.40    2.80
  -4   8  -9   17.80    2.30
  -4   8  -9   23.90    2.90
   4  -8   9   22.00    2.00
   4  -8   9   19.90    2.30
   4  -8   9   17.90    2.20
   5   7  -9    2.60    1.80
   5   7  -9    5.10    2.40
   5   7  -9    5.80    1.80
  -5  -7   9    2.90    3.00
  -5  -7   9    6.60    1.60
   4   7  -9    2.10    1.60
   4   7  -9    2.10    1.60
   4   7  -9    1.20    1.80
   4   7  -9    2.70    1.30
  -4  -7   9    3.60    1.40
  -4  -7   9    2.20    1.20
  -4  -7   9   -0.20    2.10
   3   7  -9   18.40    2.50
   3   7  -9   15.10    1.90
   3   7  -9   15.10    1.90
   3   7  -9   18.00    2.30
  -3  -7   9   14.20    1.60
  -3  -7   9   15.20    1.70
  -3  -7   9   12.70    2.30
  -3  -7   9   17.80    1.90
  -3  -7   9   13.50    1.90
   2   7  -9    4.70    1.30
   2   7  -9    6.00    1.50
   2   7  -9    7.20    1.40
   2   7  -9    6.70    1.70
   2   7  -9    7.50    1.50
  -2  -7   9    5.40    1.00
  -2  -7   9    5.20    1.90
  -2  -7   9    5.00    1.40
  -2  -7   9    5.20    1.20
  -2  -7   9    4.70    1.00
  -2  -7   9    6.00    1.40
   1   7  -9  214.18    6.40
   1   7  -9  209.68    6.20
   1   7  -9  206.28    7.10
   1   7  -9  216.18    6.50
   1   7  -9  211.68    6.00
  -1  -7   9  211.68    7.00
  -1  -7   9  212.08    6.20
  -1  -7   9  215.18    6.10
  -1  -7   9  214.08    6.80
  -1  -7   9  210.08    6.00
  -1  -7   9  206.38    5.80
   0   7  -9    4.80    2.50
   0   7  -9   11.00    2.00
   0   7  -9    7.60    1.40
   0   7  -9    7.80    1.40
   0   7  -9    7.50    1.20
   0  -7   9    7.90    1.90
   0  -7   9    8.90    1.00
   0  -7   9    6.40    1.60
   0  -7   9    6.30    1.10
   0  -7   9    9.40    1.10
   0  -7   9    5.20    1.70
  -1   7  -9   42.90    2.40
  -1   7  -9   48.30    3.30
  -1   7  -9   46.50    2.50
  -1   7  -9   48.70    3.30
  -1   7  -9   43.50    2.90
   1  -7   9   43.30    2.50
   1  -7   9   44.60    3.40
   1  -7   9   44.90    2.10
   1  -7   9   43.80    2.10
   1  -7   9   45.30    3.20
   1  -7   9   47.00    1.90
  -2   7  -9    4.10    1.70
  -2   7  -9    8.40    1.80
  -2   7  -9    8.10    1.40
  -2   7  -9    8.40    1.80
   2  -7   9    8.10    1.90
   2  -7   9    8.70    1.40
   2  -7   9    9.70    1.30
   2  -7   9    6.70    1.10
   2  -7   9    7.20    1.00
  -3   7  -9   -4.30    1.60
  -3   7  -9   -1.20    1.70
  -3   7  -9    1.80    1.50
  -3   7  -9    3.10    1.40
  -3   7  -9    1.10    1.10
   3  -7   9   -0.10    1.10
   3  -7   9    0.20    1.00
   3  -7   9    0.50    1.00
   3  -7   9   -0.30    1.00
   3  -7   9   -2.40    1.80
  -4   7  -9   27.50    3.10
  -4   7  -9   28.20    3.10
  -4   7  -9   25.20    3.40
  -4   7  -9   33.30    2.70
   4  -7   9   37.50    2.60
   4  -7   9   35.10    2.60
   4  -7   9   31.90    3.80
   4  -7   9   28.00    2.70
   4  -7   9   29.60    2.20
  -5   7  -9    9.60    2.50
  -5   7  -9   10.20    2.10
  -5   7  -9    6.80    1.90
   5  -7   9    6.90    1.50
   5  -7   9    8.90    1.60
   5  -7   9    6.10    1.90
   6   6  -9   -0.10    1.70
   6   6  -9   -0.90    2.30
   6   6  -9    3.10    1.90
  -6  -6   9    0.10    1.80
  -6  -6   9    0.20    1.50
  -6  -6   9   -1.50    2.30
   5   6  -9    2.70    1.60
   5   6  -9   -2.10    1.30
   5   6  -9    1.20    1.20
   5   6  -9    0.70    2.00
  -5  -6   9   -0.40    1.30
  -5  -6   9    3.50    1.60
  -5  -6   9   -3.40    2.00
   4   6  -9   21.80    2.20
   4   6  -9   21.70    2.20
   4   6  -9   26.80    2.70
   4   6  -9   29.20    2.90
  -4  -6   9   23.30    2.90
  -4  -6   9   24.70    2.40
  -4  -6   9   22.80    2.20
  -4  -6   9   25.50    3.10
  -4  -6   9   24.70    1.70
   3   6  -9   13.80    1.50
   3   6  -9   11.50    1.70
   3   6  -9   12.90    1.70
   3   6  -9   12.40    1.70
  -3  -6   9    9.50    1.60
  -3  -6   9   15.80    2.00
  -3  -6   9   15.10    1.50
  -3  -6   9   11.40    1.40
  -3  -6   9   13.20    1.40
  -3  -6   9   14.80    1.50
   2   6  -9   16.10    2.10
   2   6  -9   12.50    1.50
   2   6  -9   12.50    1.50
   2   6  -9   12.50    1.50
   2   6  -9   13.30    1.50
  -2  -6   9   13.30    1.60
  -2  -6   9   12.60    1.60
  -2  -6   9   14.00    1.60
  -2  -6   9   12.80    1.50
  -2  -6   9   10.70    1.30
  -2  -6   9   13.10    1.80
   1   6  -9   43.00    2.50
   1   6  -9   41.80    2.30
   1   6  -9   42.10    2.30
   1   6  -9   39.80    2.20
   1   6  -9   42.00    2.90
  -1  -6   9   42.30    2.20
  -1  -6   9   43.80    2.60
  -1  -6   9   40.40    2.80
  -1  -6   9   39.90    2.10
  -1  -6   9   45.10    2.10
  -1  -6   9   43.60    2.40
   0   6  -9   17.30    1.70
   0   6  -9   17.10    1.90
   0   6  -9   14.40    1.70
   0   6  -9   20.50    2.30
   0   6  -9   12.30    1.70
   0   6  -9   15.10    1.60
   0  -6   9   16.60    1.40
   0  -6   9   17.00    1.60
   0  -6   9   13.70    1.50
   0  -6   9   16.00    1.50
  -1   6  -9   34.10    2.00
  -1   6  -9   32.50    2.70
  -1   6  -9   35.40    2.20
  -1   6  -9   37.20    2.60
  -1   6  -9   32.80    2.40
   1  -6   9   33.60    1.50
   1  -6   9   35.00    2.20
   1  -6   9   31.80    1.80
   1  -6   9   30.40    1.80
   1  -6   9   32.40    2.50
  -2   6  -9   24.50    2.70
  -2   6  -9   27.10    2.40
  -2   6  -9   28.40    2.00
  -2   6  -9   25.00    2.70
  -2   6  -9   26.10    2.20
   2  -6   9   27.90    1.80
   2  -6   9   26.40    2.10
   2  -6   9   26.70    2.40
  -3   6  -9   86.99    4.50
  -3   6  -9   87.49    4.10
  -3   6  -9   90.69    3.80
  -3   6  -9   92.29    4.40
  -3   6  -9   95.49    3.50
   3  -6   9   90.19    3.90
   3  -6   9   93.09    3.40
   3  -6   9   94.19    3.40
   3  -6   9   96.59    4.10
   3  -6   9   93.39    3.50
  -4   6  -9   25.10    2.30
  -4   6  -9   26.50    2.80
  -4   6  -9   30.50    3.10
  -4   6  -9   28.00    3.00
   4  -6   9   24.80    3.10
   4  -6   9   22.50    2.40
   4  -6   9   30.00    2.50
   4  -6   9   29.10    2.20
   4  -6   9   25.40    2.10
  -5   6  -9    3.60    1.90
  -5   6  -9    3.30    1.70
  -5   6  -9    3.50    1.70
   5  -6   9    3.00    1.40
   5  -6   9    4.40    1.50
   5  -6   9    2.30    1.70
   5  -6   9    1.80    2.00
   5  -6   9    3.50    1.40
   6   5  -9   -0.80    1.60
   6   5  -9    1.10    1.80
   6   5  -9   -0.90    1.20
  -6  -5   9   -3.10    1.80
  -6  -5   9    1.60    1.70
  -6  -5   9   -1.10    1.40
   5   5  -9   46.60    3.40
   5   5  -9   34.90    3.40
   5   5  -9   49.70    3.20
   5   5  -9   44.00    2.40
  -5  -5   9   35.50    3.30
  -5  -5   9   43.70    3.20
  -5  -5   9   46.00    3.00
  -5  -5   9   45.10    2.90
   4   5  -9    0.30    1.20
   4   5  -9    1.60    1.30
   4   5  -9    0.90    1.30
   4   5  -9    0.50    1.00
  -4  -5   9    2.90    1.40
  -4  -5   9    0.20    1.30
  -4  -5   9   -0.40    1.10
  -4  -5   9    0.20    0.60
   3   5  -9   40.80    2.30
   3   5  -9   42.30    2.60
   3   5  -9   45.00    2.70
   3   5  -9   45.80    2.90
   3   5  -9   42.00    2.30
  -3  -5   9   43.80    2.10
  -3  -5   9   43.50    2.60
  -3  -5   9   39.30    2.40
  -3  -5   9   42.80    2.30
  -3  -5   9   43.10    2.10
  -3  -5   9   42.00    2.60
   2   5  -9   17.80    1.80
   2   5  -9   18.60    1.90
   2   5  -9   12.60    1.60
   2   5  -9   15.00    1.70
   2   5  -9   20.30    2.00
  -2  -5   9   18.30    1.50
  -2  -5   9   21.50    1.90
  -2  -5   9   15.30    1.40
  -2  -5   9   17.90    1.70
  -2  -5   9   14.20    1.90
  -2  -5   9   12.40    1.60
   1   5  -9  148.19    4.60
   1   5  -9  153.48    4.80
   1   5  -9  153.28    4.70
   1   5  -9  153.08    4.50
   1   5  -9  148.29    5.30
  -1  -5   9  154.28    4.90
  -1  -5   9  149.39    4.60
  -1  -5   9  151.28    4.50
  -1  -5   9  156.88    4.70
   0   5  -9   -0.20    0.80
   0   5  -9    0.70    1.00
   0   5  -9   -1.00    0.90
   0   5  -9    0.30    0.80
   0   5  -9   -1.50    0.70
   0   5  -9   -0.60    0.60
   0  -5   9    0.80    0.70
   0  -5   9    0.50    0.70
   0  -5   9    0.30    0.70
   0  -5   9   -0.30    0.70
  -1   5  -9    5.70    1.10
  -1   5  -9    5.40    1.20
  -1   5  -9    4.50    1.10
  -1   5  -9    5.40    1.20
  -1   5  -9    8.40    1.50
   1  -5   9    5.00    0.70
   1  -5   9    4.60    0.90
   1  -5   9    5.70    1.20
   1  -5   9    5.90    0.90
   1  -5   9    6.50    1.10
  -2   5  -9    0.50    1.10
  -2   5  -9    1.60    1.20
  -2   5  -9    1.60    1.10
  -2   5  -9    2.20    1.00
  -2   5  -9    0.50    0.90
   2  -5   9    2.50    0.70
   2  -5   9    0.30    0.90
   2  -5   9    1.90    0.40
   2  -5   9    1.90    0.90
   2  -5   9    0.90    0.80
   2  -5   9    3.20    1.10
  -3   5  -9   58.59    3.20
  -3   5  -9   59.59    2.70
  -3   5  -9   54.69    3.30
  -3   5  -9   53.89    3.20
  -3   5  -9   55.49    3.00
   3  -5   9   56.09    2.30
   3  -5   9   54.59    2.80
   3  -5   9   51.69    3.20
   3  -5   9   54.69    2.80
   3  -5   9   54.49    2.60
  -4   5  -9   11.30    1.80
  -4   5  -9   12.70    2.00
  -4   5  -9   10.90    1.60
  -4   5  -9   11.30    1.90
  -4   5  -9    8.70    2.20
   4  -5   9   10.10    1.50
   4  -5   9    8.70    1.50
   4  -5   9   11.80    1.70
   4  -5   9   13.70    1.60
   4  -5   9   11.00    1.70
  -5   5  -9    3.30    1.50
  -5   5  -9   -0.80    1.50
  -5   5  -9    1.10    1.60
   5  -5   9    0.30    1.20
   5  -5   9   -1.80    1.10
   5  -5   9   -0.70    1.60
   5  -5   9    0.90    1.50
   5  -5   9    0.80    1.20
  -6   5  -9    2.30    1.90
  -6   5  -9    1.00    1.80
  -6   5  -9    1.60    1.90
   6  -5   9    1.60    1.50
   6  -5   9   -0.20    2.10
   6  -5   9    1.90    1.40
   6  -5   9    1.30    1.50
   7   4  -9    0.80    1.40
   7   4  -9   -0.90    2.10
   7   4  -9    1.30    1.50
  -7  -4   9   -2.70    1.60
  -7  -4   9   -0.20    1.90
   6   4  -9   21.10    2.40
   6   4  -9   24.00    2.40
   6   4  -9   22.70    2.50
  -6  -4   9   22.90    2.50
  -6  -4   9   20.60    2.50
  -6  -4   9   23.10    2.70
   5   4  -9   11.90    2.00
   5   4  -9   11.20    2.00
   5   4  -9    9.50    1.40
   5   4  -9   11.70    1.60
  -5  -4   9    9.00    1.70
  -5  -4   9   10.20    1.70
  -5  -4   9    9.30    1.50
  -5  -4   9   10.20    1.50
   4   4  -9  191.48    5.50
   4   4  -9  196.98    6.10
   4   4  -9  190.98    6.10
  -4  -4   9  186.68    6.00
  -4  -4   9  185.58    4.90
  -4  -4   9  198.98    5.90
  -4  -4   9  188.58    6.00
   3   4  -9  315.67    8.60
   3   4  -9  301.37    8.40
   3   4  -9  316.67    8.20
  -3  -4   9  317.57    8.40
  -3  -4   9  296.47    8.50
  -3  -4   9  310.07    8.20
  -3  -4   9  306.77    8.40
  -3  -4   9  303.17    8.20
   2   4  -9   34.60    2.10
   2   4  -9   34.20    2.10
   2   4  -9   33.70    1.70
   2   4  -9   34.00    2.00
  -2  -4   9   35.10    1.80
  -2  -4   9   33.90    1.90
  -2  -4   9   34.50    2.00
  -2  -4   9   31.80    2.00
  -2  -4   9   35.60    2.00
   1   4  -9   82.49    2.90
   1   4  -9   86.89    3.10
   1   4  -9   84.59    2.70
   1   4  -9   79.79    3.10
   1   4  -9   83.39    3.20
  -1  -4   9   88.09    3.20
  -1  -4   9   84.89    3.10
  -1  -4   9   86.39    3.00
  -1  -4   9   83.79    3.00
   0   4  -9    3.90    0.90
   0   4  -9    2.80    0.90
   0   4  -9    4.70    1.00
   0   4  -9    3.30    0.90
   0  -4   9    3.50    0.90
   0  -4   9    3.20    0.80
   0  -4   9    2.50    0.70
   0  -4   9    4.70    1.00
  -1   4  -9   82.99    3.20
  -1   4  -9   77.29    3.10
  -1   4  -9   88.49    3.10
  -1   4  -9   79.29    3.40
   1  -4   9   79.59    2.50
   1  -4   9   84.29    3.20
   1  -4   9   78.89    3.00
   1  -4   9   84.29    3.00
  -2   4  -9  201.68    6.30
  -2   4  -9  207.38    5.90
  -2   4  -9  201.08    6.20
  -2   4  -9  210.78    6.10
   2  -4   9  211.58    6.00
   2  -4   9  192.08    5.00
   2  -4   9  191.68    5.10
   2  -4   9  200.78    6.00
   2  -4   9  203.98    5.90
   2  -4   9  205.28    5.80
  -3   4  -9  103.59    4.20
  -3   4  -9  105.09    4.10
  -3   4  -9  101.19    4.00
  -3   4  -9  100.29    3.80
   3  -4   9  104.99    4.00
   3  -4   9  103.89    3.80
   3  -4   9  103.09    3.10
   3  -4   9  105.79    3.90
   3  -4   9  104.39    3.60
  -4   4  -9    5.70    1.40
  -4   4  -9    5.40    1.80
  -4   4  -9    4.70    1.40
  -4   4  -9    2.60    1.50
   4  -4   9    4.90    0.90
   4  -4   9    3.20    1.10
   4  -4   9    4.80    1.40
   4  -4   9    2.50    1.20
   4  -4   9    4.00    1.30
  -5   4  -9   19.00    2.10
  -5   4  -9   17.60    2.40
   5  -4   9   14.10    1.90
   5  -4   9   18.60    2.20
   5  -4   9   16.80    2.10
  -6   4  -9    2.70    1.70
  -6   4  -9    2.70    1.90
   6  -4   9    3.20    1.50
   6  -4   9    7.00    2.40
   6  -4   9    5.20    1.60
   7   3  -9    0.90    1.20
   7   3  -9    0.50    1.50
   7   3  -9    0.20    1.80
  -7  -3   9    2.40    1.60
  -7  -3   9   -1.00    1.90
   6   3  -9    0.30    1.70
   6   3  -9   -1.60    1.20
   6   3  -9   -1.00    1.40
  -6  -3   9   -0.40    1.30
  -6  -3   9    0.30    1.60
  -6  -3   9    1.60    1.20
   5   3  -9  292.57    7.90
   5   3  -9  289.57    8.50
   5   3  -9  299.07    8.60
  -5  -3   9  297.87    8.40
  -5  -3   9  275.17    8.50
  -5  -3   9  276.17    8.20
  -5  -3   9  287.07    7.70
   4   3  -9   11.10    1.60
   4   3  -9    9.30    1.40
   4   3  -9   11.00    1.30
  -4  -3   9   10.90    0.90
  -4  -3   9   11.10    1.60
  -4  -3   9    8.60    1.30
  -4  -3   9    9.80    1.40
  -4  -3   9   10.60    1.10
   3   3  -9  124.09    4.00
   3   3  -9  130.89    4.30
   3   3  -9  126.79    4.30
  -3  -3   9  125.69    4.30
  -3  -3   9  119.89    4.10
  -3  -3   9  122.89    3.70
  -3  -3   9  123.99    4.20
   2   3  -9    6.00    1.00
   2   3  -9    3.00    0.90
   2   3  -9    6.30    1.10
  -2  -3   9    5.40    1.00
  -2  -3   9    5.30    1.00
  -2  -3   9    4.70    1.10
  -2  -3   9    5.00    0.90
   1   3  -9   87.59    3.00
   1   3  -9   86.09    2.50
   1   3  -9   87.79    2.80
   1   3  -9   89.29    3.20
   1   3  -9   81.89    3.20
   1   3  -9   89.79    3.20
  -1  -3   9   87.09    3.10
  -1  -3   9   87.59    3.10
  -1  -3   9   87.49    3.20
  -1  -3   9   87.89    3.00
   0   3  -9  175.38    5.20
   0   3  -9  175.48    5.00
   0   3  -9  175.18    5.10
   0   3  -9  173.58    5.30
   0   3  -9  178.08    4.90
   0  -3   9  167.48    5.20
   0  -3   9  177.48    5.20
   0  -3   9  174.28    5.10
   0  -3   9  173.28    4.80
  -1   3  -9    0.10    0.90
  -1   3  -9    0.40    0.60
  -1   3  -9    0.80    0.70
  -1   3  -9    0.90    0.80
  -1   3  -9    0.30    0.60
   1  -3   9    0.80    0.80
   1  -3   9   -0.40    0.70
   1  -3   9    0.70    0.70
   1  -3   9    0.20    0.50
  -2   3  -9    7.20    1.30
  -2   3  -9    9.70    1.00
  -2   3  -9    9.20    1.30
  -2   3  -9   10.00    1.50
   2  -3   9    7.00    1.10
   2  -3   9   11.80    1.40
   2  -3   9    9.50    0.90
   2  -3   9    9.60    1.30
   2  -3   9   11.20    1.10
  -3   3  -9  376.46    9.60
  -3   3  -9  326.07    9.60
  -3   3  -9  357.06    8.60
  -3   3  -9  342.07    9.80
   3  -3   9  352.16    9.50
   3  -3   9  351.56    8.50
   3  -3   9  361.26    9.60
   3  -3   9  358.76    8.90
   3  -3   9  344.97    9.60
  -4   3  -9    0.40    1.10
  -4   3  -9   -0.20    0.60
  -4   3  -9    0.60    1.40
  -4   3  -9    0.40    1.20
   4  -3   9    0.70    1.00
   4  -3   9    1.10    0.90
   4  -3   9    1.10    1.30
   4  -3   9   -0.30    1.00
  -5   3  -9   78.19    3.70
  -5   3  -9   71.09    2.30
   5  -3   9   70.89    3.40
   5  -3   9   65.69    3.90
   5  -3   9   68.49    3.40
  -6   3  -9    3.20    1.60
  -6   3  -9    4.00    1.90
  -6   3  -9    2.00    0.80
   6  -3   9    0.60    1.60
   6  -3   9    5.60    2.50
   6  -3   9    3.00    1.70
   8   2  -9    8.60    2.10
   8   2  -9   10.90    1.80
   8   2  -9    9.10    2.50
  -8  -2   9    6.30    2.10
   7   2  -9   10.00    2.20
   7   2  -9   12.10    2.00
  -7  -2   9   11.80    2.00
  -7  -2   9   10.10    2.00
   6   2  -9   50.19    3.40
   6   2  -9   55.19    3.40
   6   2  -9   52.99    2.90
  -6  -2   9   52.69    3.30
  -6  -2   9   48.30    3.20
  -6  -2   9   50.69    3.20
   5   2  -9   36.50    2.40
   5   2  -9   39.10    2.80
   5   2  -9   34.00    2.70
  -5  -2   9   35.50    2.50
  -5  -2   9   40.50    2.70
  -5  -2   9   42.20    2.70
  -5  -2   9   38.10    1.80
   4   2  -9    3.20    1.20
   4   2  -9    1.10    0.90
   4   2  -9    1.00    1.00
  -4  -2   9    2.20    0.60
  -4  -2   9    2.40    1.00
  -4  -2   9    4.40    1.10
  -4  -2   9    1.80    1.00
   3   2  -9   30.70    2.00
   3   2  -9   30.30    2.10
   3   2  -9   28.90    1.80
   3   2  -9   32.90    2.10
  -3  -2   9   34.10    2.00
  -3  -2   9   29.90    2.00
  -3  -2   9   31.90    2.00
   2   2  -9   16.20    1.50
   2   2  -9    9.40    1.20
   2   2  -9   14.60    1.50
   2   2  -9   14.90    1.30
  -2  -2   9   12.80    1.40
  -2  -2   9   12.60    1.30
  -2  -2   9   13.90    1.40
  -2  -2   9   12.20    1.30
   1   2  -9   20.80    1.60
   1   2  -9   17.60    1.40
   1   2  -9   18.70    1.10
   1   2  -9   17.20    1.30
   1   2  -9   18.70    0.80
   1   2  -9   17.80    1.60
  -1  -2   9   19.80    1.50
  -1  -2   9   19.40    1.40
  -1  -2   9   17.60    1.50
  -1  -2   9   17.20    1.40
   0   2  -9   32.50    1.70
   0   2  -9   36.30    2.00
   0   2  -9   34.10    1.60
   0   2  -9   33.10    2.00
   0   2  -9   33.80    1.90
   0  -2   9   34.70    1.70
   0  -2   9   39.60    2.00
   0  -2   9   35.80    1.80
   0  -2   9   31.30    1.80
  -1   2  -9  113.49    4.00
  -1   2  -9  116.59    3.50
  -1   2  -9  116.89    3.80
  -1   2  -9  116.39    4.00
   1  -2   9  111.49    3.40
   1  -2   9  106.99    4.20
   1  -2   9  117.19    3.90
   1  -2   9  116.29    3.80
  -2   2  -9   74.79    2.50
  -2   2  -9   70.89    3.10
  -2   2  -9   70.59    2.90
  -2   2  -9   68.09    3.10
   2  -2   9   67.79    2.40
   2  -2   9   71.19    2.40
   2  -2   9   76.59    3.00
   2  -2   9   71.89    3.00
   2  -2   9   73.19    3.10
  -3   2  -9  120.69    3.50
  -3   2  -9  117.69    4.40
  -3   2  -9  123.19    4.30
   3  -2   9  118.19    4.20
   3  -2   9  119.29    3.40
   3  -2   9  114.59    4.20
   3  -2   9  110.59    4.30
  -4   2  -9  156.68    4.40
  -4   2  -9  146.99    5.50
  -4   2  -9  154.28    5.30
  -4   2  -9  148.19    5.50
   4  -2   9  153.78    5.50
   4  -2   9  162.28    5.40
  -5   2  -9    4.10    1.90
  -5   2  -9    7.10    1.10
  -5   2  -9    3.50    1.90
   5  -2   9    5.50    1.50
   5  -2   9    4.20    1.40
   5  -2   9    6.70    1.90
  -6   2  -9   29.40    2.20
  -6   2  -9   28.70    2.90
   6  -2   9   33.80    3.10
   6  -2   9   31.30    3.00
   8   1  -9   11.20    2.20
   8   1  -9   11.80    2.50
  -8  -1   9   10.90    2.40
   7   1  -9    2.60    2.10
   7   1  -9   -1.20    1.50
   7   1  -9    1.00    1.60
  -7  -1   9   -0.90    1.80
  -7  -1   9    0.40    1.60
   6   1  -9   25.40    2.50
   6   1  -9   29.50    2.50
   6   1  -9   26.40    2.90
  -6  -1   9   27.70    2.60
  -6  -1   9   24.40    2.70
  -6  -1   9   20.90    2.30
   5   1  -9  343.87    9.70
   5   1  -9  332.97    9.50
   5   1  -9  342.87    9.30
   5   1  -9  354.76    9.70
  -5  -1   9  329.17    8.20
  -5  -1   9  355.96    9.60
  -5  -1   9  347.97    9.50
  -5  -1   9  344.07    8.30
  -5  -1   9  365.76    9.90
   4   1  -9  169.08    5.40
   4   1  -9  165.68    5.30
   4   1  -9  163.38    5.10
   4   1  -9  167.18    5.10
  -4  -1   9  167.68    5.40
  -4  -1   9  148.89    5.00
  -4  -1   9  162.18    5.20
   3   1  -9   28.50    2.10
   3   1  -9   25.20    1.70
   3   1  -9   30.70    2.00
   3   1  -9   30.30    2.00
  -3  -1   9   31.00    2.10
  -3  -1   9   32.60    2.00
  -3  -1   9   31.00    2.00
   2   1  -9   66.69    2.70
   2   1  -9   67.29    2.60
   2   1  -9   73.09    2.80
   2   1  -9   61.09    2.70
  -2  -1   9   62.49    2.70
  -2  -1   9   64.49    2.70
  -2  -1   9   68.19    2.70
  -2  -1   9   71.39    2.70
   1   1  -9    5.30    0.90
   1   1  -9    7.10    0.70
   1   1  -9    6.00    0.90
   1   1  -9    5.40    1.00
   1   1  -9    6.50    1.00
  -1  -1   9    5.40    1.00
  -1  -1   9    5.30    0.90
  -1  -1   9    7.10    1.00
  -1  -1   9    5.80    1.00
   0   1  -9   99.69    3.20
   0   1  -9   92.79    3.40
   0   1  -9   96.89    3.50
   0   1  -9   99.29    3.40
   0  -1   9   97.99    3.40
   0  -1   9   94.39    3.20
   0  -1   9   94.89    3.30
   0  -1   9   95.89    3.40
  -1   1  -9   51.19    2.50
  -1   1  -9   50.29    2.30
  -1   1  -9   53.79    2.20
  -1   1  -9   55.29    2.60
   1  -1   9   53.59    2.50
   1  -1   9   53.79    2.30
   1  -1   9   52.19    2.20
   1  -1   9   54.29    2.50
  -2   1  -9   83.09    3.20
  -2   1  -9   87.39    3.60
  -2   1  -9   80.89    3.30
  -2   1  -9   79.49    2.90
   2  -1   9   83.59    3.30
   2  -1   9   79.29    3.20
   2  -1   9   85.39    2.90
   2  -1   9   83.09    3.30
  -3   1  -9  315.57    8.90
  -3   1  -9  321.97    8.30
  -3   1  -9  321.57    8.90
  -3   1  -9  327.67    9.20
   3  -1   9  318.57    9.00
   3  -1   9  321.77    9.10
   3  -1   9  312.87    7.70
   3  -1   9  324.87    8.80
   3  -1   9  312.47    7.60
  -4   1  -9    2.70    1.40
  -4   1  -9    2.70    1.00
  -4   1  -9    2.00    1.50
  -4   1  -9    2.60    1.30
   4  -1   9    0.90    1.20
   4  -1   9    2.60    1.20
   4  -1   9    1.40    1.50
  -5   1  -9    0.60    1.70
  -5   1  -9    2.00    1.50
  -5   1  -9    4.40    1.20
   5  -1   9    4.40    1.80
   5  -1   9    5.00    1.40
   5  -1   9    4.40    1.50
  -6   1  -9    0.10    1.90
  -6   1  -9   -0.90    1.40
   6  -1   9   -0.20    1.70
   6  -1   9    1.10    1.50
   8   0  -9   12.40    2.20
  -8   0   9    7.20    2.30
   7   0  -9    1.30    1.70
   7   0  -9    1.70    1.60
   7   0  -9    2.80    2.00
  -7   0   9    1.40    1.80
  -7   0   9    1.90    1.70
  -7   0   9    5.20    1.80
   6   0  -9   62.39    3.20
   6   0  -9   62.49    3.70
   6   0  -9   61.39    3.30
  -6   0   9   62.69    3.40
  -6   0   9   64.89    3.40
  -6   0   9   66.59    3.60
   5   0  -9   95.99    4.00
   5   0  -9  101.19    3.90
   5   0  -9  106.09    4.10
   5   0  -9  100.09    3.90
  -5   0   9   97.89    3.80
  -5   0   9  100.79    3.00
  -5   0   9  102.19    4.00
  -5   0   9   96.39    4.10
   4   0  -9   25.70    2.00
   4   0  -9   30.80    2.20
   4   0  -9   26.20    1.90
   4   0  -9   28.90    2.10
  -4   0   9   30.00    2.20
  -4   0   9   29.50    2.20
  -4   0   9   25.20    2.00
  -4   0   9   28.50    1.50
   3   0  -9  263.47    7.50
   3   0  -9  268.87    7.60
   3   0  -9  269.27    7.50
   3   0  -9  284.17    7.60
  -3   0   9  251.47    7.30
  -3   0   9  275.57    7.50
  -3   0   9  280.37    7.80
   2   0  -9   87.29    3.20
   2   0  -9   87.59    3.30
   2   0  -9   88.29    3.30
   2   0  -9   95.19    3.40
  -2   0   9   92.69    3.30
  -2   0   9   89.29    3.20
  -2   0   9   85.69    3.30
   1   0  -9    3.60    0.80
   1   0  -9    4.60    0.50
   1   0  -9    4.50    0.90
   1   0  -9    3.10    0.90
   1   0  -9    4.40    1.00
  -1   0   9    4.10    0.80
  -1   0   9    5.30    1.00
  -1   0   9    4.60    0.90
  -1   0   9    5.40    1.00
   0   0  -9   20.80    1.50
   0   0  -9   15.80    1.60
   0   0  -9   17.60    1.50
   0   0  -9   16.30    1.70
   0   0   9   16.00    1.50
   0   0   9   16.70    1.70
   0   0   9   17.50    1.60
   0   0   9   16.30    1.50
  -1   0  -9   53.39    2.70
  -1   0  -9   53.19    2.50
  -1   0  -9   54.99    2.40
  -1   0  -9   54.69    2.50
   1   0   9   56.09    2.60
   1   0   9   57.39    2.70
   1   0   9   55.79    2.50
   1   0   9   53.89    2.40
  -2   0  -9  631.44   16.00
  -2   0  -9  640.94   15.70
  -2   0  -9  622.34   15.40
  -2   0  -9  623.44   15.60
   2   0   9  619.04   15.60
   2   0   9  614.24   15.80
   2   0   9  613.54   15.80
  -3   0  -9   24.00    2.10
  -3   0  -9   23.00    1.90
  -3   0  -9   22.70    2.40
  -3   0  -9   20.50    2.20
   3   0   9   20.30    1.10
   3   0   9   19.10    2.40
   3   0   9   21.80    2.10
   3   0   9   21.40    2.20
  -4   0  -9  165.18    5.10
  -4   0  -9  154.18    5.40
  -4   0  -9  159.48    5.60
  -4   0  -9  165.28    6.20
   4   0   9  159.08    5.70
   4   0   9  170.28    4.60
   4   0   9  165.88    5.40
   4   0   9  159.88    6.10
  -5   0  -9   36.80    2.70
  -5   0  -9   28.80    2.80
  -5   0  -9   28.80    3.20
   5   0   9   36.10    2.90
   5   0   9   31.80    3.10
   8  -1  -9    3.50    2.50
   8  -1  -9    7.20    1.90
  -8   1   9    9.70    1.40
  -8   1   9    5.40    2.20
   7  -1  -9    0.70    1.80
   7  -1  -9    3.30    1.30
   7  -1  -9    2.60    1.40
   7  -1  -9    5.90    2.10
  -7   1   9    3.80    2.40
  -7   1   9    0.50    1.90
  -7   1   9    3.70    0.90
   6  -1  -9   45.60    3.20
   6  -1  -9   36.60    3.00
   6  -1  -9   45.40    2.90
   6  -1  -9   45.90    2.70
  -6   1   9   44.30    2.00
  -6   1   9   48.20    3.30
  -6   1   9   43.20    3.00
  -6   1   9   43.40    3.00
   5  -1  -9   25.30    2.00
   5  -1  -9   23.00    2.30
   5  -1  -9   24.70    2.40
   5  -1  -9   25.90    2.10
  -5   1   9   28.00    2.40
  -5   1   9   20.80    2.40
  -5   1   9   23.10    2.20
  -5   1   9   22.50    1.50
   4  -1  -9   22.50    1.90
   4  -1  -9   20.40    2.10
   4  -1  -9   21.60    1.90
   4  -1  -9   22.80    2.20
  -4   1   9   19.30    1.80
  -4   1   9   22.30    1.50
  -4   1   9   21.70    2.10
  -4   1   9   24.10    2.20
   3  -1  -9   41.40    2.10
   3  -1  -9   44.60    2.50
   3  -1  -9   46.30    2.50
   3  -1  -9   40.30    2.10
  -3   1   9   45.40    2.40
  -3   1   9   45.20    2.30
  -3   1   9   46.00    2.50
   2  -1  -9  198.48    5.90
   2  -1  -9  197.58    5.90
   2  -1  -9  201.18    5.90
   2  -1  -9  208.48    6.00
   2  -1  -9  199.78    5.30
  -2   1   9  198.28    5.90
  -2   1   9  194.48    5.80
  -2   1   9  203.98    6.10
   1  -1  -9    2.60    1.00
   1  -1  -9    2.70    0.60
   1  -1  -9    2.70    0.90
   1  -1  -9    1.00    0.80
   1  -1  -9    1.40    1.00
  -1   1   9    2.50    1.00
  -1   1   9    1.80    0.80
  -1   1   9    0.60    0.80
   0  -1  -9   21.90    1.90
   0  -1  -9   20.20    1.60
   0  -1  -9   20.50    1.60
   0  -1  -9   19.90    1.70
   0   1   9   19.80    1.70
   0   1   9   21.70    1.80
   0   1   9   21.90    1.90
   0   1   9   19.30    1.70
  -1  -1  -9  225.68    6.50
  -1  -1  -9  207.48    6.10
  -1  -1  -9  210.18    6.20
  -1  -1  -9  216.38    6.20
   1   1   9  212.38    6.10
   1   1   9  202.48    6.30
   1   1   9  210.38    6.30
   1   1   9  203.48    6.20
  -2  -1  -9    0.90    0.90
  -2  -1  -9    2.50    1.00
  -2  -1  -9   -0.60    1.10
  -2  -1  -9    0.10    0.90
   2   1   9    1.00    1.10
   2   1   9    2.10    0.90
   2   1   9   -0.10    0.50
   2   1   9    0.20    1.10
  -3  -1  -9    7.20    1.40
  -3  -1  -9    5.90    1.30
  -3  -1  -9    3.00    1.70
  -3  -1  -9    4.30    1.20
   3   1   9    5.80    0.90
   3   1   9    9.20    1.90
   3   1   9    8.00    1.70
   3   1   9    6.50    1.30
  -4  -1  -9   13.40    2.40
  -4  -1  -9   15.60    1.80
  -4  -1  -9   11.80    1.70
  -4  -1  -9   16.90    2.00
   4   1   9   17.10    1.90
   4   1   9   15.40    1.60
   4   1   9   14.10    2.10
  -5  -1  -9    2.90    1.50
  -5  -1  -9    1.80    1.80
  -5  -1  -9    0.30    1.40
   5   1   9   -0.50    1.10
   5   1   9   -1.00    1.80
   5   1   9    1.20    1.60
   8  -2  -9    5.00    1.90
   8  -2  -9    7.80    2.50
  -8   2   9    6.50    1.40
  -8   2   9    6.30    2.50
   7  -2  -9   36.90    2.90
   7  -2  -9   35.50    3.40
   7  -2  -9   38.90    2.90
  -7   2   9   39.20    3.60
  -7   2   9   34.20    1.70
   6  -2  -9    2.50    1.20
   6  -2  -9    3.70    1.60
   6  -2  -9    2.10    1.30
   6  -2  -9    2.90    1.50
  -6   2   9    2.80    1.70
  -6   2   9    3.90    1.00
  -6   2   9    0.90    1.70
  -6   2   9    2.20    1.50
   5  -2  -9   28.40    2.30
   5  -2  -9   28.60    2.60
   5  -2  -9   31.30    2.50
  -5   2   9   25.50    2.80
  -5   2   9   27.10    2.30
  -5   2   9   30.70    2.70
  -5   2   9   29.90    1.90
   4  -2  -9   18.40    2.00
   4  -2  -9   20.80    1.80
   4  -2  -9   18.60    2.20
   4  -2  -9   15.80    1.80
  -4   2   9   19.30    2.20
  -4   2   9   17.20    1.90
  -4   2   9   17.60    2.10
  -4   2   9   18.70    1.70
   3  -2  -9  194.88    6.00
   3  -2  -9  193.98    6.00
   3  -2  -9  203.08    6.00
   3  -2  -9  210.48    6.10
  -3   2   9  200.48    6.20
  -3   2   9  199.68    5.90
  -3   2   9  193.98    6.10
  -3   2   9  198.68    5.90
   2  -2  -9   58.29    1.90
   2  -2  -9   59.39    2.70
   2  -2  -9   61.19    2.70
   2  -2  -9   55.19    3.30
   2  -2  -9   59.69    2.30
   2  -2  -9   60.19    2.70
  -2   2   9   55.59    2.60
  -2   2   9   56.99    2.80
  -2   2   9   55.99    2.80
   1  -2  -9   -0.70    0.60
   1  -2  -9   -0.40    0.70
   1  -2  -9   -0.10    1.00
   1  -2  -9    0.00    0.80
   1  -2  -9   -0.10    0.60
  -1   2   9    0.60    0.90
  -1   2   9    1.10    1.10
  -1   2   9   -0.30    0.90
   0  -2  -9   10.70    1.30
   0  -2  -9   10.30    1.40
   0  -2  -9   11.30    1.30
   0  -2  -9   10.30    1.30
   0   2   9   14.20    1.80
   0   2   9    9.10    1.40
   0   2   9   14.90    1.80
  -1  -2  -9  245.28    7.30
  -1  -2  -9  242.28    6.90
  -1  -2  -9  245.98    7.10
  -1  -2  -9  241.68    7.10
   1   2   9  240.48    7.10
   1   2   9  247.38    7.10
   1   2   9  259.37    7.40
   1   2   9  244.08    7.20
   1   2   9  242.48    6.10
  -2  -2  -9   30.40    2.30
  -2  -2  -9   25.20    2.00
  -2  -2  -9   27.30    2.70
  -2  -2  -9   30.50    2.30
   2   2   9   29.70    2.60
   2   2   9   28.80    1.60
   2   2   9   31.50    2.40
  -3  -2  -9    5.80    1.50
  -3  -2  -9    7.10    1.90
  -3  -2  -9    7.50    1.30
  -3  -2  -9    5.80    1.40
   3   2   9   10.40    1.40
   3   2   9    9.30    2.00
   3   2   9    5.90    1.40
  -4  -2  -9    0.70    1.40
  -4  -2  -9    3.30    1.50
  -4  -2  -9    0.90    2.10
  -4  -2  -9    1.20    1.40
   4   2   9    0.10    1.00
   4   2   9    2.10    1.70
   4   2   9    1.10    1.50
   7  -3  -9    3.10    1.40
   7  -3  -9   -0.20    1.40
   7  -3  -9    1.70    1.80
  -7   3   9    1.70    2.00
   6  -3  -9   26.70    2.40
   6  -3  -9   30.70    2.90
   6  -3  -9   25.20    2.40
  -6   3   9   27.10    2.30
  -6   3   9   28.30    3.10
  -6   3   9   21.30    2.50
   5  -3  -9   47.40    3.30
   5  -3  -9   49.40    2.80
   5  -3  -9   41.70    2.80
   5  -3  -9   48.00    3.00
  -5   3   9   39.60    2.70
  -5   3   9   45.90    3.10
  -5   3   9   46.30    2.60
  -5   3   9   43.60    3.10
   4  -3  -9    2.60    1.80
   4  -3  -9    5.20    1.50
   4  -3  -9    2.10    1.30
  -4   3   9    2.80    1.20
  -4   3   9    4.20    1.40
  -4   3   9    1.20    1.00
  -4   3   9    0.70    1.40
   3  -3  -9   86.59    4.20
   3  -3  -9   92.79    3.90
   3  -3  -9   93.49    3.70
   3  -3  -9   98.79    3.60
   3  -3  -9  100.39    3.60
  -3   3   9   89.89    3.60
  -3   3   9   94.59    3.90
  -3   3   9   91.69    3.80
  -3   3   9   94.79    3.80
   2  -3  -9    3.50    0.70
   2  -3  -9    3.30    1.10
   2  -3  -9    3.20    1.20
   2  -3  -9    2.30    0.90
   2  -3  -9    2.50    1.20
   2  -3  -9    5.10    1.00
  -2   3   9    6.10    1.30
  -2   3   9    2.00    1.10
  -2   3   9    4.20    1.20
   1  -3  -9   40.00    2.20
   1  -3  -9   33.30    2.40
   1  -3  -9   40.70    2.40
   1  -3  -9   34.50    2.30
   1  -3  -9   37.10    2.10
  -1   3   9   37.70    2.50
  -1   3   9   38.00    2.10
  -1   3   9   41.80    2.60
  -1   3   9   41.70    2.70
   0  -3  -9   94.19    3.80
   0  -3  -9   93.99    3.90
   0  -3  -9   95.19    3.60
   0   3   9   91.49    3.10
   0   3   9   92.99    3.90
   0   3   9   89.99    3.70
   0   3   9   93.19    3.80
  -1  -3  -9   18.10    2.00
  -1  -3  -9   17.70    1.70
  -1  -3  -9   16.10    2.00
  -1  -3  -9   21.20    2.50
   1   3   9   19.10    2.40
   1   3   9   14.60    1.20
   1   3   9   19.60    2.40
  -2  -3  -9    3.40    1.30
  -2  -3  -9    2.20    1.60
  -2  -3  -9    2.90    1.30
  -2  -3  -9    4.60    1.20
   2   3   9    2.80    1.50
  -3  -3  -9    3.20    1.30
  -3  -3  -9    3.60    2.00
  -3  -3  -9    2.80    1.50
  -3  -3  -9    5.90    1.60
   3   3   9    6.80    1.60
   3   3   9    4.40    1.20
   3   3   9    5.80    2.00
   7  -4  -9  102.39    5.00
   7  -4  -9   88.59    4.30
   7  -4  -9   86.69    4.40
  -7   4   9  100.69    5.20
   6  -4  -9    0.50    1.40
   6  -4  -9    4.50    1.70
   6  -4  -9    2.50    1.70
  -6   4   9    2.20    1.40
  -6   4   9    1.30    1.90
   5  -4  -9    5.40    1.60
   5  -4  -9    5.50    1.60
   5  -4  -9    4.70    1.40
   5  -4  -9    5.50    1.80
  -5   4   9    4.00    1.70
  -5   4   9    2.70    1.30
  -5   4   9    6.50    1.90
  -5   4   9    4.80    1.50
   4  -4  -9   -2.00    1.50
   4  -4  -9   -0.40    1.20
   4  -4  -9    0.30    1.10
   4  -4  -9    0.80    1.40
   4  -4  -9    2.50    1.10
  -4   4   9    0.30    1.10
  -4   4   9   -0.80    1.60
  -4   4   9    0.90    1.40
  -4   4   9    0.90    1.30
   3  -4  -9   19.60    2.10
   3  -4  -9   18.20    2.00
   3  -4  -9   21.70    2.50
   3  -4  -9   18.70    1.90
   3  -4  -9   20.50    2.40
   3  -4  -9   16.80    1.50
  -3   4   9   13.50    1.90
  -3   4   9   20.20    2.20
  -3   4   9   19.80    2.10
  -3   4   9   19.50    2.10
  -3   4   9   18.70    2.30
   2  -4  -9   26.40    2.30
   2  -4  -9   26.30    2.40
   2  -4  -9   28.70    2.20
   2  -4  -9   26.20    1.80
   2  -4  -9   23.40    2.00
   2  -4  -9   24.00    2.50
  -2   4   9   21.70    2.60
  -2   4   9   23.00    2.50
  -2   4   9   27.00    2.50
  -2   4   9   27.20    2.30
  -2   4   9   25.20    2.20
   1  -4  -9   24.40    2.80
   1  -4  -9   19.90    2.00
   1  -4  -9   22.00    2.00
   1  -4  -9   20.60    2.20
   1  -4  -9   24.30    2.20
   1  -4  -9   19.00    1.80
  -1   4   9   23.30    2.30
  -1   4   9   23.30    2.40
  -1   4   9   15.20    2.00
  -1   4   9   21.40    1.90
  -1   4   9   20.90    2.30
   0  -4  -9    1.20    1.30
   0  -4  -9    1.40    1.00
   0  -4  -9    2.10    1.20
   0  -4  -9    1.00    1.00
   0   4   9    0.80    1.50
   0   4   9    1.30    1.00
   0   4   9    2.00    1.40
  -1  -4  -9   47.30    2.80
  -1  -4  -9   53.09    3.10
  -1  -4  -9   60.89    3.60
  -1  -4  -9   48.00    2.70
   1   4   9   49.70    2.10
   1   4   9   56.39    3.40
  -2  -4  -9    2.80    1.40
  -2  -4  -9    2.90    2.00
  -2  -4  -9    1.40    1.30
  -2  -4  -9    2.60    1.50
   2   4   9    3.90    1.90
   2   4   9    4.60    1.30
   6  -5  -9    0.90    1.50
   6  -5  -9    2.70    1.70
   6  -5  -9    2.70    1.50
  -6   5   9    5.80    1.90
  -6   5   9    1.90    1.80
  -6   5   9    2.50    2.40
   5  -5  -9   25.80    2.60
   5  -5  -9   32.70    3.60
   5  -5  -9   31.00    3.10
   5  -5  -9   26.60    2.70
  -5   5   9   24.00    2.90
  -5   5   9   24.70    2.60
  -5   5   9   22.50    2.50
   4  -5  -9    2.50    1.50
   4  -5  -9    0.20    1.10
   4  -5  -9    1.20    1.20
   4  -5  -9   -1.00    1.80
  -4   5   9   -0.40    1.70
  -4   5   9    0.70    1.40
  -4   5   9    1.10    1.50
   3  -5  -9   81.49    3.70
   3  -5  -9   75.39    3.80
   3  -5  -9   77.59    4.00
   3  -5  -9   82.69    3.60
   3  -5  -9   85.19    3.20
   3  -5  -9   77.89    4.00
  -3   5   9   82.59    4.10
  -3   5   9   81.29    3.80
  -3   5   9   80.69    4.10
  -3   5   9   74.09    3.80
   2  -5  -9   18.00    2.00
   2  -5  -9   20.70    2.70
   2  -5  -9   17.50    2.00
   2  -5  -9   17.70    2.10
   2  -5  -9   14.80    2.00
   2  -5  -9   13.40    1.80
  -2   5   9   17.40    2.00
  -2   5   9   14.60    2.00
  -2   5   9   15.30    2.10
  -2   5   9   18.80    2.10
   1  -5  -9   20.00    2.30
   1  -5  -9   22.60    2.90
   1  -5  -9   18.60    2.40
   1  -5  -9   24.30    2.70
   1  -5  -9   16.90    2.00
   1  -5  -9   24.10    2.50
  -1   5   9   17.80    2.10
  -1   5   9   18.20    2.30
  -1   5   9   23.90    2.70
   0  -5  -9   44.20    3.40
   0  -5  -9   45.70    3.20
   0  -5  -9   45.50    2.60
   0  -5  -9   45.30    2.90
   0   5   9   41.50    2.50
   0   5   9   41.50    3.40
   0   5   9   44.50    3.40
  -1  -5  -9   48.90    3.00
  -1  -5  -9   50.99    3.90
  -1  -5  -9   49.30    3.10
  -1  -5  -9   46.90    3.40
   1   5   9   55.59    3.70
   1   5   9   51.49    3.80
   4  -6  -9   32.70    3.20
   4  -6  -9   36.00    2.90
   4  -6  -9   41.30    3.20
  -4   6   9   44.30    3.70
  -4   6   9   41.20    4.10
  -4   6   9   43.60    3.50
   3  -6  -9   44.10    3.00
   3  -6  -9   33.30    3.10
   3  -6  -9   38.90    4.10
   3  -6  -9   39.10    2.80
   3  -6  -9   39.50    2.90
  -3   6   9   38.90    3.60
  -3   6   9   40.30    3.60
  -3   6   9   45.50    3.40
   2  -6  -9    5.10    1.60
   2  -6  -9    7.80    1.90
   2  -6  -9    8.90    2.00
   2  -6  -9    9.80    2.20
   2  -6  -9    5.60    1.40
   2  -6  -9    8.20    1.70
  -2   6   9    6.00    2.10
  -2   6   9   10.60    2.30
  -2   6   9    6.40    1.90
   1  -6  -9    0.10    1.50
   1  -6  -9    1.10    1.80
   1  -6  -9    0.60    1.50
   1  -6  -9    1.90    1.60
   1  -6  -9    0.20    1.30
  -1   6   9    0.70    1.80
  -1   6   9    3.50    1.60
  -1   6   9   -0.30    1.60
   3   8 -10   -1.40    1.70
   3   8 -10    3.00    2.00
   3   8 -10   -2.30    1.90
   3   8 -10    1.20    1.90
  -3  -8  10    1.80    1.30
  -3  -8  10    3.50    1.60
  -3  -8  10    0.70    1.20
   2   8 -10    1.60    1.60
   2   8 -10    1.10    1.50
   2   8 -10   -2.00    1.70
   2   8 -10    0.40    1.60
   2   8 -10    0.60    1.70
  -2  -8  10    2.20    1.00
  -2  -8  10    1.60    1.60
  -2  -8  10   -1.70    1.10
  -2  -8  10    0.60    1.80
  -2  -8  10    0.60    1.00
   1   8 -10    5.60    1.90
   1   8 -10   10.40    2.10
   1   8 -10    8.30    1.80
   1   8 -10    9.40    1.60
  -1  -8  10    9.30    1.30
  -1  -8  10   10.00    1.70
  -1  -8  10    5.40    2.20
  -1  -8  10    9.50    2.10
  -1  -8  10    9.10    1.20
   0   8 -10   38.30    2.70
   0   8 -10   40.10    3.70
   0   8 -10   32.90    3.40
   0   8 -10   37.90    2.70
   0  -8  10   41.10    3.80
   0  -8  10   42.20    2.30
   0  -8  10   37.30    2.00
   0  -8  10   36.60    2.40
   0  -8  10   40.70    2.60
  -1   8 -10   30.20    2.90
  -1   8 -10   26.90    3.40
  -1   8 -10   25.80    2.40
  -1   8 -10   24.20    2.80
  -1   8 -10   26.60    2.60
   1  -8  10   25.40    1.80
   1  -8  10   25.90    2.50
   1  -8  10   24.70    2.00
  -2   8 -10   23.70    2.70
  -2   8 -10   29.70    3.60
  -2   8 -10   19.80    2.40
  -2   8 -10   31.30    2.60
   2  -8  10   28.80    2.00
   2  -8  10   27.70    2.70
  -3   8 -10    3.10    1.80
  -3   8 -10   -1.70    1.80
  -3   8 -10    0.00    2.20
   3  -8  10    1.40    1.30
   3  -8  10    1.20    1.40
   3  -8  10    1.00    1.20
   3  -8  10   -1.20    1.50
   4   7 -10    9.60    2.00
   4   7 -10    9.30    1.90
   4   7 -10    9.20    2.20
   4   7 -10    9.20    2.10
  -4  -7  10    9.00    1.70
  -4  -7  10    9.20    1.70
  -4  -7  10    9.00    2.50
   3   7 -10   54.59    3.90
   3   7 -10   57.09    3.20
   3   7 -10   48.10    3.40
   3   7 -10   51.49    3.50
   3   7 -10   56.99    3.50
  -3  -7  10   55.19    3.00
  -3  -7  10   54.29    2.80
  -3  -7  10   51.29    3.50
  -3  -7  10   50.79    4.00
  -3  -7  10   60.09    2.60
  -3  -7  10   51.79    3.00
   2   7 -10   26.40    3.10
   2   7 -10   33.00    2.60
   2   7 -10   32.90    2.60
   2   7 -10   30.20    2.70
   2   7 -10   29.00    2.60
  -2  -7  10   27.90    2.20
  -2  -7  10   26.50    2.00
  -2  -7  10   29.80    2.10
  -2  -7  10   33.20    2.70
  -2  -7  10   29.70    3.00
  -2  -7  10   30.60    2.70
   1   7 -10    7.30    1.70
   1   7 -10    6.40    1.60
   1   7 -10    7.40    1.40
   1   7 -10    9.10    1.50
   1   7 -10    8.60    1.50
  -1  -7  10    8.90    2.10
  -1  -7  10    6.70    1.10
  -1  -7  10    8.70    1.30
  -1  -7  10    7.50    1.30
  -1  -7  10    7.70    1.70
  -1  -7  10    7.00    1.20
   0   7 -10   85.89    5.40
   0   7 -10   87.29    4.10
   0   7 -10   88.69    3.50
   0   7 -10   88.79    3.50
   0   7 -10   83.09    4.20
   0  -7  10   80.49    4.10
   0  -7  10   82.99    3.30
   0  -7  10   90.59    3.50
   0  -7  10   76.79    4.10
   0  -7  10   87.79    3.10
   0  -7  10   82.89    3.20
  -1   7 -10    1.40    1.30
  -1   7 -10    2.50    1.10
  -1   7 -10    4.20    1.60
  -1   7 -10    2.20    1.60
  -1   7 -10    6.10    1.50
   1  -7  10    4.10    1.40
   1  -7  10    2.30    1.00
   1  -7  10    3.50    0.80
   1  -7  10    4.00    1.80
   1  -7  10    2.30    1.00
  -2   7 -10    9.20    2.30
  -2   7 -10   10.50    1.50
  -2   7 -10    8.40    2.20
  -2   7 -10    6.70    1.60
  -2   7 -10    7.10    1.70
   2  -7  10    6.90    2.00
   2  -7  10   13.90    1.70
   2  -7  10    9.70    1.30
  -3   7 -10    9.10    2.10
  -3   7 -10    7.70    1.50
  -3   7 -10    6.20    1.90
  -3   7 -10    2.70    1.60
   3  -7  10    7.40    1.40
   3  -7  10    4.80    2.10
   3  -7  10    6.90    1.40
   3  -7  10    9.60    1.70
   3  -7  10    5.50    1.20
  -4   7 -10   12.90    2.00
  -4   7 -10   15.40    2.60
  -4   7 -10   11.70    2.20
   4  -7  10   10.80    1.60
   4  -7  10    7.20    1.90
   4  -7  10   10.00    1.60
   4  -7  10    9.70    1.60
   4  -7  10   14.50    2.70
   5   6 -10    3.20    1.60
   5   6 -10    3.20    1.50
   5   6 -10    6.10    2.10
   5   6 -10    3.00    1.90
  -5  -6  10    1.80    1.60
  -5  -6  10    4.30    2.20
  -5  -6  10    2.20    1.60
   4   6 -10   13.90    2.10
   4   6 -10   15.40    2.20
   4   6 -10   15.30    2.20
   4   6 -10   16.00    1.70
   4   6 -10   14.90    3.20
  -4  -6  10   15.40    1.60
  -4  -6  10   15.60    1.90
  -4  -6  10   13.70    2.20
  -4  -6  10   11.40    2.00
  -4  -6  10   14.00    1.90
   3   6 -10    4.70    1.40
   3   6 -10    2.40    1.40
   3   6 -10    5.20    1.60
   3   6 -10    4.50    1.50
   3   6 -10    3.10    1.30
  -3  -6  10    4.00    1.20
  -3  -6  10    2.50    0.90
  -3  -6  10    4.00    1.50
  -3  -6  10    6.00    1.30
  -3  -6  10    4.90    1.50
  -3  -6  10    4.80    1.60
   2   6 -10   50.69    2.90
   2   6 -10   58.49    3.00
   2   6 -10   52.29    3.40
   2   6 -10   59.99    2.80
   2   6 -10   55.79    3.00
  -2  -6  10   54.29    3.30
  -2  -6  10   56.79    3.00
  -2  -6  10   55.19    2.50
  -2  -6  10   56.29    2.70
  -2  -6  10   57.09    2.90
  -2  -6  10   57.29    2.60
   1   6 -10    5.10    1.10
   1   6 -10    6.90    1.50
   1   6 -10    4.30    1.20
   1   6 -10    5.40    1.40
   1   6 -10    4.80    1.20
  -1  -6  10    4.70    1.10
  -1  -6  10    8.10    1.60
  -1  -6  10    6.40    1.20
  -1  -6  10    6.60    1.10
  -1  -6  10    6.50    1.10
   0   6 -10   59.39    2.80
   0   6 -10   54.79    2.80
   0   6 -10   58.59    2.90
   0   6 -10   44.10    3.80
   0   6 -10   61.19    3.20
   0  -6  10   58.29    2.40
   0  -6  10   59.09    2.80
   0  -6  10   59.89    2.50
   0  -6  10   59.29    2.70
  -1   6 -10    2.00    1.20
  -1   6 -10    2.80    1.40
  -1   6 -10    4.40    1.10
  -1   6 -10    1.80    2.70
  -1   6 -10    4.50    1.30
   1  -6  10    3.60    1.00
   1  -6  10    2.70    1.40
   1  -6  10    3.30    1.00
   1  -6  10    4.00    1.00
   1  -6  10    4.70    0.80
  -2   6 -10   11.40    1.50
  -2   6 -10   11.60    1.70
  -2   6 -10    9.50    1.70
   2  -6  10   11.90    1.60
   2  -6  10   14.80    2.00
   2  -6  10   10.40    1.50
   2  -6  10   11.80    1.40
  -3   6 -10   76.89    3.30
  -3   6 -10   70.99    5.70
  -3   6 -10   66.59    3.70
  -3   6 -10   69.29    3.70
   3  -6  10   78.09    3.60
   3  -6  10   68.69    3.10
   3  -6  10   69.19    3.30
   3  -6  10   69.19    3.70
  -4   6 -10   57.19    3.80
  -4   6 -10   69.69    3.50
   4  -6  10   60.99    3.50
   4  -6  10   65.39    2.90
   4  -6  10   65.29    4.00
   4  -6  10   61.49    3.50
   4  -6  10   62.59    3.10
  -5   6 -10   -0.10    4.40
  -5   6 -10   11.30    2.20
  -5   6 -10    5.50    2.00
   5  -6  10    7.00    1.60
   5  -6  10   10.60    2.30
   5  -6  10    6.30    1.60
   5  -6  10    9.80    2.10
   5  -6  10    5.70    1.60
   6   5 -10    9.90    1.70
   6   5 -10   11.20    2.60
   6   5 -10   10.00    1.90
  -6  -5  10   10.20    2.30
  -6  -5  10    4.00    1.70
  -6  -5  10    8.10    2.10
   5   5 -10    2.00    1.50
   5   5 -10    4.20    1.80
   5   5 -10    4.10    1.30
  -5  -5  10    3.10    2.00
  -5  -5  10    6.30    1.80
  -5  -5  10    6.00    1.50
  -5  -5  10    5.50    1.60
   4   5 -10   42.70    3.10
   4   5 -10   42.80    3.20
   4   5 -10   41.60    4.90
   4   5 -10   47.00    2.60
  -4  -5  10   45.20    2.70
  -4  -5  10   44.90    2.00
  -4  -5  10   46.70    2.90
  -4  -5  10   47.10    3.10
  -4  -5  10   45.30    2.90
   3   5 -10    1.70    1.30
   3   5 -10    2.50    1.20
   3   5 -10    2.60    1.10
   3   5 -10    2.00    1.10
   3   5 -10    2.60    1.40
  -3  -5  10    1.60    1.00
  -3  -5  10    2.90    1.10
  -3  -5  10    3.50    1.30
  -3  -5  10    2.90    1.20
  -3  -5  10    1.90    0.90
  -3  -5  10    2.00    0.90
   2   5 -10   42.10    2.50
   2   5 -10   47.20    2.30
   2   5 -10   47.30    2.70
   2   5 -10   46.40    2.60
  -2  -5  10   45.00    2.20
  -2  -5  10   41.50    2.40
  -2  -5  10   49.50    2.50
  -2  -5  10   44.50    2.30
  -2  -5  10   45.50    2.70
   1   5 -10   22.70    2.20
   1   5 -10   23.30    2.00
   1   5 -10   22.00    2.00
   1   5 -10   24.40    1.60
  -1  -5  10   20.10    1.80
  -1  -5  10   22.30    1.70
  -1  -5  10   24.60    1.80
  -1  -5  10   22.20    1.80
   0   5 -10  360.56    9.60
   0   5 -10  355.86    9.70
   0   5 -10  355.26    9.50
   0   5 -10  359.36    9.50
   0  -5  10  360.46    9.50
   0  -5  10  368.86    9.40
   0  -5  10  344.27    9.50
   0  -5  10  353.46    9.00
  -1   5 -10  105.09    3.80
  -1   5 -10   98.89    4.10
  -1   5 -10  109.79    4.00
  -1   5 -10   97.69    3.70
   1  -5  10   99.99    3.80
   1  -5  10  102.89    3.80
   1  -5  10  107.09    3.60
   1  -5  10  103.99    3.10
   1  -5  10  102.39    3.70
  -2   5 -10   22.60    2.10
  -2   5 -10   18.90    2.50
  -2   5 -10   18.10    2.10
  -2   5 -10   26.30    2.60
  -2   5 -10   21.60    2.30
   2  -5  10   21.40    1.80
   2  -5  10   22.40    2.20
   2  -5  10   24.80    2.00
   2  -5  10   22.60    1.00
  -3   5 -10   26.20    2.70
  -3   5 -10   23.40    3.00
  -3   5 -10   33.80    3.00
  -3   5 -10   29.50    2.40
  -3   5 -10   29.70    2.80
   3  -5  10   33.50    2.50
   3  -5  10   28.10    2.40
   3  -5  10   27.50    2.30
   3  -5  10   31.90    2.20
   3  -5  10   31.40    1.60
  -4   5 -10    0.80    1.40
  -4   5 -10   -0.10    1.60
  -4   5 -10    2.90    1.40
   4  -5  10    0.40    0.90
   4  -5  10    2.20    1.50
   4  -5  10    3.70    1.30
   4  -5  10    0.20    1.60
   4  -5  10    0.20    1.10
  -5   5 -10    2.10    1.70
  -5   5 -10    1.30    1.80
  -5   5 -10    2.20    1.90
   5  -5  10   -0.10    1.80
   5  -5  10    1.60    1.30
   5  -5  10    0.40    1.80
   5  -5  10    0.80    1.20
   5  -5  10   -1.10    1.50
   7   4 -10    3.10    2.30
   7   4 -10    1.90    1.80
  -7  -4  10   -0.50    1.70
  -7  -4  10    1.50    1.90
  -7  -4  10   -1.30    2.00
   6   4 -10   10.90    1.80
   6   4 -10    8.90    2.10
   6   4 -10    9.20    1.70
  -6  -4  10   12.20    1.90
  -6  -4  10    8.80    2.00
  -6  -4  10   10.20    1.80
   5   4 -10   -0.90    1.60
   5   4 -10    1.10    1.30
   5   4 -10    1.00    1.50
  -5  -4  10   -0.20    1.10
  -5  -4  10    0.90    1.60
  -5  -4  10    0.70    1.40
  -5  -4  10    0.60    1.30
   4   4 -10   78.59    3.80
   4   4 -10   79.39    3.70
   4   4 -10   80.29    3.30
  -4  -4  10   78.99    3.20
  -4  -4  10   74.69    3.40
  -4  -4  10   73.39    2.50
  -4  -4  10   80.89    3.60
   3   4 -10  146.49    4.60
   3   4 -10  151.88    5.00
   3   4 -10  137.19    4.80
  -3  -4  10  140.59    4.40
  -3  -4  10  142.69    4.50
  -3  -4  10  138.19    4.70
  -3  -4  10  133.09    4.80
   2   4 -10   26.80    1.50
   2   4 -10   28.20    2.10
   2   4 -10   26.30    2.10
   2   4 -10   26.80    2.10
  -2  -4  10   23.00    1.80
  -2  -4  10   25.40    1.90
  -2  -4  10   26.30    1.80
  -2  -4  10   26.30    1.90
   1   4 -10  445.86   11.50
   1   4 -10  435.66   10.80
   1   4 -10  461.85   11.60
   1   4 -10  435.56   11.30
   1   4 -10  458.05   11.50
  -1  -4  10  446.06   11.60
  -1  -4  10  446.16   11.50
  -1  -4  10  434.36   11.20
  -1  -4  10  450.35   11.40
   0   4 -10  120.59    4.00
   0   4 -10  115.19    4.30
   0   4 -10  118.39    4.10
   0   4 -10  116.49    4.10
   0  -4  10  120.59    4.10
   0  -4  10  118.99    4.00
   0  -4  10  122.59    3.70
   0  -4  10  120.09    4.10
  -1   4 -10   -1.30    0.70
  -1   4 -10   -0.60    1.10
  -1   4 -10    1.00    0.90
  -1   4 -10   -0.20    1.00
   1  -4  10    0.00    0.60
   1  -4  10    1.10    0.90
   1  -4  10   -0.70    0.70
   1  -4  10    0.90    0.90
  -2   4 -10  155.18    5.40
  -2   4 -10  162.08    5.10
  -2   4 -10  150.88    5.20
  -2   4 -10  163.78    5.30
   2  -4  10  159.88    5.00
   2  -4  10  156.78    5.10
   2  -4  10  160.18    4.80
   2  -4  10  152.28    4.10
   2  -4  10  138.29    5.50
  -3   4 -10    6.20    1.50
  -3   4 -10    9.00    1.60
  -3   4 -10    4.60    1.60
  -3   4 -10    6.10    1.30
   3  -4  10    7.10    1.40
   3  -4  10    7.40    1.30
   3  -4  10    3.30    1.10
   3  -4  10    6.70    1.20
   3  -4  10    7.00    0.70
  -4   4 -10    5.90    1.50
   4  -4  10    5.60    0.90
   4  -4  10    4.10    1.20
   4  -4  10    6.00    1.40
   4  -4  10    6.50    1.40
   4  -4  10    5.20    1.70
  -5   4 -10    0.50    1.80
  -5   4 -10    0.30    1.70
   5  -4  10    1.00    1.50
   5  -4  10   -0.10    1.80
   5  -4  10    0.50    1.30
   5  -4  10    0.70    1.10
   7   3 -10    5.90    1.80
   7   3 -10    2.40    2.00
   7   3 -10    6.70    1.70
  -7  -3  10    0.60    2.00
  -7  -3  10    5.20    1.80
   6   3 -10    3.40    1.70
   6   3 -10    1.70    2.00
   6   3 -10    3.80    1.40
  -6  -3  10    2.90    2.10
  -6  -3  10    5.00    1.80
  -6  -3  10    5.80    1.40
  -6  -3  10    3.20    1.40
   5   3 -10    3.90    1.60
   5   3 -10    4.90    1.40
   5   3 -10    3.80    1.50
  -5  -3  10    4.20    1.40
  -5  -3  10    4.50    1.50
  -5  -3  10    5.00    1.10
  -5  -3  10    4.70    1.50
   4   3 -10  248.58    7.00
   4   3 -10  234.58    7.30
   4   3 -10  245.98    7.40
  -4  -3  10  243.48    7.20
  -4  -3  10  240.28    6.40
  -4  -3  10  256.17    7.20
  -4  -3  10  242.78    7.40
   3   3 -10   40.80    2.60
   3   3 -10   43.10    2.50
   3   3 -10   44.40    2.40
  -3  -3  10   41.50    2.30
  -3  -3  10   41.90    2.40
  -3  -3  10   43.50    2.50
   2   3 -10   77.19    3.20
   2   3 -10   73.09    3.10
   2   3 -10   76.59    3.00
   2   3 -10   76.19    3.00
  -2  -3  10   60.49    3.60
  -2  -3  10   74.59    3.00
  -2  -3  10   77.49    3.20
  -2  -3  10   73.39    2.90
   1   3 -10   17.30    1.30
   1   3 -10   15.30    0.90
   1   3 -10   15.10    1.80
   1   3 -10   17.20    1.70
   1   3 -10   18.00    1.60
   1   3 -10   15.10    1.70
  -1  -3  10   15.20    1.60
  -1  -3  10   14.80    1.60
  -1  -3  10   17.50    1.50
  -1  -3  10   15.20    1.60
   0   3 -10   16.00    1.80
   0   3 -10   22.80    1.90
   0   3 -10   24.10    1.80
   0   3 -10   20.50    1.50
   0   3 -10   18.60    1.50
   0  -3  10   18.70    1.70
   0  -3  10   19.50    1.70
   0  -3  10   17.60    1.70
   0  -3  10   21.30    1.50
  -1   3 -10   59.19    2.90
  -1   3 -10   59.59    2.30
  -1   3 -10   58.49    2.90
  -1   3 -10   56.49    2.60
  -1   3 -10   58.79    2.80
   1  -3  10   62.69    2.80
   1  -3  10   61.59    2.70
   1  -3  10   56.59    2.70
   1  -3  10   58.99    2.20
  -2   3 -10   37.60    2.70
  -2   3 -10   43.40    2.40
  -2   3 -10   37.50    1.70
  -2   3 -10   37.70    2.70
   2  -3  10   37.70    2.00
   2  -3  10   34.10    2.30
   2  -3  10   37.30    1.70
   2  -3  10   35.00    2.20
   2  -3  10   39.80    2.30
  -3   3 -10    9.10    1.10
  -3   3 -10   10.20    1.60
  -3   3 -10    6.80    1.50
  -3   3 -10   10.10    1.80
   3  -3  10    6.10    1.30
   3  -3  10    8.60    1.20
   3  -3  10    9.80    1.40
   3  -3  10    7.80    1.50
  -4   3 -10   68.29    4.00
  -4   3 -10   62.49    4.90
  -4   3 -10   65.59    2.30
  -4   3 -10   69.39    3.40
   4  -3  10   65.69    2.20
   4  -3  10   62.69    3.20
   4  -3  10   69.29    2.70
   4  -3  10   65.99    3.70
   4  -3  10   60.89    3.30
  -5   3 -10   -0.60    0.80
  -5   3 -10    1.20    1.70
   5  -3  10   -1.90    1.30
   5  -3  10   -3.70    1.80
   5  -3  10   -0.10    1.30
  -8  -2  10   15.50    2.70
   7   2 -10   96.89    4.50
   7   2 -10  107.69    5.00
  -7  -2  10   96.09    4.70
  -7  -2  10   98.29    4.70
   6   2 -10    2.20    1.70
   6   2 -10    2.40    1.40
   6   2 -10    1.50    2.20
  -6  -2  10    3.20    0.90
  -6  -2  10    3.90    1.70
  -6  -2  10    3.00    1.70
  -6  -2  10    2.60    1.30
   5   2 -10   48.00    3.00
   5   2 -10   36.10    2.70
   5   2 -10   40.80    2.60
  -5  -2  10   36.80    1.70
  -5  -2  10   40.30    2.70
  -5  -2  10   39.70    2.80
  -5  -2  10   41.90    2.90
   4   2 -10  196.68    6.30
   4   2 -10  196.58    6.10
   4   2 -10  200.48    6.30
   4   2 -10  203.98    6.00
  -4  -2  10  195.68    6.10
  -4  -2  10  199.08    6.40
  -4  -2  10  198.68    6.00
   3   2 -10  417.46   10.90
   3   2 -10  420.06   11.10
   3   2 -10  408.66   11.00
   3   2 -10  415.56   10.80
  -3  -2  10  430.86   11.20
  -3  -2  10  420.86   10.90
  -3  -2  10  407.46   10.80
   2   2 -10   -0.40    0.90
   2   2 -10    0.10    0.90
   2   2 -10   -0.10    0.70
   2   2 -10    0.00    0.80
  -2  -2  10    0.30    0.80
  -2  -2  10    0.80    0.80
  -2  -2  10   -0.20    0.80
  -2  -2  10   -1.20    0.60
   1   2 -10  359.56    9.40
   1   2 -10  349.47    9.40
   1   2 -10  352.56    9.40
   1   2 -10  342.47    8.70
   1   2 -10  350.16    9.10
  -1  -2  10  345.37    9.30
  -1  -2  10  355.76    9.10
  -1  -2  10  354.86    9.50
  -1  -2  10  348.47    9.30
   0   2 -10  244.78    6.50
   0   2 -10  237.68    6.90
   0   2 -10  248.68    6.90
   0   2 -10  241.68    6.80
   0   2 -10  241.18    6.50
   0  -2  10  243.08    6.80
   0  -2  10  219.68    6.80
   0  -2  10  251.57    6.90
   0  -2  10  233.58    6.90
  -1   2 -10   34.20    2.20
  -1   2 -10   32.80    1.80
  -1   2 -10   31.80    2.30
  -1   2 -10   33.60    2.40
   1  -2  10   33.90    2.20
   1  -2  10   32.40    2.10
   1  -2  10   37.30    1.80
   1  -2  10   34.90    2.20
  -2   2 -10  357.06    9.00
  -2   2 -10  351.26    9.80
  -2   2 -10  359.56    9.60
  -2   2 -10  361.66    9.80
   2  -2  10  356.56    9.60
   2  -2  10  335.67    9.60
   2  -2  10  357.86    9.60
   2  -2  10  354.66    9.70
   2  -2  10  351.66    8.80
  -3   2 -10   11.10    1.70
  -3   2 -10   13.30    1.50
  -3   2 -10   10.20    1.60
  -3   2 -10   14.60    1.80
   3  -2  10   13.00    1.30
   3  -2  10   14.20    1.80
   3  -2  10   12.10    1.70
  -4   2 -10   15.20    2.30
  -4   2 -10   12.90    2.30
  -4   2 -10   11.60    1.70
  -4   2 -10   15.80    1.60
   4  -2  10   15.60    2.20
   4  -2  10   13.60    1.70
   4  -2  10   12.40    1.70
  -5   2 -10    8.80    1.80
  -5   2 -10    9.20    1.40
   5  -2  10    9.40    1.80
   5  -2  10    5.70    1.70
   5  -2  10    7.60    2.30
   8   1 -10   -1.20    2.00
  -8  -1  10    3.30    2.10
   7   1 -10    4.60    2.20
   7   1 -10    5.10    1.70
   7   1 -10    8.80    2.00
  -7  -1  10    5.10    3.20
  -7  -1  10    4.40    1.70
   6   1 -10    5.00    1.70
   6   1 -10    3.20    1.50
   6   1 -10    4.60    1.50
  -6  -1  10    4.90    1.50
  -6  -1  10    5.60    0.70
  -6  -1  10    6.40    1.90
  -6  -1  10    4.70    1.50
   5   1 -10   20.00    2.50
   5   1 -10   18.40    2.00
   5   1 -10   20.30    2.40
   5   1 -10   20.90    2.40
  -5  -1  10   21.20    2.30
  -5  -1  10   23.20    2.40
  -5  -1  10   19.70    1.10
  -5  -1  10   19.40    2.30
   4   1 -10   56.89    3.00
   4   1 -10   59.39    2.90
   4   1 -10   58.39    2.80
   4   1 -10   60.59    2.90
  -4  -1  10   58.29    2.90
  -4  -1  10   56.69    3.10
  -4  -1  10   56.29    2.90
   3   1 -10    1.70    1.00
   3   1 -10    1.50    1.00
   3   1 -10    1.80    0.90
   3   1 -10    0.30    0.70
  -3  -1  10    0.70    0.90
  -3  -1  10    0.60    1.00
  -3  -1  10    0.30    0.80
   2   1 -10    9.30    1.20
   2   1 -10    7.50    1.20
   2   1 -10    6.80    1.20
   2   1 -10    6.90    1.20
  -2  -1  10    7.90    1.20
  -2  -1  10    7.00    1.10
  -2  -1  10    6.60    1.10
  -2  -1  10    6.50    1.20
   1   1 -10  171.88    5.20
   1   1 -10  166.08    5.20
   1   1 -10  164.78    4.40
   1   1 -10  167.28    5.20
   1   1 -10  166.98    5.00
  -1  -1  10  165.08    5.20
  -1  -1  10  167.48    5.30
  -1  -1  10  167.18    5.00
  -1  -1  10  169.98    5.10
   0   1 -10   17.70    1.80
   0   1 -10   21.20    1.90
   0   1 -10   18.70    1.70
   0   1 -10   18.80    1.60
   0  -1  10   18.70    1.60
   0  -1  10   20.60    1.60
   0  -1  10   18.00    1.70
   0  -1  10   21.50    1.80
  -1   1 -10   12.40    1.50
  -1   1 -10   14.60    1.90
  -1   1 -10    9.20    1.40
  -1   1 -10    9.70    1.30
   1  -1  10   13.00    1.60
   1  -1  10   11.40    1.40
   1  -1  10   11.10    1.20
   1  -1  10   13.00    1.50
  -2   1 -10   48.70    2.90
  -2   1 -10   54.09    2.70
  -2   1 -10   50.79    2.40
  -2   1 -10   49.40    3.00
   2  -1  10   54.09    2.80
   2  -1  10   51.49    2.70
   2  -1  10   53.59    2.90
   2  -1  10   49.80    2.30
  -3   1 -10  159.38    5.50
  -3   1 -10  172.68    5.50
  -3   1 -10  161.38    4.90
  -3   1 -10  146.29    5.60
   3  -1  10  157.38    5.70
   3  -1  10  159.18    5.40
   3  -1  10  158.58    5.50
  -4   1 -10   -1.20    2.10
  -4   1 -10   -0.10    1.30
  -4   1 -10   -1.70    1.60
  -4   1 -10    1.10    1.10
   4  -1  10    2.10    1.40
   4  -1  10    0.90    0.60
   4  -1  10    1.80    1.60
   4  -1  10    0.60    1.40
  -5   1 -10   -0.10    1.30
  -5   1 -10    0.10    1.70
   5  -1  10   -0.60    1.50
   5  -1  10   -0.10    1.60
   8   0 -10    0.20    1.80
  -8   0  10    5.10    2.20
   7   0 -10   36.40    3.60
   7   0 -10   33.30    3.10
   7   0 -10   33.70    3.70
  -7   0  10   39.90    3.50
   6   0 -10    6.00    1.90
   6   0 -10    3.90    1.50
   6   0 -10    5.40    1.40
   6   0 -10    3.50    1.70
  -6   0  10    5.70    1.70
  -6   0  10    5.60    1.90
  -6   0  10    4.50    1.60
   5   0 -10    0.90    1.10
   5   0 -10    1.60    1.40
   5   0 -10    0.80    1.20
   5   0 -10    3.10    1.30
  -5   0  10    2.30    1.30
  -5   0  10    2.70    1.30
  -5   0  10    1.70    0.70
  -5   0  10    1.30    1.40
   4   0 -10    0.00    1.00
   4   0 -10    0.50    0.80
   4   0 -10   -0.20    1.10
   4   0 -10   -0.70    1.10
  -4   0  10    0.30    1.20
  -4   0  10   -1.10    0.90
  -4   0  10    0.10    1.10
   3   0 -10    5.60    1.10
   3   0 -10    8.10    1.30
   3   0 -10    7.10    1.30
   3   0 -10    6.40    1.10
  -3   0  10    4.60    1.20
  -3   0  10    4.80    1.10
  -3   0  10    9.20    1.50
   2   0 -10   95.59    3.70
   2   0 -10   95.39    3.70
   2   0 -10   99.29    3.70
   2   0 -10   99.89    3.60
  -2   0  10  101.59    3.80
  -2   0  10   97.99    3.60
  -2   0  10  101.29    3.60
   1   0 -10   51.89    2.60
   1   0 -10   43.60    2.30
   1   0 -10   46.10    1.40
   1   0 -10   49.80    2.50
   1   0 -10   46.80    2.30
  -1   0  10   49.10    2.50
  -1   0  10   46.90    2.30
  -1   0  10   45.90    2.30
  -1   0  10   48.50    2.60
   0   0 -10   37.70    2.10
   0   0 -10   35.70    2.30
   0   0 -10   42.70    2.50
   0   0 -10   36.40    2.10
   0   0  10   40.20    2.10
   0   0  10   38.60    2.30
   0   0  10   38.60    2.30
   0   0  10   34.00    2.10
  -1   0 -10   94.29    3.90
  -1   0 -10   96.19    3.70
  -1   0 -10   94.29    3.50
  -1   0 -10   97.19    3.70
   1   0  10   97.69    3.80
   1   0  10   98.09    3.50
   1   0  10   96.69    3.80
   1   0  10   94.09    3.60
  -2   0 -10   54.59    2.60
  -2   0 -10   56.29    3.30
  -2   0 -10   55.29    2.80
  -2   0 -10   55.79    3.00
   2   0  10   50.29    3.00
   2   0  10   51.99    3.10
   2   0  10   53.09    2.80
  -3   0 -10  122.29    4.50
  -3   0 -10  120.59    4.70
  -3   0 -10  129.09    5.20
  -3   0 -10  121.59    4.20
   3   0  10  111.59    4.80
   3   0  10  117.79    3.20
   3   0  10  117.39    4.70
   3   0  10  119.09    4.50
  -4   0 -10   13.80    1.80
  -4   0 -10   11.80    2.10
  -4   0 -10   12.40    1.80
   4   0  10   11.20    1.70
   4   0  10   12.60    1.30
   4   0  10   13.50    2.10
  -5   0 -10   25.40    2.90
  -5   0 -10   24.70    2.70
   5   0  10   26.40    3.00
   5   0  10   26.40    1.80
   5   0  10   27.50    3.10
   8  -1 -10   -3.10    1.80
  -8   1  10    3.10    2.40
   7  -1 -10    3.10    2.00
   7  -1 -10    7.00    1.70
   7  -1 -10    8.10    1.80
  -7   1  10    6.80    2.00
   6  -1 -10   15.40    1.90
   6  -1 -10   15.30    1.80
   6  -1 -10   11.20    2.00
   6  -1 -10   13.60    2.10
  -6   1  10    9.80    1.80
  -6   1  10   13.40    1.50
  -6   1  10   16.40    2.30
  -6   1  10   17.50    2.30
   5  -1 -10   15.90    2.00
   5  -1 -10   18.30    2.10
   5  -1 -10   22.80    2.40
   5  -1 -10   16.30    1.90
  -5   1  10   17.70    1.60
  -5   1  10   18.20    2.20
  -5   1  10   17.40    2.20
  -5   1  10   17.90    2.00
   4  -1 -10  151.08    5.20
   4  -1 -10  148.59    5.10
   4  -1 -10  154.78    5.20
   4  -1 -10  148.49    5.10
  -4   1  10  151.28    5.00
  -4   1  10  152.28    5.20
  -4   1  10  150.78    5.30
  -4   1  10  148.69    4.60
   3  -1 -10   20.20    2.00
   3  -1 -10   13.90    1.80
   3  -1 -10   17.20    1.80
   3  -1 -10   19.30    2.00
  -3   1  10   20.90    2.20
  -3   1  10   18.20    1.90
  -3   1  10   18.00    2.00
   2  -1 -10   37.40    2.20
   2  -1 -10   37.00    2.20
   2  -1 -10   38.10    2.20
   2  -1 -10   37.40    1.70
   2  -1 -10   37.20    2.40
  -2   1  10   34.10    2.30
  -2   1  10   37.00    2.50
  -2   1  10   36.60    2.30
   1  -1 -10   82.49    3.40
   1  -1 -10   89.89    3.50
   1  -1 -10   98.79    3.80
   1  -1 -10   89.99    2.60
   1  -1 -10   92.49    3.50
  -1   1  10   83.59    3.40
  -1   1  10   89.69    3.50
  -1   1  10   96.39    3.70
   0  -1 -10   57.89    2.80
   0  -1 -10   63.39    3.00
   0  -1 -10   55.79    2.60
   0  -1 -10   56.89    2.70
   0   1  10   57.29    2.80
   0   1  10   57.89    2.90
   0   1  10   55.39    2.70
   0   1  10   58.69    2.90
  -1  -1 -10    2.40    1.30
  -1  -1 -10    3.40    1.00
  -1  -1 -10    3.80    1.20
  -1  -1 -10    4.30    1.20
   1   1  10    3.70    1.10
   1   1  10    2.50    1.20
   1   1  10    2.90    1.20
   1   1  10    1.80    1.10
  -2  -1 -10   45.90    2.60
  -2  -1 -10   35.40    3.00
  -2  -1 -10   43.70    2.70
  -2  -1 -10   45.40    2.80
   2   1  10   44.10    3.00
   2   1  10   42.40    2.90
   2   1  10   48.90    2.80
  -3  -1 -10   20.70    2.00
  -3  -1 -10   15.30    1.80
  -3  -1 -10   10.20    2.20
  -3  -1 -10   14.30    1.90
   3   1  10   20.60    2.60
   3   1  10   14.80    1.90
   3   1  10   18.50    1.30
   3   1  10    9.90    2.30
  -4  -1 -10    2.60    1.50
  -4  -1 -10    1.90    1.50
  -4  -1 -10    4.10    1.80
   4   1  10    0.10    1.50
   4   1  10    0.40    1.70
   4   1  10    1.50    0.90
   7  -2 -10    7.10    2.20
   7  -2 -10    7.80    1.70
   7  -2 -10    4.70    1.50
   6  -2 -10   58.49    3.60
   6  -2 -10   57.29    3.30
   6  -2 -10   52.89    3.20
  -6   2  10   52.09    3.80
  -6   2  10   62.99    6.10
  -6   2  10   59.49    2.70
   5  -2 -10    7.90    1.80
   5  -2 -10    5.90    1.60
   5  -2 -10    5.30    1.40
   5  -2 -10    8.50    1.50
  -5   2  10    9.10    1.30
  -5   2  10   10.00    1.90
  -5   2  10    6.50    1.60
  -5   2  10    8.40    1.90
   4  -2 -10    2.80    1.30
   4  -2 -10    3.90    1.50
   4  -2 -10    4.30    1.40
   4  -2 -10    3.00    1.40
  -4   2  10    2.20    1.00
  -4   2  10    5.90    1.40
  -4   2  10    3.40    1.40
  -4   2  10    3.10    1.50
   3  -2 -10    3.20    1.30
   3  -2 -10    2.30    1.20
   3  -2 -10    2.50    1.00
   3  -2 -10    1.70    1.00
  -3   2  10    0.40    1.30
  -3   2  10    2.80    1.20
  -3   2  10    2.90    1.20
   2  -2 -10   47.20    2.60
   2  -2 -10   46.90    2.70
   2  -2 -10   43.90    2.40
   2  -2 -10   46.40    2.20
   2  -2 -10   44.30    1.60
   2  -2 -10   47.80    2.70
  -2   2  10   46.90    2.60
  -2   2  10   46.20    2.80
  -2   2  10   48.30    2.80
   1  -2 -10  291.27    8.30
   1  -2 -10  287.37    8.30
   1  -2 -10  294.57    8.40
   1  -2 -10  301.27    7.60
   1  -2 -10  302.07    8.40
  -1   2  10  302.27    8.40
  -1   2  10  307.17    8.50
  -1   2  10  298.87    8.50
   0  -2 -10    2.70    1.20
   0  -2 -10    2.50    1.30
   0  -2 -10    3.20    1.00
   0   2  10    4.70    1.30
   0   2  10    2.80    1.20
   0   2  10    3.70    1.30
  -1  -2 -10   21.50    2.30
  -1  -2 -10   24.00    2.70
  -1  -2 -10   17.20    2.10
  -1  -2 -10   18.60    1.90
   1   2  10   20.10    2.20
   1   2  10   21.00    1.30
   1   2  10   24.20    2.50
   1   2  10   18.00    2.20
   1   2  10   21.40    2.30
  -2  -2 -10   63.79    3.90
  -2  -2 -10   65.59    3.30
  -2  -2 -10   56.99    3.10
  -2  -2 -10   59.49    3.00
   2   2  10   59.79    3.60
   2   2  10   61.49    3.30
  -3  -2 -10   17.40    2.60
  -3  -2 -10   14.80    1.80
  -3  -2 -10   22.20    2.70
  -3  -2 -10   17.30    2.00
   3   2  10   20.80    2.60
   3   2  10   15.10    1.70
   3   2  10   18.40    2.40
   7  -3 -10   14.80    2.60
   7  -3 -10   12.40    2.10
   7  -3 -10   10.40    2.10
  -7   3  10   15.60    2.80
   6  -3 -10   -0.90    1.40
   6  -3 -10   -1.50    1.40
   6  -3 -10    1.20    1.70
  -6   3  10    1.90    1.90
  -6   3  10    1.50    1.10
   5  -3 -10   30.00    2.60
   5  -3 -10   34.70    2.90
   5  -3 -10   30.00    2.50
  -5   3  10   26.30    3.30
  -5   3  10   33.00    3.30
  -5   3  10   32.90    2.50
   4  -3 -10    3.00    1.60
   4  -3 -10    3.60    1.40
   4  -3 -10    2.40    1.30
   4  -3 -10    7.20    1.40
   4  -3 -10    2.00    1.10
  -4   3  10    4.00    1.40
  -4   3  10    1.90    1.60
  -4   3  10    1.50    1.50
  -4   3  10    2.20    1.30
   3  -3 -10   -1.40    1.10
   3  -3 -10   -1.70    1.10
   3  -3 -10    0.30    1.30
   3  -3 -10    0.00    1.30
   3  -3 -10    0.20    1.00
  -3   3  10    0.00    1.00
  -3   3  10   -1.50    1.30
  -3   3  10   -1.00    1.30
  -3   3  10    0.40    1.20
   2  -3 -10   25.20    2.30
   2  -3 -10   29.50    2.20
   2  -3 -10   24.50    2.10
   2  -3 -10   27.00    2.00
   2  -3 -10   26.10    1.50
   2  -3 -10   27.20    2.40
  -2   3  10   25.50    2.40
  -2   3  10   26.30    2.60
  -2   3  10   26.90    2.50
   1  -3 -10    3.00    1.00
   1  -3 -10    2.60    1.20
   1  -3 -10    3.10    1.30
   1  -3 -10    1.90    1.00
  -1   3  10    3.10    1.50
  -1   3  10    1.60    1.00
  -1   3  10    4.90    1.50
  -1   3  10    4.70    1.40
   0  -3 -10    4.10    1.10
   0  -3 -10    2.00    1.10
   0  -3 -10    3.10    1.30
   0  -3 -10    5.10    1.60
   0   3  10    2.80    1.00
   0   3  10    1.60    1.40
   0   3  10    0.60    1.40
   0   3  10    1.50    1.50
  -1  -3 -10    4.40    1.70
  -1  -3 -10    5.00    1.50
  -1  -3 -10    7.70    1.60
  -1  -3 -10    5.00    1.20
   1   3  10    5.70    0.90
   1   3  10    5.50    1.70
  -2  -3 -10   35.10    3.60
  -2  -3 -10   26.50    2.50
  -2  -3 -10   37.40    2.90
  -2  -3 -10   32.10    2.80
   2   3  10   31.60    3.30
  -3  -3 -10   -1.50    1.60
  -3  -3 -10    0.90    1.40
  -3  -3 -10    1.60    1.60
  -3  -3 -10    1.40    2.40
   3   3  10    5.40    2.10
   3   3  10   -0.20    1.10
   6  -4 -10   22.50    2.50
   6  -4 -10   14.30    2.10
   6  -4 -10   21.00    2.60
  -6   4  10   20.40    2.90
   5  -4 -10    2.80    1.90
   5  -4 -10    4.30    1.50
   5  -4 -10    0.20    1.40
   5  -4 -10    0.90    1.70
  -5   4  10    2.70    1.50
  -5   4  10    2.50    2.10
   4  -4 -10    6.50    1.80
   4  -4 -10    9.90    1.60
   4  -4 -10    6.10    1.60
   4  -4 -10    6.70    1.40
  -4   4  10    5.60    1.60
  -4   4  10    5.00    1.80
   3  -4 -10    5.10    1.60
   3  -4 -10    5.70    1.20
   3  -4 -10    3.00    0.90
   3  -4 -10    6.00    1.70
   3  -4 -10    6.90    1.50
   3  -4 -10    5.90    1.70
  -3   4  10    1.80    1.30
  -3   4  10    2.80    1.80
  -3   4  10    4.20    1.50
  -3   4  10    2.70    1.90
   2  -4 -10   12.80    1.90
   2  -4 -10   12.00    1.40
   2  -4 -10   14.00    1.80
   2  -4 -10    9.60    1.50
   2  -4 -10   11.70    1.70
   2  -4 -10   10.90    1.70
  -2   4  10   13.10    1.90
  -2   4  10   13.00    1.70
  -2   4  10   13.70    2.30
  -2   4  10   11.90    2.00
   1  -4 -10   37.30    2.60
   1  -4 -10   35.60    2.80
   1  -4 -10   33.20    2.40
   1  -4 -10   37.70    2.60
   1  -4 -10   36.70    2.90
   1  -4 -10   39.60    2.70
  -1   4  10   38.00    3.00
  -1   4  10   34.10    3.10
  -1   4  10   36.30    2.40
   0  -4 -10    6.10    1.50
   0  -4 -10    7.50    1.90
   0  -4 -10    7.40    1.60
   0  -4 -10    6.80    1.30
   0   4  10    6.20    1.90
   0   4  10    6.50    1.20
  -1  -4 -10   19.40    2.10
  -1  -4 -10   18.00    2.10
  -1  -4 -10   20.50    2.60
  -1  -4 -10   17.00    2.20
   1   4  10   20.30    2.60
  -2  -4 -10   -1.00    2.30
  -2  -4 -10    3.50    1.70
  -2  -4 -10    1.10    1.40
  -2  -4 -10   -0.30    1.60
   2   4  10   -2.60    2.10
   5  -5 -10    2.80    1.80
   5  -5 -10    2.90    1.60
   5  -5 -10    2.30    1.70
  -5   5  10   -1.10    2.20
  -5   5  10   -0.60    1.60
  -5   5  10    2.30    1.80
   4  -5 -10   18.50    2.30
   4  -5 -10   10.80    1.80
   4  -5 -10   17.10    2.60
   4  -5 -10   13.50    2.20
  -4   5  10   12.30    2.10
  -4   5  10   13.20    2.50
  -4   5  10   17.70    2.20
   3  -5 -10    1.50    1.30
   3  -5 -10    5.20    1.50
   3  -5 -10    2.00    1.60
   3  -5 -10    4.20    2.00
   3  -5 -10    4.80    1.30
  -3   5  10    0.80    1.50
  -3   5  10    6.70    1.80
  -3   5  10    0.10    2.00
   2  -5 -10   -0.80    1.50
   2  -5 -10    1.80    1.80
   2  -5 -10   -0.20    1.20
   2  -5 -10    2.50    1.50
   2  -5 -10    0.00    1.60
   2  -5 -10   -0.30    1.30
  -2   5  10    2.50    1.70
  -2   5  10    1.80    1.90
  -2   5  10    2.60    1.70
   1  -5 -10    6.30    1.80
   1  -5 -10    9.40    1.70
   1  -5 -10    4.60    1.70
   1  -5 -10    5.30    1.50
   1  -5 -10    6.10    1.60
  -1   5  10    5.80    2.00
  -1   5  10    7.10    2.10
  -1   5  10    4.20    1.60
   0  -5 -10   33.60    3.10
   0  -5 -10   28.40    3.10
   0  -5 -10   33.20    2.80
   0  -5 -10   37.20    3.70
   0   5  10   29.60    2.50
   0   5  10   32.10    3.60
   0   5  10   39.60    3.50
   2   8 -11   18.00    2.40
   2   8 -11   21.70    2.90
   2   8 -11   21.50    2.60
   2   8 -11   18.90    2.30
  -2  -8  11   23.40    2.20
  -2  -8  11   22.90    2.50
  -2  -8  11   14.80    1.90
  -2  -8  11   17.70    2.20
  -2  -8  11   21.60    2.50
   1   8 -11   24.40    2.80
   1   8 -11   20.40    2.70
   1   8 -11   19.10    2.60
   1   8 -11   21.00    2.50
   1   8 -11   21.00    2.20
  -1  -8  11   20.70    2.30
  -1  -8  11   23.30    2.00
  -1  -8  11   22.10    2.60
  -1  -8  11   20.70    2.60
  -1  -8  11   22.80    2.20
   0   8 -11   33.60    3.50
   0   8 -11   33.10    4.10
   0   8 -11   32.00    2.90
   0   8 -11   37.30    3.10
   0  -8  11   32.80    2.70
   0  -8  11   24.00    3.00
   0  -8  11   32.00    2.50
   0  -8  11   34.90    2.40
   0  -8  11   34.50    2.10
  -1   8 -11   22.70    2.90
  -1   8 -11   23.90    3.00
  -1   8 -11   21.20    2.80
  -1   8 -11   28.40    3.00
   1  -8  11   24.60    2.60
   1  -8  11   20.80    1.90
   1  -8  11   22.00    2.10
   1  -8  11   24.20    1.60
  -2   8 -11   49.20    3.30
  -2   8 -11   52.19    4.40
  -2   8 -11   54.79    3.80
   2  -8  11   50.19    3.30
   2  -8  11   48.00    2.80
   4   7 -11   39.60    4.10
   4   7 -11   41.70    3.50
   4   7 -11   33.70    3.70
   4   7 -11   44.20    3.30
  -4  -7  11   34.50    3.00
  -4  -7  11   35.10    4.20
  -4  -7  11   43.80    3.60
  -4  -7  11   37.80    2.60
   3   7 -11   18.70    2.40
   3   7 -11   15.10    2.50
   3   7 -11   17.60    2.90
   3   7 -11   19.30    2.10
  -3  -7  11   20.00    2.30
  -3  -7  11   20.50    2.50
  -3  -7  11   18.50    2.40
  -3  -7  11   16.80    1.90
  -3  -7  11   21.30    2.70
  -3  -7  11   20.40    2.10
   2   7 -11   78.69    3.70
   2   7 -11   86.49    4.00
   2   7 -11   74.79    3.90
   2   7 -11   64.39    3.70
   2   7 -11   67.09    4.20
  -2  -7  11   73.69    3.80
  -2  -7  11   76.09    3.70
  -2  -7  11   80.89    3.30
  -2  -7  11   80.09    3.30
  -2  -7  11   76.49    3.40
  -2  -7  11   76.79    4.50
   1   7 -11   13.00    1.70
   1   7 -11   11.00    2.00
   1   7 -11    9.80    1.70
   1   7 -11   11.90    2.00
   1   7 -11   10.50    1.70
  -1  -7  11   12.00    1.50
  -1  -7  11   13.50    1.60
  -1  -7  11   10.80    2.00
  -1  -7  11   11.60    1.40
  -1  -7  11   12.30    1.50
   0   7 -11   15.50    2.30
   0   7 -11    9.30    1.60
   0   7 -11   12.90    1.80
   0   7 -11   11.10    2.10
   0   7 -11   11.30    1.70
   0  -7  11   10.20    1.60
   0  -7  11   12.90    1.40
   0  -7  11   12.50    1.40
   0  -7  11   12.30    1.40
  -1   7 -11   13.10    1.80
  -1   7 -11   12.80    1.90
  -1   7 -11   16.80    2.30
  -1   7 -11   13.60    1.90
  -1   7 -11    9.50    2.20
   1  -7  11   11.00    2.20
   1  -7  11   12.40    1.60
   1  -7  11   14.40    1.60
   1  -7  11   13.80    1.40
   1  -7  11   19.50    2.30
  -2   7 -11    7.90    1.60
  -2   7 -11    4.90    1.60
  -2   7 -11    4.00    1.70
  -2   7 -11    8.70    2.10
   2  -7  11    5.70    2.10
   2  -7  11    5.60    1.40
   2  -7  11    8.80    1.30
  -3   7 -11   -1.70    1.90
  -3   7 -11   -1.10    1.60
  -3   7 -11   -0.10    1.60
   3  -7  11   -2.70    1.30
   3  -7  11    2.20    1.20
   3  -7  11    0.50    1.30
   3  -7  11   -0.50    1.20
   5   6 -11    2.70    1.90
   5   6 -11    0.10    2.10
   5   6 -11    1.20    1.70
   5   6 -11   -1.30    1.70
  -5  -6  11    2.30    1.80
  -5  -6  11    2.30    2.10
  -5  -6  11    1.30    1.50
   4   6 -11    2.80    1.90
   4   6 -11    3.90    2.00
   4   6 -11    2.00    1.70
   4   6 -11    4.20    1.60
  -4  -6  11    2.30    1.80
  -4  -6  11    2.20    1.00
  -4  -6  11    2.30    1.90
  -4  -6  11    3.70    1.50
  -4  -6  11    6.30    1.60
   3   6 -11   41.30    2.70
   3   6 -11   38.50    3.00
   3   6 -11   42.90    3.20
   3   6 -11   37.50    3.30
   3   6 -11   42.80    3.00
  -3  -6  11   39.00    2.70
  -3  -6  11   40.90    3.30
  -3  -6  11   36.70    3.00
  -3  -6  11   42.60    2.50
  -3  -6  11   41.80    2.60
  -3  -6  11   44.50    2.70
   2   6 -11   44.10    2.60
   2   6 -11   37.70    2.80
   2   6 -11   44.60    2.90
   2   6 -11   42.20    2.90
   2   6 -11   40.40    3.20
  -2  -6  11   43.70    2.40
  -2  -6  11   42.50    2.40
  -2  -6  11   43.60    2.60
  -2  -6  11   43.60    2.70
  -2  -6  11   43.20    2.70
  -2  -6  11   45.10    3.30
   1   6 -11    2.30    1.40
   1   6 -11    0.60    0.90
   1   6 -11    2.90    1.30
   1   6 -11    2.00    1.30
   1   6 -11    0.20    1.40
  -1  -6  11    2.90    1.00
  -1  -6  11    0.10    1.30
  -1  -6  11    1.90    1.00
  -1  -6  11    3.20    1.10
   0   6 -11   -2.60    1.30
   0   6 -11    0.10    1.10
   0   6 -11    0.40    1.40
   0   6 -11    1.30    1.30
   0   6 -11    0.20    1.10
   0  -6  11   -0.20    1.10
   0  -6  11   -0.40    0.90
   0  -6  11   -0.70    1.00
  -1   6 -11    8.00    1.80
  -1   6 -11    8.60    1.50
  -1   6 -11    8.10    1.70
  -1   6 -11    8.20    1.50
  -1   6 -11   10.80    1.90
   1  -6  11   12.40    1.30
   1  -6  11    8.10    1.40
   1  -6  11    9.60    1.40
   1  -6  11   10.60    1.50
   1  -6  11   12.30    2.00
  -2   6 -11    1.80    1.60
  -2   6 -11   -1.10    1.80
  -2   6 -11    0.80    1.30
  -2   6 -11    3.20    1.60
  -2   6 -11    1.30    1.20
   2  -6  11    0.40    1.10
   2  -6  11    2.70    1.20
   2  -6  11   -0.50    1.60
   2  -6  11    1.40    1.00
  -3   6 -11    0.10    1.40
  -3   6 -11   -4.20    1.60
  -3   6 -11    0.00    1.40
   3  -6  11   -1.00    1.70
   3  -6  11    0.20    0.90
   3  -6  11    0.30    1.30
   3  -6  11    0.70    1.20
   3  -6  11   -0.50    1.10
  -4   6 -11   28.30    3.30
  -4   6 -11   28.10    3.60
  -4   6 -11   25.50    3.10
   4  -6  11   21.40    2.80
   4  -6  11   24.00    2.60
   4  -6  11   31.80    2.60
   4  -6  11   28.70    3.60
   6   5 -11   23.90    3.00
   6   5 -11   19.70    2.10
   6   5 -11   21.10    2.60
  -6  -5  11   15.00    2.20
  -6  -5  11   21.00    2.60
  -6  -5  11   14.70    2.50
   5   5 -11    2.50    2.10
   5   5 -11   -0.10    1.40
   5   5 -11    0.50    1.60
  -5  -5  11    5.30    1.50
  -5  -5  11    2.10    1.60
  -5  -5  11    0.60    1.60
   4   5 -11   54.79    3.50
   4   5 -11   48.00    3.50
   4   5 -11   57.29    3.50
   4   5 -11   55.99    2.90
   4   5 -11   51.49    3.10
  -4  -5  11   49.50    3.20
  -4  -5  11   50.99    3.10
  -4  -5  11   48.60    3.50
  -4  -5  11   56.29    3.10
  -4  -5  11   55.19    2.30
   3   5 -11   33.60    2.70
   3   5 -11   34.90    3.70
   3   5 -11   35.50    2.90
   3   5 -11   33.00    2.20
  -3  -5  11   31.70    2.50
  -3  -5  11   35.30    2.20
  -3  -5  11   31.40    2.40
  -3  -5  11   33.60    2.60
  -3  -5  11   32.40    2.60
  -3  -5  11   33.80    2.20
   2   5 -11   18.40    2.30
   2   5 -11   17.80    2.10
   2   5 -11   18.90    1.70
   2   5 -11   16.50    1.80
  -2  -5  11   18.80    3.30
  -2  -5  11   20.70    2.10
  -2  -5  11   22.80    2.00
  -2  -5  11   21.20    1.80
   1   5 -11   41.70    2.70
   1   5 -11   43.20    2.80
   1   5 -11   41.30    2.30
   1   5 -11   42.20    1.90
   1   5 -11   42.20    2.70
  -1  -5  11   42.60    2.40
  -1  -5  11   41.10    2.30
  -1  -5  11   41.10    2.30
  -1  -5  11   42.10    2.50
   0   5 -11   73.49    3.30
   0   5 -11   74.59    3.60
   0   5 -11   78.69    3.30
   0   5 -11   68.89    3.30
   0  -5  11   75.69    2.80
   0  -5  11   71.19    3.20
   0  -5  11   79.29    3.20
   0  -5  11   73.99    3.20
  -1   5 -11    1.30    1.40
  -1   5 -11    0.50    1.30
  -1   5 -11    1.20    1.10
  -1   5 -11    1.40    1.10
   1  -5  11   -0.10    1.10
   1  -5  11    0.60    1.00
   1  -5  11    1.60    1.30
   1  -5  11    1.50    0.70
   1  -5  11    1.60    1.60
  -2   5 -11   14.10    2.00
  -2   5 -11   18.30    2.20
  -2   5 -11   18.10    2.10
  -2   5 -11   16.20    2.30
   2  -5  11   20.00    2.10
   2  -5  11   17.60    1.10
   2  -5  11   16.80    1.80
   2  -5  11   18.20    1.90
  -3   5 -11   -1.90    1.30
  -3   5 -11    0.40    1.30
   3  -5  11    1.00    0.60
   3  -5  11    0.60    1.50
   3  -5  11    0.40    1.40
   3  -5  11    1.10    1.10
   3  -5  11    0.40    1.10
  -4   5 -11    4.30    1.70
  -4   5 -11    5.30    3.80
  -4   5 -11    3.80    1.70
   4  -5  11    6.10    1.40
   4  -5  11    5.00    1.90
   4  -5  11    5.30    0.90
   4  -5  11    4.40    1.80
   4  -5  11    1.70    1.50
   6   4 -11    0.90    1.50
   6   4 -11    1.50    1.60
  -6  -4  11    3.10    1.70
  -6  -4  11   -0.70    1.80
  -6  -4  11    0.50    1.60
   5   4 -11    1.80    1.40
   5   4 -11    4.50    1.80
  -5  -4  11    2.90    1.60
  -5  -4  11    3.30    1.50
  -5  -4  11    5.40    1.50
   4   4 -11   28.50    2.50
   4   4 -11   31.90    2.80
   4   4 -11   30.60    2.90
  -4  -4  11   32.00    2.30
  -4  -4  11   29.80    2.40
  -4  -4  11   30.50    1.70
  -4  -4  11   33.00    2.50
  -4  -4  11   28.10    2.70
   3   4 -11   16.40    1.90
   3   4 -11   17.70    2.10
   3   4 -11   21.50    2.20
  -3  -4  11   20.80    3.30
  -3  -4  11   17.20    1.80
  -3  -4  11   18.20    2.20
  -3  -4  11   19.60    2.10
   2   4 -11   95.09    3.80
   2   4 -11   89.19    3.80
   2   4 -11   97.19    3.10
   2   4 -11   98.89    3.80
  -2  -4  11  100.19    3.60
  -2  -4  11   95.59    3.80
  -2  -4  11   96.29    3.60
  -2  -4  11   91.09    3.60
   1   4 -11    7.90    1.40
   1   4 -11    6.60    1.30
   1   4 -11   10.50    1.30
   1   4 -11    7.90    0.90
   1   4 -11    7.90    1.50
  -1  -4  11    7.50    1.20
  -1  -4  11    5.10    1.00
  -1  -4  11    7.20    1.20
   0   4 -11    4.20    1.20
   0   4 -11    4.20    1.40
   0   4 -11    5.40    1.30
   0   4 -11    5.30    1.10
   0  -4  11    5.30    1.00
   0  -4  11    3.70    1.90
   0  -4  11    3.90    1.00
   0  -4  11    3.80    1.00
  -1   4 -11    1.40    1.30
  -1   4 -11    3.60    1.00
  -1   4 -11    0.60    1.30
  -1   4 -11    2.40    1.20
  -1   4 -11    3.00    0.90
   1  -4  11    2.30    1.10
   1  -4  11    2.00    1.00
   1  -4  11    2.60    1.10
   1  -4  11    2.50    0.80
  -2   4 -11    0.20    1.20
  -2   4 -11    2.10    1.50
  -2   4 -11    1.50    1.40
  -2   4 -11    1.00    0.70
  -2   4 -11    2.70    1.10
   2  -4  11    0.70    0.60
   2  -4  11    0.60    0.90
   2  -4  11    0.70    1.10
   2  -4  11   -0.10    1.10
   2  -4  11    1.10    1.00
  -3   4 -11   70.39    4.10
  -3   4 -11   78.79    4.30
  -3   4 -11   79.29    5.00
  -3   4 -11   80.89    3.70
   3  -4  11   76.79    3.30
   3  -4  11   73.59    3.60
   3  -4  11   79.09    3.40
   3  -4  11   73.99    3.80
  -4   4 -11   15.50    2.10
   4  -4  11   13.90    1.80
   4  -4  11   14.90    2.20
   4  -4  11   12.80    1.10
   4  -4  11   11.40    1.80
   4  -4  11   15.10    2.00
  -5   4 -11    3.10    2.10
  -5   4 -11    3.70    2.20
   5  -4  11    4.20    2.30
   5  -4  11    1.70    1.60
   5  -4  11    0.70    1.50
   7   3 -11   13.40    2.60
   7   3 -11   11.00    2.20
  -7  -3  11    8.60    2.20
  -7  -3  11   10.50    2.00
   6   3 -11    6.80    2.10
   6   3 -11    6.70    1.80
  -6  -3  11    4.10    1.50
  -6  -3  11    6.60    1.40
  -6  -3  11    8.50    1.90
   5   3 -11  143.29    5.50
   5   3 -11  133.09    5.40
   5   3 -11  143.19    5.00
  -5  -3  11  141.69    5.30
  -5  -3  11  144.29    4.20
  -5  -3  11  143.59    5.20
  -5  -3  11  137.29    5.30
   4   3 -11    0.20    1.30
   4   3 -11   -0.20    1.20
   4   3 -11   -1.70    1.30
  -4  -3  11    0.20    1.20
  -4  -3  11    1.50    1.30
  -4  -3  11    0.10    1.10
   3   3 -11   73.09    3.50
   3   3 -11   77.99    3.40
   3   3 -11   83.09    3.60
  -3  -3  11   80.89    3.60
  -3  -3  11   79.19    3.40
  -3  -3  11   76.69    3.40
   2   3 -11    7.70    1.00
   2   3 -11    7.90    1.20
   2   3 -11    7.60    1.30
   2   3 -11    7.00    1.30
   2   3 -11    5.00    1.20
  -2  -3  11    7.30    1.20
  -2  -3  11    5.90    1.10
  -2  -3  11    7.20    1.30
  -2  -3  11    6.00    1.20
   1   3 -11  284.37    8.10
   1   3 -11  285.87    7.80
   1   3 -11  274.27    8.00
   1   3 -11  291.67    7.50
   1   3 -11  287.37    8.10
  -1  -3  11  284.77    8.00
  -1  -3  11  293.37    8.00
  -1  -3  11  289.57    7.70
  -1  -3  11  286.17    8.20
   0   3 -11   49.80    2.80
   0   3 -11   50.49    2.70
   0   3 -11   50.79    2.30
   0   3 -11   51.19    2.30
   0   3 -11   48.40    2.90
   0  -3  11   48.30    2.60
   0  -3  11   47.80    2.60
   0  -3  11   51.29    2.60
   0  -3  11   52.39    2.30
  -1   3 -11   48.10    3.00
  -1   3 -11   58.89    3.20
  -1   3 -11   51.39    3.00
  -1   3 -11   57.69    2.90
  -1   3 -11   53.79    2.30
   1  -3  11   50.29    2.70
   1  -3  11   51.79    2.80
   1  -3  11   52.79    2.70
   1  -3  11   49.90    2.20
  -2   3 -11    4.30    1.50
  -2   3 -11    4.20    0.90
  -2   3 -11    3.10    1.30
  -2   3 -11    3.00    1.40
   2  -3  11    3.00    0.80
   2  -3  11    5.20    1.10
   2  -3  11    2.90    1.00
   2  -3  11    6.40    1.30
   2  -3  11    4.30    1.40
  -3   3 -11    1.60    1.50
  -3   3 -11    0.30    1.30
  -3   3 -11   -1.70    1.60
  -3   3 -11    0.50    0.80
   3  -3  11    0.60    1.20
   3  -3  11   -0.40    1.00
   3  -3  11    2.30    1.20
  -4   3 -11   99.59    5.70
  -4   3 -11  100.89    3.30
   4  -3  11  101.39    4.90
   4  -3  11  102.49    4.40
   4  -3  11  105.69    4.40
   4  -3  11  107.19    3.50
  -5   3 -11    2.00    1.70
  -5   3 -11    6.20    1.30
   5  -3  11    5.60    1.70
   5  -3  11    3.10    2.30
   5  -3  11    7.20    1.80
   7   2 -11   21.30    2.80
   7   2 -11   19.80    2.50
  -7  -2  11   19.60    2.10
  -7  -2  11   17.40    2.40
   6   2 -11   19.20    2.70
   6   2 -11   18.40    2.50
   6   2 -11   20.30    2.20
  -6  -2  11   20.30    1.50
  -6  -2  11   21.30    2.50
  -6  -2  11   20.00    2.30
   5   2 -11   13.20    1.90
   5   2 -11   13.70    2.10
   5   2 -11   15.50    1.90
  -5  -2  11   16.20    2.20
  -5  -2  11   15.20    2.00
  -5  -2  11   18.90    2.20
  -5  -2  11   12.40    1.00
   4   2 -11  297.57    8.80
   4   2 -11  301.07    8.70
   4   2 -11  321.67    9.00
   4   2 -11  301.67    8.50
  -4  -2  11  310.97    9.00
  -4  -2  11  298.97    8.60
  -4  -2  11  298.87    8.60
   3   2 -11    5.00    1.50
   3   2 -11    0.40    1.00
   3   2 -11    3.50    1.20
   3   2 -11    3.20    1.00
  -3  -2  11    2.30    1.10
  -3  -2  11    3.10    1.10
  -3  -2  11    3.80    1.30
   2   2 -11  375.56   10.40
   2   2 -11  403.26   10.50
   2   2 -11  374.56   10.20
   2   2 -11  383.56   10.30
  -2  -2  11  386.36   10.20
  -2  -2  11  389.46   10.60
  -2  -2  11  396.76   10.30
  -2  -2  11  396.16   10.40
   1   2 -11    5.00    0.70
   1   2 -11    1.80    1.00
   1   2 -11    3.70    1.20
   1   2 -11    5.10    1.00
   1   2 -11    2.80    1.20
  -1  -2  11    2.50    1.00
  -1  -2  11    4.20    1.10
  -1  -2  11    3.70    1.10
  -1  -2  11    4.90    1.00
   0   2 -11   96.59    3.80
   0   2 -11   95.49    3.70
   0   2 -11   96.29    3.40
   0   2 -11   94.69    3.80
   0   2 -11   93.49    3.20
   0  -2  11   92.59    3.70
   0  -2  11   96.89    3.70
   0  -2  11   91.09    3.30
   0  -2  11   92.89    3.70
  -1   2 -11   11.60    1.80
  -1   2 -11   10.90    1.70
  -1   2 -11   11.50    1.30
  -1   2 -11   12.20    1.60
   1  -2  11   11.00    1.50
   1  -2  11   11.60    1.50
   1  -2  11   10.40    1.50
   1  -2  11   11.70    1.60
  -2   2 -11   91.49    4.10
  -2   2 -11   98.69    3.40
  -2   2 -11   93.79    3.90
  -2   2 -11   95.29    4.20
   2  -2  11   97.19    4.00
   2  -2  11   96.09    3.10
   2  -2  11   97.79    3.90
   2  -2  11   90.29    4.00
   2  -2  11   95.09    3.30
  -3   2 -11   69.79    2.80
  -3   2 -11   70.69    3.50
  -3   2 -11   58.79    3.70
  -3   2 -11   60.49    3.90
   3  -2  11   66.79    3.40
   3  -2  11   67.59    3.40
   3  -2  11   71.09    2.40
  -4   2 -11   17.30    2.00
  -4   2 -11   11.40    1.90
   4  -2  11   10.80    1.90
   4  -2  11   10.90    1.80
   4  -2  11   11.10    2.30
   5  -2  11    1.00    1.70
   7   1 -11   72.99    4.30
  -7  -1  11   69.69    4.50
   6   1 -11   22.00    2.80
   6   1 -11   22.90    2.50
   6   1 -11   14.90    2.50
  -6  -1  11   23.80    3.10
  -6  -1  11   21.30    2.50
   5   1 -11  170.38    5.80
   5   1 -11  158.78    7.60
   5   1 -11  178.88    5.80
   5   1 -11  173.08    6.80
  -5  -1  11  169.68    5.90
  -5  -1  11  168.88    4.60
  -5  -1  11  171.38    5.80
   4   1 -11    1.30    1.30
   4   1 -11   -0.90    1.10
   4   1 -11   -1.00    1.00
   4   1 -11   -0.40    1.00
  -4  -1  11    0.90    1.30
  -4  -1  11    1.20    1.20
  -4  -1  11    2.60    1.30
   3   1 -11   13.60    1.60
   3   1 -11   12.10    1.60
   3   1 -11   11.20    1.60
   3   1 -11   13.20    1.80
  -3  -1  11   16.90    2.00
  -3  -1  11   13.00    1.70
  -3  -1  11   10.30    1.50
   2   1 -11   13.20    1.70
   2   1 -11   10.40    1.50
   2   1 -11    9.00    1.30
   2   1 -11   11.00    1.60
  -2  -1  11   12.00    1.50
  -2  -1  11   13.10    1.50
  -2  -1  11   11.90    1.50
  -2  -1  11   12.90    1.70
   1   1 -11    5.30    1.30
   1   1 -11    6.30    1.10
   1   1 -11    7.00    0.90
   1   1 -11    5.90    1.30
   1   1 -11    4.80    1.30
  -1  -1  11    7.70    1.30
  -1  -1  11    6.30    1.10
  -1  -1  11    5.80    1.30
  -1  -1  11    7.40    1.20
   0   1 -11   25.70    2.30
   0   1 -11   25.90    1.90
   0   1 -11   23.00    2.30
   0   1 -11   25.20    2.10
   0  -1  11   27.00    2.10
   0  -1  11   29.70    2.10
   0  -1  11   24.00    2.20
   0  -1  11   25.80    1.90
  -1   1 -11   68.39    2.90
  -1   1 -11   67.99    3.50
  -1   1 -11   68.29    3.30
  -1   1 -11   73.49    3.20
   1  -1  11   65.19    3.10
   1  -1  11   71.19    2.80
   1  -1  11   61.99    3.20
   1  -1  11   63.49    3.10
  -2   1 -11   36.50    2.80
  -2   1 -11   34.50    2.20
  -2   1 -11   39.30    3.10
  -2   1 -11   37.80    2.60
   2  -1  11   35.90    2.60
   2  -1  11   32.00    2.10
   2  -1  11   32.20    2.70
   2  -1  11   34.80    1.60
   2  -1  11   34.50    2.70
  -3   1 -11   63.29    2.90
  -3   1 -11   53.69    3.60
  -3   1 -11   54.59    3.90
  -3   1 -11   58.69    3.30
   3  -1  11   57.19    3.30
   3  -1  11   63.89    3.30
   3  -1  11   54.69    3.70
  -4   1 -11   11.90    2.00
  -4   1 -11   14.00    1.80
   4  -1  11   12.50    1.90
   4  -1  11   14.30    2.00
   7   0 -11   -0.50    3.40
   7   0 -11    1.30    1.80
  -7   0  11    1.40    1.90
   6   0 -11   82.49    3.90
   6   0 -11   78.09    4.20
   6   0 -11   83.29    4.40
   6   0 -11   84.39    4.20
  -6   0  11   76.49    4.20
  -6   0  11   83.29    4.40
  -6   0  11   85.29    2.80
   5   0 -11   60.09    3.60
   5   0 -11   59.29    3.60
   5   0 -11   63.09    3.50
   5   0 -11   58.39    3.10
  -5   0  11   64.09    3.70
  -5   0  11   60.99    3.60
  -5   0  11   58.59    2.40
  -5   0  11   56.59    3.30
   4   0 -11   67.09    3.50
   4   0 -11   64.49    3.40
   4   0 -11   64.89    3.30
   4   0 -11   62.69    3.30
  -4   0  11   71.09    3.50
  -4   0  11   62.99    3.20
  -4   0  11   68.29    3.50
   3   0 -11   66.59    3.10
   3   0 -11   65.09    3.30
   3   0 -11   67.59    3.20
   3   0 -11   63.49    3.20
  -3   0  11   68.29    3.40
  -3   0  11   66.89    3.10
  -3   0  11   62.59    3.10
   2   0 -11   36.20    1.50
   2   0 -11   37.30    2.60
   2   0 -11   35.50    2.40
   2   0 -11   37.90    2.30
   2   0 -11   35.80    2.50
  -2   0  11   36.50    2.40
  -2   0  11   41.50    2.50
  -2   0  11   38.60    2.40
   1   0 -11   25.70    2.00
   1   0 -11   22.30    2.00
   1   0 -11   24.80    2.30
   1   0 -11   25.10    2.20
  -1   0  11   21.30    2.20
  -1   0  11   19.10    2.00
  -1   0  11   27.20    2.10
  -1   0  11   23.30    2.00
   0   0 -11    1.30    1.00
   0   0 -11    1.30    1.10
   0   0 -11    1.00    1.10
   0   0 -11    3.20    1.20
   0   0  11    1.20    1.10
   0   0  11    0.30    1.20
   0   0  11    3.60    1.10
   0   0  11    1.00    1.10
  -1   0 -11   19.40    2.80
  -1   0 -11   24.00    2.40
  -1   0 -11   25.00    2.00
  -1   0 -11   18.20    2.10
   1   0  11   24.50    2.40
   1   0  11   20.50    2.20
   1   0  11   23.90    2.00
   1   0  11   24.60    2.20
  -2   0 -11    7.00    1.60
  -2   0 -11    6.20    2.00
  -2   0 -11    9.80    1.50
  -2   0 -11    6.70    1.40
   2   0  11    6.30    1.70
   2   0  11    8.00    0.70
   2   0  11    7.80    1.80
   2   0  11    5.50    1.30
  -3   0 -11   32.30    3.20
  -3   0 -11   32.30    2.70
  -3   0 -11   33.40    2.60
  -3   0 -11   31.40    3.70
   3   0  11   33.30    2.70
   3   0  11   35.90    3.10
   3   0  11   27.00    4.20
  -4   0 -11    0.80    1.50
  -4   0 -11    1.70    1.60
   4   0  11    3.10    1.90
   4   0  11   -0.10    1.40
   4   0  11    0.60    0.70
   7  -1 -11    5.80    1.80
   7  -1 -11   -0.10    2.20
   7  -1 -11   -0.40    1.30
  -7   1  11    8.00    2.10
   6  -1 -11    3.00    1.90
   6  -1 -11   -1.70    1.20
   6  -1 -11    2.50    1.50
  -6   1  11    4.70    1.10
   5  -1 -11  179.28    6.10
   5  -1 -11  166.18    6.20
   5  -1 -11  184.88    6.20
   5  -1 -11  186.98    6.40
  -5   1  11  178.18    6.10
  -5   1  11  182.48    6.30
  -5   1  11  198.58    6.60
  -5   1  11  191.88    5.50
   4  -1 -11   17.40    2.10
   4  -1 -11   20.10    2.20
   4  -1 -11   17.10    2.00
   4  -1 -11   19.80    2.10
  -4   1  11   17.00    2.00
  -4   1  11   15.00    1.80
  -4   1  11   15.20    1.60
  -4   1  11   16.00    2.00
   3  -1 -11    2.60    1.30
   3  -1 -11    0.70    1.10
   3  -1 -11    2.10    1.10
   3  -1 -11    1.40    1.30
   3  -1 -11    0.50    0.80
  -3   1  11    2.50    1.20
  -3   1  11    0.70    1.10
  -3   1  11    1.00    1.20
   2  -1 -11   57.09    3.10
   2  -1 -11   56.79    2.90
   2  -1 -11   58.49    2.20
   2  -1 -11   59.99    3.10
   2  -1 -11   62.19    3.00
  -2   1  11   55.89    3.00
  -2   1  11   57.59    3.20
  -2   1  11   58.29    3.00
   1  -1 -11    0.70    1.00
   1  -1 -11   -0.20    1.00
   1  -1 -11    0.50    1.20
   1  -1 -11    0.40    1.10
  -1   1  11    1.80    1.20
  -1   1  11    1.90    1.30
  -1   1  11    0.20    1.20
   0  -1 -11   31.00    2.30
   0  -1 -11   35.90    2.30
   0  -1 -11   29.30    2.70
   0  -1 -11   29.90    2.50
   0   1  11   29.00    2.50
   0   1  11   27.30    2.60
   0   1  11   25.50    2.50
   0   1  11   30.20    2.40
  -1  -1 -11    2.90    1.60
  -1  -1 -11    0.80    1.20
  -1  -1 -11    3.00    1.20
  -1  -1 -11    1.70    1.30
   1   1  11    1.60    1.50
   1   1  11    2.30    1.20
   1   1  11    1.60    1.30
   1   1  11    1.40    1.40
  -2  -1 -11   32.70    2.50
  -2  -1 -11   31.70    2.90
  -2  -1 -11   33.50    3.30
   2   1  11   34.60    3.00
   2   1  11   30.70    2.80
  -3  -1 -11   50.49    3.20
  -3  -1 -11   58.49    4.60
  -3  -1 -11   52.09    3.20
  -3  -1 -11   48.50    3.60
   3   1  11   51.19    3.60
   3   1  11   58.19    3.40
   7  -2 -11   19.80    2.60
   7  -2 -11   21.90    2.60
   7  -2 -11   20.20    3.00
  -7   2  11   20.40    3.10
   6  -2 -11   51.59    3.40
   6  -2 -11   55.69    3.90
   6  -2 -11   57.29    3.60
  -6   2  11   58.29    4.20
  -6   2  11   58.89    3.00
   5  -2 -11    0.10    1.10
   5  -2 -11   -1.60    1.10
   5  -2 -11    3.20    1.70
  -5   2  11    2.20    1.80
  -5   2  11   -0.70    1.10
   4  -2 -11    7.60    1.40
   4  -2 -11    2.70    1.70
   4  -2 -11    4.30    1.30
   4  -2 -11   10.60    1.80
  -4   2  11    6.00    1.30
  -4   2  11    4.80    1.60
  -4   2  11    4.70    1.50
  -4   2  11    8.80    1.90
   3  -2 -11   30.40    2.20
   3  -2 -11   27.40    2.30
   3  -2 -11   29.60    2.30
   3  -2 -11   32.50    2.70
   3  -2 -11   23.90    2.60
  -3   2  11   29.40    2.70
  -3   2  11   30.90    2.60
  -3   2  11   31.00    2.80
   2  -2 -11    0.30    1.30
   2  -2 -11    0.50    0.90
   2  -2 -11   -0.40    0.90
   2  -2 -11   -0.60    1.30
   2  -2 -11    2.60    1.20
   2  -2 -11    0.10    0.50
  -2   2  11    0.30    1.30
  -2   2  11    0.80    1.40
  -2   2  11    0.30    1.30
   1  -2 -11    0.80    1.20
   1  -2 -11    1.10    1.30
   1  -2 -11    1.40    1.10
   1  -2 -11    2.20    1.00
  -1   2  11    2.70    1.50
  -1   2  11    3.10    1.50
  -1   2  11    0.00    1.30
   0  -2 -11   23.30    2.50
   0  -2 -11   21.20    2.10
   0  -2 -11   25.30    2.70
   0  -2 -11   23.30    2.30
   0   2  11   17.80    2.20
   0   2  11   22.80    2.60
   0   2  11   20.90    2.60
  -1  -2 -11   29.80    2.30
  -1  -2 -11   26.50    2.70
  -1  -2 -11   26.10    2.50
  -1  -2 -11   27.40    3.20
   1   2  11   29.00    2.80
   1   2  11   27.50    1.50
   1   2  11   26.50    2.90
  -2  -2 -11   23.70    2.90
  -2  -2 -11   26.20    2.80
  -2  -2 -11   28.10    2.50
  -2  -2 -11   30.10    2.80
   2   2  11   31.30    3.20
   2   2  11   26.50    2.90
  -3  -2 -11    6.20    2.00
  -3  -2 -11    8.30    1.80
  -3  -2 -11    4.90    1.70
   3   2  11    9.70    1.90
   3   2  11    5.40    2.20
   6  -3 -11    5.90    2.20
   6  -3 -11    8.60    1.80
   6  -3 -11   10.60    2.00
  -6   3  11    9.30    1.70
  -6   3  11   12.00    2.60
   5  -3 -11   55.49    3.80
   5  -3 -11   46.00    3.20
   5  -3 -11   55.59    3.40
  -5   3  11   57.99    3.30
  -5   3  11   57.19    4.20
   4  -3 -11   71.09    3.70
   4  -3 -11   67.39    3.50
   4  -3 -11   67.19    3.50
   4  -3 -11   68.89    3.70
  -4   3  11   74.69    3.60
  -4   3  11   69.79    3.90
   3  -3 -11   14.50    1.70
   3  -3 -11   13.20    2.00
   3  -3 -11   16.40    2.10
   3  -3 -11   17.90    2.20
   3  -3 -11   20.90    2.40
  -3   3  11   17.10    2.00
  -3   3  11   20.10    2.30
   2  -3 -11   21.80    2.20
   2  -3 -11   19.90    1.50
   2  -3 -11   19.90    2.10
   2  -3 -11   20.70    2.30
   2  -3 -11   17.60    1.90
   2  -3 -11   20.40    2.20
  -2   3  11   18.80    3.30
  -2   3  11   17.90    2.70
  -2   3  11   20.00    2.30
   1  -3 -11    1.30    1.10
   1  -3 -11   -0.40    1.40
   1  -3 -11   -1.30    1.40
   1  -3 -11    2.90    1.20
  -1   3  11    0.50    1.60
  -1   3  11    0.70    1.20
   0  -3 -11   50.29    3.70
   0  -3 -11   51.99    3.00
   0  -3 -11   50.09    3.30
   0  -3 -11   48.30    2.90
   0   3  11   49.10    2.40
   0   3  11   49.70    3.70
  -1  -3 -11   36.90    2.70
  -1  -3 -11   37.30    3.20
  -1  -3 -11   38.10    3.60
  -1  -3 -11   26.90    2.80
   1   3  11   37.90    1.80
   1   3  11   34.50    3.40
  -2  -3 -11    1.80    1.60
  -2  -3 -11    2.70    1.50
  -2  -3 -11    0.50    1.80
  -2  -3 -11    2.60    2.50
   2   3  11    4.00    2.10
   5  -4 -11   -2.00    1.40
   5  -4 -11    0.40    1.80
   5  -4 -11   -0.90    2.00
   5  -4 -11    2.70    1.60
  -5   4  11   -0.20    1.50
  -5   4  11    0.50    2.20
   4  -4 -11   11.30    2.20
   4  -4 -11   14.20    2.20
   4  -4 -11    8.70    1.80
   4  -4 -11    6.90    1.60
  -4   4  11   11.00    2.00
  -4   4  11   12.70    2.40
   3  -4 -11   47.20    3.30
   3  -4 -11   40.50    2.80
   3  -4 -11   41.30    3.10
   3  -4 -11   42.40    3.40
   3  -4 -11   45.20    1.90
  -3   4  11   51.49    3.80
  -3   4  11   36.20    3.00
  -3   4  11   45.40    3.40
   2  -4 -11   44.20    3.10
   2  -4 -11   53.69    4.20
   2  -4 -11   51.69    2.60
   2  -4 -11   50.49    3.20
   2  -4 -11   53.69    3.40
   2  -4 -11   48.40    3.10
  -2   4  11   51.39    3.20
  -2   4  11   50.39    3.50
  -2   4  11   47.00    3.90
   1  -4 -11   18.20    2.30
   1  -4 -11   18.80    2.40
   1  -4 -11   19.10    2.30
   1  -4 -11   17.60    2.30
   1  -4 -11   14.90    1.90
  -1   4  11   23.70    2.40
  -1   4  11   22.20    2.60
   0  -4 -11    4.90    2.10
   0  -4 -11    6.60    1.90
   0  -4 -11    4.00    1.50
   0  -4 -11    4.50    1.60
   0   4  11    6.30    1.50
   0   4  11    8.90    2.30
   1   8 -12    4.50    2.40
   1   8 -12    4.40    1.90
   1   8 -12    6.70    2.00
   1   8 -12    5.10    2.00
  -1  -8  12    1.10    1.60
  -1  -8  12    6.80    1.50
  -1  -8  12    3.50    1.40
  -1  -8  12    4.00    2.30
   0   8 -12   -0.60    1.80
   0   8 -12    0.70    2.00
   0  -8  12    0.60    1.20
   0  -8  12   -0.10    1.30
   0  -8  12   -0.90    1.30
   3   7 -12   17.20    2.50
   3   7 -12   19.30    2.60
   3   7 -12   19.30    2.40
  -3  -7  12   18.50    2.30
  -3  -7  12   18.90    2.10
  -3  -7  12   23.60    2.90
  -3  -7  12   17.90    2.10
  -3  -7  12   19.00    2.40
  -3  -7  12   21.50    2.70
   2   7 -12   -3.20    1.70
   2   7 -12   -3.10    1.80
   2   7 -12    3.20    1.90
   2   7 -12   -2.70    1.30
  -2  -7  12   -1.30    1.20
  -2  -7  12   -0.10    1.90
  -2  -7  12    2.80    1.60
  -2  -7  12   -0.70    1.50
  -2  -7  12    1.50    1.20
   1   7 -12    7.60    2.10
   1   7 -12   10.40    2.30
   1   7 -12    8.80    1.90
   1   7 -12    7.10    1.50
  -1  -7  12    7.90    1.50
  -1  -7  12    7.80    1.60
  -1  -7  12    6.30    1.40
  -1  -7  12    8.40    2.10
  -1  -7  12   11.50    1.50
   0   7 -12   13.60    2.50
   0   7 -12   18.40    2.10
   0   7 -12   13.80    2.10
   0   7 -12   12.10    2.30
   0  -7  12   15.40    1.80
   0  -7  12   19.10    2.20
   0  -7  12   15.10    1.90
   0  -7  12   15.40    1.80
  -1   7 -12   52.09    3.50
  -1   7 -12   55.29    4.10
  -1   7 -12   61.49    3.60
   1  -7  12   55.59    2.20
   1  -7  12   55.69    3.00
   1  -7  12   51.39    3.20
   1  -7  12   52.99    2.90
  -2   7 -12    8.30    2.50
  -2   7 -12   11.90    2.00
  -2   7 -12   12.90    2.20
   2  -7  12   14.30    1.80
   2  -7  12   11.40    1.80
   5   6 -12    2.50    1.80
   5   6 -12   -0.50    1.90
   5   6 -12    6.00    2.10
   5   6 -12   -3.50    2.30
  -5  -6  12    0.10    2.20
  -5  -6  12   -2.00    1.90
  -5  -6  12   -1.00    1.70
   4   6 -12    0.50    1.80
   4   6 -12    1.50    2.00
   4   6 -12    3.70    1.80
   4   6 -12    1.20    2.00
  -4  -6  12    3.80    1.20
  -4  -6  12    4.70    3.10
  -4  -6  12    3.00    1.50
  -4  -6  12    2.50    1.60
   3   6 -12    6.50    2.00
   3   6 -12    3.30    1.50
   3   6 -12    3.60    1.90
   3   6 -12    3.90    2.00
  -3  -6  12    1.90    1.60
  -3  -6  12    3.60    2.00
  -3  -6  12    5.90    1.40
  -3  -6  12    3.60    1.50
  -3  -6  12    4.90    1.50
  -3  -6  12    3.90    1.30
   2   6 -12   40.00    3.40
   2   6 -12   38.50    2.50
   2   6 -12   43.60    3.30
   2   6 -12   35.30    3.10
   2   6 -12   39.90    3.20
  -2  -6  12   38.80    2.80
  -2  -6  12   40.10    2.50
  -2  -6  12   35.10    2.70
  -2  -6  12   36.90    2.60
   1   6 -12   19.10    1.90
   1   6 -12   18.10    2.20
   1   6 -12   16.00    2.00
   1   6 -12   20.50    2.80
   1   6 -12   17.90    2.10
  -1  -6  12   18.10    2.10
  -1  -6  12   15.90    2.00
  -1  -6  12   16.90    2.10
  -1  -6  12   23.00    2.30
   0   6 -12   29.40    3.10
   0   6 -12   39.40    2.60
   0   6 -12   34.50    2.80
   0   6 -12   29.90    2.90
   0   6 -12   35.60    3.30
   0  -6  12   33.50    2.40
   0  -6  12   28.10    2.50
   0  -6  12   35.50    2.20
   0  -6  12   31.90    2.50
  -1   6 -12   21.70    3.10
  -1   6 -12   18.40    2.60
  -1   6 -12   23.50    3.00
  -1   6 -12   21.10    2.60
  -1   6 -12   26.20    3.10
   1  -6  12   21.40    2.40
   1  -6  12   20.60    2.20
   1  -6  12   30.00    3.00
   1  -6  12   21.00    2.30
   1  -6  12   22.20    1.60
  -2   6 -12    6.60    1.80
  -2   6 -12    6.50    1.50
  -2   6 -12    3.40    2.00
   2  -6  12    3.20    1.90
   2  -6  12    3.90    1.30
   2  -6  12    5.50    1.30
  -3   6 -12    1.00    1.60
  -3   6 -12    2.40    2.10
  -3   6 -12   -0.50    1.70
   3  -6  12    1.80    1.50
   3  -6  12    0.70    1.80
   3  -6  12    1.30    2.00
   3  -6  12    3.40    1.40
   5   5 -12    9.40    1.90
   5   5 -12   10.40    2.10
   5   5 -12   14.30    2.60
  -5  -5  12    9.80    2.10
  -5  -5  12    7.40    1.80
  -5  -5  12   14.20    2.10
   4   5 -12   -0.60    1.50
   4   5 -12   -1.70    1.20
   4   5 -12    2.10    1.90
  -4  -5  12   -1.80    1.30
  -4  -5  12    0.10    1.50
  -4  -5  12    2.00    1.80
  -4  -5  12   -1.40    0.90
  -4  -5  12    2.40    1.40
   3   5 -12   15.10    2.10
   3   5 -12   18.00    2.10
   3   5 -12   15.50    2.00
   3   5 -12   17.00    2.00
  -3  -5  12   12.90    1.80
  -3  -5  12   14.60    1.70
  -3  -5  12   15.30    1.80
  -3  -5  12   17.10    2.20
   2   5 -12    1.10    0.90
   2   5 -12    4.70    1.60
   2   5 -12    2.30    1.50
   2   5 -12    4.10    1.60
  -2  -5  12    3.00    1.30
  -2  -5  12    1.50    1.20
  -2  -5  12    2.20    1.30
  -2  -5  12    3.90    1.20
   1   5 -12   17.20    2.20
   1   5 -12   16.50    1.40
   1   5 -12   14.40    1.90
   1   5 -12   15.90    2.00
   1   5 -12   14.50    1.80
  -1  -5  12   16.70    2.10
  -1  -5  12   20.80    2.10
  -1  -5  12   17.00    1.90
   0   5 -12   26.90    2.20
   0   5 -12   24.80    2.70
   0   5 -12   27.30    2.40
   0   5 -12   28.30    2.90
   0  -5  12   25.70    2.10
   0  -5  12   24.80    2.40
   0  -5  12   26.90    2.30
   0  -5  12   24.70    1.90
  -1   5 -12   -1.40    1.60
  -1   5 -12    0.20    1.40
  -1   5 -12   -0.50    1.00
  -1   5 -12    0.00    1.30
   1  -5  12   -0.10    1.10
   1  -5  12    2.20    1.20
   1  -5  12   -1.20    1.20
   1  -5  12    1.20    0.90
  -2   5 -12    3.50    1.50
  -2   5 -12    2.40    1.50
   2  -5  12    2.50    1.40
   2  -5  12    3.20    0.70
   2  -5  12    3.60    1.40
   2  -5  12    1.30    1.50
   2  -5  12    1.10    1.40
  -3   5 -12    2.40    1.60
  -3   5 -12    0.00    1.60
   3  -5  12    0.60    1.70
   3  -5  12   -1.20    1.30
   3  -5  12   -2.50    1.20
   3  -5  12    1.00    1.70
  -4   5 -12   34.40    3.50
  -4   5 -12   36.10    3.80
  -4   5 -12   30.80    3.60
   4  -5  12   32.80    3.90
   4  -5  12   32.00    3.50
   4  -5  12   32.30    2.80
   4  -5  12   23.40    3.00
   6   4 -12   60.89    4.60
   6   4 -12   45.80    3.80
  -6  -4  12   48.20    3.90
  -6  -4  12   51.79    3.30
  -6  -4  12   49.40    3.70
   5   4 -12    1.50    1.60
   5   4 -12   -1.00    1.80
  -5  -4  12    1.60    1.60
  -5  -4  12    1.50    1.50
  -5  -4  12   -0.60    1.30
   4   4 -12    3.10    1.50
   4   4 -12    1.00    1.80
   4   4 -12    1.70    1.60
  -4  -4  12    0.10    1.30
  -4  -4  12   -0.90    1.50
  -4  -4  12    1.10    1.30
   3   4 -12   11.10    1.90
   3   4 -12   11.40    1.30
   3   4 -12    7.70    1.50
   3   4 -12    9.40    1.80
  -3  -4  12    8.60    1.60
  -3  -4  12    8.70    1.60
  -3  -4  12   11.10    1.50
  -3  -4  12    9.80    1.60
   2   4 -12    1.40    1.30
   2   4 -12   -0.20    1.20
   2   4 -12    0.70    0.70
   2   4 -12    2.60    1.30
  -2  -4  12   -0.30    1.10
  -2  -4  12    0.00    1.10
  -2  -4  12   -0.20    1.10
  -2  -4  12   -1.70    0.80
   1   4 -12   75.49    2.90
   1   4 -12   76.69    3.50
   1   4 -12   72.59    3.50
   1   4 -12   80.29    3.70
  -1  -4  12   75.89    3.40
  -1  -4  12   74.89    3.30
  -1  -4  12   73.59    3.40
  -1  -4  12   73.49    3.10
   0   4 -12  209.68    5.90
   0   4 -12  204.58    6.10
   0   4 -12  194.18    6.50
   0   4 -12  197.58    6.40
   0   4 -12  207.48    6.30
   0  -4  12  202.58    6.40
   0  -4  12  202.78    6.40
   0  -4  12  207.38    6.30
   0  -4  12  204.58    5.80
  -1   4 -12    6.40    1.50
  -1   4 -12    6.20    1.70
  -1   4 -12    7.70    1.90
  -1   4 -12    7.30    1.10
  -1   4 -12    7.00    1.30
   1  -4  12    6.00    1.40
   1  -4  12    7.50    1.20
   1  -4  12    6.50    1.30
   1  -4  12    8.90    1.10
  -2   4 -12   -1.60    0.80
  -2   4 -12    0.50    1.20
  -2   4 -12    1.40    1.40
   2  -4  12   -0.50    1.10
   2  -4  12    0.90    1.10
   2  -4  12    0.90    1.40
   2  -4  12   -0.80    1.30
   2  -4  12    0.30    0.80
  -3   4 -12  120.39    3.60
  -3   4 -12  127.09    5.00
  -3   4 -12  117.19    5.00
   3  -4  12  120.09    4.80
   3  -4  12  118.69    4.70
   3  -4  12  132.59    5.20
   3  -4  12  126.19    4.40
  -4   4 -12   59.89    3.90
  -4   4 -12   46.60    5.60
   4  -4  12   63.29    3.70
   4  -4  12   50.69    3.40
   4  -4  12   57.89    4.50
   4  -4  12   61.69    3.40
   6   3 -12    6.20    1.90
   6   3 -12    1.30    2.00
  -6  -3  12    6.30    1.30
  -6  -3  12    4.30    1.70
  -6  -3  12    6.20    2.00
   5   3 -12    1.30    2.00
   5   3 -12   -0.80    1.50
  -5  -3  12   -3.40    1.80
  -5  -3  12   -1.80    1.10
  -5  -3  12    0.90    1.50
   4   3 -12   -0.90    1.50
   4   3 -12    0.00    1.40
   4   3 -12    1.60    1.70
  -4  -3  12   -1.20    1.30
  -4  -3  12    1.80    1.20
  -4  -3  12    0.90    1.30
   3   3 -12   43.50    3.00
   3   3 -12   40.90    3.00
   3   3 -12   47.30    3.00
   3   3 -12   46.40    2.80
  -3  -3  12   45.80    2.80
  -3  -3  12   47.50    2.90
  -3  -3  12   46.40    2.80
   2   3 -12    1.70    0.60
   2   3 -12    1.80    1.20
   2   3 -12    1.00    1.30
   2   3 -12    2.50    1.20
   2   3 -12    0.40    1.20
  -2  -3  12    0.70    0.90
  -2  -3  12    3.00    1.20
  -2  -3  12    2.80    1.10
   1   3 -12    4.00    1.40
   1   3 -12    7.70    1.30
   1   3 -12    5.30    1.40
   1   3 -12    7.30    1.40
   1   3 -12    5.70    1.00
  -1  -3  12    5.50    1.20
  -1  -3  12    4.40    1.10
  -1  -3  12    7.40    1.40
   0   3 -12  408.26   11.50
   0   3 -12  435.56   11.40
   0   3 -12  436.96   11.00
   0   3 -12  430.36   10.90
   0   3 -12  414.76   11.40
   0  -3  12  415.06   11.70
   0  -3  12  437.46   11.30
   0  -3  12  422.86   10.80
   0  -3  12  410.26   11.50
  -1   3 -12   63.09    3.60
  -1   3 -12   73.69    3.60
  -1   3 -12   65.59    3.70
  -1   3 -12   71.39    2.90
  -1   3 -12   64.09    3.00
   1  -3  12   68.59    2.70
   1  -3  12   67.99    3.40
   1  -3  12   71.39    3.20
   1  -3  12   62.19    3.20
  -2   3 -12   54.79    3.00
  -2   3 -12   54.19    3.80
  -2   3 -12   54.79    2.50
  -2   3 -12   54.99    3.20
  -2   3 -12   47.80    3.60
   2  -3  12   55.69    3.00
   2  -3  12   56.59    2.70
   2  -3  12   54.29    3.00
   2  -3  12   54.09    3.40
  -3   3 -12    9.00    2.10
  -3   3 -12    7.90    1.20
   3  -3  12    4.00    1.40
   3  -3  12    9.20    1.60
   3  -3  12    4.90    1.50
  -4   3 -12    2.80    1.20
  -4   3 -12    3.10    1.80
   4  -3  12    2.90    1.50
   4  -3  12    0.90    1.40
   4  -3  12    2.00    2.20
   4  -3  12    3.80    1.40
   7   2 -12   13.70    2.70
  -7  -2  12    6.10    2.20
   6   2 -12   20.10    2.50
   6   2 -12   19.70    2.30
  -6  -2  12   27.20    3.20
  -6  -2  12   18.40    2.40
   5   2 -12   16.40    2.30
   5   2 -12   16.60    2.20
   5   2 -12   16.00    2.30
  -5  -2  12   17.30    2.30
  -5  -2  12   20.70    2.30
  -5  -2  12   17.80    2.30
   4   2 -12    1.60    1.40
   4   2 -12   -0.10    1.20
   4   2 -12    2.10    1.20
   4   2 -12    0.60    1.50
  -4  -2  12   -1.60    1.30
  -4  -2  12   -0.70    1.30
  -4  -2  12    2.10    1.40
   3   2 -12  122.29    4.60
   3   2 -12  123.39    4.80
   3   2 -12  127.39    4.60
   3   2 -12  126.59    4.80
  -3  -2  12  122.29    4.50
  -3  -2  12  125.19    4.60
   2   2 -12   24.80    1.30
   2   2 -12   24.50    2.40
   2   2 -12   24.00    2.10
   2   2 -12   19.90    2.40
   2   2 -12   24.30    2.30
  -2  -2  12   25.90    2.10
  -2  -2  12   21.70    2.20
  -2  -2  12   20.20    2.10
  -2  -2  12   28.80    2.20
   1   2 -12  160.58    5.10
   1   2 -12  162.58    5.30
   1   2 -12  154.88    5.40
   1   2 -12  160.58    5.40
   1   2 -12  158.38    4.50
  -1  -2  12  153.58    5.40
  -1  -2  12  156.78    5.40
  -1  -2  12  160.28    5.30
  -1  -2  12  152.28    5.00
   0   2 -12  152.98    5.40
   0   2 -12  153.78    5.40
   0   2 -12  159.98    5.00
   0   2 -12  156.58    4.70
   0   2 -12  158.78    5.30
   0  -2  12  147.79    5.70
   0  -2  12  157.78    5.30
   0  -2  12  152.08    4.90
  -1   2 -12    3.60    1.60
  -1   2 -12    1.50    1.30
  -1   2 -12    1.30    0.90
  -1   2 -12    1.40    1.50
   1  -2  12    1.10    1.30
   1  -2  12    2.40    1.00
   1  -2  12    2.40    1.20
  -2   2 -12  121.29    5.20
  -2   2 -12  116.59    5.20
  -2   2 -12  130.99    4.30
  -2   2 -12  139.49    5.50
   2  -2  12  128.49    4.80
   2  -2  12  129.69    4.00
   2  -2  12  126.69    4.90
   2  -2  12  130.09    4.20
   2  -2  12  128.09    5.10
  -3   2 -12   16.80    2.10
  -3   2 -12   12.70    1.90
   3  -2  12   15.30    1.60
   3  -2  12    9.10    1.70
   3  -2  12   13.00    1.80
  -4   2 -12   25.00    2.70
  -4   2 -12   19.20    1.90
   4  -2  12   23.20    2.60
   4  -2  12   21.80    2.30
   7   1 -12    4.10    2.10
  -7  -1  12    9.30    2.40
   6   1 -12   21.00    2.70
   6   1 -12   20.00    2.60
  -6  -1  12   20.90    1.20
  -6  -1  12   23.60    2.70
   5   1 -12   48.50    3.50
   5   1 -12   46.80    3.00
   5   1 -12   46.80    3.30
   5   1 -12   40.10    3.60
  -5  -1  12   46.40    3.50
  -5  -1  12   49.50    2.10
  -5  -1  12   43.40    3.40
  -5  -1  12   49.90    3.30
   4   1 -12   52.79    3.40
   4   1 -12   63.29    3.30
   4   1 -12   60.19    3.60
  -4  -1  12   50.39    4.90
  -4  -1  12   65.19    3.30
  -4  -1  12   62.89    3.40
   3   1 -12  116.09    4.60
   3   1 -12  113.79    4.40
   3   1 -12  118.99    4.60
   3   1 -12  113.49    4.50
  -3  -1  12  118.29    4.50
  -3  -1  12  121.49    4.70
  -3  -1  12  117.89    4.50
   2   1 -12   43.30    2.60
   2   1 -12   42.30    1.40
   2   1 -12   43.80    2.90
   2   1 -12   44.60    2.80
   2   1 -12   39.10    2.80
  -2  -1  12   44.60    2.70
  -2  -1  12   42.00    2.80
  -2  -1  12   29.70    3.90
  -2  -1  12   47.60    2.80
   1   1 -12   18.40    2.40
   1   1 -12   19.10    2.40
   1   1 -12   18.10    2.00
   1   1 -12   19.60    2.00
   1   1 -12   16.80    1.30
  -1  -1  12   20.00    2.20
  -1  -1  12   22.00    2.10
  -1  -1  12   18.20    2.20
   0   1 -12  203.28    6.60
   0   1 -12  211.18    6.50
   0   1 -12  199.28    6.50
   0   1 -12  209.48    6.20
   0  -1  12  209.58    6.50
   0  -1  12  197.78    6.50
   0  -1  12  202.38    6.10
   0  -1  12  199.98    7.00
  -1   1 -12  128.89    5.10
  -1   1 -12  136.29    4.60
  -1   1 -12  134.19    5.30
   1  -1  12  138.29    5.10
   1  -1  12  136.59    4.90
   1  -1  12  133.79    5.10
   1  -1  12  140.49    4.60
  -2   1 -12   19.20    2.20
  -2   1 -12   15.50    1.90
  -2   1 -12   13.60    2.30
  -2   1 -12   15.30    2.30
   2  -1  12   14.80    2.00
   2  -1  12   13.40    2.10
   2  -1  12   17.20    2.30
   2  -1  12   15.70    1.50
  -3   1 -12   12.50    1.90
  -3   1 -12   14.70    1.80
   3  -1  12   10.70    1.80
   3  -1  12   15.40    2.10
   7   0 -12    1.20    1.80
   7   0 -12    1.40    1.60
  -7   0  12    3.10    2.20
   6   0 -12   20.70    2.30
   6   0 -12   21.50    2.40
   6   0 -12   22.40    2.80
  -6   0  12   20.70    1.70
  -6   0  12   18.90    2.70
   5   0 -12   25.90    2.80
   5   0 -12   27.00    3.20
   5   0 -12   25.20    3.10
   5   0 -12   25.80    2.40
  -5   0  12   26.50    1.90
  -5   0  12   25.80    3.00
  -5   0  12   26.80    3.10
   4   0 -12   32.70    2.70
   4   0 -12   26.90    2.90
   4   0 -12   32.40    2.90
   4   0 -12   32.10    2.50
  -4   0  12   24.40    2.60
  -4   0  12   28.20    3.10
  -4   0  12   30.60    3.00
   3   0 -12  161.88    5.80
   3   0 -12  164.68    5.70
   3   0 -12  144.19    5.60
   3   0 -12  158.28    5.50
  -3   0  12  157.58    5.40
  -3   0  12  160.58    5.50
  -3   0  12  166.08    5.90
   2   0 -12    0.80    1.20
   2   0 -12   -1.00    1.20
   2   0 -12   -0.40    1.00
   2   0 -12    1.10    0.60
  -2   0  12    0.90    1.40
  -2   0  12    2.10    1.20
  -2   0  12    2.10    1.30
   1   0 -12  266.07    7.60
   1   0 -12  244.38    7.80
   1   0 -12  253.17    8.00
  -1   0  12  245.78    7.50
  -1   0  12  258.67    7.70
  -1   0  12  259.97    7.70
  -1   0  12  278.07    8.00
   0   0 -12  105.29    4.40
   0   0 -12  110.69    4.20
   0   0 -12  111.09    4.60
   0   0 -12  111.79    4.20
   0   0  12   99.89    4.00
   0   0  12  110.29    4.70
   0   0  12  109.79    4.30
  -1   0 -12    3.40    1.90
  -1   0 -12    3.70    1.30
  -1   0 -12    5.50    1.60
  -1   0 -12    3.10    1.30
   1   0  12    4.80    1.40
   1   0  12    5.40    1.50
   1   0  12    2.30    1.60
   1   0  12    4.00    1.40
  -2   0 -12  110.29    4.30
  -2   0 -12  102.99    5.20
  -2   0 -12  102.39    4.80
  -2   0 -12  112.99    4.50
   2   0  12  104.89    4.70
   2   0  12  103.09    4.40
   2   0  12  106.49    2.90
  -3   0 -12    7.80    1.70
  -3   0 -12    8.10    2.10
   3   0  12    7.30    1.80
   3   0  12    8.60    2.00
   7  -1 -12    7.40    1.70
   7  -1 -12    8.20    2.20
  -7   1  12   12.40    2.70
   6  -1 -12   18.70    2.80
   6  -1 -12   18.30    2.20
   6  -1 -12   17.10    2.30
  -6   1  12   17.90    2.70
  -6   1  12   22.80    2.10
   5  -1 -12    2.20    1.70
   5  -1 -12    0.20    1.30
   5  -1 -12    1.80    1.40
  -5   1  12    3.40    2.30
   4  -1 -12   61.99    3.30
   4  -1 -12   50.39    3.60
   4  -1 -12   56.29    3.60
   4  -1 -12   56.99    3.10
  -4   1  12   59.09    2.90
  -4   1  12   59.19    3.50
  -4   1  12   52.79    3.60
  -4   1  12   60.29    3.70
   3  -1 -12    1.20    1.50
   3  -1 -12   -1.40    1.50
   3  -1 -12    0.30    1.00
   3  -1 -12   -1.40    1.00
   3  -1 -12    0.30    1.30
  -3   1  12   -0.90    1.50
  -3   1  12   -0.70    1.30
  -3   1  12   -1.50    1.50
   2  -1 -12    5.70    1.40
   2  -1 -12    6.30    1.60
   2  -1 -12    8.60    1.40
   2  -1 -12    6.90    0.90
   2  -1 -12    4.20    1.60
  -2   1  12    7.80    1.80
  -2   1  12    5.90    1.50
  -2   1  12    2.90    1.50
   1  -1 -12   81.09    3.90
   1  -1 -12   80.49    3.60
   1  -1 -12   76.99    3.80
   1  -1 -12   83.09    3.60
  -1   1  12   82.39    3.70
  -1   1  12   75.59    3.90
  -1   1  12   76.59    3.90
   0  -1 -12    5.90    1.40
   0  -1 -12    5.20    1.90
   0  -1 -12    7.10    1.50
   0  -1 -12    7.70    1.70
   0   1  12    6.90    1.70
   0   1  12    9.10    1.70
   0   1  12    6.90    1.80
   0   1  12    4.70    1.50
  -1  -1 -12    1.10    1.30
  -1  -1 -12    3.80    1.90
  -1  -1 -12    0.70    1.40
  -1  -1 -12   -0.30    1.60
   1   1  12    2.40    1.40
   1   1  12    1.60    1.40
   1   1  12    1.00    1.50
  -2  -1 -12   67.59    4.90
  -2  -1 -12   64.19    3.60
  -2  -1 -12   70.69    3.60
  -2  -1 -12   64.19    4.50
   2   1  12   72.79    3.90
   2   1  12   68.79    4.00
   6  -2 -12   14.80    2.60
   6  -2 -12   10.50    2.10
   6  -2 -12    8.30    2.00
  -6   2  12   12.80    1.70
  -6   2  12   16.50    2.70
   5  -2 -12   54.79    3.80
   5  -2 -12   60.09    3.60
   5  -2 -12   60.39    3.60
  -5   2  12   63.79    3.20
  -5   2  12   63.19    4.50
   4  -2 -12   14.00    1.90
   4  -2 -12   10.00    2.00
   4  -2 -12    9.50    1.70
   4  -2 -12   10.50    1.70
  -4   2  12   13.20    1.80
  -4   2  12    8.20    2.00
   3  -2 -12   62.99    3.40
   3  -2 -12   70.09    3.40
   3  -2 -12   73.49    3.90
   3  -2 -12   65.69    3.10
  -3   2  12   68.39    4.00
   2  -2 -12   14.40    1.90
   2  -2 -12   20.50    2.30
   2  -2 -12   16.80    2.20
   2  -2 -12   18.60    1.00
   2  -2 -12   18.20    1.80
   2  -2 -12   20.60    2.20
  -2   2  12   16.10    2.40
  -2   2  12   20.20    2.40
   1  -2 -12    0.40    1.50
   1  -2 -12   -0.90    1.20
   1  -2 -12    0.40    1.40
   1  -2 -12   -0.10    1.20
  -1   2  12    1.30    1.60
  -1   2  12   -4.00    1.40
   0  -2 -12    6.20    2.00
   0  -2 -12    6.60    1.40
   0  -2 -12    5.50    1.40
   0  -2 -12    8.90    1.90
   0   2  12   10.30    2.30
   0   2  12    6.50    1.30
  -1  -2 -12    3.90    1.50
  -1  -2 -12    4.30    2.20
  -1  -2 -12    4.90    1.60
  -1  -2 -12    0.70    1.80
   1   2  12    2.60    0.90
   1   2  12    2.00    1.80
  -2  -2 -12   14.30    2.20
  -2  -2 -12   16.70    4.80
  -2  -2 -12   13.10    2.00
   2   2  12   16.10    2.60
   2   2  12   16.30    2.30
   5  -3 -12   -1.30    1.70
   5  -3 -12    3.60    1.70
   5  -3 -12    3.80    2.30
   5  -3 -12    3.30    1.90
  -5   3  12   -1.40    1.60
  -5   3  12   -1.80    2.20
   4  -3 -12   -3.20    1.30
   4  -3 -12    0.00    1.80
   4  -3 -12    0.90    1.40
   4  -3 -12    2.40    1.70
  -4   3  12    1.10    1.50
  -4   3  12    0.50    2.10
   3  -3 -12    8.50    1.70
   3  -3 -12   12.40    1.80
   3  -3 -12   10.00    1.80
   3  -3 -12    9.40    2.10
  -3   3  12    8.20    2.20
  -3   3  12   10.50    1.90
   2  -3 -12   -0.10    1.50
   2  -3 -12    0.10    0.80
   2  -3 -12   -3.70    1.30
   2  -3 -12    0.90    1.40
   2  -3 -12   -1.40    1.20
  -2   3  12    1.50    1.90
   1  -3 -12   12.50    1.70
   1  -3 -12   12.10    2.20
   1  -3 -12   13.70    2.00
  -1   3  12   10.00    2.30
  -1   3  12   16.40    1.90
   0  -3 -12    4.50    1.70
   0  -3 -12    4.40    1.60
   0  -3 -12    7.50    2.30
   0   3  12    6.20    1.40
   3  -4 -12    2.20    1.60
   3  -4 -12    1.80    2.00
   3  -4 -12    2.00    1.50
   3  -4 -12    5.00    2.00
  -3   4  12    3.30    1.90
  -3   4  12    2.20    1.70
  -3   4  12    0.40    2.30
   2  -4 -12   17.10    2.40
   2  -4 -12   19.50    2.10
   2  -4 -12   21.20    2.60
   2  -4 -12   23.20    2.40
   2  -4 -12   20.90    2.70
  -2   4  12   17.70    4.10
  -2   4  12   23.50    3.00
  -2   4  12   18.10    2.40
   2   7 -13    4.90    2.10
   2   7 -13    6.60    1.70
   2   7 -13    4.30    2.20
   2   7 -13    8.10    2.20
  -2  -7  13    4.50    1.60
  -2  -7  13    6.40    2.00
  -2  -7  13    3.80    1.60
  -2  -7  13    3.70    2.00
  -2  -7  13    7.00    1.80
   1   7 -13    9.80    2.30
   1   7 -13   13.70    2.30
  -1  -7  13   10.70    1.80
  -1  -7  13    7.70    1.50
  -1  -7  13   11.40    1.70
  -1  -7  13   13.80    1.90
   0   7 -13   16.80    2.40
   0   7 -13   14.30    2.10
   0   7 -13   15.30    2.50
   0  -7  13   10.30    1.70
   0  -7  13   15.70    1.70
   0  -7  13   14.30    1.80
   0  -7  13   14.40    1.80
  -1   7 -13   14.40    2.40
  -1   7 -13   17.30    2.60
  -1   7 -13   16.40    2.20
   1  -7  13   12.80    1.80
   1  -7  13   13.50    2.00
   1  -7  13   15.10    1.70
   1  -7  13   14.60    1.90
   4   6 -13    9.40    2.10
   4   6 -13    9.10    2.00
   4   6 -13    3.50    2.10
   4   6 -13    5.00    2.40
  -4  -6  13    6.70    1.90
  -4  -6  13    2.70    2.20
  -4  -6  13    5.50    2.00
   3   6 -13    1.00    2.00
   3   6 -13    4.00    1.90
   3   6 -13    1.30    1.90
   3   6 -13   -0.80    1.40
  -3  -6  13    0.60    1.50
  -3  -6  13   -1.40    1.80
  -3  -6  13   -0.70    1.50
  -3  -6  13    0.00    1.30
  -3  -6  13    2.20    1.50
   2   6 -13    8.40    2.20
   2   6 -13    8.00    2.10
   2   6 -13   10.70    1.50
   2   6 -13    8.40    1.90
  -2  -6  13    8.70    1.70
  -2  -6  13    9.80    1.70
  -2  -6  13    9.30    1.70
  -2  -6  13   10.20    1.60
   1   6 -13   49.70    4.00
   1   6 -13   55.99    3.90
   1   6 -13   59.59    3.70
  -1  -6  13   53.89    3.10
  -1  -6  13   52.39    3.20
  -1  -6  13   53.79    3.10
  -1  -6  13   50.69    2.90
   0   6 -13   14.90    2.20
   0   6 -13   13.50    1.80
   0   6 -13   12.30    2.30
   0  -6  13   17.00    2.00
   0  -6  13   16.40    1.60
   0  -6  13   12.90    1.70
   0  -6  13   14.40    1.80
  -1   6 -13   21.20    2.30
  -1   6 -13   26.40    3.50
  -1   6 -13   22.70    2.80
   1  -6  13   16.80    2.40
   1  -6  13   19.30    2.40
   1  -6  13   20.80    2.60
   1  -6  13   20.20    2.40
   1  -6  13   24.80    2.50
  -2   6 -13    6.20    1.80
  -2   6 -13    5.30    2.30
  -2   6 -13    7.80    2.10
   2  -6  13    6.30    1.70
   2  -6  13    5.90    1.60
   2  -6  13    2.30    2.10
   2  -6  13    6.60    1.80
   2  -6  13    5.80    0.70
   5   5 -13   13.70    2.40
   5   5 -13   11.90    2.30
   5   5 -13   15.40    5.00
  -5  -5  13   14.60    2.20
  -5  -5  13   14.90    2.30
  -5  -5  13   15.70    2.20
   4   5 -13    9.40    1.70
   4   5 -13    8.10    2.00
   4   5 -13    9.00    2.30
  -4  -5  13   11.80    1.90
  -4  -5  13    9.20    1.90
  -4  -5  13   10.80    1.40
   3   5 -13   10.00    2.10
   3   5 -13   10.00    2.00
   3   5 -13   12.30    1.50
  -3  -5  13    8.40    1.70
  -3  -5  13   10.50    1.90
  -3  -5  13    8.50    1.70
  -3  -5  13    9.40    1.50
   2   5 -13    0.10    1.60
   2   5 -13    1.70    1.00
   2   5 -13    0.80    1.50
  -2  -5  13    2.40    1.30
  -2  -5  13    0.20    1.30
  -2  -5  13    1.50    1.10
  -2  -5  13    0.00    1.30
   1   5 -13   31.50    2.30
   1   5 -13   28.90    3.00
   1   5 -13   29.70    3.40
  -1  -5  13   31.30    2.70
  -1  -5  13   30.60    2.60
  -1  -5  13   30.60    2.40
  -1  -5  13   25.80    2.40
   0   5 -13   52.29    3.30
   0   5 -13   58.59    3.00
   0   5 -13   49.00    5.00
   0  -5  13   47.50    3.10
   0  -5  13   50.09    2.90
   0  -5  13   51.09    3.10
   0  -5  13   54.39    2.60
  -1   5 -13    7.90    1.80
  -1   5 -13    9.30    1.60
   1  -5  13    8.20    1.20
   1  -5  13    7.10    1.80
   1  -5  13    7.90    1.80
   1  -5  13    6.90    1.50
   1  -5  13    6.00    1.40
  -2   5 -13    1.00    1.80
  -2   5 -13    1.10    1.40
   2  -5  13    0.60    1.30
   2  -5  13    0.50    1.30
   2  -5  13    1.00    0.80
   2  -5  13    3.60    1.70
   2  -5  13    4.10    1.90
  -3   5 -13   -1.70    1.70
  -3   5 -13    0.90    1.90
   3  -5  13    0.80    1.90
   3  -5  13    2.30    2.20
   3  -5  13   -1.70    1.40
   3  -5  13   -1.60    1.60
   5   4 -13    5.40    2.00
   5   4 -13    7.10    2.40
  -5  -4  13   10.80    2.10
  -5  -4  13    4.20    1.90
  -5  -4  13    7.80    0.90
   4   4 -13    1.00    1.60
   4   4 -13   -1.10    1.70
  -4  -4  13   -0.90    1.30
  -4  -4  13   -0.10    1.80
  -4  -4  13   -2.40    1.50
   3   4 -13   56.39    2.50
   3   4 -13   55.89    3.60
   3   4 -13   64.39    3.60
  -3  -4  13   52.69    3.20
  -3  -4  13   58.49    3.20
  -3  -4  13   54.69    3.30
  -3  -4  13   52.19    3.30
   2   4 -13   64.99    3.50
   2   4 -13   60.09    2.20
   2   4 -13   56.09    3.50
   2   4 -13   60.39    3.70
  -2  -4  13   62.79    3.30
  -2  -4  13   64.89    3.20
  -2  -4  13   56.69    3.30
  -2  -4  13   58.09    3.20
   1   4 -13    4.40    1.00
   1   4 -13    2.70    1.50
   1   4 -13    0.60    1.40
   1   4 -13    4.20    1.80
  -1  -4  13    0.70    1.20
  -1  -4  13    0.80    1.10
  -1  -4  13    2.50    1.30
  -1  -4  13    0.30    1.10
   0   4 -13   10.50    2.20
   0   4 -13   18.00    2.10
   0   4 -13   11.40    1.50
   0   4 -13   11.70    1.90
   0   4 -13   13.60    2.30
   0  -4  13   18.40    2.40
   0  -4  13   14.80    1.50
   0  -4  13   11.60    1.60
   0  -4  13   11.90    1.70
  -1   4 -13    2.10    1.10
  -1   4 -13    0.60    1.20
  -1   4 -13    1.70    1.50
   1  -4  13   -1.20    0.90
   1  -4  13    0.20    1.10
   1  -4  13    0.40    1.10
   1  -4  13   -1.40    1.40
  -2   4 -13   -1.30    1.00
  -2   4 -13    0.20    1.70
   2  -4  13    1.50    1.30
   2  -4  13    1.20    1.70
   2  -4  13    0.90    1.60
   2  -4  13    2.20    1.20
   2  -4  13   -0.20    0.90
  -3   4 -13   13.90    1.50
  -3   4 -13   13.60    3.40
  -3   4 -13   15.50    2.10
   3  -4  13   11.10    2.00
   3  -4  13   11.70    2.00
   3  -4  13   11.50    2.00
   3  -4  13    8.90    2.30
   6   3 -13   37.60    4.10
  -6  -3  13   51.19    3.90
   5   3 -13    3.90    1.90
   5   3 -13    5.00    1.90
  -5  -3  13    4.00    1.60
  -5  -3  13    4.90    1.90
   4   3 -13   35.40    3.80
   4   3 -13   35.90    3.20
  -4  -3  13   35.90    3.10
  -4  -3  13   26.70    3.10
  -4  -3  13   36.50    2.90
   3   3 -13   14.70    2.00
   3   3 -13   15.80    3.00
   3   3 -13   17.90    2.20
   3   3 -13   14.70    2.00
  -3  -3  13   13.40    1.80
  -3  -3  13   15.20    2.10
  -3  -3  13   16.30    1.90
   2   3 -13    1.00    1.40
   2   3 -13    0.40    1.20
   2   3 -13    1.50    1.50
   2   3 -13    0.40    1.40
  -2  -3  13    0.70    1.10
  -2  -3  13   -0.10    1.20
  -2  -3  13   -0.30    1.30
  -2  -3  13    0.10    1.20
   1   3 -13  141.19    5.20
   1   3 -13  144.79    4.40
   1   3 -13  138.09    5.30
   1   3 -13  145.69    4.80
   1   3 -13  132.09    5.30
  -1  -3  13  138.99    5.00
  -1  -3  13  139.99    5.00
  -1  -3  13  144.39    5.20
  -1  -3  13  147.09    4.80
   0   3 -13    4.70    1.70
   0   3 -13    5.90    1.90
   0   3 -13    6.70    1.30
   0   3 -13    8.30    1.70
   0   3 -13    7.00    1.20
   0  -3  13    6.40    1.30
   0  -3  13    8.10    1.50
   0  -3  13    5.70    1.60
   0  -3  13    4.40    1.40
  -1   3 -13    2.70    1.50
  -1   3 -13    2.60    1.20
  -1   3 -13    4.70    1.30
   1  -3  13    1.70    1.30
   1  -3  13    0.20    1.50
   1  -3  13    0.60    1.00
   1  -3  13    1.00    1.10
  -2   3 -13    2.80    1.30
  -2   3 -13    0.60    1.30
  -2   3 -13   -0.10    1.80
   2  -3  13    6.20    1.90
   2  -3  13    2.00    1.10
   2  -3  13    5.90    1.50
   2  -3  13    2.40    1.50
   2  -3  13    0.50    1.20
  -3   3 -13    6.70    1.40
  -3   3 -13    5.50    1.90
   3  -3  13    8.40    1.80
   3  -3  13    5.50    1.60
   6   2 -13   -0.20    2.00
  -6  -2  13    0.60    1.90
   5   2 -13    7.60    2.90
   5   2 -13    6.90    1.80
   5   2 -13    7.90    2.00
  -5  -2  13    9.30    1.90
  -5  -2  13    8.20    1.80
   4   2 -13   -0.10    1.50
   4   2 -13    1.60    1.60
   4   2 -13   -2.30    1.30
   4   2 -13    1.80    1.70
  -4  -2  13    1.40    1.70
  -4  -2  13   -2.70    1.40
  -4  -2  13   -0.90    1.40
   3   2 -13    4.20    1.80
   3   2 -13    6.10    1.40
   3   2 -13    4.50    1.70
   3   2 -13    5.60    1.80
  -3  -2  13    5.30    1.50
  -3  -2  13    3.60    1.60
  -3  -2  13    5.40    1.50
   2   2 -13   33.60    2.60
   2   2 -13   33.60    3.10
   2   2 -13   31.60    2.70
   2   2 -13   33.40    3.00
  -2  -2  13   32.80    2.40
  -2  -2  13   29.50    2.60
  -2  -2  13   28.60    2.60
  -2  -2  13   37.10    2.90
   1   2 -13   59.89    3.00
   1   2 -13   56.79    3.20
   1   2 -13   52.49    3.50
   1   2 -13   56.79    2.30
   1   2 -13   53.29    3.50
  -1  -2  13   56.09    3.20
  -1  -2  13   50.59    2.90
  -1  -2  13   57.59    3.10
  -1  -2  13   54.59    3.20
   0   2 -13   86.29    4.00
   0   2 -13   75.39    4.10
   0   2 -13   83.49    3.10
   0   2 -13   88.79    3.50
   0   2 -13   71.29    4.00
   0  -2  13   83.49    3.40
   0  -2  13   82.29    3.90
   0  -2  13   80.39    3.80
   0  -2  13   81.39    3.70
  -1   2 -13   34.10    2.30
  -1   2 -13   26.80    2.80
  -1   2 -13   27.60    2.40
   1  -2  13   23.70    2.30
   1  -2  13   31.80    3.00
   1  -2  13   25.50    2.60
   1  -2  13   29.30    2.20
  -2   2 -13   84.09    4.10
  -2   2 -13   82.69    3.50
   2  -2  13   82.59    4.00
   2  -2  13   83.99    3.20
   2  -2  13   81.29    3.40
   2  -2  13   80.39    4.00
   2  -2  13   75.59    4.40
  -3   2 -13   12.60    1.70
  -3   2 -13   13.70    2.20
   3  -2  13   14.80    1.50
   3  -2  13    8.70    1.80
   3  -2  13   12.30    2.10
   6   1 -13   15.60    2.20
   6   1 -13   14.70    2.50
  -6  -1  13   13.80    2.40
  -6  -1  13   18.30    1.40
   5   1 -13   22.50    2.90
   5   1 -13   20.60    2.40
  -5  -1  13   18.30    2.40
  -5  -1  13   20.50    1.80
   4   1 -13    5.70    1.50
   4   1 -13    8.50    1.70
   4   1 -13    6.20    2.10
   4   1 -13   12.40    2.20
  -4  -1  13    6.90    1.90
  -4  -1  13    5.60    2.00
  -4  -1  13   10.80    2.00
   3   1 -13    4.50    1.40
   3   1 -13    1.90    1.60
   3   1 -13    7.60    1.90
   3   1 -13    5.70    1.50
  -3  -1  13    8.90    1.80
  -3  -1  13    6.90    1.70
  -3  -1  13    6.10    1.60
   2   1 -13   80.99    3.90
   2   1 -13   81.99    4.00
   2   1 -13   85.49    4.20
  -2  -1  13   93.09    3.90
  -2  -1  13   92.99    4.20
  -2  -1  13   88.39    4.00
   1   1 -13  270.87    7.60
   1   1 -13  257.67    7.80
   1   1 -13  256.77    6.60
   1   1 -13  255.77    8.00
   1   1 -13  236.68    7.80
  -1  -1  13  254.07    7.70
  -1  -1  13  261.17    7.50
  -1  -1  13  253.87    7.80
  -1  -1  13  245.18    7.90
   0   1 -13    4.00    1.30
   0   1 -13    1.50    1.60
   0   1 -13    2.80    1.80
   0   1 -13    0.90    1.20
   0  -1  13    1.10    1.60
   0  -1  13   -0.80    1.30
   0  -1  13    1.20    1.40
   0  -1  13    1.90    1.20
  -1   1 -13    4.40    1.40
  -1   1 -13    5.50    1.70
   1  -1  13    7.30    1.60
   1  -1  13    2.90    1.80
   1  -1  13    3.50    1.40
   1  -1  13    5.50    1.40
  -2   1 -13   -0.80    1.50
  -2   1 -13   -0.70    1.50
   2  -1  13   -0.20    1.60
   2  -1  13   -0.10    1.40
   2  -1  13    1.30    1.10
  -3   1 -13   -0.90    1.70
  -3   1 -13   -0.40    1.60
   3  -1  13   -3.40    1.50
   3  -1  13   -1.00    1.60
   6   0 -13    0.40    1.70
   6   0 -13   -0.50    1.50
  -6   0  13    0.50    2.20
  -6   0  13    1.10    1.00
   5   0 -13   -2.10    2.00
   5   0 -13    0.30    1.40
   5   0 -13   -3.50    1.40
  -5   0  13    1.20    1.90
  -5   0  13   -1.70    1.00
   4   0 -13   61.49    3.40
   4   0 -13   61.79    3.90
   4   0 -13   69.69    3.80
  -4   0  13   70.39    4.10
   3   0 -13    2.70    1.50
   3   0 -13    2.30    0.90
   3   0 -13    0.10    3.10
   3   0 -13    3.30    1.70
   3   0 -13   -0.20    1.20
  -3   0  13    1.60    1.70
  -3   0  13   -1.50    1.50
  -3   0  13    0.70    1.50
   2   0 -13    8.60    1.60
   2   0 -13    7.90    1.60
   2   0 -13    6.20    1.90
   2   0 -13    9.00    1.90
  -2   0  13    8.70    1.80
  -2   0  13    9.50    2.00
  -2   0  13    6.70    1.90
   1   0 -13   44.00    3.40
   1   0 -13   39.50    3.20
   1   0 -13   40.90    1.90
   1   0 -13   41.50    2.80
   1   0 -13   41.20    2.80
  -1   0  13   40.80    3.20
  -1   0  13   39.30    2.90
  -1   0  13   35.20    3.10
  -1   0  13   42.00    2.90
   0   0 -13    9.60    2.20
   0   0 -13   10.00    1.60
   0   0 -13   11.20    1.70
   0   0  13    9.80    1.70
   0   0  13   10.40    2.00
   0   0  13   10.40    2.40
   0   0  13    9.00    1.60
  -1   0 -13   36.70    5.30
  -1   0 -13   34.00    2.80
  -1   0 -13   36.10    2.90
   1   0  13   31.10    3.10
   1   0  13   24.50    2.80
   1   0  13   33.30    3.00
  -2   0 -13   12.40    2.00
  -2   0 -13   13.40    2.00
   2   0  13   11.90    2.00
   2   0  13   16.40    2.40
   6  -1 -13   -1.70    1.60
   6  -1 -13    2.70    1.90
  -6   1  13    0.40    2.20
  -6   1  13   -0.50    1.20
   5  -1 -13   86.29    4.90
   5  -1 -13  104.29    4.60
   5  -1 -13  101.99    4.80
  -5   1  13  102.29    5.20
  -5   1  13  105.59    4.10
   4  -1 -13   15.00    2.40
   4  -1 -13   13.20    1.80
   4  -1 -13   17.20    2.20
   4  -1 -13   20.30    2.40
  -4   1  13   19.80    2.60
   3  -1 -13   13.30    2.30
   3  -1 -13   15.60    1.50
   3  -1 -13   13.40    1.80
   3  -1 -13   11.90    1.70
  -3   1  13   11.80    2.10
   2  -1 -13   -0.20    1.30
   2  -1 -13    1.40    1.80
   2  -1 -13    2.30    1.20
  -2   1  13    2.00    1.70
  -2   1  13    1.70    2.50
   1  -1 -13   46.50    3.10
   1  -1 -13   40.60    3.00
   1  -1 -13   44.00    3.50
  -1   1  13   45.30    3.40
  -1   1  13   41.50    3.40
   0  -1 -13   -1.30    1.30
   0  -1 -13    0.60    1.40
   0  -1 -13    0.80    1.90
   0   1  13   -1.50    1.50
   0   1  13   -0.50    1.70
   0   1  13   -1.60    1.50
  -1  -1 -13    7.20    1.90
  -1  -1 -13    8.30    1.70
   1   1  13    7.80    2.20
   1   1  13    5.40    1.70
   1   1  13    7.00    1.20
   5  -2 -13    0.60    2.40
   5  -2 -13    2.40    1.50
   5  -2 -13    0.10    1.70
  -5   2  13   -1.50    2.20
  -5   2  13    2.50    1.40
   4  -2 -13   93.39    4.80
   4  -2 -13   73.09    4.20
   4  -2 -13   84.29    3.90
   4  -2 -13   79.89    4.20
  -4   2  13   95.39    4.20
  -4   2  13   87.49    5.00
   3  -2 -13    3.00    1.50
   3  -2 -13    3.80    1.60
   3  -2 -13    2.00    1.90
   3  -2 -13    3.50    1.60
  -3   2  13    0.60    2.10
   2  -2 -13   46.10    2.50
   2  -2 -13   52.69    3.30
   2  -2 -13   45.90    3.20
   2  -2 -13   48.70    3.80
  -2   2  13   53.89    4.20
   1  -2 -13   12.10    2.10
   1  -2 -13   13.30    2.50
   1  -2 -13   11.70    2.00
  -1   2  13   10.40    2.30
   0  -2 -13   12.90    2.60
   0  -2 -13   11.60    1.90
   0  -2 -13    9.00    1.80
   0   2  13   10.00    2.20
   0   2  13   12.20    1.60
   3  -3 -13    6.20    1.70
   3  -3 -13    5.10    2.30
   3  -3 -13    5.50    1.60
   3  -3 -13    4.20    1.80
  -3   3  13    4.10    2.80
  -3   3  13    1.10    1.70
   2  -3 -13   27.80    3.50
   2  -3 -13   24.20    2.60
   2  -3 -13   35.20    2.90
   2  -3 -13   27.90    3.10
  -2   3  13   31.80    4.00
   3   6 -14    1.10    1.60
   3   6 -14   -0.90    2.00
   3   6 -14    1.70    2.20
  -3  -6  14    0.70    1.30
  -3  -6  14   -0.20    1.70
  -3  -6  14    0.60    1.50
  -3  -6  14    0.40    1.70
   2   6 -14   24.00    2.40
   2   6 -14   23.10    2.70
  -2  -6  14   16.10    2.00
  -2  -6  14   24.00    3.00
  -2  -6  14   18.00    2.20
  -2  -6  14   19.70    2.30
   1   6 -14    1.30    1.70
  -1  -6  14   -1.10    1.50
  -1  -6  14    2.30    1.60
  -1  -6  14    0.20    1.50
  -1  -6  14   -0.10    1.30
   0   6 -14    8.90    1.80
   0   6 -14   11.30    2.20
   0  -6  14    8.70    2.00
   0  -6  14    7.90    1.50
   0  -6  14    9.30    1.80
   0  -6  14   10.60    1.60
  -1   6 -14    6.10    2.20
  -1   6 -14    3.20    1.80
  -1   6 -14   -1.80    1.90
   1  -6  14    1.60    1.50
   1  -6  14    1.40    1.70
   1  -6  14   -0.90    1.60
   4   5 -14   30.00    5.00
   4   5 -14   23.40    2.70
  -4  -5  14   26.30    3.20
  -4  -5  14   25.50    2.70
   3   5 -14   10.30    2.40
   3   5 -14   11.10    1.60
  -3  -5  14    8.10    1.80
  -3  -5  14   12.40    2.00
  -3  -5  14    9.20    1.70
  -3  -5  14   10.50    2.00
   2   5 -14    0.70    1.70
   2   5 -14    0.60    1.00
  -2  -5  14    2.50    1.30
  -2  -5  14    1.10    1.60
  -2  -5  14   -1.10    1.50
  -2  -5  14    0.80    1.40
   1   5 -14   55.59    3.70
   1   5 -14   53.99    2.90
  -1  -5  14   51.99    3.30
  -1  -5  14   55.79    3.30
  -1  -5  14   55.59    3.20
  -1  -5  14   59.79    3.40
   0   5 -14   26.10    2.50
   0   5 -14   27.00    3.20
   0  -5  14   27.80    2.70
   0  -5  14   20.60    2.30
   0  -5  14   26.90    3.00
   0  -5  14   22.70    2.30
  -1   5 -14   99.49    5.20
  -1   5 -14  122.49    5.10
   1  -5  14  117.49    4.90
   1  -5  14  116.89    3.80
   1  -5  14  114.79    4.80
   1  -5  14  110.59    4.80
   1  -5  14  107.29    4.90
   5   4 -14   -3.70    2.10
  -5  -4  14   -3.80    2.10
  -5  -4  14   -1.20    1.80
   4   4 -14    2.10    2.00
   4   4 -14   -0.70    1.30
  -4  -4  14    2.50    1.70
  -4  -4  14    4.30    1.90
   3   4 -14   11.70    1.30
   3   4 -14   12.20    2.30
  -3  -4  14    8.70    1.80
  -3  -4  14    8.40    1.90
  -3  -4  14   14.30    1.90
  -3  -4  14    9.80    2.00
   2   4 -14   49.30    3.70
  -2  -4  14   44.10    3.20
  -2  -4  14   44.00    3.10
  -2  -4  14   41.10    2.90
  -2  -4  14   48.30    3.30
   1   4 -14    1.60    1.00
   1   4 -14    2.60    1.50
   1   4 -14   -1.30    1.60
  -1  -4  14    1.10    2.30
  -1  -4  14    3.40    1.40
  -1  -4  14    1.10    1.30
  -1  -4  14   -0.60    1.50
   0   4 -14    4.80    1.20
   0   4 -14    2.20    1.40
   0   4 -14    4.00    1.80
   0  -4  14    4.10    1.70
   0  -4  14    5.60    1.40
   0  -4  14    3.20    1.60
   0  -4  14    6.60    1.40
  -1   4 -14   -1.40    1.90
  -1   4 -14    2.00    1.40
  -1   4 -14    1.60    1.30
   1  -4  14   -2.30    1.20
   1  -4  14    4.50    1.60
   1  -4  14    0.60    1.20
   1  -4  14    0.30    1.70
  -2   4 -14   22.30    2.70
  -2   4 -14   24.60    2.50
  -2   4 -14   22.90    3.00
   2  -4  14   17.10    2.60
   2  -4  14   16.40    2.00
   2  -4  14   18.70    2.30
   2  -4  14   22.60    2.40
   2  -4  14   25.10    2.10
   5   3 -14   14.30    2.50
  -5  -3  14   14.10    2.30
  -5  -3  14   17.90    4.00
   4   3 -14    5.60    1.90
  -4  -3  14    5.60    2.00
  -4  -3  14   -0.10    1.70
   3   3 -14    0.00    0.80
   3   3 -14    2.50    1.60
   3   3 -14    0.50    1.40
  -3  -3  14    0.40    1.60
  -3  -3  14    1.20    1.40
  -3  -3  14   -1.20    1.60
   2   3 -14   11.30    2.20
  -2  -3  14   15.50    2.00
  -2  -3  14   12.90    2.10
  -2  -3  14   12.40    1.90
  -2  -3  14   13.80    1.90
   1   3 -14    5.50    1.00
   1   3 -14    6.60    1.50
  -1  -3  14    6.30    1.60
  -1  -3  14    6.20    1.60
  -1  -3  14    3.70    1.50
  -1  -3  14    4.30    1.70
   0   3 -14   21.00    2.50
   0   3 -14   19.90    2.10
   0   3 -14   19.60    2.00
   0  -3  14   19.70    2.40
   0  -3  14   17.40    2.10
   0  -3  14   19.30    2.30
   0  -3  14   20.50    2.30
  -1   3 -14    3.90    1.90
  -1   3 -14    2.20    1.40
  -1   3 -14    1.10    1.20
   1  -3  14   -1.60    1.10
   1  -3  14    1.60    1.20
   1  -3  14    1.80    1.70
   1  -3  14   -0.50    1.40
  -2   3 -14    6.00    2.00
  -2   3 -14    3.70    1.40
  -2   3 -14    6.90    1.70
   2  -3  14    4.00    1.80
   2  -3  14    5.20    1.40
   2  -3  14    3.00    1.60
   2  -3  14    4.70    2.30
   2  -3  14    4.10    1.50
   5   2 -14   -0.50    1.50
   5   2 -14    1.40    2.00
  -5  -2  14    0.00    1.70
   4   2 -14    4.00    1.70
   4   2 -14    6.30    1.80
  -4  -2  14    1.10    1.90
  -4  -2  14    6.70    1.90
   3   2 -14    7.50    2.00
   3   2 -14    7.60    1.70
  -3  -2  14    8.80    1.80
  -3  -2  14    3.20    1.90
  -3  -2  14    4.30    1.70
   2   2 -14   13.50    2.10
   2   2 -14   10.40    1.70
  -2  -2  14    9.40    1.90
  -2  -2  14   13.20    2.10
  -2  -2  14   10.30    1.80
  -2  -2  14   13.10    1.80
   1   2 -14    3.30    1.90
   1   2 -14    3.20    1.40
   1   2 -14   -0.10    0.80
  -1  -2  14    2.50    1.50
  -1  -2  14    2.40    1.20
  -1  -2  14    0.10    1.60
  -1  -2  14    2.20    1.60
   0   2 -14   -2.90    1.30
   0   2 -14   -0.10    1.50
   0   2 -14   -0.90    1.30
   0  -2  14    0.70    1.40
   0  -2  14    1.50    1.50
   0  -2  14   -0.10    1.30
   0  -2  14    2.30    1.80
  -1   2 -14    2.50    1.30
  -1   2 -14    0.90    1.60
  -1   2 -14    1.70    1.40
   1  -2  14   -0.40    1.30
   1  -2  14   -0.80    1.50
   1  -2  14    0.80    1.40
   1  -2  14    1.10    1.90
  -2   2 -14    6.10    2.00
  -2   2 -14    7.90    1.70
   2  -2  14    8.00    1.90
   2  -2  14   10.00    2.20
   5   1 -14   -1.50    1.60
   5   1 -14   -0.60    1.80
  -5  -1  14   -0.50    2.00
  -5  -1  14    1.90    1.10
   4   1 -14    2.60    1.60
   4   1 -14   -1.70    1.40
  -4  -1  14    2.50    1.70
   3   1 -14    9.80    1.80
   3   1 -14   13.30    1.40
   3   1 -14   14.70    2.00
  -3  -1  14   15.50    2.20
  -3  -1  14   14.10    3.50
   2   1 -14    5.80    1.50
   2   1 -14    8.10    3.60
   2   1 -14    4.00    1.50
  -2  -1  14    3.40    1.90
  -2  -1  14    7.80    1.80
  -2  -1  14    6.40    1.90
   1   1 -14   43.50    3.10
   1   1 -14   45.60    3.00
   1   1 -14   41.70    1.90
  -1  -1  14   42.40    3.60
  -1  -1  14   37.50    3.20
  -1  -1  14   38.30    3.20
  -1  -1  14   39.10    3.00
   0   1 -14   29.30    2.90
   0   1 -14   18.80    2.10
   0   1 -14   23.90    2.00
   0  -1  14   23.50    2.80
   0  -1  14   24.00    2.70
   0  -1  14   22.80    2.90
  -1   1 -14    1.10    1.50
  -1   1 -14   -1.20    1.50
   1  -1  14    0.70    1.80
   1  -1  14   -1.20    1.50
   1  -1  14   -0.50    1.50
   5   0 -14   -0.40    1.60
   5   0 -14    1.80    1.70
  -5   0  14   -1.10    2.10
  -5   0  14    3.40    1.30
   4   0 -14    1.60    1.60
   4   0 -14   -2.00    1.40
  -4   0  14   -2.00    1.90
   3   0 -14   31.80    3.60
   3   0 -14   37.00    1.90
   3   0 -14   35.90    3.10
   3   0 -14   43.10    3.20
  -3   0  14   31.80    3.40
   2   0 -14    7.20    1.60
   2   0 -14    5.80    1.70
   2   0 -14    7.10    2.20
  -2   0  14   10.20    2.10
   1   0 -14    4.60    1.50
   1   0 -14    2.70    1.50
   1   0 -14    3.40    0.90
  -1   0  14    5.20    2.20
  -1   0  14    4.10    1.80
   0   0 -14    7.00    1.90
   0   0 -14    9.50    1.80
   0   0  14   10.80    2.10
   0   0  14    7.60    2.10
   0   0  14   12.60    2.00
  -1   0 -14   17.70    2.30
  -1   0 -14   14.20    2.10
   1   0  14   16.70    2.40
   1   0  14   10.80    2.30
   4  -1 -14   30.20    2.90
   4  -1 -14   36.60    5.00
   4  -1 -14   34.40    3.10
   4  -1 -14   32.20    3.20
  -4   1  14   37.70    3.80
   3  -1 -14   38.00    3.20
   3  -1 -14   37.60    3.30
   3  -1 -14   44.40    2.40
   3  -1 -14   44.10    4.10
  -3   1  14   45.20    3.80
   2  -1 -14    1.40    2.20
   2  -1 -14    5.00    1.60
   2  -1 -14    3.60    1.70
  -2   1  14    0.60    1.90
   1  -1 -14   16.10    2.30
   1  -1 -14   16.30    2.30
  -1   1  14   15.70    2.50
   0  -1 -14   39.00    3.30
   0  -1 -14   45.70    3.50
   0   1  14   38.70    3.80
   3  -2 -14   55.19    3.70
   2  -2 -14    6.80    1.80
   2   5 -15    5.70    2.90
  -2  -5  15    5.10    1.70
  -2  -5  15    4.80    1.70
  -2  -5  15    6.40    2.10
  -2  -5  15    4.50    2.00
   1   5 -15    0.10    2.20
  -1  -5  15    2.10    1.50
  -1  -5  15    0.40    1.60
  -1  -5  15    2.60    1.60
  -1  -5  15    2.60    2.00
   3   4 -15    6.80    1.30
   3   4 -15    5.50    2.10
  -3  -4  15    6.20    2.00
  -3  -4  15    6.20    2.20
   2   4 -15    9.30    2.20
  -2  -4  15    5.00    1.90
  -2  -4  15    8.40    1.90
  -2  -4  15    7.80    2.10
  -2  -4  15    8.30    1.70
   1   4 -15   15.90    2.40
   1   4 -15   19.00    2.00
  -1  -4  15   14.50    2.10
  -1  -4  15   14.90    2.00
  -1  -4  15   13.90    2.30
  -1  -4  15   13.70    2.20
   0   4 -15    6.00    2.20
   0   4 -15    6.00    1.70
   0   4 -15    6.10    2.20
   0  -4  15    2.60    1.60
   0  -4  15    3.60    1.60
   0  -4  15    4.40    2.10
   0  -4  15    5.60    1.70
   4   3 -15    6.00    2.30
  -4  -3  15    2.20    2.10
   3   3 -15    5.80    0.90
   3   3 -15    3.30    1.70
   3   3 -15    5.30    1.90
  -3  -3  15    4.00    1.70
  -3  -3  15    6.30    2.20
   2   3 -15    2.70    1.70
   2   3 -15    0.60    1.70
  -2  -3  15    1.70    1.80
  -2  -3  15    1.00    1.60
  -2  -3  15    1.30    2.00
  -2  -3  15   -0.30    1.40
   1   3 -15    1.50    1.20
   1   3 -15    1.50    1.50
   1   3 -15    0.80    1.70
  -1  -3  15    3.30    1.70
  -1  -3  15   -0.10    1.60
  -1  -3  15    0.50    2.00
  -1  -3  15   -0.40    1.60
   0   3 -15   31.80    3.30
   0   3 -15   25.50    2.40
   0   3 -15   24.90    3.00
   0  -3  15   30.00    3.00
   0  -3  15   19.20    2.70
   0  -3  15   24.40    2.70
   0  -3  15   24.70    2.60
   4   2 -15   24.10    2.60
   4   2 -15   28.20    3.60
  -4  -2  15   29.60    3.50
   3   2 -15   51.09    3.90
   3   2 -15   49.80    3.50
  -3  -2  15   45.30    3.70
   2   2 -15   29.90    3.40
   2   2 -15   40.90    3.20
  -2  -2  15   36.50    3.20
  -2  -2  15   31.50    3.30
  -2  -2  15   40.20    4.10
   1   2 -15    9.50    2.00
   1   2 -15   13.00    1.60
   1   2 -15    8.60    1.80
  -1  -2  15   12.00    1.80
  -1  -2  15   10.70    2.00
  -1  -2  15   14.70    2.10
   0   2 -15   -0.70    1.10
   0   2 -15    1.50    1.60
   0   2 -15   -1.00    1.50
   0  -2  15   -2.00    1.50
   0  -2  15   -0.10    1.60
   0  -2  15   -1.10    1.60
   4   1 -15    9.30    2.20
   4   1 -15   12.10    2.10
  -4  -1  15   10.10    2.40
   3   1 -15    3.90    1.80
   3   1 -15    5.20    1.90
  -3  -1  15    8.60    2.20
   2   1 -15   28.60    3.30
   2   1 -15   35.50    3.20
  -2  -1  15   30.70    3.60
   1   1 -15    2.60    1.90
   1   1 -15    4.80    1.80
   1   1 -15    3.00    0.90
  -1  -1  15    3.50    1.60
  -1  -1  15    2.60    1.90
   0   1 -15    5.30    1.30
   0   1 -15    4.30    1.80
   0   1 -15    7.80    2.10
   0  -1  15    3.20    2.00
   0  -1  15    5.40    1.80
   3   0 -15   36.40    3.50
   3   0 -15   39.30    3.60
  -3   0  15   51.39    4.30
   2   0 -15   98.79    4.80
   2   0 -15   98.29    4.60
  -2   0  15  102.79    5.30
   1   0 -15   11.70    2.20
   1   0 -15    8.10    2.00
  -1   0  15    5.10    2.20

_computing_structure_solution     'SHELXT 2014/4 (Sheldrick, 2014)'
;
_shelx_hkl_checksum              29394
loop_
_space_group_symop_operation_xyz
'x, y, z'
'-x, -y, -z'
loop_
_atom_site_label
_atom_site_type_symbol
_atom_site_fract_x
_atom_site_fract_y
_atom_site_fract_z
_atom_site_U_iso_or_equiv
_atom_site_adp_type
_atom_site_occupancy
_atom_site_site_symmetry_order
_atom_site_calc_flag
_atom_site_refinement_flags_posn
_atom_site_refinement_flags_adp
_atom_site_refinement_flags_occupancy
_atom_site_disorder_assembly
_atom_site_disorder_group
O1 O 0.51814(15) 0.07886(13) 0.24417(8) 0.0439(3) Uani 1 1 d . . . . .
O2 O 0.61624(16) 0.35466(13) 0.35542(8) 0.0526(3) Uani 1 1 d . . . . .
O3 O 0.99102(18) 0.34739(15) 0.38455(10) 0.0578(3) Uani 1 1 d . . . . .
O4 O 0.49257(14) 0.21062(16) 0.50791(10) 0.0542(3) Uani 1 1 d . . . . .
N1 N 0.71919(17) 0.28672(18) 0.42891(10) 0.0454(3) Uani 1 1 d . . . . .
C1 C 0.51680(18) 0.22861(17) 0.25871(11) 0.0325(3) Uani 1 1 d . . . . .
C2 C 0.41973(18) 0.31899(16) 0.18364(10) 0.0307(3) Uani 1 1 d . . . . .
C3 C 0.5649(2) 0.41275(18) 0.14117(12) 0.0393(3) Uani 1 1 d . . . . .
H3A H 0.6820 0.4493 0.1969 0.047 Uiso 1 1 calc R U . A 1
H3B H 0.5273 0.5166 0.1262 0.047 Uiso 1 1 calc R U . A 1
C4 C 0.3462(2) 0.1989(2) -0.02024(12) 0.0443(4) Uani 1 1 d . . . . .
H4A H 0.2889 0.2821 -0.0512 0.053 Uiso 1 1 calc R U . B 1
H4B H 0.3120 0.0851 -0.0766 0.053 Uiso 1 1 calc R U . B 1
C5 C 0.28036(19) 0.18642(17) 0.08065(11) 0.0354(3) Uani 1 1 d . . . . .
H5 H 0.2759 0.0672 0.0866 0.043 Uiso 1 1 calc R U . . .
C6 C 0.0946(2) 0.2374(2) 0.08124(15) 0.0506(4) Uani 1 1 d . . . . .
H6A H 0.0243 0.1680 0.1153 0.061 Uiso 1 1 calc R U . C 1
H6B H 0.0232 0.2233 0.0066 0.061 Uiso 1 1 calc R U . C 1
C8 C 0.3119(2) 0.4448(2) 0.24236(12) 0.0420(4) Uani 1 1 d . . . . .
H8A H 0.2758 0.4078 0.3017 0.050 Uiso 1 1 calc R U . D 1
H8B H 0.3832 0.5638 0.2724 0.050 Uiso 1 1 calc R U . D 1
C9 C 0.9055(2) 0.29789(17) 0.44170(11) 0.0375(3) Uani 1 1 d . . . . .
C10 C 0.96224(18) 0.23466(16) 0.53784(11) 0.0306(3) Uani 1 1 d . . . . .
C11 C 1.1323(2) 0.21604(19) 0.58868(13) 0.0425(4) Uani 1 1 d . . . . .
H11 H 1.2358 0.2472 0.5647 0.051 Uiso 1 1 calc R U . . .
C12 C 1.1445(2) 0.14941(19) 0.67674(14) 0.0491(4) Uani 1 1 d . . . . .
H12 H 1.2587 0.1352 0.7133 0.059 Uiso 1 1 calc R U . . .
C13 C 0.9929(2) 0.1037(2) 0.71156(13) 0.0489(4) Uani 1 1 d . . . . .
H13 H 1.0057 0.0582 0.7712 0.059 Uiso 1 1 calc R U . . .
C14 C 0.8221(2) 0.12304(19) 0.66106(11) 0.0403(3) Uani 1 1 d . . . . .
H14 H 0.7186 0.0918 0.6851 0.048 Uiso 1 1 calc R U . . .
C15 C 0.81018(17) 0.19009(16) 0.57405(10) 0.0293(3) Uani 1 1 d . . . . .
C16 C 0.64909(19) 0.22631(18) 0.50478(11) 0.0352(3) Uani 1 1 d . . . . .
S1 S 0.5882(3) 0.26852(19) 0.01978(13) 0.0418(3) Uani 0.617(3) 1 d . . P E 1
C7 C 0.1478(12) 0.4308(10) 0.1507(7) 0.059(2) Uani 0.617(3) 1 d . . P E 1
H7A H 0.1780 0.5043 0.1059 0.071 Uiso 0.617(3) 1 calc R U P E 1
H7B H 0.0470 0.4674 0.1806 0.071 Uiso 0.617(3) 1 calc R U P E 1
S1A S 0.1276(5) 0.4662(4) 0.1362(3) 0.0496(7) Uani 0.383(3) 1 d . . P E 2
C7A C 0.5499(18) 0.2717(18) 0.0297(11) 0.092(7) Uani 0.383(3) 1 d . . P E 2
H7A1 H 0.6026 0.3239 -0.0193 0.111 Uiso 0.383(3) 1 calc R U P E 2
H7A2 H 0.6143 0.1794 0.0425 0.111 Uiso 0.383(3) 1 calc R U P E 2
loop_
_atom_site_aniso_label
_atom_site_aniso_U_11
_atom_site_aniso_U_22
_atom_site_aniso_U_33
_atom_site_aniso_U_23
_atom_site_aniso_U_13
_atom_site_aniso_U_12
O1 0.0569(7) 0.0366(6) 0.0415(6) 0.0172(4) 0.0089(5) 0.0161(5)
O2 0.0671(8) 0.0429(6) 0.0349(6) 0.0123(5) -0.0137(5) 0.0094(5)
O3 0.0759(9) 0.0544(7) 0.0508(7) 0.0204(6) 0.0338(6) 0.0007(6)
O4 0.0276(6) 0.0746(8) 0.0537(7) 0.0087(6) 0.0089(5) 0.0115(5)
N1 0.0392(7) 0.0628(8) 0.0352(7) 0.0264(6) -0.0014(5) 0.0075(6)
C1 0.0345(7) 0.0353(7) 0.0285(7) 0.0116(5) 0.0077(6) 0.0068(6)
C2 0.0352(7) 0.0278(6) 0.0281(7) 0.0090(5) 0.0052(5) 0.0067(5)
C3 0.0394(8) 0.0400(8) 0.0423(8) 0.0208(6) 0.0083(6) 0.0073(6)
C4 0.0537(10) 0.0456(9) 0.0309(7) 0.0106(6) 0.0033(7) 0.0147(7)
C5 0.0388(8) 0.0298(7) 0.0332(7) 0.0088(5) 0.0019(6) 0.0047(6)
C6 0.0367(9) 0.0520(9) 0.0584(10) 0.0167(8) 0.0046(7) 0.0049(7)
C8 0.0452(9) 0.0428(8) 0.0385(8) 0.0096(6) 0.0103(7) 0.0169(7)
C9 0.0441(8) 0.0330(7) 0.0323(7) 0.0062(6) 0.0119(6) 0.0008(6)
C10 0.0299(7) 0.0267(6) 0.0311(7) 0.0029(5) 0.0083(5) 0.0023(5)
C11 0.0280(7) 0.0376(7) 0.0527(9) 0.0005(6) 0.0080(6) 0.0053(6)
C12 0.0449(9) 0.0378(8) 0.0504(9) 0.0045(7) -0.0105(7) 0.0143(7)
C13 0.0625(11) 0.0396(8) 0.0366(8) 0.0136(6) -0.0052(7) 0.0070(7)
C14 0.0463(9) 0.0402(8) 0.0315(7) 0.0109(6) 0.0083(6) 0.0004(6)
C15 0.0281(7) 0.0293(6) 0.0262(6) 0.0040(5) 0.0052(5) 0.0028(5)
C16 0.0300(7) 0.0391(7) 0.0299(7) 0.0029(6) 0.0043(6) 0.0053(6)
S1 0.0464(5) 0.0496(5) 0.0386(5) 0.0200(4) 0.0164(4) 0.0187(4)
C7 0.052(3) 0.068(4) 0.070(4) 0.024(2) 0.028(3) 0.026(2)
S1A 0.0439(9) 0.0489(11) 0.0513(10) 0.0098(9) 0.0024(6) 0.0192(8)
C7A 0.131(14) 0.118(9) 0.083(8) 0.066(6) 0.064(7) 0.080(8)
loop_
_atom_type_symbol
_atom_type_description
_atom_type_scat_dispersion_real
_atom_type_scat_dispersion_imag
_atom_type_scat_source
C C 0.0033 0.0016 'International Tables Vol C Tables 4.2.6.8 and 6.1.1.4'
H H 0.0000 0.0000 'International Tables Vol C Tables 4.2.6.8 and 6.1.1.4'
N N 0.0061 0.0033 'International Tables Vol C Tables 4.2.6.8 and 6.1.1.4'
O O 0.0106 0.0060 'International Tables Vol C Tables 4.2.6.8 and 6.1.1.4'
S S 0.1246 0.1234 'International Tables Vol C Tables 4.2.6.8 and 6.1.1.4'
loop_
_geom_angle_atom_site_label_1
_geom_angle_atom_site_label_2
_geom_angle_atom_site_label_3
_geom_angle
N1 O2 C1 113.05(11)
O2 N1 C9 121.67(12)
O2 N1 C16 122.25(13)
C9 N1 C16 115.46(12)
O1 C1 O2 122.15(12)
O1 C1 C2 129.84(12)
O2 C1 C2 108.00(11)
C1 C2 C3 107.43(11)
C1 C2 C8 111.58(11)
C3 C2 C8 112.37(11)
C1 C2 C5 111.60(10)
C3 C2 C5 106.74(11)
C8 C2 C5 107.07(11)
C2 C3 C7A 100.4(5)
C2 C3 S1 108.73(11)
C2 C3 H3A 109.9
S1 C3 H3A 109.9
C2 C3 H3B 109.9
S1 C3 H3B 109.9
H3A C3 H3B 108.3
C7A C4 C5 101.8(5)
C5 C4 S1 108.87(12)
C5 C4 H4A 109.9
S1 C4 H4A 109.9
C5 C4 H4B 109.9
S1 C4 H4B 109.9
H4A C4 H4B 108.3
C4 C5 C6 113.75(12)
C4 C5 C2 107.49(11)
C6 C5 C2 106.10(11)
C4 C5 H5 109.8
C6 C5 H5 109.8
C2 C5 H5 109.8
C5 C6 C7 102.7(3)
C5 C6 S1A 108.94(17)
C5 C6 H6A 111.2
C7 C6 H6A 111.2
C5 C6 H6B 111.2
C7 C6 H6B 111.2
H6A C6 H6B 109.1
C7 C8 C2 102.3(4)
C2 C8 S1A 106.77(16)
C7 C8 H8A 111.3
C2 C8 H8A 111.3
C7 C8 H8B 111.3
C2 C8 H8B 111.3
H8A C8 H8B 109.2
O3 C9 N1 125.31(14)
O3 C9 C10 131.45(15)
N1 C9 C10 103.23(11)
C11 C10 C15 121.23(13)
C11 C10 C9 129.79(13)
C15 C10 C9 108.97(12)
C10 C11 C12 117.22(14)
C10 C11 H11 121.4
C12 C11 H11 121.4
C13 C12 C11 121.29(14)
C13 C12 H12 119.4
C11 C12 H12 119.4
C12 C13 C14 121.66(14)
C12 C13 H13 119.2
C14 C13 H13 119.2
C15 C14 C13 117.02(14)
C15 C14 H14 121.5
C13 C14 H14 121.5
C14 C15 C10 121.57(13)
C14 C15 C16 129.59(13)
C10 C15 C16 108.83(12)
O4 C16 N1 125.03(14)
O4 C16 C15 131.49(14)
N1 C16 C15 103.48(11)
C3 S1 C4 88.07(12)
C8 C7 C6 106.0(4)
C8 C7 H7A 110.5
C6 C7 H7A 110.5
C8 C7 H7B 110.5
C6 C7 H7B 110.5
H7A C7 H7B 108.7
C6 S1A C8 85.63(17)
C4 C7A C3 105.6(7)
C4 C7A H7A1 110.6
C3 C7A H7A1 110.6
C4 C7A H7A2 110.6
C3 C7A H7A2 110.6
H7A1 C7A H7A2 108.7
loop_
_geom_bond_atom_site_label_1
_geom_bond_atom_site_label_2
_geom_bond_distance
O1 C1 1.1837(16)
O2 N1 1.3860(15)
O2 C1 1.3893(17)
O3 C9 1.2017(17)
O4 C16 1.1978(17)
N1 C9 1.387(2)
N1 C16 1.3873(19)
C1 C2 1.5062(18)
C2 C3 1.5446(19)
C2 C8 1.5447(19)
C2 C5 1.5604(18)
C3 C7A 1.568(13)
C3 S1 1.763(2)
C3 H3A 0.9800
C3 H3B 0.9800
C4 C7A 1.526(13)
C4 C5 1.529(2)
C4 S1 1.784(2)
C4 H4A 0.9800
C4 H4B 0.9800
C5 C6 1.532(2)
C5 H5 0.9900
C6 C7 1.544(8)
C6 S1A 1.770(4)
C6 H6A 0.9800
C6 H6B 0.9800
C8 C7 1.509(8)
C8 S1A 1.817(4)
C8 H8A 0.9800
C8 H8B 0.9800
C9 C10 1.4829(19)
C10 C11 1.376(2)
C10 C15 1.3860(18)
C11 C12 1.387(2)
C11 H11 0.9400
C12 C13 1.375(3)
C12 H12 0.9400
C13 C14 1.382(2)
C13 H13 0.9400
C14 C15 1.3763(19)
C14 H14 0.9400
C15 C16 1.4789(19)
C7 H7A 0.9800
C7 H7B 0.9800
C7A H7A1 0.9800
C7A H7A2 0.9800
loop_
_geom_hbond_atom_site_label_D
_geom_hbond_atom_site_label_H
_geom_hbond_atom_site_label_A
_geom_hbond_distance_DH
_geom_hbond_distance_HA
_geom_hbond_distance_DA
_geom_hbond_angle_DHA
_geom_hbond_site_symmetry_A
C3 H3B S1 0.98 2.99 3.891(2) 153.9 2_665
loop_
_geom_torsion_atom_site_label_1
_geom_torsion_atom_site_label_2
_geom_torsion_atom_site_label_3
_geom_torsion_atom_site_label_4
_geom_torsion
C1 O2 N1 C9 101.85(15)
C1 O2 N1 C16 -87.57(17)
N1 O2 C1 O1 2.1(2)
N1 O2 C1 C2 -176.89(11)
O1 C1 C2 C3 -106.54(17)
O2 C1 C2 C3 72.38(13)
O1 C1 C2 C8 129.88(16)
O2 C1 C2 C8 -51.20(15)
O1 C1 C2 C5 10.1(2)
O2 C1 C2 C5 -170.94(11)
C1 C2 C3 C7A 94.5(6)
C8 C2 C3 C7A -142.4(6)
C5 C2 C3 C7A -25.3(6)
C1 C2 C3 S1 89.19(13)
C8 C2 C3 S1 -147.71(11)
C5 C2 C3 S1 -30.63(14)
C7A C4 C5 C6 140.8(6)
S1 C4 C5 C6 144.82(12)
C7A C4 C5 C2 23.7(6)
S1 C4 C5 C2 27.67(14)
C1 C2 C5 C4 -115.53(12)
C3 C2 C5 C4 1.57(14)
C8 C2 C5 C4 122.11(12)
C1 C2 C5 C6 122.43(13)
C3 C2 C5 C6 -120.47(12)
C8 C2 C5 C6 0.06(15)
C4 C5 C6 C7 -95.2(4)
C2 C5 C6 C7 22.8(4)
C4 C5 C6 S1A -84.55(19)
C2 C5 C6 S1A 33.4(2)
C1 C2 C8 C7 -145.8(4)
C3 C2 C8 C7 93.5(4)
C5 C2 C8 C7 -23.4(4)
C1 C2 C8 S1A -154.48(16)
C3 C2 C8 S1A 84.78(18)
C5 C2 C8 S1A -32.11(18)
O2 N1 C9 O3 -8.6(2)
C16 N1 C9 O3 -179.82(14)
O2 N1 C9 C10 171.79(12)
C16 N1 C9 C10 0.61(16)
O3 C9 C10 C11 0.3(2)
N1 C9 C10 C11 179.82(14)
O3 C9 C10 C15 -179.03(15)
N1 C9 C10 C15 0.49(14)
C15 C10 C11 C12 0.6(2)
C9 C10 C11 C12 -178.65(13)
C10 C11 C12 C13 0.1(2)
C11 C12 C13 C14 -0.4(2)
C12 C13 C14 C15 0.1(2)
C13 C14 C15 C10 0.6(2)
C13 C14 C15 C16 -179.70(13)
C11 C10 C15 C14 -1.0(2)
C9 C10 C15 C14 178.40(12)
C11 C10 C15 C16 179.28(12)
C9 C10 C15 C16 -1.33(14)
O2 N1 C16 O4 7.6(2)
C9 N1 C16 O4 178.72(14)
O2 N1 C16 C15 -172.51(12)
C9 N1 C16 C15 -1.38(16)
C14 C15 C16 O4 1.8(3)
C10 C15 C16 O4 -178.50(15)
C14 C15 C16 N1 -178.08(14)
C10 C15 C16 N1 1.62(14)
C2 C3 S1 C4 40.82(12)
C5 C4 S1 C3 -39.90(12)
C2 C8 C7 C6 38.6(6)
C5 C6 C7 C8 -38.9(6)
C5 C6 S1A C8 -45.5(2)
C2 C8 S1A C6 44.5(2)
C5 C4 C7A C3 -40.7(8)
C2 C3 C7A C4 41.3(8)
