#------------------------------------------------------------------------------
#$Date: 2019-11-03 17:31:38 +0200 (Sun, 03 Nov 2019) $
#$Revision: 221976 $
#$URL: file:///home/coder/svn-repositories/cod/cif/4/12/89/4128944.cif $
#------------------------------------------------------------------------------
#
# This file is available in the Crystallography Open Database (COD),
# http://www.crystallography.net/
#
# All data on this site have been placed in the public domain by the
# contributors.
#
data_4128944
loop_
_publ_author_name
'Niyas, M. A.'
'Ramakrishnan, Remya'
'Vijay, Vishnu'
'Sebastian, Ebin'
'Hariharan, Mahesh'
_publ_section_title
;
 Anomalous Halogen-Halogen Interaction Assists Radial Chromophoric
 Assembly.
;
_journal_issue                   11
_journal_name_full               'Journal of the American Chemical Society'
_journal_page_first              4536
_journal_page_last               4540
_journal_paper_doi               10.1021/jacs.8b13754
_journal_volume                  141
_journal_year                    2019
_chemical_formula_moiety         'C15 H11 Br2 N O2'
_chemical_formula_sum            'C15 H11 Br2 N O2'
_chemical_formula_weight         397.07
_space_group_crystal_system      monoclinic
_space_group_IT_number           4
_space_group_name_Hall           'P 2yb'
_space_group_name_H-M_alt        'P 1 21 1'
_atom_sites_solution_hydrogens   geom
_audit_creation_method           SHELXL-2017/1
_cell_angle_alpha                90
_cell_angle_beta                 91.026(8)
_cell_angle_gamma                90
_cell_formula_units_Z            2
_cell_length_a                   9.102(2)
_cell_length_b                   6.967(2)
_cell_length_c                   10.962(3)
_cell_measurement_reflns_used    352
_cell_measurement_temperature    296(2)
_cell_measurement_theta_max      18.92
_cell_measurement_theta_min      3.47
_cell_volume                     695.0(3)
_computing_cell_refinement       'APEX3/SAINT (Bruker, 2016)'
_computing_data_collection       'APEX3 (Bruker, 2016)'
_computing_data_reduction        'SAINT/XPREP (Bruker, 2016)'
_computing_molecular_graphics
'ORTEP3 (Farrugia, 1997) and Mercury (Bruno et al., 2002)'
_computing_publication_material  'SHELXL-2014 (Sheldrick, 2014)'
_computing_structure_refinement  'SHELXL-2017/1 (Sheldrick, 2017)'
_computing_structure_solution    'SHELXT 2014/5 (Sheldrick, 2014)'
_diffrn_ambient_temperature      296(2)
_diffrn_detector_area_resol_mean 0
_diffrn_measured_fraction_theta_full 0.991
_diffrn_measured_fraction_theta_max 0.905
_diffrn_measurement_device_type  'Bruker KAPPA APEX-II CCD'
_diffrn_measurement_method       '\f and \w scans'
_diffrn_radiation_type           MoK\a
_diffrn_radiation_wavelength     0.71073
_diffrn_reflns_av_R_equivalents  0.0995
_diffrn_reflns_av_unetI/netI     0.1172
_diffrn_reflns_Laue_measured_fraction_full 0.991
_diffrn_reflns_Laue_measured_fraction_max 0.905
_diffrn_reflns_limit_h_max       11
_diffrn_reflns_limit_h_min       -9
_diffrn_reflns_limit_k_max       4
_diffrn_reflns_limit_k_min       -8
_diffrn_reflns_limit_l_max       9
_diffrn_reflns_limit_l_min       -13
_diffrn_reflns_number            3170
_diffrn_reflns_point_group_measured_fraction_full 0.552
_diffrn_reflns_point_group_measured_fraction_max 0.543
_diffrn_reflns_theta_full        25.242
_diffrn_reflns_theta_max         25.999
_diffrn_reflns_theta_min         3.465
_diffrn_source                   'sealed tube'
_exptl_absorpt_coefficient_mu    5.832
_exptl_absorpt_correction_T_max  0.759
_exptl_absorpt_correction_T_min  0.335
_exptl_absorpt_correction_type   multi-scan
_exptl_absorpt_process_details   'SADABS (Bruker, 2016)'
_exptl_crystal_colour            colourless
_exptl_crystal_density_diffrn    1.897
_exptl_crystal_density_meas      1.897
_exptl_crystal_density_method    NONE
_exptl_crystal_description       needle
_exptl_crystal_F_000             388
_exptl_crystal_size_max          0.240
_exptl_crystal_size_mid          0.100
_exptl_crystal_size_min          0.050
_refine_diff_density_max         0.616
_refine_diff_density_min         -0.671
_refine_diff_density_rms         0.112
_refine_ls_abs_structure_details
;
 Classical Flack method preferred over Parsons because s.u. lower.
;
_refine_ls_abs_structure_Flack   0.12(9)
_refine_ls_extinction_method     none
_refine_ls_goodness_of_fit_ref   0.953
_refine_ls_hydrogen_treatment    constr
_refine_ls_matrix_type           full
_refine_ls_number_parameters     181
_refine_ls_number_reflns         1485
_refine_ls_number_restraints     124
_refine_ls_restrained_S_all      0.937
_refine_ls_R_factor_all          0.1451
_refine_ls_R_factor_gt           0.0574
_refine_ls_shift/su_max          0.005
_refine_ls_shift/su_mean         0.001
_refine_ls_structure_factor_coef Fsqd
_refine_ls_weighting_details
'w=1/[\s^2^(Fo^2^)+(0.0835P)^2^] where P=(Fo^2^+2Fc^2^)/3'
_refine_ls_weighting_scheme      calc
_refine_ls_wR_factor_gt          0.1381
_refine_ls_wR_factor_ref         0.1891
_reflns_Friedel_coverage         0.104
_reflns_Friedel_fraction_full    0.122
_reflns_Friedel_fraction_max     0.112
_reflns_number_gt                671
_reflns_number_total             1485
_reflns_threshold_expression     'I > 2\s(I)'
_cod_data_source_file            ja8b13754_si_002.cif
_cod_data_source_block           NIBr2_Pr
_cod_original_sg_symbol_H-M      'P 21'
_cod_database_code               4128944
_shelx_shelxl_version_number     2017/1
_shelx_space_group_comment
;
The symmetry employed for this shelxl refinement is uniquely defined
by the following loop, which should always be used as a source of
symmetry information in preference to the above space-group names.
They are only intended as comments.
;
_shelx_estimated_absorpt_t_min   0.335
_shelx_estimated_absorpt_t_max   0.759
_shelx_res_file
;
TITL shelxt_c.res in P2(1)
    shelx.res
    created by SHELXL-2017/1 at 17:53:53 on 11-Dec-2018
CELL  0.71073   9.1017   6.9667  10.9618   90.000   91.026   90.000
ZERR     2.00   0.0023   0.0021   0.0029    0.000    0.008    0.000
LATT  -1
SYMM  - X, 1/2 + Y, - Z
SFAC  C    H    N    O    BR
UNIT  30 22 2 4 4
MERG   2
OMIT    -3.00  52.00
DFIX 1.480 0.015 N1 C13
DFIX 1.540 0.015 C13 C14 C14 C15
SIMU 0.02 0.04 C1 > C15
SIMU 0.015 0.03 O1 O2
EQIV $1 x+1, y, z
HTAB C7 O1_$1
EQIV $2 -x+1, y+1/2, -z
HTAB C14 O2_$2
HTAB C14 O1
ISOR  0.005 O1
HTAB C7 O1_$1
HTAB C14 O2_$2
HTAB C14 O1
FMAP   2
PLAN   20
SIZE     0.050   0.100   0.240
ACTA
BOND   $H
CONF
L.S.  10
TEMP    23.00
WGHT    0.083500
FVAR       0.14272
C1    1    0.503482    0.521434    0.598352    11.00000    0.03684    0.11695 =
         0.04468   -0.00171   -0.00195   -0.00586
C2    1    0.354479    0.540943    0.587887    11.00000    0.04268    0.13582 =
         0.04797   -0.00194    0.01824    0.00975
AFIX  43
H2    2    0.303001    0.569988    0.658050    11.00000   -1.20000
AFIX   0
C3    1    0.274861    0.520368    0.479764    11.00000    0.03575    0.14704 =
         0.05699   -0.02445   -0.00341    0.01093
AFIX  43
H3    2    0.176638    0.483517    0.478181    11.00000   -1.20000
AFIX   0
C4    1    0.266250    0.504990    0.257745    11.00000    0.03277    0.14375 =
         0.05555   -0.02293   -0.00020    0.00594
C5    1    0.497284    0.539574    0.145465    11.00000    0.03589    0.11010 =
         0.04086   -0.01910    0.00085   -0.01972
C6    1    0.730397    0.542510    0.264282    11.00000    0.02710    0.11019 =
         0.04451    0.00328    0.00748   -0.00445
AFIX  43
H6    2    0.776489    0.557061    0.189813    11.00000   -1.20000
AFIX   0
C7    1    0.816603    0.553937    0.371689    11.00000    0.03024    0.11374 =
         0.05820    0.00691    0.00662   -0.00172
AFIX  43
H7    2    0.918594    0.560450    0.369791    11.00000   -1.20000
AFIX   0
C8    1    0.743473    0.554959    0.477806    11.00000    0.02907    0.11863 =
         0.05028   -0.00886   -0.01554   -0.01680
C9    1    0.588583    0.513512    0.489224    11.00000    0.03581    0.11364 =
         0.04499   -0.00519    0.00290   -0.01400
C10   1    0.505842    0.528374    0.376573    11.00000    0.02886    0.11057 =
         0.03719   -0.00338   -0.00244   -0.00791
C11   1    0.582428    0.511125    0.263869    11.00000    0.02279    0.09113 =
         0.03649   -0.00373    0.00330   -0.01993
C12   1    0.351621    0.558532    0.373372    11.00000    0.01937    0.12709 =
         0.04454   -0.01657    0.00072    0.00174
N1    3    0.347671    0.514745    0.149878    11.00000    0.03072    0.14884 =
         0.05012   -0.02169   -0.01460    0.00103
O1    4    0.136427    0.581682    0.255001    11.00000    0.02502    0.09924 =
         0.06383   -0.00331    0.00168    0.00544
O2    4    0.559640    0.511135    0.051161    11.00000    0.06056    0.11870 =
         0.02659   -0.00351    0.01129   -0.02117
BR1   5    0.573615    0.538003    0.762198    11.00000    0.06808    0.13194 =
         0.04263    0.00269   -0.00819   -0.00098
BR2   5    0.879561    0.537785    0.614506    11.00000    0.04140    0.22332 =
         0.06406    0.00924   -0.02147   -0.00058
C15   1    0.085444    0.565987   -0.121152    11.00000    0.05937    0.39243 =
         0.07467    0.03283   -0.03494   -0.00411
AFIX  33
H15A  2    0.033526    0.670988   -0.158785    11.00000   -1.50000
H15B  2    0.142095    0.500465   -0.181333    11.00000   -1.50000
H15C  2    0.016287    0.478350   -0.086525    11.00000   -1.50000
AFIX   0
C13   1    0.263874    0.464604    0.032157    11.00000    0.05664    0.15336 =
         0.05642    0.03183    0.00481    0.00302
AFIX  23
H13A  2    0.330944    0.413201   -0.027367    11.00000   -1.20000
H13B  2    0.189824    0.368213    0.048330    11.00000   -1.20000
AFIX   0
C14   1    0.191645    0.645373   -0.016993    11.00000    0.08893    0.08519 =
         0.09696    0.00468    0.01966   -0.00916
AFIX  23
H14A  2    0.263831    0.732908   -0.049743    11.00000   -1.20000
H14B  2    0.136982    0.710610    0.045850    11.00000   -1.20000
AFIX   0
HKLF    4




REM  shelxt_c.res in P2(1)
REM R1 =  0.0574 for     671 Fo > 4sig(Fo)  and  0.1451 for all    1485 data
REM    181 parameters refined using    124 restraints

END

WGHT      0.0837      0.0000

REM Highest difference peak  0.616,  deepest hole -0.671,  1-sigma level  0.112
Q1    1   0.9198  0.5351  0.5057  11.00000  0.05    0.62
Q2    1   0.5369  0.5369  0.8652  11.00000  0.05    0.58
Q3    1   0.8408  0.5407  0.7128  11.00000  0.05    0.55
Q4    1   0.6123  0.5361  0.6717  11.00000  0.05    0.53
Q5    1   0.2324  0.5473  0.0244  11.00000  0.05    0.47
Q6    1   0.3183  0.5400  0.3247  11.00000  0.05    0.40
Q7    1   0.5402  0.6288  0.6811  11.00000  0.05    0.39
Q8    1   0.8548  0.6444  0.5220  11.00000  0.05    0.34
Q9    1   0.1217  0.5434  0.3594  11.00000  0.05    0.34
Q10   1   0.5460  0.4465  0.6781  11.00000  0.05    0.34
Q11   1   0.1758  0.3672 -0.0048  11.00000  0.05    0.33
Q12   1   0.1266  0.5347  0.5115  11.00000  0.05    0.32
Q13   1   0.7810  0.2899  0.6407  11.00000  0.05    0.32
Q14   1   0.8389  0.4676  0.5421  11.00000  0.05    0.31
Q15   1   0.8382  0.5709  0.6011  11.00000  0.05    0.31
Q16   1   0.1697  0.6824  0.0757  11.00000  0.05    0.31
Q17   1   0.3772  0.7355  0.2679  11.00000  0.05    0.31
Q18   1   0.5367  0.5468  0.2421  11.00000  0.05    0.30
Q19   1   0.8380  0.5172  0.5977  11.00000  0.05    0.29
Q20   1   0.5422  0.5125  0.7773  11.00000  0.05    0.29
;
_shelx_res_checksum              14878
_shelx_hkl_file
;
   2   0   0    5.52    0.52
  -2   0   0    6.11    0.51
   3   0   0   91.80    6.50
  -3   0   0   89.28    6.48
   4   0   0   50.64    3.75
   5   0   0   10.51    0.99
   6   0   0   19.00    1.61
   0   1   0    1.48    0.24
   0   1   0    2.72    0.33
   0   1   0    1.58    0.25
   1  -1   0   25.44    1.69
   1  -1   0   19.75    1.70
   1   1   0   20.31    1.72
   1   1   0   22.00    1.70
  -1   1   0   24.28    1.71
  -1   1   0   22.77    1.64
   2  -1   0    0.58    0.28
  -2  -1   0    0.08    0.22
   2   1   0   -0.07    0.23
  -3  -1   0  189.19   13.43
   3   1   0  185.74   13.42
  -4  -1   0   99.32    7.26
  -5  -1   0   18.34    1.61
  10  -1   0    3.11    1.44
  11  -1   0    0.76    1.46
   0  -2   0  981.54   66.65
   0  -2   0  926.86   66.62
   0  -2   0  961.26   66.65
   0   2   0  840.11   66.64
   0   2   0  951.96   66.62
   0   2   0 1000.00   66.64
   1  -2   0   72.64    5.12
   1  -2   0   71.02    5.21
   1  -2   0   68.05    5.11
  -1  -2   0   65.12    5.14
  -1  -2   0   72.46    5.21
  -1   2   0   70.90    5.10
   1   2   0   68.14    5.19
   1   2   0   66.88    5.16
  -1   2   0   77.30    5.12
  -1   2   0   72.10    5.17
   1   2   0   67.29    5.14
   2  -2   0   10.76    0.90
  -2  -2   0    8.67    1.07
   2  -2   0   10.33    0.97
   2  -2   0   10.03    1.04
  -2   2   0   11.18    0.89
  -3  -2   0   25.26    2.54
   3  -2   0   34.33    2.59
   3  -2   0   36.91    2.59
   3  -2   0   31.13    2.30
  -4  -2   0   17.98    1.85
   4  -2   0   23.46    1.91
   5  -2   0    4.50    0.89
  -5  -2   0    3.16    0.71
  -6  -2   0    8.96    1.23
   6  -2   0   10.55    1.43
   7  -2   0   14.93    1.86
  -7  -2   0   13.64    1.58
   8  -2   0    3.68    1.18
   9  -2   0    1.29    1.08
  10  -2   0    0.22    1.27
  11  -2   0    0.93    1.33
   0  -3   0    0.13    0.43
   0  -3   0    0.46    0.39
   0  -3   0    0.44    0.38
  -1  -3   0   21.96    1.89
  -1  -3   0   23.88    1.97
  -1  -3   0   21.02    1.94
   1  -3   0   22.29    1.88
   1  -3   0   21.06    2.01
   1  -3   0   22.45    1.93
   2  -3   0   -0.04    0.38
   2  -3   0   -0.47    0.39
  -2  -3   0   -0.62    0.37
   2  -3   0    0.25    0.41
  -2   3   0   -0.07    0.27
   3  -3   0   49.23    3.72
   3  -3   0   49.93    3.82
   3  -3   0   53.15    4.02
  -3  -3   0   45.15    3.97
  -3   3   0   51.42    3.69
   4  -3   0   42.23    3.09
   4  -3   0   39.44    2.82
  -4  -3   0   33.74    3.21
   4  -3   0   34.18    3.15
   5  -3   0    8.21    1.26
   5  -3   0    9.41    1.26
  -5  -3   0    6.52    1.15
   6  -3   0    5.56    1.14
  -6  -3   0    6.29    1.16
   6  -3   0    7.72    1.24
   7  -3   0    3.14    1.03
  -7  -3   0    1.55    0.78
   7  -3   0    0.13    0.87
   8  -3   0   -0.18    0.85
   8  -3   0   -1.12    0.86
   9  -3   0    2.20    1.13
   9  -3   0    0.06    1.01
  10  -3   0    2.05    1.27
  10  -3   0    0.46    1.13
  11  -3   0    0.62    1.37
   0  -4   0   81.38    6.62
   0  -4   0   87.67    6.55
   0  -4   0   93.03    6.63
   1  -4   0   17.56    1.68
   1  -4   0   16.09    1.70
  -1  -4   0   17.84    1.75
  -1  -4   0   18.81    1.82
  -1  -4   0   15.57    1.85
   1  -4   0   17.55    1.83
  -2  -4   0    5.78    1.06
  -2  -4   0    7.04    1.01
   2  -4   0    5.50    0.89
   2  -4   0    5.70    0.92
   2  -4   0    5.67    1.14
   3  -4   0    3.11    0.90
  -3  -4   0    3.07    0.89
   3  -4   0    3.05    0.65
   3  -4   0    3.00    0.72
   4  -4   0    1.64    0.55
   4  -4   0    1.01    0.66
   4  -4   0    2.44    0.88
  -4  -4   0    0.45    0.76
  -4   4   0    2.38    0.45
   5  -4   0   -0.86    0.63
   5  -4   0   -0.50    0.66
  -5  -4   0    0.10    0.70
   6  -4   0    3.29    0.97
   6  -4   0    2.46    0.99
  -6  -4   0    2.01    0.94
   7  -4   0    2.85    1.01
  -7  -4   0    2.07    0.94
   7  -4   0    0.98    0.94
   8  -4   0    0.02    0.93
   8  -4   0    0.47    0.96
  -8  -4   0   -0.61    0.81
   9  -4   0    0.73    1.20
   9  -4   0   -0.34    1.06
  10  -4   0   -0.14    1.23
  10  -4   0    0.16    1.21
   0  -5   0   -0.20    0.57
   0  -5   0    0.27    0.75
   0  -5   0   -0.36    0.64
  -1  -5   0    2.49    1.01
   1  -5   0    1.58    0.86
  -1  -5   0    2.83    0.82
   1  -5   0    4.39    0.96
   1  -5   0    3.15    0.83
  -1  -5   0    3.58    0.97
   2  -5   0   -0.74    0.60
   2  -5   0    0.32    0.67
  -2  -5   0    0.44    0.73
  -2  -5   0    0.85    0.68
   2  -5   0    0.67    0.88
   3  -5   0    2.86    1.12
   3  -5   0    2.36    0.87
   3  -5   0    3.96    0.88
  -3  -5   0    3.67    1.06
   4  -5   0    2.44    0.77
  -4  -5   0    4.46    1.21
   4  -5   0    3.60    1.04
   4  -5   0    4.54    1.27
   5  -5   0    0.87    1.13
  -5  -5   0    1.18    0.91
   5  -5   0    1.83    0.90
   6  -5   0    0.82    0.86
  -6  -5   0    1.42    1.01
   6  -5   0    0.88    1.05
  -7  -5   0    0.24    0.95
   7  -5   0   -0.27    1.07
   7  -5   0    0.63    0.96
  -8  -5   0    0.58    1.00
   8  -5   0   -1.18    1.13
   8  -5   0    1.30    1.10
   9  -5   0   -0.25    1.05
   9  -5   0   -1.75    1.10
   0  -6   0    1.13    0.96
   0  -6   0    4.15    1.14
   0  -6   0    1.59    1.16
   1  -6   0    0.75    0.85
  -1  -6   0    0.13    0.88
  -1  -6   0    1.39    0.83
   1  -6   0    1.99    1.22
  -1  -6   0   -0.25    1.04
   1  -6   0    1.01    0.87
   2  -6   0   -0.71    0.89
  -2  -6   0    0.34    0.71
  -2  -6   0    0.41    0.86
   2  -6   0    0.18    0.81
   2  -6   0    0.04    0.84
   3  -6   0   -0.83    0.98
  -3  -6   0    0.26    0.88
   3  -6   0   -0.02    0.82
   3  -6   0    0.51    0.78
  -4  -6   0    0.96    0.87
   4  -6   0   -0.35    0.68
   4  -6   0    0.24    1.24
   4  -6   0    0.89    0.96
   5  -6   0   -0.72    1.11
   5  -6   0    1.57    1.07
  -5  -6   0    0.20    0.98
   6  -6   0    0.70    1.43
   6  -6   0   -0.35    1.02
  -6  -6   0    1.15    1.07
  -7  -6   0   -0.11    1.11
   7  -6   0   -1.09    1.07
   7  -6   0   -0.31    1.35
  -8  -6   0    0.58    1.22
   8  -6   0   -1.74    1.27
   8  -6   0   -0.76    1.13
   0  -7   0    0.29    1.10
   0  -7   0   -0.73    0.86
   0  -7   0   -0.77    0.89
  -1  -7   0   -0.22    0.92
   1  -7   0    0.12    0.94
  -1  -7   0   -0.94    0.84
   1  -7   0   -0.56    0.91
   1  -7   0    0.74    1.31
   2  -7   0   -0.08    0.90
   2  -7   0   -0.44    1.20
  -2  -7   0    0.96    1.02
   2  -7   0    0.40    0.93
  -3  -7   0    0.06    0.99
   3  -7   0    0.93    0.89
   3  -7   0   -0.51    1.10
   3  -7   0   -0.95    1.00
  -4  -7   0    0.85    1.24
   4  -7   0   -1.01    1.01
   4  -7   0    2.92    1.52
   5  -7   0    1.22    1.47
   5  -7   0   -0.01    1.22
  -5  -7   0    1.36    1.14
  -6  -7   0    1.25    1.21
   6  -7   0    1.35    1.74
   6  -7   0    0.03    1.23
   7  -7   0   -0.32    2.22
  -7  -7   0   -1.18    1.23
   7  -7   0   -2.38    1.43
   0  -8   0   -0.60    1.14
   0  -8   0    0.58    1.11
   0  -8   0   -0.22    1.61
   1  -8   0    0.12    1.03
   1  -8   0    0.17    1.22
  -1  -8   0   -1.50    0.97
   1  -8   0   -0.48    1.46
  -1  -8   0   -0.03    1.10
   2  -8   0    0.22    1.43
   2  -8   0   -0.53    1.01
  -2  -8   0    0.09    1.21
   2  -8   0   -0.91    1.14
   3  -8   0   -0.14    1.14
   3  -8   0    0.37    1.58
  -3  -8   0   -0.31    1.06
  -4  -8   0   -0.85    1.09
   4  -8   0    0.98    1.38
   4  -8   0    0.46    1.62
   5  -8   0    0.99    1.66
  -5  -8   0    1.05    1.24
   5  -8   0   -0.88    1.31
   0  -9   0   -0.83    1.21
   0  -9   0   -1.82    1.17
   1  -9   0   -0.14    1.87
  -1  -9   0   -2.01    1.19
   1  -9   0    1.15    1.43
   1  -9   0    0.66    1.31
  -2  -9   0    0.74    1.40
   2  -9   0    1.46    1.88
   2  -9   0   -0.32    1.47
   5   0  -1    6.95    0.86
   4   0  -1    0.36    0.53
   3   0  -1  167.35   11.92
   2   0   1    3.08    0.36
  -2   0  -1    3.62    0.36
  -3   0  -1   63.55    4.55
   3   0   1   61.78    4.53
  -4   0  -1   74.62    5.16
   4   0   1   67.17    5.14
  -5   0  -1   31.92    2.38
   5   0   1   29.80    2.37
  -6   0  -1   23.83    1.87
   6   0   1   23.00    1.90
  11  -1  -1    0.75    1.35
  10  -1  -1   -0.50    1.13
   9  -1  -1    5.57    1.35
   8  -1  -1    1.21    0.92
   6  -1  -1   41.22    3.09
   5  -1  -1    0.89    0.34
   4  -1  -1   33.68    2.71
   3  -1  -1    0.78    0.37
   3   1  -1    0.05    0.35
   2  -1  -1  270.89   19.89
  -2   1   1  297.76   19.90
   2   1  -1  271.59   19.91
   1  -1  -1   40.32    3.44
   1  -1  -1   43.11    3.39
   1  -1  -1   51.91    3.47
   1   1  -1   45.99    3.46
  -1   1   1   54.92    3.48
   0  -1   1   12.51    1.10
   0  -1   1   13.89    1.15
   0   1   1   16.52    1.18
   0   1   1   16.55    1.16
   0   1  -1   15.72    1.15
   0   1   1   15.16    1.15
   0   1  -1   12.60    1.12
   0   1  -1   15.86    1.13
   1  -1   1   54.72    3.76
  -1  -1  -1   50.53    3.85
  -1  -1  -1   52.40    3.83
   1  -1   1   51.48    3.83
   1   1   1   49.40    3.82
  -1   1  -1   55.96    3.77
   1   1   1   52.05    3.84
  -2  -1  -1    3.47    0.51
   2   1   1    3.45    0.48
   2   1   1    3.72    0.47
  -3  -1  -1   29.14    2.25
   3   1   1   26.81    2.17
  -4  -1  -1   37.13    2.92
  -5  -1  -1    7.26    0.94
  -6  -1  -1    1.49    0.53
  -7  -1  -1   33.38    2.73
  11  -1   1   -1.13    1.41
  11  -2  -1    1.46    1.33
  10  -2  -1    1.27    1.22
   9  -2  -1    0.00    0.90
   8  -2  -1    3.31    1.16
   7  -2  -1    4.18    1.08
   6  -2  -1   13.47    1.66
   5  -2  -1    4.05    0.42
   5  -2  -1    4.40    0.88
   4  -2  -1    0.57    0.23
   4  -2  -1    0.71    0.46
  -4  -2   1   -0.08    0.40
  -3  -2   1   80.27    6.25
   3  -2  -1   89.16    6.09
   3  -2  -1   74.47    6.24
   3  -2  -1   91.90    6.29
   2  -2  -1    1.04    0.38
   2  -2  -1    1.44    0.45
   2  -2  -1    1.57    0.34
  -2  -2   1    0.71    0.36
   1  -2  -1   11.28    0.95
  -1  -2   1    9.34    0.93
  -1  -2   1    8.32    0.99
   1  -2  -1    8.60    0.90
  -1   2   1    9.63    0.87
   1   2  -1   10.12    0.91
  -1   2   1   13.63    0.98
   1   2  -1    8.72    0.95
   1   2  -1    8.59    0.97
   0  -2   1   57.58    4.16
   0  -2   1   60.28    4.21
   0  -2   1   60.06    4.20
   0  -2  -1   57.16    4.21
   0  -2  -1   56.31    4.22
   0  -2  -1   52.55    4.17
   0   2   1   57.26    4.22
   0   2   1   58.84    4.18
   0   2  -1   51.25    4.16
   0   2  -1   57.16    4.20
   0   2   1   54.37    4.16
   0   2  -1   54.27    4.14
   1  -2   1   66.37    4.67
   1  -2   1   61.12    4.76
  -1  -2  -1   66.30    4.80
   1  -2   1   68.48    4.69
  -1  -2  -1   62.78    4.74
  -1   2  -1   64.66    4.69
   1   2   1   62.89    4.78
  -1   2  -1   68.20    4.66
   1   2   1   63.09    4.78
  -1   2  -1   60.41    4.70
   1   2   1   59.25    4.77
   2  -2   1    7.05    0.92
  -2  -2  -1    7.98    0.87
   2  -2   1    7.22    0.72
  -2  -2  -1    6.68    0.90
  -2   2  -1    7.20    0.69
  -2   2  -1    7.44    0.74
  -3  -2  -1   26.04    2.59
   3  -2   1   34.14    2.63
   3  -2   1   34.96    2.52
  -3   2  -1   32.16    2.32
  -4  -2  -1   28.10    2.57
   4  -2   1   33.18    2.63
  -5  -2  -1   11.13    1.34
   5  -2   1    9.77    1.36
  -6  -2  -1   10.32    1.32
   6  -2   1    9.45    1.42
   7  -2   1   -0.62    0.75
  -7  -2  -1    0.84    0.64
  -8  -2  -1    5.39    1.05
   8  -2   1    5.97    1.39
   9  -2   1    1.09    1.13
  10  -2   1    1.76    1.36
  11  -2   1    0.87    1.54
  11  -3  -1    1.17    1.41
  11  -3  -1    1.50    1.46
  10  -3  -1   -0.17    1.12
  10  -3  -1    1.39    1.27
   9  -3  -1    0.11    1.02
   9  -3  -1   -0.55    1.03
   8  -3  -1   -1.16    0.84
   8  -3  -1   -0.40    0.85
   7  -3  -1    0.03    0.80
   7  -3  -1   -1.02    0.84
   6  -3  -1    8.94    1.44
   6  -3  -1   11.32    1.53
  -5  -3   1   -0.32    0.45
   5  -3  -1    0.76    0.74
   5  -3  -1    0.81    0.29
   5  -3  -1    0.56    0.56
   4  -3  -1    6.49    0.72
   4  -3  -1    7.09    1.08
  -4  -3   1    4.95    1.00
   4  -3  -1    5.93    1.01
   3  -3  -1    0.33    0.52
  -3  -3   1   -0.61    0.42
   3  -3  -1    0.67    0.48
   3  -3  -1    0.71    0.39
  -2  -3   1   45.43    3.37
   2  -3  -1   41.63    3.22
   2  -3  -1   36.52    3.21
   2  -3  -1   39.80    3.36
  -2   3   1   43.64    3.16
   1  -3  -1    0.62    0.50
   1  -3  -1    0.47    0.49
  -1  -3   1   -0.55    0.37
  -1  -3   1    0.42    0.39
  -1  -3   1    1.00    0.61
   1  -3  -1    0.35    0.41
   0  -3   1    6.45    0.98
   0  -3   1    7.22    0.90
   0  -3  -1    6.62    0.92
   0  -3   1    6.01    0.86
   0  -3  -1    5.95    0.82
   0  -3  -1    4.95    0.84
  -1  -3  -1    8.42    0.98
  -1  -3  -1    6.72    0.91
   1  -3   1    5.25    0.82
   1  -3   1    4.04    0.80
  -1  -3  -1    8.92    1.03
   1  -3   1    6.73    1.04
   2  -3   1    1.45    0.63
  -2  -3  -1    0.72    0.43
  -2  -3  -1   -0.24    0.47
   2  -3   1    0.95    0.43
   3  -3   1    7.22    0.87
   3  -3   1    8.33    1.12
  -3  -3  -1    6.91    1.06
  -3   3  -1    6.79    0.75
  -4  -3  -1   11.24    1.45
   4  -3   1   12.11    1.22
   4  -3   1    7.96    1.27
  -4   3  -1   10.90    0.88
   5  -3   1    3.06    0.88
   5  -3   1    2.01    0.75
  -5  -3  -1    3.81    0.91
   6  -3   1    0.46    0.81
   6  -3   1    0.63    0.81
  -6  -3  -1    0.58    0.77
   7  -3   1   12.59    1.58
   7  -3   1    8.69    1.67
  -7  -3  -1   11.73    1.67
   8  -3   1    1.09    1.04
  -8  -3  -1   -0.25    0.71
   8  -3   1    0.83    0.93
   9  -3   1   -1.62    0.95
   9  -3   1   -0.18    1.00
  10  -3   1   -1.30    1.82
  10  -3   1   -1.09    1.15
  11  -3   1   -1.43    1.32
  10  -4  -1   -1.35    1.08
  10  -4  -1    0.30    1.19
   9  -4  -1    0.78    1.17
   9  -4  -1   -1.37    0.94
   8  -4  -1    0.43    0.95
   8  -4  -1   -0.46    0.89
   7  -4  -1    0.54    0.88
   7  -4  -1    1.47    0.96
   6  -4  -1    0.60    0.86
  -6  -4   1    0.41    0.71
   6  -4  -1    2.09    0.98
  -5  -4   1   -0.13    0.61
   5  -4  -1    1.28    0.79
   5  -4  -1    1.40    0.52
   5  -4  -1   -0.04    0.73
   4  -4  -1    1.14    0.67
  -4  -4   1    0.15    0.57
   4  -4  -1    0.85    0.56
   4  -4  -1    1.12    0.72
   3  -4  -1   14.09    1.51
   3  -4  -1   14.22    1.41
   3  -4  -1   11.37    1.65
  -3  -4   1   10.59    1.52
   2  -4  -1    0.01    0.54
   2  -4  -1   -0.03    0.49
   2  -4  -1    0.16    0.53
  -2  -4   1   -0.08    0.53
   1  -4  -1    0.21    0.52
   1  -4  -1    0.15    0.53
  -1  -4   1   -0.83    0.55
   1  -4  -1    0.70    0.59
  -1  -4   1    0.63    0.63
  -1  -4   1    0.94    0.60
   0  -4   1    7.51    1.11
   0  -4   1    7.46    1.14
   0  -4  -1   10.67    1.29
   0  -4   1    7.28    1.15
   0  -4  -1    7.76    1.28
   0  -4  -1    6.98    1.02
  -1  -4  -1    8.35    1.11
  -1  -4  -1    7.38    1.16
  -1  -4  -1    6.84    1.14
   1  -4   1    5.13    0.96
   1  -4   1    8.33    1.07
   2  -4   1    3.11    0.66
  -2  -4  -1    3.52    0.82
   2  -4   1    3.08    0.95
   2  -4   1    2.60    0.68
  -2  -4  -1    2.88    0.73
   3  -4   1    5.91    0.80
  -3  -4  -1    5.52    1.08
   3  -4   1    5.88    1.17
   3  -4   1    5.41    0.91
   4  -4   1    4.46    0.86
  -4  -4  -1    3.97    1.05
   4  -4   1    2.21    1.00
  -4   4  -1    5.43    0.66
   5  -4   1    0.48    0.82
   5  -4   1    0.13    0.66
  -5  -4  -1    0.32    0.77
   6  -4   1    1.24    0.96
  -6  -4  -1    1.58    0.95
   6  -4   1    2.30    0.87
  -7  -4  -1    1.08    0.95
   7  -4   1    0.80    0.96
   7  -4   1    0.85    0.80
   8  -4   1    0.01    0.97
  -8  -4  -1    0.96    0.95
   8  -4   1   -0.16    0.86
   9  -4   1    0.73    1.08
   9  -4   1   -2.30    0.99
  -9  -4  -1   -1.68    0.83
  10  -4   1    1.36    1.42
   9  -5  -1    0.91    1.41
   9  -5  -1    1.37    1.18
   8  -5  -1    0.09    1.20
   8  -5  -1    0.36    1.05
   7  -5  -1    1.62    1.04
   7  -5  -1   -0.04    1.00
   6  -5  -1    0.24    0.94
   6  -5  -1    1.56    0.93
  -6  -5   1    0.27    0.88
  -5  -5   1    0.76    0.77
   5  -5  -1    0.16    0.91
   5  -5  -1   -0.54    0.80
   5  -5  -1   -0.30    0.65
  -4  -5   1   -0.61    0.62
   4  -5  -1    0.19    0.81
   4  -5  -1    0.35    0.70
   4  -5  -1   -0.08    0.80
   3  -5  -1   -0.15    0.63
   3  -5  -1   -0.58    0.70
  -3  -5   1    0.47    0.63
   3  -5  -1    0.63    0.72
  -2  -5   1    2.37    0.86
   2  -5  -1    1.08    0.88
   2  -5  -1    2.16    0.82
   2  -5  -1    1.94    0.81
  -1  -5   1    0.21    0.86
  -1  -5   1    0.07    0.63
   1  -5  -1    1.50    0.73
   1  -5  -1    1.51    0.79
  -1  -5   1    1.55    0.73
   1  -5  -1    0.20    0.71
   0  -5   1    1.51    1.03
   0  -5  -1    0.99    0.85
   0  -5  -1    1.69    0.70
   0  -5   1    0.03    0.61
   0  -5  -1    0.82    0.73
   0  -5   1   -0.24    0.69
   1  -5   1    0.22    0.65
  -1  -5  -1    0.21    0.74
  -1  -5  -1    0.87    0.75
   1  -5   1    1.22    0.86
   1  -5   1    0.30    0.62
  -1  -5  -1   -0.35    0.56
   2  -5   1    0.11    0.90
  -2  -5  -1    0.37    0.72
   2  -5   1    0.24    0.61
   2  -5   1   -0.14    0.66
  -2  -5  -1   -0.49    0.53
   3  -5   1    0.82    0.95
   3  -5   1   -0.10    0.58
  -3  -5  -1    1.12    0.76
   3  -5   1    0.32    0.72
  -4  -5  -1    0.02    0.87
   4  -5   1    0.62    0.83
   4  -5   1   -0.33    0.90
  -5  -5  -1    1.59    0.94
   5  -5   1    1.13    0.87
   5  -5   1   -1.29    0.87
   6  -5   1    0.09    0.84
  -6  -5  -1    0.76    0.98
   6  -5   1    1.65    1.24
   7  -5   1    1.20    1.29
   7  -5   1    0.91    0.96
  -7  -5  -1    1.80    1.18
  -8  -5  -1    1.44    1.19
   8  -5   1    0.02    1.21
   8  -5   1   -1.18    0.94
  -9  -5  -1   -1.50    0.90
   9  -5   1    0.67    1.33
   9  -6  -1   -0.63    1.70
   8  -6  -1    1.08    1.36
   8  -6  -1   -1.00    1.12
   7  -6  -1   -1.05    1.11
   7  -6  -1   -0.31    1.32
   6  -6  -1    0.29    1.03
   6  -6  -1    0.74    1.25
  -6  -6   1    0.65    0.98
   5  -6  -1   -0.58    0.99
  -5  -6   1    1.01    0.96
   5  -6  -1   -0.26    1.01
  -4  -6   1    1.10    0.94
   4  -6  -1    0.36    0.80
   4  -6  -1   -1.42    0.84
   4  -6  -1   -0.37    0.87
   3  -6  -1   -0.56    0.88
  -3  -6   1    0.42    0.82
   3  -6  -1   -0.49    0.78
   3  -6  -1    0.01    0.91
   2  -6  -1   -0.31    0.84
  -2  -6   1   -0.14    0.75
   2  -6  -1   -0.48    0.77
   2  -6  -1    0.15    0.81
   1  -6  -1    0.15    0.89
  -1  -6   1   -0.55    0.76
   1  -6  -1   -0.43    0.84
  -1  -6   1   -0.33    1.11
  -1  -6   1   -0.02    0.78
   1  -6  -1    1.46    0.78
   0  -6   1    0.51    0.93
   0  -6   1   -0.83    0.95
   0  -6  -1   -0.13    0.93
   0  -6  -1   -0.72    0.65
   0  -6   1   -0.06    0.75
   0  -6  -1   -0.24    0.96
  -1  -6  -1   -1.05    0.76
  -1  -6  -1   -0.79    0.70
   1  -6   1    0.62    0.88
   1  -6   1   -0.90    1.04
   1  -6   1   -0.23    0.69
  -2  -6  -1   -0.18    0.90
   2  -6   1   -0.41    1.09
   2  -6   1   -0.45    0.72
  -2  -6  -1    0.46    0.69
   2  -6   1    0.69    0.84
   3  -6   1    1.31    0.95
   3  -6   1    2.50    1.24
  -3  -6  -1    1.12    1.04
   4  -6   1    0.82    0.95
  -4  -6  -1   -0.01    0.98
   4  -6   1    0.10    1.23
   5  -6   1    1.19    1.33
   5  -6   1   -1.84    0.90
  -5  -6  -1    0.32    0.91
  -6  -6  -1   -0.85    0.89
   6  -6   1    0.22    1.08
   6  -6   1   -0.04    1.22
   7  -6   1    0.49    1.47
  -7  -6  -1    0.30    1.22
   7  -6   1    0.09    1.20
  -8  -6  -1    1.39    1.28
   8  -6   1   -0.21    1.34
  -9  -6  -1    2.01    1.52
   7  -7  -1    0.67    1.40
   7  -7  -1   -0.13    1.55
   6  -7  -1    1.27    1.47
   6  -7  -1   -1.56    1.15
   5  -7  -1    0.12    1.22
   5  -7  -1   -1.51    1.09
  -5  -7   1   -0.42    0.98
   4  -7  -1    0.14    1.11
  -4  -7   1    0.22    1.05
   4  -7  -1   -0.75    1.25
   3  -7  -1   -0.10    0.98
  -3  -7   1   -0.24    0.95
   3  -7  -1    0.11    1.14
   3  -7  -1    0.00    1.03
   2  -7  -1   -0.11    0.95
   2  -7  -1   -0.51    0.98
   2  -7  -1    0.75    1.19
  -2  -7   1    1.00    0.97
   1  -7  -1   -0.07    1.02
  -1  -7   1    1.11    0.93
   1  -7  -1   -0.37    0.86
   1  -7  -1    0.36    1.16
  -1  -7   1    0.90    0.94
   0  -7  -1    1.15    1.05
   0  -7   1   -0.93    0.90
   0  -7   1   -1.17    1.12
   0  -7  -1    0.86    1.14
   0  -7  -1    1.81    1.29
   0  -7   1   -0.12    0.82
   1  -7   1   -0.46    1.15
  -1  -7  -1   -0.31    1.01
   1  -7   1   -1.16    0.94
  -1  -7  -1    0.58    0.87
   1  -7   1   -0.03    0.83
   2  -7   1    0.13    0.84
  -2  -7  -1    0.63    0.80
  -2  -7  -1   -0.19    0.95
   2  -7   1   -1.10    0.94
   2  -7   1    1.51    1.25
   3  -7   1    0.53    1.37
   3  -7   1    0.04    1.03
  -3  -7  -1   -1.34    1.01
   4  -7   1   -0.82    1.10
  -4  -7  -1   -0.18    1.07
   5  -7   1    1.68    1.76
  -5  -7  -1   -0.10    1.11
   5  -7   1    1.19    1.28
  -6  -7  -1    0.44    1.29
   6  -7   1    1.80    1.89
   7  -7   1   -0.19    1.60
  -7  -7  -1   -0.74    1.21
   5  -8  -1    0.41    1.43
   5  -8  -1   -0.59    1.52
   4  -8  -1    0.45    1.39
  -4  -8   1    0.66    1.23
   4  -8  -1   -0.40    1.29
  -3  -8   1   -0.83    0.98
   3  -8  -1   -0.43    1.14
   3  -8  -1    1.34    1.55
   2  -8  -1   -0.68    1.14
   2  -8  -1    1.04    1.23
  -2  -8   1   -0.44    1.02
   2  -8  -1    0.70    1.60
   1  -8  -1   -1.51    1.42
   1  -8  -1    0.57    1.13
   1  -8  -1    0.42    1.19
  -1  -8   1    1.23    1.12
   0  -8  -1   -0.69    1.05
   0  -8   1    0.74    1.57
   0  -8  -1    1.98    1.34
   0  -8  -1   -0.33    1.63
   0  -8   1    0.94    1.09
   0  -8   1    0.49    1.06
  -1  -8  -1   -0.33    1.04
   1  -8   1   -0.49    1.24
  -1  -8  -1   -0.14    1.21
   1  -8   1   -1.40    1.63
   2  -8   1   -1.94    1.26
  -2  -8  -1   -1.50    1.20
  -2  -8  -1    0.79    1.09
   2  -8   1   -0.54    1.17
   3  -8   1    0.31    1.55
   3  -8   1    0.95    1.27
  -3  -8  -1   -0.96    1.22
   4  -8   1   -0.81    1.22
  -4  -8  -1    0.51    1.24
   4  -8   1    0.24    1.60
   5  -8   1   -1.13    1.55
  -5  -8  -1    0.31    1.27
   2  -9  -1   -1.29    1.80
   2  -9  -1   -0.95    1.86
   1  -9  -1    0.06    1.28
   1  -9  -1   -0.52    1.33
   1  -9  -1    1.88    1.81
   0  -9  -1   -0.61    1.26
   0  -9  -1   -0.36    1.35
  -1  -9  -1    1.31    1.45
   1  -9   1   -0.51    1.25
   1  -9   1   -0.69    2.12
  -1  -9  -1   -0.58    1.21
   2  -9   1    1.87    2.66
   2  -9   1    1.34    2.01
  -2  -9  -1    0.25    1.62
  11   0  -2   -0.78    1.05
   2   0  -2  222.26   15.76
  -1   0   2    6.78    0.56
   1   0  -2    6.30    0.54
  -1   0  -2  113.00    7.51
   1   0   2   98.93    7.51
   2   0   2   30.38    2.01
  -2   0  -2   24.12    2.02
  -3   0  -2   49.01    3.60
  -4   0  -2   23.11    1.85
  -5   0  -2   34.99    2.72
  -6   0  -2    6.26    0.79
  -7   0  -2   42.26    3.24
  11  -1  -2   -0.35    1.13
  10  -1  -2    1.18    1.10
   9  -1  -2    9.90    1.68
   8  -1  -2    3.76    1.09
   7  -1  -2   -0.36    0.66
   6  -1  -2    0.06    0.57
   6  -1  -2    0.77    0.44
   5  -1  -2   70.72    5.37
   4  -1  -2   -0.19    0.37
   3  -1  -2   31.62    2.48
   2  -1  -2   63.13    4.64
  -2   1   2   63.52    4.66
   1  -1  -2    2.06    0.46
   1  -1  -2    2.35    0.42
  -1   1   2    3.08    0.47
   1   1  -2    3.14    0.31
   0  -1   2   32.57    2.56
   0  -1  -2   39.84    2.67
   0  -1  -2   35.55    2.62
   0  -1  -2   35.49    2.63
   0   1   2   34.47    2.62
   0   1  -2   33.12    2.54
   0   1   2   38.11    2.65
  -1  -1  -2   29.64    2.27
  -1  -1  -2   31.37    2.27
   1   1   2   31.74    2.27
   1   1   2   30.09    2.26
  -1   1  -2   27.78    2.13
  -2  -1  -2   31.00    2.65
  -2  -1  -2   37.24    2.63
   2   1   2   34.01    2.65
   2   1   2   37.46    2.64
  -3  -1  -2    0.59    0.32
   3   1   2    0.68    0.40
   3   1   2    0.05    0.37
  -4  -1  -2   89.88    7.05
  -4   1  -2  100.20    6.85
  -5  -1  -2    1.33    0.52
  -5   1  -2    0.59    0.21
  -6  -1  -2   -0.07    0.44
  -7  -1  -2    2.97    0.74
  -8  -1  -2   20.77    1.94
  11  -2  -2   -0.99    1.07
  10  -2  -2   -0.40    1.04
   9  -2  -2    0.63    0.99
   8  -2  -2    1.67    0.98
   7  -2  -2    0.07    0.69
   6  -2  -2   26.98    2.50
   5  -2  -2    0.72    0.56
   4  -2  -2    0.63    0.46
   3  -2  -2    7.03    0.74
   3  -2  -2    4.93    0.91
   3  -2  -2    6.64    0.90
   2  -2  -2   66.62    5.55
   2  -2  -2   79.41    5.59
   2  -2  -2   74.98    5.45
   2   2  -2   77.69    5.48
   1  -2  -2    6.59    0.81
  -1  -2   2    6.11    0.70
   1  -2  -2    4.79    0.69
   1  -2  -2   10.16    0.89
   1   2  -2    5.30    0.68
   1   2  -2    6.46    0.71
   0  -2  -2   27.49    2.21
   0  -2   2   28.26    2.21
   0  -2  -2   29.16    2.27
   0  -2  -2   26.03    2.19
   0   2  -2   28.10    2.18
   0   2   2   30.64    2.30
   0   2  -2   27.02    2.12
   0   2  -2   26.48    2.12
  -1  -2  -2   41.81    3.12
   1  -2   2   39.05    2.96
  -1  -2  -2   38.96    3.08
   1  -2   2   38.98    3.08
  -1   2  -2   38.16    2.99
  -1   2  -2   43.88    2.96
  -1   2  -2   39.65    3.01
  -2  -2  -2   13.50    1.32
   2  -2   2   15.45    1.42
  -2  -2  -2   13.09    1.35
  -2   2  -2   15.33    1.19
  -3  -2  -2   23.16    2.07
   3  -2   2   25.41    1.86
   3  -2   2   22.98    2.08
  -3   2  -2   22.99    1.78
   4  -2   2    9.18    1.30
   4  -2   2   10.96    1.05
  -4  -2  -2    8.16    1.18
   5  -2   2   18.93    2.06
   6  -2   2    2.53    0.94
  -6  -2  -2    2.35    0.77
   7  -2   2   17.69    2.35
  -7  -2  -2   26.01    2.35
   8  -2   2   -0.33    0.96
  -8  -2  -2    2.06    0.78
   9  -2   2    0.55    1.18
  -9  -2  -2    0.05    0.70
  10  -2   2    1.07    1.37
  11  -2   2    1.09    1.63
  11  -3  -2   -2.02    1.25
  10  -3  -2   -1.69    1.14
  10  -3  -2    1.12    1.17
   9  -3  -2    1.36    1.12
   9  -3  -2   -0.91    1.03
   8  -3  -2   -0.59    0.91
   8  -3  -2    0.79    0.92
   7  -3  -2    1.34    0.90
   7  -3  -2   -0.08    0.85
   6  -3  -2    0.00    0.64
   6  -3  -2    0.50    0.40
   6  -3  -2    1.27    0.92
   5  -3  -2   18.94    1.97
   5  -3  -2   17.20    2.06
   5  -3  -2   19.34    1.65
   4  -3  -2    0.55    0.45
   4  -3  -2    1.62    0.62
   4  -3  -2    0.68    0.63
   3  -3  -2   16.35    1.50
   3  -3  -2   15.55    1.64
   3  -3  -2   15.69    1.61
   2  -3  -2   23.90    2.05
   2  -3  -2   22.54    2.05
   2  -3  -2   24.90    2.17
  -1  -3   2    0.02    0.57
   1  -3  -2    0.93    0.43
   1  -3  -2    0.55    0.47
   1  -3  -2    0.02    0.44
   0  -3  -2    9.13    1.20
   0  -3  -2    8.02    1.03
   0  -3   2    7.89    0.94
   0  -3  -2    8.28    1.04
   0  -3   2    7.88    1.12
  -1  -3  -2    4.64    0.81
   1  -3   2    2.55    0.82
  -1  -3  -2    4.43    0.73
   1  -3   2    5.05    0.74
  -1   3  -2    4.43    0.59
  -2  -3  -2   12.46    1.41
   2  -3   2   14.81    1.24
  -2  -3  -2   17.22    1.49
   2  -3   2   12.80    1.52
  -2   3  -2   11.80    1.15
  -2   3  -2   10.89    1.17
   3  -3   2    0.82    0.70
  -3  -3  -2    0.68    0.45
   3  -3   2    1.64    0.46
  -3  -3  -2    1.47    0.65
  -3   3  -2    2.71    0.44
   4  -3   2   22.73    1.88
  -4  -3  -2   24.23    2.24
   4  -3   2   20.76    2.21
  -4   3  -2   22.38    1.75
   5  -3   2    1.71    0.89
  -5  -3  -2    0.04    0.62
   5  -3   2    0.70    0.54
   6  -3   2    0.42    0.83
  -6  -3  -2   -0.97    0.61
   6  -3   2    0.36    0.66
   7  -3   2   -1.02    0.85
  -7  -3  -2    1.05    0.87
   7  -3   2   -0.32    0.82
  -8  -3  -2    5.93    1.27
   8  -3   2    2.39    1.21
   8  -3   2    6.69    1.22
   9  -3   2   -0.97    1.11
  -9  -3  -2    0.63    0.91
  10  -3   2   -1.83    1.10
  10  -4  -2   -0.43    1.00
  10  -4  -2   -0.97    1.04
   9  -4  -2    0.25    1.07
   9  -4  -2   -1.31    1.01
   8  -4  -2    1.56    1.12
   8  -4  -2    0.14    0.96
   7  -4  -2   -0.44    0.86
   7  -4  -2   -0.38    0.87
   6  -4  -2    3.11    1.05
   6  -4  -2    4.26    1.09
   5  -4  -2    0.82    0.61
   5  -4  -2    0.68    0.80
   5  -4  -2    1.43    0.83
   4  -4  -2    0.25    0.56
   4  -4  -2   -1.54    0.48
   4  -4  -2   -0.68    0.60
   3  -4  -2    0.20    0.62
   3  -4  -2   -0.05    0.55
  -3  -4   2    0.25    0.55
   3  -4  -2   -0.20    0.51
   2  -4  -2    6.27    1.10
   2  -4  -2    6.09    1.00
  -2  -4   2    5.21    0.96
   2  -4  -2    7.58    1.07
   1  -4  -2    2.97    0.78
   1  -4  -2    1.77    0.70
   1  -4  -2    2.04    0.70
  -1  -4   2    3.48    0.72
  -1  -4   2    2.42    0.79
   0  -4  -2    9.09    1.27
   0  -4   2    9.63    1.19
   0  -4  -2    8.51    1.28
   0  -4  -2    9.72    1.22
   0  -4   2    9.93    1.32
   1  -4   2    6.86    1.22
  -1  -4  -2    5.56    1.03
  -1  -4  -2    5.41    0.90
   1  -4   2    5.05    0.88
  -2  -4  -2    0.52    0.55
   2  -4   2   -0.60    0.54
  -2  -4  -2    0.64    0.65
   2  -4   2    1.27    0.83
   3  -4   2    2.27    0.68
  -3  -4  -2    2.32    0.85
   3  -4   2    1.99    0.99
  -3  -4  -2    1.05    0.61
   4  -4   2    1.03    0.66
  -4  -4  -2    2.37    0.85
   4  -4   2    1.82    0.94
  -4   4  -2    1.18    0.42
  -5  -4  -2    2.00    0.98
   5  -4   2    2.47    1.14
   5  -4   2    3.31    0.82
  -6  -4  -2   -0.33    0.87
   6  -4   2   -0.41    0.92
   6  -4   2   -1.00    0.66
  -7  -4  -2    5.20    1.38
   7  -4   2    2.57    0.89
   7  -4   2    1.72    1.17
   8  -4   2   -1.88    1.05
   8  -4   2    1.45    1.19
  -8  -4  -2   -0.03    1.00
  -9  -4  -2    1.10    1.05
   9  -4   2   -1.76    1.19
  10  -4   2    0.10    1.38
 -10  -4  -2   -0.44    1.03
   9  -5  -2   -0.19    1.21
   9  -5  -2   -1.43    1.10
   8  -5  -2    0.33    1.18
   8  -5  -2    0.74    1.12
   7  -5  -2   -1.43    0.94
   7  -5  -2    0.15    0.97
   6  -5  -2    2.01    0.99
   6  -5  -2   -0.04    0.92
   5  -5  -2    1.26    0.72
   5  -5  -2    0.64    0.97
   5  -5  -2    0.98    0.92
   4  -5  -2    0.61    0.78
   4  -5  -2   -0.06    0.84
   4  -5  -2   -0.17    0.73
  -3  -5   2    1.66    0.82
   3  -5  -2    1.97    0.91
   3  -5  -2    1.67    0.93
   3  -5  -2    3.34    1.00
  -2  -5   2    2.15    0.79
   2  -5  -2    3.66    0.96
   2  -5  -2    3.01    0.95
   2  -5  -2    2.26    0.91
   1  -5  -2    0.62    0.69
   1  -5  -2    0.60    0.80
  -1  -5   2    1.65    0.94
  -1  -5   2    0.60    0.64
   1  -5  -2   -0.99    0.58
   0  -5  -2    0.10    0.74
   0  -5   2   -0.22    0.69
   0  -5   2    0.61    0.61
   0  -5   2    0.25    0.91
   0  -5  -2    0.56    0.74
   0  -5  -2   -0.92    0.51
   1  -5   2    0.61    0.77
  -1  -5  -2    0.97    0.64
   1  -5   2    1.08    0.91
  -1  -5  -2    0.30    0.64
   2  -5   2    0.46    1.09
  -2  -5  -2    0.03    0.56
   2  -5   2    0.49    0.72
  -2  -5  -2    2.52    0.91
  -3  -5  -2    1.17    0.79
   3  -5   2    0.65    1.09
   3  -5   2    0.09    0.79
  -3  -5  -2    0.56    0.62
   4  -5   2    1.32    0.87
   4  -5   2    1.39    1.25
  -4  -5  -2    2.09    1.02
  -5  -5  -2    0.39    0.93
   5  -5   2    0.29    0.79
   5  -5   2   -0.58    1.17
   6  -5   2   -0.41    0.79
  -6  -5  -2    1.03    1.01
   6  -5   2    0.70    1.34
   7  -5   2    0.44    1.13
   7  -5   2   -0.51    1.23
  -7  -5  -2   -1.03    0.88
  -8  -5  -2    0.80    1.12
   8  -5   2    0.17    1.39
  -9  -5  -2   -0.71    1.06
   9  -5   2    0.95    1.47
   8  -6  -2    0.30    1.30
   8  -6  -2   -0.49    1.34
   7  -6  -2    1.31    1.20
   7  -6  -2    0.72    1.36
   6  -6  -2    1.34    1.11
   6  -6  -2    0.59    1.26
   5  -6  -2   -0.55    0.95
   5  -6  -2   -0.40    1.02
   4  -6  -2   -0.44    0.81
   4  -6  -2    1.58    1.04
   3  -6  -2    0.38    0.90
   3  -6  -2    0.43    0.93
  -3  -6   2   -0.80    0.71
   3  -6  -2   -0.50    0.87
   2  -6  -2    1.07    0.86
   2  -6  -2    0.69    0.93
   2  -6  -2   -1.47    0.76
  -2  -6   2   -0.63    0.69
   1  -6  -2    0.86    0.93
   1  -6  -2    0.51    0.94
  -1  -6   2    0.09    0.70
  -1  -6   2    0.51    1.16
   1  -6  -2    0.71    0.73
   0  -6   2    0.66    1.16
   0  -6  -2    1.47    0.76
   0  -6  -2    0.04    1.04
   0  -6   2    1.42    0.94
   0  -6  -2    1.29    1.02
  -1  -6  -2   -0.38    0.66
  -1  -6  -2   -0.05    0.92
   1  -6   2   -0.04    0.93
   1  -6   2    0.30    1.12
   2  -6   2   -0.13    1.03
  -2  -6  -2   -0.90    0.83
  -2  -6  -2    0.15    0.79
   2  -6   2   -0.39    0.86
  -3  -6  -2   -1.03    0.58
   3  -6   2   -0.71    1.08
  -3  -6  -2   -0.62    0.80
   3  -6   2   -0.07    0.87
   4  -6   2   -1.12    0.90
   4  -6   2   -1.47    1.17
  -4  -6  -2    0.90    1.07
   5  -6   2    0.48    0.95
  -5  -6  -2   -0.56    1.04
   5  -6   2    0.25    1.43
  -6  -6  -2    2.42    1.33
   6  -6   2    1.05    1.54
   6  -6   2    2.43    1.85
   7  -6   2    2.59    1.76
  -7  -6  -2    1.91    1.30
   8  -6   2    0.59    1.60
  -8  -6  -2    0.92    1.32
   7  -7  -2   -0.06    1.32
   7  -7  -2    0.34    1.38
   6  -7  -2   -0.60    1.15
   6  -7  -2    1.58    1.37
   5  -7  -2    0.76    1.26
   5  -7  -2   -0.50    1.16
   4  -7  -2   -0.31    1.14
   4  -7  -2   -1.31    1.05
   3  -7  -2    0.65    1.10
   3  -7  -2    0.45    1.10
   3  -7  -2    0.21    1.12
   2  -7  -2    0.55    1.20
   2  -7  -2    1.31    1.14
   2  -7  -2   -0.77    0.88
   1  -7  -2    0.71    1.19
   1  -7  -2   -0.44    0.87
   1  -7  -2    0.23    1.07
   0  -7  -2   -0.98    1.06
   0  -7  -2    0.43    1.05
   0  -7   2    0.85    1.29
   0  -7   2    0.22    0.93
   0  -7  -2   -1.07    0.67
  -1  -7  -2   -0.22    1.07
   1  -7   2    2.78    1.56
   1  -7   2    0.76    1.06
  -1  -7  -2    0.94    0.97
  -2  -7  -2    0.07    0.88
   2  -7   2   -0.23    1.10
   2  -7   2   -0.44    1.07
  -2  -7  -2   -0.70    0.99
  -3  -7  -2   -0.45    1.09
   3  -7   2   -2.20    0.95
   3  -7   2    1.28    1.41
   4  -7   2    2.23    1.82
   4  -7   2   -0.02    1.17
  -4  -7  -2    0.77    1.25
  -5  -7  -2    0.49    1.14
   5  -7   2    1.00    1.79
   6  -7   2   -0.74    1.66
  -6  -7  -2    0.01    1.25
  -7  -7  -2   -1.49    1.04
   7  -7   2   -1.11    1.76
   5  -8  -2   -1.18    1.26
   5  -8  -2    0.43    1.49
   4  -8  -2   -1.29    1.14
   4  -8  -2    0.14    1.35
   3  -8  -2   -0.11    1.20
   3  -8  -2   -0.54    1.39
   2  -8  -2   -0.39    1.17
   2  -8  -2    2.85    1.61
   2  -8  -2   -0.82    1.27
   1  -8  -2    0.40    1.26
   1  -8  -2    1.27    1.11
   1  -8  -2    0.46    1.45
   0  -8  -2    1.16    1.07
   0  -8  -2   -0.04    1.40
   0  -8   2    0.59    1.86
   1  -8   2    0.15    1.19
  -1  -8  -2    0.71    1.40
   1  -8   2    1.09    1.83
  -1  -8  -2    0.70    1.05
   2  -8   2   -1.24    1.71
  -2  -8  -2   -0.17    1.29
   2  -8   2    0.10    1.32
  -2  -8  -2    1.23    1.12
   3  -8   2   -0.15    1.30
  -3  -8  -2   -1.36    1.18
   3  -8   2   -1.45    1.65
   4  -8   2   -0.42    1.63
  -4  -8  -2    0.52    1.37
  -5  -8  -2   -1.49    1.27
   5  -8   2    0.06    1.73
   1  -9  -2    0.41    1.42
   1  -9  -2   -0.67    1.45
   1  -9  -2   -3.28    1.79
   0  -9  -2    0.73    1.37
   0  -9  -2    1.77    1.61
  -1  -9  -2   -0.40    1.22
  -1  -9  -2   -1.09    1.46
   1  -9   2    1.48    2.59
  11   0  -3    0.70    1.17
  10   0  -3   -0.72    0.90
   9   0  -3    2.64    1.05
   4   0  -3   14.83    1.36
   3   0  -3   54.05    3.99
   2   0  -3   49.58    3.61
  -1   0   3   10.21    0.86
   1   0  -3   10.86    0.84
   1   0   3   27.06    2.03
  -1   0  -3   28.29    2.04
   2   0   3  141.15   10.03
  -3   0  -3    0.04    0.24
   3   0   3    0.67    0.35
  -4   0  -3   79.65    5.82
  -5   0  -3   11.14    1.12
  -6   0  -3    9.73    1.10
  -7   0  -3   12.61    1.30
  11  -1  -3    0.77    1.12
  10  -1  -3    0.50    0.93
   9  -1  -3    0.76    0.97
   8  -1  -3   18.44    2.16
   7  -1  -3    0.84    0.69
   6  -1  -3   15.47    1.62
   5  -1  -3   16.68    1.77
   4  -1  -3   22.83    1.95
   3  -1  -3   14.61    1.30
   2  -1  -3   83.13    6.23
  -2   1   3   88.03    6.26
   1  -1  -3  113.28    8.16
   1  -1  -3   97.30    8.20
  -1   1   3  129.21    8.22
   0  -1  -3    0.39    0.26
   0  -1   3    0.48    0.20
   0   1   3    0.24    0.30
   0   1   3   -0.06    0.24
  -1  -1  -3  178.72   12.54
  -1  -1  -3  180.49   12.56
   1   1   3  167.77   12.50
  -2  -1  -3    0.80    0.35
   2   1   3    0.97    0.38
  -3  -1  -3    0.33    0.33
   3   1   3    0.59    0.68
  -4  -1  -3    5.31    0.78
  -4   1  -3    5.63    0.58
  -5  -1  -3   94.20    7.04
  -5   1  -3   94.82    6.82
  -6  -1  -3   -0.09    0.45
  -6   1  -3    0.98    0.33
  -7  -1  -3    0.25    0.57
  -8  -1  -3   12.61    1.54
  11  -2  -3    2.17    1.38
  10  -2  -3    0.55    1.07
   9  -2  -3    1.85    1.04
   8  -2  -3   -0.54    0.76
   7  -2  -3    2.06    0.86
   6  -2  -3   -0.41    0.60
   5  -2  -3   21.87    2.06
   4  -2  -3   10.31    1.31
   3  -2  -3   25.06    2.07
   3  -2  -3   22.20    2.13
   2  -2  -3   42.83    3.11
   2  -2  -3   36.39    3.11
   2   2  -3   37.61    2.89
   1  -2  -3    2.69    0.61
   1  -2  -3    6.09    0.77
   1  -2  -3    4.80    0.64
   1   2  -3    4.90    0.54
   0  -2  -3    0.95    0.35
   0  -2   3    0.87    0.43
   0  -2  -3    0.82    0.37
   0  -2  -3    0.13    0.40
   0   2  -3    1.62    0.29
   0   2  -3    1.51    0.33
  -1  -2  -3   14.53    1.38
  -1  -2  -3   14.38    1.37
   1  -2   3   14.96    1.43
  -1   2  -3   15.59    1.19
  -2  -2  -3   39.16    3.28
   2  -2   3   41.01    3.33
  -2  -2  -3   40.70    3.27
   2  -2   3   45.52    3.07
  -3  -2  -3    0.08    0.32
   3  -2   3   -0.60    0.23
   3  -2   3    0.04    0.63
  -3  -2  -3    0.09    0.40
  -4  -2  -3   47.41    3.78
   4  -2   3   47.84    3.82
   4  -2   3   46.62    3.48
  -5  -2  -3    4.70    0.91
  -6  -2  -3    4.91    1.00
  -7  -2  -3    6.07    1.15
  -8  -2  -3    4.24    1.11
   8  -2   3    5.85    1.51
  -9  -2  -3    0.12    0.79
   9  -2   3   -0.07    1.29
  10  -2   3    0.01    1.47
  11  -2   3    1.55    1.88
  11  -3  -3    1.98    2.38
  10  -3  -3    1.47    1.12
  10  -3  -3    0.31    1.19
   9  -3  -3   -0.08    0.92
   9  -3  -3   -0.09    1.04
   8  -3  -3    3.11    1.15
   8  -3  -3    2.65    1.18
   7  -3  -3   -1.68    0.83
   7  -3  -3   -0.19    0.72
   6  -3  -3    3.48    0.74
   6  -3  -3    4.30    1.01
   6  -3  -3    4.23    1.14
   5  -3  -3    3.25    0.89
   5  -3  -3    3.92    0.73
   5  -3  -3    3.44    1.00
   4  -3  -3    1.14    0.77
   4  -3  -3    2.14    0.74
   4  -3  -3    3.06    0.63
   3  -3  -3   -0.14    0.48
   3  -3  -3    0.77    0.49
   3  -3  -3    0.75    0.59
   2  -3  -3   25.97    2.19
   2  -3  -3   25.61    2.24
   2  -3  -3   26.11    2.26
   2   3  -3   24.15    2.06
  -1  -3   3   17.51    1.76
   1  -3  -3   21.85    1.85
   1  -3  -3   21.05    1.88
   1  -3  -3   21.86    1.89
   1   3  -3   20.89    1.75
   0  -3   3    1.19    0.70
   0  -3  -3    2.54    0.61
   0  -3  -3    2.57    0.71
   0  -3  -3    1.38    0.51
   0   3  -3    2.40    0.56
  -1  -3  -3   58.13    4.43
   1  -3   3   53.56    4.43
  -1  -3  -3   55.93    4.40
   1  -3   3   56.79    4.22
  -1   3  -3   58.75    4.21
  -2  -3  -3   -0.27    0.45
  -2  -3  -3   -0.15    0.36
   2  -3   3    1.16    0.43
   2  -3   3   -0.22    0.62
  -2   3  -3    0.26    0.26
   3  -3   3    0.48    0.41
  -3  -3  -3    1.80    0.61
   3  -3   3   -0.69    0.74
  -3  -3  -3    3.59    0.76
  -3   3  -3    0.08    0.31
   4  -3   3    0.61    0.82
   4  -3   3    0.97    0.46
  -4  -3  -3    1.97    0.77
  -4   3  -3    0.85    0.34
  -5  -3  -3   27.23    2.50
   5  -3   3   22.13    2.57
   5  -3   3   24.39    1.99
  -5   3  -3   23.01    1.79
   6  -3   3   -0.46    0.88
   6  -3   3    0.55    0.64
  -6  -3  -3   -0.12    0.65
   7  -3   3    0.22    1.04
   7  -3   3   -0.51    0.67
  -7  -3  -3    0.91    0.89
   8  -3   3   -0.94    1.01
  -8  -3  -3    5.74    1.36
  -9  -3  -3    0.46    0.92
   9  -3   3    0.22    1.15
  10  -3   3    0.97    1.44
  10  -4  -3   -0.18    1.14
  10  -4  -3   -1.08    1.19
   9  -4  -3   -0.04    1.06
   9  -4  -3   -0.27    1.02
   8  -4  -3    1.55    1.22
   8  -4  -3   -0.47    0.94
   7  -4  -3    0.98    1.04
   7  -4  -3    0.27    0.91
   6  -4  -3    0.33    0.79
   6  -4  -3   -0.14    0.80
   5  -4  -3    5.72    1.17
   5  -4  -3    3.60    0.86
   5  -4  -3    3.18    1.00
   4  -4  -3    2.34    0.76
   4  -4  -3    2.37    0.85
   4  -4  -3    2.49    0.95
   3  -4  -3    4.74    0.89
   3  -4  -3    3.24    0.92
   3  -4  -3    2.43    0.82
   2  -4  -3    8.02    1.17
   2  -4  -3    7.65    1.23
   2  -4  -3   10.12    1.25
   1  -4  -3    0.29    0.54
  -1  -4   3    0.36    0.69
   1  -4  -3    0.07    0.59
   1  -4  -3    0.98    0.60
   0  -4  -3   -0.17    0.57
   0  -4  -3   -0.01    0.56
   0  -4  -3    0.60    0.54
   0  -4   3    0.75    0.73
   1  -4   3    3.15    0.73
  -1  -4  -3    2.03    0.72
   1  -4   3    2.94    1.10
  -1  -4  -3    3.24    0.78
  -2  -4  -3    6.10    1.13
  -2  -4  -3    6.17    1.05
   2  -4   3    7.44    1.43
   2  -4   3    4.49    0.86
  -3  -4  -3    0.69    0.70
   3  -4   3    0.79    0.65
   3  -4   3    0.99    1.06
  -3  -4  -3    1.06    0.65
   4  -4   3    9.54    1.19
   4  -4   3    9.93    1.68
  -4  -4  -3   10.90    1.59
   5  -4   3   -0.20    1.14
  -5  -4  -3    1.28    0.82
   5  -4   3    2.13    0.78
   6  -4   3    0.89    1.17
  -6  -4  -3   -0.17    0.87
   6  -4   3   -0.23    0.65
   7  -4   3   -0.41    1.09
  -7  -4  -3   -0.07    0.93
   8  -4   3    2.33    1.41
  -8  -4  -3    1.08    1.17
   9  -4   3    1.79    1.37
  -9  -4  -3    0.76    1.05
 -10  -4  -3    0.33    1.08
  10  -4   3    0.94    1.51
   9  -5  -3   -0.33    1.16
   9  -5  -3   -0.60    1.15
   8  -5  -3   -0.20    1.04
   8  -5  -3    0.01    1.14
   7  -5  -3    0.79    1.05
   7  -5  -3    0.38    1.07
   6  -5  -3   -0.34    0.92
   6  -5  -3    1.18    1.02
   5  -5  -3    0.94    1.00
   5  -5  -3    0.05    0.78
   5  -5  -3    0.86    0.88
   4  -5  -3    0.13    0.84
   4  -5  -3    0.24    0.83
   4  -5  -3   -0.36    0.74
   3  -5  -3    0.15    0.72
   3  -5  -3   -0.53    0.65
   3  -5  -3    0.16    0.85
   2  -5  -3    2.23    0.93
   2  -5  -3    2.78    0.95
   2  -5  -3    2.81    0.98
   1  -5  -3    1.46    0.82
   1  -5  -3    1.97    0.81
  -1  -5   3    0.17    0.81
   1  -5  -3    1.20    0.83
   0  -5   3    1.65    1.05
   0  -5  -3    1.04    0.75
   0  -5  -3    2.48    0.93
   0  -5  -3   -0.21    0.65
   1  -5   3    3.18    0.92
  -1  -5  -3    4.19    1.13
   1  -5   3    2.83    1.22
  -1  -5  -3    3.39    0.86
   2  -5   3   -0.75    1.20
  -2  -5  -3    0.33    0.61
   2  -5   3   -0.08    0.81
  -2  -5  -3    0.87    0.83
  -3  -5  -3   -1.19    0.60
  -3  -5  -3   -0.59    0.63
   3  -5   3   -0.10    0.80
   3  -5   3    0.48    1.16
  -4  -5  -3   -0.76    0.70
   4  -5   3   -1.78    1.09
   4  -5   3    0.54    0.85
  -5  -5  -3    2.03    1.10
   5  -5   3    0.01    1.31
   5  -5   3    1.43    0.88
   6  -5   3   -0.42    1.28
  -6  -5  -3    0.25    0.98
  -7  -5  -3   -1.20    0.83
   7  -5   3    0.52    1.43
  -8  -5  -3   -1.72    1.03
   8  -5   3    0.10    1.39
  -9  -5  -3   -0.10    1.13
   9  -5   3   -1.97    1.28
   8  -6  -3    0.01    1.38
   8  -6  -3   -0.34    1.21
   7  -6  -3   -0.26    1.26
   7  -6  -3    1.43    1.21
   6  -6  -3    0.54    1.13
   6  -6  -3   -0.14    1.09
   5  -6  -3    2.20    1.17
   5  -6  -3    0.88    1.03
   4  -6  -3    0.88    1.06
   4  -6  -3    0.57    0.99
   4  -6  -3    0.31    0.87
   3  -6  -3    1.60    1.03
   3  -6  -3   -0.66    0.78
   3  -6  -3    0.35    0.95
   2  -6  -3    0.09    0.88
   2  -6  -3    0.19    1.00
   2  -6  -3    0.51    0.88
   1  -6  -3   -1.25    0.82
  -1  -6   3    1.81    1.23
   1  -6  -3   -0.97    0.80
   1  -6  -3   -0.44    0.89
   0  -6   3   -0.71    1.14
   0  -6  -3   -0.66    0.88
   0  -6  -3    0.46    0.97
   0  -6  -3    0.13    0.68
  -1  -6  -3    1.59    0.80
   1  -6   3   -0.06    1.18
  -1  -6  -3    0.68    0.96
   1  -6   3    0.67    0.90
   2  -6   3   -0.74    1.08
  -2  -6  -3   -0.13    0.93
  -2  -6  -3   -0.38    0.72
   2  -6   3   -0.14    0.93
   3  -6   3   -1.11    1.16
  -3  -6  -3    0.61    1.07
   3  -6   3    1.65    1.02
  -3  -6  -3   -0.57    0.60
  -4  -6  -3    1.21    1.12
   4  -6   3    0.96    1.65
   4  -6   3    1.83    1.02
   5  -6   3   -0.53    1.50
  -5  -6  -3   -0.12    1.05
  -6  -6  -3   -0.48    1.13
   6  -6   3    0.26    1.72
  -7  -6  -3   -1.34    1.02
   7  -6   3   -0.70    1.53
  -8  -6  -3    0.89    1.30
   8  -6   3   -0.52    1.55
   7  -7  -3    0.35    1.45
   7  -7  -3    1.48    1.39
   6  -7  -3    0.67    1.30
   6  -7  -3   -0.47    1.32
   5  -7  -3    0.30    1.13
   5  -7  -3   -1.60    1.20
   4  -7  -3    0.00    1.00
   4  -7  -3    0.26    1.14
   3  -7  -3   -1.14    1.02
   3  -7  -3   -0.19    1.12
   3  -7  -3    0.65    1.17
   2  -7  -3   -0.27    1.16
   2  -7  -3    0.10    1.01
   2  -7  -3   -0.61    1.09
   1  -7  -3   -0.86    0.97
   1  -7  -3    0.23    0.90
   1  -7  -3   -0.48    1.01
   0  -7  -3    0.10    1.12
   0  -7   3   -0.41    1.49
   0  -7  -3   -1.14    0.75
   0  -7  -3   -0.42    1.13
  -1  -7  -3    0.62    1.20
   1  -7   3    0.48    1.05
   1  -7   3    1.46    1.69
  -1  -7  -3   -0.76    0.73
  -2  -7  -3   -0.57    0.81
   2  -7   3    0.89    1.64
   2  -7   3   -1.12    1.03
  -2  -7  -3   -1.43    0.99
  -3  -7  -3    0.15    0.89
   3  -7   3   -0.20    1.09
  -3  -7  -3   -1.72    1.02
   3  -7   3   -1.25    1.45
  -4  -7  -3    0.03    1.14
   4  -7   3    0.18    1.51
  -5  -7  -3   -0.12    1.12
   5  -7   3   -0.04    1.96
   6  -7   3   -2.44    1.61
  -6  -7  -3   -1.02    1.15
   7  -7   3    2.08    2.16
  -7  -7  -3   -0.91    1.26
   5  -8  -3    3.12    1.66
   5  -8  -3    0.05    1.22
   4  -8  -3    0.25    1.44
   4  -8  -3   -1.88    1.17
   3  -8  -3    1.73    1.46
   3  -8  -3    0.33    1.29
   2  -8  -3    1.15    1.29
   2  -8  -3   -1.14    1.34
   2  -8  -3   -0.21    1.18
   1  -8  -3   -0.13    1.28
   1  -8  -3    0.70    1.16
   1  -8  -3   -0.67    1.33
   0  -8  -3    0.45    1.44
   0  -8  -3    0.07    1.11
   0  -8   3    0.32    1.87
   1  -8   3   -0.60    1.86
  -1  -8  -3    0.67    1.19
  -1  -8  -3    0.06    1.41
  -2  -8  -3   -0.14    1.41
   2  -8   3    0.80    1.20
  -2  -8  -3   -0.90    1.03
   2  -8   3    1.42    2.02
  -3  -8  -3   -0.30    1.36
   3  -8   3   -0.33    1.87
   4  -8   3    0.98    2.04
  -4  -8  -3    0.71    1.53
  -5  -8  -3   -1.20    1.25
   5  -8   3    2.21    2.26
  11   0  -4   -0.14    1.04
  10   0  -4    0.42    0.95
   9   0  -4   -0.08    0.82
   8   0  -4    7.28    1.26
   7   0  -4   21.59    2.10
   6   0  -4   15.89    1.64
   5   0  -4   29.46    2.44
   4   0  -4   31.16    2.46
   3   0  -4    2.13    0.42
   2   0  -4    0.11    0.21
  -1   0   4  116.22    8.30
   0   0  -4    5.32    0.62
  -1   0  -4   45.48    3.32
   2   0   4    6.64    0.68
  -2   0  -4    7.62    0.66
   3   0   4   66.58    4.85
   4   0   4   11.17    0.98
  -4   0  -4    8.55    0.96
  -5   0  -4   68.80    5.15
  -6   0  -4   61.33    4.68
  -7   0  -4   16.37    1.66
  11  -1  -4    1.79    1.22
  11   1  -4    0.89    1.10
  10  -1  -4   -0.69    0.92
  10   1  -4    0.01    0.97
   9  -1  -4    0.11    0.85
   8  -1  -4   -0.36    0.72
   7  -1  -4    6.84    1.20
   6  -1  -4    1.61    0.68
   5  -1  -4   21.23    1.98
   4  -1  -4   21.65    1.87
   3  -1  -4    7.51    0.94
   2  -1  -4  159.26   11.40
  -2   1   4  157.55   11.44
   1  -1  -4    7.23    0.85
   1  -1  -4    7.92    0.96
  -1   1   4    7.21    0.91
   0  -1  -4   21.26    1.79
   0   1   4   24.32    1.81
   0   1   4   20.04    1.79
  -1  -1  -4    0.95    0.35
   1   1   4    0.90    0.37
  -2  -1  -4  298.04   21.00
  -2  -1  -4  293.26   20.93
   2   1   4  292.15   20.93
  -3  -1  -4   30.75    2.48
  -4  -1  -4    4.08    0.72
  -5  -1  -4   31.33    2.59
  -5   1  -4   30.19    2.40
  -6  -1  -4   24.69    2.33
  -6   1  -4   26.43    2.10
  -7  -1  -4    0.37    0.58
  -7   1  -4    0.07    0.38
  -8  -1  -4    1.55    0.76
  11  -2  -4    0.31    1.18
  10  -2  -4   -0.49    0.93
   9  -2  -4   -1.84    0.77
   8  -2  -4    4.86    1.26
   7  -2  -4   12.52    1.74
   6  -2  -4   12.82    1.66
   5  -2  -4   12.14    1.51
   4  -2  -4   16.88    1.66
   3  -2  -4    0.64    0.54
   3  -2  -4    0.98    0.50
   2  -2  -4    1.24    0.47
   2  -2  -4    0.67    0.48
   2   2  -4    0.88    0.26
   1  -2  -4   62.63    4.53
   1  -2  -4   58.19    4.54
   1   2  -4   58.18    4.26
   0  -2  -4    0.80    0.42
   0  -2  -4    1.64    0.46
   0  -2   4    2.31    0.56
  -1  -2  -4   23.09    2.08
   1  -2   4   24.36    2.17
  -1  -2  -4   24.37    2.09
  -1   2  -4   26.47    1.87
   2  -2   4    0.36    0.66
  -2  -2  -4    0.74    0.41
  -2  -2  -4    0.19    0.35
   3  -2   4   28.36    2.48
  -3  -2  -4   27.73    2.42
  -3  -2  -4   29.43    2.36
   4  -2   4    2.06    0.32
  -4  -2  -4    2.91    0.70
   5  -2   4   33.22    2.50
  -5  -2  -4   30.62    2.82
  -6  -2  -4   38.23    3.34
  -6   2  -4   37.83    2.82
  -7  -2  -4   13.60    1.80
  -8  -2  -4   10.38    1.62
   9  -2   4   -2.06    1.17
  -9  -2  -4    1.89    1.05
  10  -2   4   -1.55    1.43
  10  -3  -4   -1.26    0.89
  10  -3  -4    1.86    1.30
   9  -3  -4    1.14    1.20
   9  -3  -4    0.36    0.98
   8  -3  -4   -0.19    0.81
   8  -3  -4   -0.16    0.96
   7  -3  -4    1.24    0.91
   7  -3  -4    2.88    1.07
   6  -3  -4    0.96    0.92
   6  -3  -4    0.56    0.62
   6  -3  -4    0.27    0.70
   5  -3  -4    6.98    1.32
   5  -3  -4    7.13    0.97
   5  -3  -4    9.46    1.34
   4  -3  -4   12.46    1.64
   4  -3  -4   11.88    1.30
   4  -3  -4   11.21    1.60
   3  -3  -4    2.66    0.78
   3  -3  -4    2.16    0.62
   3  -3  -4    1.94    0.69
   3   3  -4    1.91    0.50
   2  -3  -4   38.28    3.07
   2  -3  -4   33.99    2.89
   2  -3  -4   36.77    3.00
   2   3  -4   35.81    2.80
   1  -3  -4    1.09    0.51
   1  -3  -4    0.23    0.51
   1  -3  -4    0.71    0.48
  -1  -3   4    0.36    0.51
   1   3  -4    0.34    0.29
   0  -3  -4    7.34    1.12
   0  -3   4    5.62    0.97
   0  -3  -4    7.05    1.05
   0  -3  -4    7.09    1.01
   0   3  -4    8.32    0.85
   1  -3   4    3.76    0.91
  -1  -3  -4    4.55    0.80
  -1  -3  -4    4.67    0.85
  -1   3  -4    4.68    0.60
  -2  -3  -4   74.55    5.68
   2  -3   4   79.29    5.72
  -2  -3  -4   75.19    5.63
  -2   3  -4   69.33    5.33
  -3  -3  -4   10.30    1.32
   3  -3   4    9.78    1.60
   3  -3   4   10.74    0.99
  -3  -3  -4   11.80    1.40
   4  -3   4    4.62    0.67
   4  -3   4    5.73    1.33
  -4  -3  -4    4.04    0.92
  -4   3  -4    4.05    0.66
   5  -3   4    8.43    1.55
   5  -3   4    8.18    0.92
  -5  -3  -4    9.09    1.43
  -6  -3  -4   10.10    1.54
   6  -3   4    6.44    0.91
   6  -3   4    4.70    1.45
  -7  -3  -4   -1.01    0.67
   7  -3   4    0.10    1.11
   8  -3   4    0.29    1.27
  -8  -3  -4    1.28    1.00
  -9  -3  -4    2.47    1.20
   9  -3   4    1.84    1.57
  10  -3   4   -1.08    1.44
  10  -4  -4   -0.26    1.16
  10  -4  -4   -2.22    1.07
   9  -4  -4   -1.33    1.05
   9  -4  -4    0.51    1.14
   8  -4  -4    1.32    1.10
   8  -4  -4    0.02    1.07
   7  -4  -4    1.98    1.12
   7  -4  -4    1.81    1.12
   6  -4  -4    0.20    0.86
   6  -4  -4    2.34    1.05
   6  -4  -4    3.39    0.85
   5  -4  -4    1.32    0.87
   5  -4  -4    1.33    0.77
   5  -4  -4    1.13    0.88
   4  -4  -4    1.69    0.83
   4  -4  -4    0.77    0.70
   4  -4  -4    2.10    0.92
   3  -4  -4   -0.27    0.62
   3  -4  -4   -0.21    0.58
   3  -4  -4   -0.12    0.63
   2  -4  -4    1.27    0.74
   2  -4  -4    0.67    0.63
   2  -4  -4    0.96    0.63
   1  -4  -4    7.95    1.32
  -1  -4   4    6.01    1.09
   1  -4  -4   11.28    1.45
   1  -4  -4    9.89    1.30
   0  -4   4    1.16    0.76
   0  -4  -4    0.67    0.65
   0  -4  -4    1.50    0.74
   0  -4  -4    0.45    0.61
  -1  -4  -4    4.82    0.95
  -1  -4  -4    3.36    0.83
   1  -4   4    3.53    1.17
  -2  -4  -4    0.02    0.52
  -2  -4  -4   -0.43    0.49
   2  -4   4   -0.47    1.01
   2  -4   4    0.84    0.56
   3  -4   4    5.01    1.45
  -3  -4  -4    4.53    1.07
  -3  -4  -4    5.32    1.00
   3  -4   4    4.25    0.79
   4  -4   4   -0.75    1.08
  -4  -4  -4   -0.47    0.54
   4  -4   4    0.31    0.64
  -4  -4  -4   -0.06    0.68
   5  -4   4    6.34    0.98
  -5  -4  -4    6.70    1.35
   5  -4   4    4.02    1.53
  -6  -4  -4   12.13    1.83
   6  -4   4    5.23    1.75
   7  -4   4    3.38    1.61
  -7  -4  -4    3.35    1.29
  -8  -4  -4    1.00    1.15
   8  -4   4    1.22    1.42
   9  -4   4    0.65    1.49
  -9  -4  -4    1.02    1.19
   9  -5  -4   -0.05    1.19
   9  -5  -4   -1.09    1.17
   8  -5  -4   -0.39    1.12
   8  -5  -4    2.04    1.34
   7  -5  -4   -0.31    1.03
   7  -5  -4    0.36    1.09
   6  -5  -4   -0.23    0.91
   6  -5  -4    0.56    0.95
   5  -5  -4    0.23    0.84
   5  -5  -4    0.60    0.84
   5  -5  -4    2.31    1.06
   4  -5  -4    1.33    0.91
   4  -5  -4    1.66    0.90
   4  -5  -4    2.72    0.98
   3  -5  -4    0.96    0.84
   3  -5  -4    0.38    0.73
   3  -5  -4    0.54    0.84
   2  -5  -4    1.76    0.90
   2  -5  -4    3.60    1.03
   2  -5  -4    1.05    0.74
  -1  -5   4   -0.01    0.90
   1  -5  -4    0.18    0.72
   1  -5  -4   -0.38    0.75
   1  -5  -4    0.46    0.80
   0  -5  -4    1.26    0.81
   0  -5  -4    1.64    0.85
   0  -5  -4    0.24    0.72
   0  -5   4   -0.21    0.92
   1  -5   4    1.80    1.09
  -1  -5  -4    2.66    0.90
  -1  -5  -4    1.08    0.88
   2  -5   4    7.82    1.89
  -2  -5  -4    5.29    1.14
  -2  -5  -4    6.56    1.30
   2  -5   4    5.69    1.08
  -3  -5  -4    1.38    0.88
   3  -5   4    1.63    0.88
   3  -5   4    1.26    1.45
  -3  -5  -4    1.86    0.96
  -4  -5  -4    1.03    0.99
  -4  -5  -4    0.39    0.64
   4  -5   4    1.53    0.83
   4  -5   4   -2.34    1.09
   5  -5   4    0.95    1.37
  -5  -5  -4    0.80    1.01
   6  -5   4   -0.71    1.28
  -6  -5  -4    0.43    1.04
  -7  -5  -4    0.01    1.05
   7  -5   4    2.20    1.58
   8  -5   4    0.55    1.52
  -8  -5  -4    0.47    1.24
   9  -5   4    0.98    1.68
  -9  -5  -4    0.42    1.32
   8  -6  -4   -0.63    1.15
   8  -6  -4   -0.09    1.36
   7  -6  -4    0.84    1.20
   7  -6  -4    0.42    1.13
   6  -6  -4   -0.39    1.10
   6  -6  -4    0.97    1.21
   5  -6  -4   -0.14    0.99
   5  -6  -4    0.87    1.00
   4  -6  -4   -1.10    0.77
   4  -6  -4    0.42    0.98
   4  -6  -4   -0.16    1.01
   3  -6  -4   -0.02    1.00
   3  -6  -4   -0.83    0.94
   3  -6  -4    0.19    0.83
   2  -6  -4   -0.40    0.77
   2  -6  -4    1.98    1.14
   2  -6  -4    1.02    0.96
   1  -6  -4   -0.37    0.85
   1  -6  -4   -1.05    0.85
  -1  -6   4   -1.10    1.12
   1  -6  -4    1.09    1.00
   0  -6  -4    0.02    0.93
   0  -6   4    1.47    1.40
   0  -6  -4    0.34    0.97
   0  -6  -4    1.09    0.76
   1  -6   4    1.19    1.36
  -1  -6  -4    0.28    1.00
  -1  -6  -4    0.80    0.71
  -2  -6  -4    0.87    0.85
   2  -6   4    0.88    1.50
  -2  -6  -4   -0.20    0.87
   2  -6   4    0.66    0.85
  -3  -6  -4    0.59    1.04
   3  -6   4    2.25    1.62
   3  -6   4   -0.87    0.91
  -3  -6  -4    0.13    0.85
  -4  -6  -4   -0.32    0.92
   4  -6   4    1.81    1.59
  -5  -6  -4   -0.28    1.00
   5  -6   4    1.24    1.64
  -6  -6  -4    0.70    1.08
   6  -6   4   -0.13    1.48
  -7  -6  -4   -0.44    1.22
   7  -6   4    3.57    1.99
  -8  -6  -4   -0.51    1.09
   8  -6   4    0.11    1.77
   7  -7  -4    0.13    1.47
   7  -7  -4   -1.66    1.68
   6  -7  -4   -2.09    1.31
   6  -7  -4   -0.29    1.22
   5  -7  -4    0.30    1.00
   5  -7  -4   -0.57    1.23
   4  -7  -4    0.87    1.11
   4  -7  -4   -1.38    1.12
   3  -7  -4   -0.55    1.03
   3  -7  -4   -0.61    1.15
   3  -7  -4   -0.85    1.18
   2  -7  -4    0.20    1.23
   2  -7  -4   -2.03    0.95
   2  -7  -4   -0.16    0.93
   1  -7  -4    1.49    1.18
   1  -7  -4    0.80    1.26
   1  -7  -4    1.27    1.12
   0  -7  -4    0.06    0.98
   0  -7   4   -0.50    1.50
   0  -7  -4   -0.16    1.07
   1  -7   4   -0.78    1.61
  -1  -7  -4    0.48    0.87
  -1  -7  -4    0.68    1.09
  -2  -7  -4    0.82    1.16
  -2  -7  -4    0.22    0.95
   2  -7   4    0.71    1.72
  -3  -7  -4   -1.00    1.07
  -3  -7  -4   -1.52    0.89
   3  -7   4    1.80    1.90
  -4  -7  -4    0.28    1.10
   4  -7   4    0.36    1.92
   5  -7   4    1.43    2.16
  -5  -7  -4    1.50    1.25
  -6  -7  -4   -0.10    1.27
   6  -7   4    1.01    2.15
  -7  -7  -4   -0.33    1.66
   4  -8  -4    1.24    1.47
   4  -8  -4   -1.22    1.10
   3  -8  -4   -0.03    1.32
   3  -8  -4    1.17    1.36
   3  -8  -4   -2.02    1.37
   2  -8  -4   -0.48    1.17
   2  -8  -4   -1.99    1.09
   2  -8  -4    1.54    1.50
   1  -8  -4    0.91    1.30
   1  -8  -4    1.12    1.18
   1  -8  -4   -0.33    1.33
   0  -8  -4    0.35    1.36
   0  -8  -4    0.69    1.15
   0  -8   4    1.54    1.96
  -1  -8  -4    0.41    1.11
  -1  -8  -4   -0.80    1.24
   1  -8   4    1.93    1.96
   2  -8   4   -0.76    2.00
  -2  -8  -4    0.53    1.37
  -2  -8  -4   -0.41    1.05
  -3  -8  -4    0.53    1.08
  -3  -8  -4    0.42    1.35
   3  -8   4   -2.40    1.75
   4  -8   4   -2.75    2.01
  -4  -8  -4    1.99    1.53
  11   0  -5   -1.31    1.05
  10   0  -5    0.54    0.96
   9   0  -5    0.59    0.84
   8   0  -5    6.45    1.22
   7   0  -5    0.00    0.60
   6   0  -5    0.22    0.50
   5   0  -5    0.53    0.48
   4   0  -5   44.67    3.42
   3   0  -5    6.60    0.77
   2   0  -5    0.82    0.27
  -2   0   5    0.74    0.53
  -1   0   5    1.14    0.51
   0   0   5   56.86    4.47
   0   0  -5   64.38    4.49
  -1   0  -5    0.01    0.21
  -2   0  -5   16.07    1.27
   2   0   5   15.72    1.32
   3   0   5   32.25    2.42
   4   0   5    1.28    0.46
  -4   0  -5    1.06    0.46
  -5   0  -5   34.42    2.81
  -6   0  -5    0.60    0.49
  -7   0  -5    0.10    0.49
  11  -1  -5   -0.91    1.12
  10  -1  -5   -1.01    0.97
  10   1  -5    0.56    1.02
   9  -1  -5   -0.29    0.88
   9   1  -5    0.10    0.81
   8  -1  -5    2.21    1.01
   8   1  -5    2.97    0.94
   7  -1  -5    0.87    0.79
   7   1  -5    0.40    0.65
   6  -1  -5   19.93    1.88
   6   1  -5   16.11    1.69
   5  -1  -5   10.77    1.40
   5   1  -5   13.32    1.25
   4  -1  -5    0.48    0.43
   4   1  -5    0.87    0.36
   3  -1  -5   11.02    1.23
   3   1  -5   10.08    0.88
  -2   1   5    2.03    0.74
   1  -1  -5   85.30    6.10
   1  -1  -5   86.25    6.19
  -1   1   5   77.78    6.14
   0  -1  -5    0.22    0.35
   0   1   5    1.15    0.74
  -1  -1  -5   17.41    1.54
  -1   1  -5   17.99    1.36
  -2  -1  -5   91.94    6.60
  -2  -1  -5   85.73    6.47
  -3  -1  -5   33.52    2.56
  -3  -1  -5   31.85    2.67
  -4  -1  -5   -0.39    0.36
   5  -1   5    6.15    0.77
  -5  -1  -5    6.93    1.03
  -5   1  -5    8.43    0.92
  -6  -1  -5   13.36    1.55
  -6   1  -5   12.63    1.29
  -7  -1  -5   11.36    1.53
  -7   1  -5   11.57    1.40
  -8  -1  -5    8.86    1.40
  10  -2  -5    0.13    0.99
   9  -2  -5    0.73    0.96
   8  -2  -5    1.97    0.98
   7  -2  -5    0.82    0.77
   6  -2  -5   -1.14    0.49
   5  -2  -5    0.63    0.60
   4  -2  -5   27.39    2.49
   4  -2  -5   26.07    2.35
   3  -2  -5    3.10    0.92
   3  -2  -5    3.73    0.79
   2  -2  -5    0.20    0.52
   2  -2  -5    1.26    0.50
   1  -2  -5    0.30    0.48
   1  -2  -5    0.29    0.43
   0  -2   5   22.76    1.94
   0  -2  -5   26.90    2.13
   0  -2  -5   23.61    2.06
   1  -2   5    0.11    0.59
  -1  -2  -5    0.22    0.41
  -1  -2  -5    0.02    0.37
  -1   2  -5   -0.35    0.18
   2  -2   5   16.63    1.74
  -2  -2  -5   17.02    1.56
  -2  -2  -5   16.33    1.61
  -3  -2  -5   16.37    1.64
  -3  -2  -5   16.03    1.54
  -4  -2  -5    0.02    0.50
  -5  -2  -5   19.48    1.97
  -6  -2  -5    0.22    0.65
  -6   2  -5    0.64    0.38
  -7  -2  -5   -0.82    0.65
  -8  -2  -5   -0.41    0.76
  10  -2   5    0.38    1.66
  10  -3  -5   -0.05    1.26
  10  -3  -5   -0.33    1.10
   9  -3  -5   -0.15    1.13
   9  -3  -5   -0.82    1.00
   8  -3  -5    0.87    1.05
   8  -3  -5    1.21    1.19
   7  -3  -5    0.22    0.81
   7  -3  -5   -0.13    0.94
   6  -3  -5    4.05    1.24
   6  -3  -5    5.90    1.24
   6  -3  -5    3.78    0.85
   5  -3  -5    3.08    0.80
   5  -3  -5    2.53    1.00
   5  -3  -5    2.30    0.88
   4  -3  -5   -0.17    0.59
   4  -3  -5    0.24    0.59
   4  -3  -5    0.30    0.72
   4   3  -5    0.50    0.44
   3  -3  -5    3.83    0.96
   3  -3  -5    2.77    0.79
   3  -3  -5    2.24    0.71
   3   3  -5    3.75    0.59
   2  -3  -5    1.06    0.57
   2  -3  -5   -1.19    0.43
   2  -3  -5    0.14    0.58
   2   3  -5    0.32    0.29
   1  -3  -5   25.40    2.33
   1  -3  -5   24.26    2.33
   1  -3  -5   23.72    2.22
   1   3  -5   26.92    1.97
   0  -3   5    0.73    0.62
   0  -3  -5    2.17    0.65
   0  -3  -5    1.42    0.63
  -1  -3  -5    5.93    0.96
   1  -3   5    4.25    1.06
  -1  -3  -5    5.35    0.91
  -1   3  -5    5.15    0.63
  -2  -3  -5   23.07    2.18
   2  -3   5   25.68    2.42
  -2  -3  -5   26.15    2.28
  -2   3  -5   23.55    1.83
   3  -3   5    7.04    1.42
  -3  -3  -5    3.73    0.83
  -3  -3  -5    6.34    1.02
  -4  -3  -5    1.29    0.59
   4  -3   5    1.62    1.04
  -4  -3  -5    1.70    0.71
  -5  -3  -5    2.49    0.88
   5  -3   5    1.26    1.12
  -6  -3  -5    2.80    1.07
   6  -3   5    1.95    1.30
   7  -3   5    2.54    1.41
  -7  -3  -5    1.47    1.00
   8  -3   5    0.61    1.37
  -8  -3  -5    1.81    1.07
  -9  -3  -5   -0.10    1.02
   9  -3   5   -1.73    1.33
  10  -3   5   -0.52    1.59
   9  -4  -5   -1.72    0.99
   9  -4  -5   -0.22    1.08
   8  -4  -5    1.51    1.20
   8  -4  -5    0.98    1.08
   7  -4  -5    0.21    0.94
   7  -4  -5   -0.73    0.89
   6  -4  -5   -1.01    0.74
   6  -4  -5   -0.48    0.91
   6  -4  -5    0.40    0.75
   5  -4  -5   -0.32    0.67
   5  -4  -5    0.37    0.73
   5  -4  -5   -1.49    0.66
   4  -4  -5    5.33    1.18
   4  -4  -5    6.43    1.11
   4  -4  -5    5.23    1.21
   3  -4  -5   -0.20    0.70
   3  -4  -5    0.21    0.63
   3  -4  -5    0.04    0.74
   2  -4  -5   -1.21    0.57
   2  -4  -5    0.08    0.64
   2  -4  -5    0.41    0.68
   1  -4  -5   -0.74    0.55
   1  -4  -5    0.29    0.66
  -1  -4   5   -0.04    0.68
   1  -4  -5    0.00    0.57
   0  -4  -5    3.60    0.92
   0  -4  -5    4.40    0.96
   0  -4   5    2.82    0.91
   1  -4   5   -0.29    1.00
  -1  -4  -5    0.61    0.70
  -1  -4  -5   -0.17    0.59
  -2  -4  -5    4.40    1.01
   2  -4   5    6.45    1.48
  -2  -4  -5    5.77    1.11
  -2   4  -5    4.49    0.65
   3  -4   5    1.07    1.25
  -3  -4  -5    3.71    0.96
  -3  -4  -5    2.57    0.84
   4  -4   5   -1.44    1.04
  -4  -4  -5    0.91    0.81
  -4  -4  -5   -0.01    0.52
   5  -4   5    3.74    1.50
  -5  -4  -5    3.82    1.09
  -6  -4  -5    0.64    0.84
   6  -4   5    0.75    1.46
  -7  -4  -5   -0.20    0.92
   7  -4   5    0.28    1.32
   8  -4   5    0.07    1.30
  -8  -4  -5   -0.50    0.92
   9  -4   5    2.99    1.67
  -9  -4  -5    2.76    1.43
   9  -5  -5    0.05    1.29
   9  -5  -5   -0.04    1.29
   8  -5  -5    0.39    1.15
   8  -5  -5    0.48    1.23
   7  -5  -5   -1.39    0.96
   7  -5  -5   -1.59    0.96
   6  -5  -5    0.06    0.96
   6  -5  -5   -1.10    0.95
   5  -5  -5   -0.77    0.78
   5  -5  -5   -0.11    0.86
   4  -5  -5   -1.10    0.67
   4  -5  -5   -0.42    0.78
   4  -5  -5    0.95    0.88
   3  -5  -5    0.07    0.81
   3  -5  -5    0.49    0.82
   3  -5  -5    0.02    0.68
   2  -5  -5   -0.01    0.83
   2  -5  -5    0.00    0.73
   2  -5  -5    0.94    0.81
   1  -5  -5    3.56    1.03
   1  -5  -5    3.58    1.06
   1  -5  -5    2.85    1.07
  -1  -5   5    1.67    0.94
   0  -5  -5    0.89    0.86
   0  -5  -5    1.00    0.84
   0  -5   5    0.57    1.01
  -1  -5  -5    0.59    0.70
   1  -5   5    0.92    1.23
  -1  -5  -5    1.05    0.83
  -2  -5  -5    1.58    0.85
   2  -5   5    1.50    1.46
  -2  -5  -5    1.63    0.93
   3  -5   5    0.28    1.31
  -3  -5  -5    0.11    0.78
  -3  -5  -5    0.38    0.77
  -4  -5  -5    0.81    0.93
  -4  -5  -5    0.49    0.73
   4  -5   5   -0.41    1.31
  -5  -5  -5    0.16    0.96
   5  -5   5    1.31    1.52
   6  -5   5    0.37    1.33
  -6  -5  -5    1.54    1.08
  -7  -5  -5   -1.02    0.93
   7  -5   5    1.48    1.53
   8  -5   5   -2.05    1.32
  -8  -5  -5    0.50    1.20
  -9  -5  -5    0.29    1.35
   8  -6  -5   -0.49    1.24
   7  -6  -5    0.51    1.22
   7  -6  -5    1.30    1.25
   6  -6  -5   -0.90    0.99
   6  -6  -5   -1.57    1.04
   5  -6  -5   -0.89    0.89
   5  -6  -5    0.80    1.11
   4  -6  -5   -1.18    0.98
   4  -6  -5    0.54    1.17
   4  -6  -5   -0.58    0.84
   3  -6  -5   -0.26    0.94
   3  -6  -5    0.86    1.00
   3  -6  -5    1.67    1.16
   2  -6  -5    1.12    1.09
   2  -6  -5    0.08    0.98
   2  -6  -5    0.37    0.95
   1  -6  -5    0.06    0.92
   1  -6  -5    0.40    0.94
   1  -6  -5   -0.12    0.87
   0  -6   5   -0.35    1.26
   0  -6  -5    0.71    0.79
   0  -6  -5    0.33    0.96
  -1  -6  -5    0.21    0.90
  -1  -6  -5    0.18    0.85
   1  -6   5    1.57    1.35
  -2  -6  -5    0.27    0.96
  -2  -6  -5    0.20    0.80
   2  -6   5    1.61    1.55
  -3  -6  -5   -0.10    0.94
  -3  -6  -5    0.63    0.89
   3  -6   5    1.16    1.84
  -4  -6  -5    1.06    1.14
  -4  -6  -5    0.58    0.90
   4  -6   5    0.76    1.79
   5  -6   5   -1.33    1.73
  -5  -6  -5   -0.38    0.93
  -6  -6  -5    1.01    1.12
   6  -6   5    0.22    1.53
  -7  -6  -5   -1.38    0.97
   7  -6   5   -0.96    1.68
  -8  -6  -5    0.32    1.55
   6  -7  -5    0.00    1.02
   6  -7  -5    0.06    1.49
   5  -7  -5   -0.43    1.06
   5  -7  -5    0.27    1.37
   4  -7  -5   -0.12    1.00
   4  -7  -5   -0.69    1.99
   4  -7  -5    0.58    1.42
   3  -7  -5   -0.78    1.17
   3  -7  -5   -1.34    1.15
   3  -7  -5   -0.72    1.08
   2  -7  -5   -0.73    1.08
   2  -7  -5    0.78    1.11
   2  -7  -5    0.13    1.24
   1  -7  -5   -0.35    1.15
   1  -7  -5    0.15    0.96
   1  -7  -5   -0.12    1.12
   0  -7  -5    0.60    1.11
   0  -7  -5   -1.40    1.03
   0  -7   5   -1.17    1.59
  -1  -7  -5   -0.20    1.16
   1  -7   5   -0.67    1.66
  -1  -7  -5    0.43    0.97
   2  -7   5    1.01    1.84
  -2  -7  -5   -0.08    1.05
  -2  -7  -5   -0.77    1.16
   3  -7   5    3.45    1.98
  -3  -7  -5    0.18    0.99
  -3  -7  -5    0.02    1.16
  -4  -7  -5    0.99    1.23
   4  -7   5    2.42    2.22
  -4  -7  -5    0.42    1.04
   5  -7   5   -0.19    2.28
  -5  -7  -5    0.09    1.12
   6  -7   5   -3.59    1.88
  -6  -7  -5    0.79    1.31
   4  -8  -5   -0.56    1.49
   4  -8  -5    1.34    1.49
   3  -8  -5    0.51    1.49
   3  -8  -5    0.52    1.16
   3  -8  -5   -2.42    1.32
   2  -8  -5   -0.27    1.43
   2  -8  -5    1.24    1.25
   2  -8  -5   -1.13    1.11
   1  -8  -5   -0.86    1.14
   1  -8  -5   -0.47    1.36
   0  -8  -5    0.00    1.18
   0  -8  -5   -0.29    1.38
  -1  -8  -5    0.64    1.17
  -1  -8  -5    0.55    1.43
  -2  -8  -5    0.30    1.41
   2  -8   5    1.92    2.21
  -2  -8  -5    0.71    1.08
  -3  -8  -5   -0.23    1.11
   3  -8   5    1.74    2.23
  -3  -8  -5    0.10    1.39
   4  -8   5    0.88    2.69
  -4  -8  -5    0.92    1.66
   9   0  -6    0.48    0.91
   8   0  -6   -0.12    0.77
   7   0  -6   25.03    2.43
   6   0  -6    0.08    0.55
   5   0  -6    0.68    0.47
   4   0  -6    6.85    0.90
   3   0  -6   33.24    2.55
  -2   0   6    2.17    0.57
  -1   0   6   40.68    3.08
   0   0   6   48.28    3.61
   0   0  -6   47.25    3.61
  -1   0  -6    1.46    0.37
  -2   0  -6   34.36    2.59
   3   0   6    7.42    0.76
  -4   0  -6   13.93    1.43
   4   0   6   10.36    1.09
  -5   0  -6    1.29    0.56
  -6   0  -6   38.23    3.15
  -7   0  -6   -0.24    0.53
  10  -1  -6   -0.37    0.93
   9  -1  -6    1.07    0.99
   8  -1  -6    2.52    0.97
   8   1  -6    1.53    0.83
   7  -1  -6    3.54    0.94
   7   1  -6    2.05    0.79
   6  -1  -6   10.70    1.43
   6   1  -6    8.73    1.19
   5  -1  -6   -0.13    0.48
   5   1  -6    1.10    0.47
   4  -1  -6   28.29    2.43
   4   1  -6   28.78    2.21
   3  -1  -6    6.66    0.92
   2  -1  -6    5.88    0.81
   2  -1  -6    5.38    0.89
   1  -1  -6   14.44    1.52
   0  -1  -6   29.54    2.43
  -1  -1  -6    5.21    0.80
  -1   1  -6    6.12    0.61
  -2  -1  -6    9.38    1.04
  -3  -1  -6   48.58    3.81
  -3  -1  -6   46.68    3.61
  -4  -1  -6   -0.05    0.46
  -5  -1  -6   11.62    1.46
  -5   1  -6   12.57    1.34
  -6  -1  -6    0.17    0.57
  -6   1  -6    0.03    0.46
  -7  -1  -6   13.13    1.69
  -8  -1  -6    4.28    1.15
  10  -2  -6    0.00    1.05
   9  -2  -6   -0.21    0.95
   8  -2  -6    0.34    0.86
   7  -2  -6   14.63    2.02
   6  -2  -6   -0.23    0.64
   5  -2  -6    0.49    0.63
   4  -2  -6    1.85    0.87
   4  -2  -6    2.77    0.81
   3  -2  -6   21.65    2.28
   3  -2  -6   20.73    1.94
   2  -2  -6    1.89    0.70
   2  -2  -6    2.09    0.64
   1  -2  -6   24.69    2.30
   1  -2  -6   27.18    2.28
   0  -2  -6   26.28    2.30
  -1  -2  -6   -0.40    0.49
  -1  -2  -6    0.28    0.44
   1  -2   6   -0.17    0.64
  -1   2  -6    0.01    0.22
   2  -2   6   18.57    1.86
  -2  -2  -6   16.95    1.66
  -2  -2  -6   16.75    1.73
  -3  -2  -6    2.74    0.76
  -3  -2  -6    3.11    0.65
  -4  -2  -6    4.90    0.95
  -5  -2  -6   -0.37    0.51
  -6  -2  -6   20.00    2.24
  -6   2  -6   19.96    1.78
  -7  -2  -6   -0.09    0.73
  -8  -2  -6   -0.46    0.85
  10  -2   6   -0.19    1.69
  10  -3  -6   -1.03    1.05
  10  -3  -6    2.07    1.50
   9  -3  -6    0.31    1.09
   9  -3  -6   -0.20    1.17
   8  -3  -6    1.48    1.15
   8  -3  -6   -0.24    0.97
   7  -3  -6    0.80    0.97
   7  -3  -6    1.93    1.15
   6  -3  -6    3.67    1.17
   6  -3  -6    4.77    1.34
   5  -3  -6    0.75    0.72
   5  -3  -6   -1.27    0.70
   4  -3  -6   10.92    1.59
   4  -3  -6    8.65    1.41
   3  -3  -6    3.17    0.85
   3  -3  -6    4.45    0.92
   3  -3  -6    4.79    1.06
   2  -3  -6    0.85    0.63
   2  -3  -6    2.30    0.81
   2  -3  -6    1.90    0.70
   1  -3  -6    2.63    0.86
   1  -3  -6    0.11    0.55
   1  -3  -6    2.00    0.66
   0  -3   6    7.50    1.06
   0  -3  -6   10.88    1.46
   0  -3  -6   11.85    1.35
  -1  -3  -6    2.59    0.78
  -1  -3  -6    2.40    0.76
   1  -3   6    2.07    0.94
  -1   3  -6    1.82    0.40
  -2  -3  -6    4.74    0.97
  -2  -3  -6    6.93    1.09
   2  -3   6    8.87    1.45
  -3  -3  -6   15.53    1.87
   3  -3   6   20.63    2.32
  -3  -3  -6   20.23    2.01
  -4  -3  -6   -0.66    0.44
   4  -3   6    0.96    1.15
  -4  -3  -6    0.09    0.61
   5  -3   6    3.75    1.25
  -5  -3  -6    5.51    1.14
  -6  -3  -6    0.56    0.73
   6  -3   6    0.62    1.16
  -7  -3  -6    3.58    1.19
   7  -3   6    0.37    1.16
   8  -3   6   -0.20    1.26
  -8  -3  -6   -0.43    0.98
   9  -3   6    0.87    1.64
  -9  -3  -6    2.58    1.28
   9  -4  -6   -0.03    1.17
   9  -4  -6   -0.19    1.15
   8  -4  -6   -0.63    1.06
   8  -4  -6   -0.40    1.05
   7  -4  -6    1.63    1.17
   7  -4  -6    2.56    1.24
   6  -4  -6    0.22    0.90
   6  -4  -6   -0.30    0.81
   6  -4  -6    0.12    0.98
   5  -4  -6    0.58    0.78
   5  -4  -6   -1.00    0.78
   5  -4  -6    0.23    0.78
   4  -4  -6   -0.10    0.74
   4  -4  -6   -1.22    0.70
   4  -4  -6   -0.02    0.67
   3  -4  -6    1.44    0.83
   3  -4  -6    2.52    0.86
   3  -4  -6    2.83    1.02
   2  -4  -6   -0.08    0.70
   2  -4  -6    0.60    0.72
   2  -4  -6    0.52    0.73
   1  -4  -6    5.15    1.06
   1  -4  -6    6.47    1.32
   1  -4  -6    4.20    1.11
   0  -4   6    4.38    0.95
   0  -4  -6    6.03    1.08
   0  -4  -6    6.10    1.23
  -1  -4  -6    0.14    0.71
  -1  -4  -6    0.06    0.65
   1  -4   6   -0.53    1.04
  -2  -4  -6    1.59    0.75
   2  -4   6    2.03    1.35
  -2  -4  -6    1.61    0.78
  -3  -4  -6    0.49    0.72
   3  -4   6    0.27    1.17
  -3  -4  -6    0.52    0.66
   4  -4   6    1.33    1.19
  -4  -4  -6    0.99    0.76
  -4  -4  -6    1.36    0.88
   5  -4   6    0.64    1.22
  -5  -4  -6    0.10    0.79
  -6  -4  -6    1.47    1.05
   6  -4   6    3.45    1.62
   7  -4   6   -0.77    1.26
  -7  -4  -6   -0.90    0.78
   8  -4   6   -1.24    1.28
  -8  -4  -6    0.16    1.08
   9  -4   6    0.32    1.51
  -9  -4  -6    0.51    1.17
   8  -5  -6    0.13    1.18
   8  -5  -6    0.84    1.34
   7  -5  -6    0.74    1.13
   7  -5  -6    0.08    1.11
   6  -5  -6    0.56    1.08
   5  -5  -6    0.14    0.90
   5  -5  -6   -0.23    0.91
   5  -5  -6    0.25    0.86
   4  -5  -6    1.34    0.97
   4  -5  -6   -0.18    0.79
   4  -5  -6    0.15    0.80
   3  -5  -6   -0.04    0.88
   3  -5  -6   -0.16    0.84
   3  -5  -6    1.11    0.92
   2  -5  -6   -0.79    0.74
   2  -5  -6   -1.15    0.75
   2  -5  -6    1.15    0.88
   1  -5  -6   -0.16    0.86
   1  -5  -6   -0.31    0.76
   1  -5  -6    1.27    0.88
   0  -5   6    1.60    1.14
   0  -5  -6    0.72    0.92
   0  -5  -6    1.30    0.89
   1  -5   6    0.52    1.20
  -1  -5  -6    0.19    0.75
  -1  -5  -6    1.04    0.93
  -2  -5  -6   -0.30    0.78
   2  -5   6    2.32    1.51
  -2  -5  -6    0.79    0.85
  -3  -5  -6    0.85    0.87
   3  -5   6    2.03    1.54
  -3  -5  -6    2.26    1.04
  -4  -5  -6   -0.56    0.78
   4  -5   6    0.45    1.53
  -4  -5  -6   -0.34    0.71
  -5  -5  -6    0.06    0.95
   5  -5   6   -1.27    1.40
  -6  -5  -6   -0.15    0.96
   6  -5   6    0.34    1.48
  -7  -5  -6   -0.21    1.01
   7  -5   6    0.15    1.55
   8  -5   6   -1.46    1.53
  -8  -5  -6    0.30    1.08
   7  -6  -6    0.43    1.18
   7  -6  -6   -0.25    1.28
   6  -6  -6    0.09    1.05
   6  -6  -6   -0.80    1.13
   5  -6  -6   -0.67    0.91
   5  -6  -6    1.07    1.24
   4  -6  -6    0.11    1.03
   4  -6  -6   -0.03    1.09
   4  -6  -6    1.18    1.00
   3  -6  -6   -0.89    0.94
   3  -6  -6   -0.15    1.12
   3  -6  -6    0.40    0.99
   2  -6  -6   -0.06    0.88
   2  -6  -6    0.87    1.13
   2  -6  -6    0.95    1.02
   1  -6  -6    0.12    0.95
   1  -6  -6    0.36    0.98
   1  -6  -6   -0.58    0.95
   0  -6  -6   -0.81    0.90
   0  -6   6    0.81    1.31
   0  -6  -6    0.31    0.99
   1  -6   6    0.86    1.40
  -1  -6  -6   -0.24    0.83
  -1  -6  -6    0.11    0.91
  -2  -6  -6    1.00    1.01
   2  -6   6    2.23    1.63
  -2  -6  -6    0.10    0.97
   3  -6   6    1.11    1.86
  -3  -6  -6   -0.87    0.99
  -3  -6  -6    1.10    1.00
  -4  -6  -6   -0.33    0.82
  -4  -6  -6    0.58    1.02
   4  -6   6    0.78    1.93
  -5  -6  -6   -0.90    0.93
   5  -6   6   -2.11    1.84
   6  -6   6   -0.18    1.91
  -6  -6  -6    1.12    1.29
   7  -6   6   -0.16    1.80
  -7  -6  -6    0.71    1.32
   6  -7  -6   -2.01    1.11
   6  -7  -6   -1.11    2.03
   5  -7  -6    0.85    1.50
   5  -7  -6   -0.46    1.02
   4  -7  -6    0.51    1.14
   4  -7  -6    1.27    1.39
   4  -7  -6   -0.03    1.44
   3  -7  -6    0.24    1.37
   3  -7  -6    0.41    1.06
   3  -7  -6   -0.87    1.11
   2  -7  -6   -0.85    1.20
   2  -7  -6    0.48    1.23
   2  -7  -6    0.03    1.10
   1  -7  -6    0.23    1.25
   1  -7  -6    0.35    1.23
   0  -7  -6    0.30    1.12
   0  -7  -6   -0.41    1.12
  -1  -7  -6   -0.76    1.02
  -1  -7  -6   -0.37    1.11
   2  -7   6   -0.51    1.70
  -2  -7  -6    0.25    1.24
  -2  -7  -6    1.82    1.16
  -3  -7  -6   -0.58    0.94
   3  -7   6    1.17    1.98
  -3  -7  -6    0.00    1.20
  -4  -7  -6    0.80    1.17
   4  -7   6    2.75    2.28
  -4  -7  -6    1.15    1.10
   5  -7   6    1.29    2.32
  -5  -7  -6    2.12    1.37
   3  -8  -6   -0.94    1.49
   3  -8  -6   -1.78    1.48
   3  -8  -6   -0.66    1.21
   2  -8  -6   -0.95    1.37
   2  -8  -6   -0.63    1.13
   2  -8  -6    1.36    1.58
   1  -8  -6    1.73    1.62
   1  -8  -6    0.93    1.19
   0  -8  -6   -0.31    1.30
   0  -8  -6   -0.04    1.17
  -1  -8  -6    0.46    1.35
  -1  -8  -6   -0.93    1.16
  -2  -8  -6   -1.91    1.14
  -2  -8  -6    1.64    1.54
  -3  -8  -6   -0.25    1.84
   7   0  -7    0.41    0.67
   6   0  -7   18.06    1.86
   5   0  -7    1.75    0.61
   4   0  -7   13.98    1.32
   3   0  -7   19.22    1.60
  -2   0   7    5.55    0.79
  -1   0   7    7.24    0.89
   1   0  -7    8.24    0.97
   0   0   7   11.11    1.18
   0   0  -7   12.56    1.26
  -1   0  -7   24.36    1.98
  -2   0  -7   -0.07    0.26
  -4   0  -7    3.18    0.83
  -5   0  -7    0.97    0.63
  -6   0  -7    6.18    1.11
  -7   0  -7   19.72    2.05
   8  -1  -7    0.67    0.91
   7  -1  -7    1.60    0.89
   6  -1  -7    1.98    0.79
   6   1  -7    3.09    0.72
   5  -1  -7    0.94    0.63
   5   1  -7    0.41    0.41
   4  -1  -7    0.19    0.45
   3  -1  -7   19.44    1.75
   2  -1  -7   11.86    1.34
   2  -1  -7   14.23    1.54
   1  -1  -7   20.40    1.87
   0  -1  -7   49.27    3.84
  -1  -1  -7    1.41    0.51
  -1   1  -7    1.41    0.34
  -2  -1  -7    3.99    0.66
  -3  -1  -7    0.77    0.39
  -3  -1  -7    2.39    0.78
  -4  -1  -7   29.03    2.63
  -5  -1  -7    0.35    0.67
  -5   1  -7    0.47    0.60
  -6  -1  -7   15.22    1.86
  -6   1  -7   15.75    1.69
  -7  -1  -7    5.98    1.15
  -8  -1  -7   -0.56    0.93
   9  -2  -7   -0.22    1.09
   8  -2  -7   -0.15    0.87
   7  -2  -7   -0.15    0.74
   6  -2  -7    6.71    1.34
   5  -2  -7    1.10    0.75
   5  -2  -7    2.17    0.92
   4  -2  -7   11.34    1.59
   4  -2  -7   10.24    1.39
   3  -2  -7   11.13    1.52
   3  -2  -7   11.06    1.40
   2  -2  -7    1.05    0.66
   2  -2  -7    0.35    0.55
   1  -2  -7    4.64    0.92
   0  -2  -7    6.55    1.04
  -1  -2  -7   16.86    1.75
   1  -2   7   15.59    1.66
  -1  -2  -7   17.53    1.82
   2  -2   7    0.27    0.80
  -2  -2  -7   -0.05    0.44
  -2  -2  -7   -0.11    0.54
  -3  -2  -7   40.45    3.25
  -3  -2  -7   33.67    2.98
  -4  -2  -7    1.39    0.54
  -4  -2  -7    2.72    0.89
  -5  -2  -7    0.34    0.66
  -6  -2  -7    2.33    0.92
  -6   2  -7    2.63    0.75
  -7  -2  -7   13.14    1.88
  -8  -2  -7    1.16    0.99
   9  -3  -7    0.26    1.23
   9  -3  -7   -0.47    1.21
   8  -3  -7   -0.47    1.07
   8  -3  -7   -0.14    1.07
   7  -3  -7    2.29    1.15
   7  -3  -7    2.79    1.21
   6  -3  -7    1.23    1.02
   6  -3  -7    0.26    0.80
   5  -3  -7    0.04    0.80
   5  -3  -7   -0.53    0.58
   4  -3  -7   -0.07    0.53
   4  -3  -7   -0.11    0.70
   3  -3  -7    8.90    1.42
   3  -3  -7   10.80    1.53
   2  -3  -7    6.28    1.15
   2  -3  -7    5.88    1.18
   2  -3  -7    7.31    1.27
   1  -3  -7    7.24    1.23
   1  -3  -7    6.66    1.13
   0  -3   7   14.04    1.40
   0  -3  -7   13.13    1.77
   0  -3  -7   17.67    1.72
  -1  -3  -7    0.59    0.66
  -1  -3  -7   -0.19    0.61
   1  -3   7   -1.01    0.78
  -1   3  -7   -0.42    0.29
   2  -3   7    0.01    1.01
  -2  -3  -7    1.11    0.74
  -2  -3  -7    1.15    0.65
  -3  -3  -7    1.14    0.75
  -3  -3  -7    1.00    0.62
   3  -3   7    1.74    1.23
  -4  -3  -7    7.22    1.12
  -4  -3  -7    9.11    1.47
   4  -3   7    6.93    1.49
   5  -3   7    1.05    1.18
  -5  -3  -7    0.09    0.74
  -6  -3  -7    4.45    1.17
   6  -3   7    2.64    1.31
  -7  -3  -7    0.80    1.01
   7  -3   7    0.18    1.34
  -8  -3  -7   -1.39    0.94
   8  -3   7    0.33    1.30
   9  -3   7    0.95    1.58
  -9  -3  -7    1.19    1.53
   9  -4  -7   -0.36    1.35
   8  -4  -7   -0.67    1.03
   8  -4  -7    0.14    1.10
   7  -4  -7   -0.15    1.04
   7  -4  -7   -0.58    0.90
   6  -4  -7    3.06    1.13
   6  -4  -7   -0.37    0.84
   5  -4  -7    0.39    0.81
   5  -4  -7    1.03    0.86
   5  -4  -7    1.22    1.04
   4  -4  -7    1.64    0.88
   4  -4  -7    0.96    0.81
   4  -4  -7    1.01    0.95
   3  -4  -7    0.74    0.86
   3  -4  -7    1.47    0.82
   3  -4  -7    2.29    0.93
   2  -4  -7    0.14    0.73
   2  -4  -7   -0.42    0.69
   2  -4  -7   -0.23    0.75
   1  -4  -7    0.01    0.79
   1  -4  -7   -0.36    0.68
   0  -4  -7    1.72    0.87
   0  -4   7    1.93    0.86
   0  -4  -7    2.80    0.98
   1  -4   7    4.66    1.27
  -1  -4  -7    2.42    0.95
  -1  -4  -7    3.74    1.06
  -2  -4  -7    0.23    0.69
  -2  -4  -7    0.26    0.71
   2  -4   7   -0.88    1.20
  -3  -4  -7    7.58    1.31
  -3  -4  -7    7.36    1.37
   3  -4   7    3.45    1.46
   4  -4   7    1.80    1.35
  -4  -4  -7    0.58    0.82
  -4  -4  -7    0.54    0.71
   5  -4   7   -0.16    1.34
  -5  -4  -7   -0.23    0.79
  -6  -4  -7    1.29    0.93
   6  -4   7   -1.93    1.34
   7  -4   7   -1.20    1.37
  -7  -4  -7    1.63    1.17
  -8  -4  -7   -0.14    1.09
   8  -4   7   -0.49    1.41
  -9  -4  -7   -0.07    1.45
   8  -5  -7   -0.96    1.12
   8  -5  -7    0.18    1.15
   7  -5  -7    0.66    1.12
   7  -5  -7   -0.29    1.03
   6  -5  -7    1.11    0.97
   6  -5  -7   -1.98    0.91
   5  -5  -7   -0.94    0.89
   5  -5  -7   -0.18    0.83
   5  -5  -7   -0.30    0.97
   4  -5  -7    0.41    0.99
   4  -5  -7    1.13    0.89
   4  -5  -7   -0.17    0.86
   3  -5  -7    2.08    0.99
   3  -5  -7   -0.27    0.81
   3  -5  -7    1.33    1.01
   2  -5  -7    0.52    0.93
   2  -5  -7    1.00    0.92
   2  -5  -7    0.47    1.09
   1  -5  -7    2.19    0.96
   1  -5  -7    0.50    1.01
   0  -5  -7    1.13    0.97
   0  -5  -7    0.94    0.95
   1  -5   7   -1.22    1.08
  -1  -5  -7   -0.63    0.72
  -1  -5  -7    0.19    0.83
  -2  -5  -7    0.02    0.82
   2  -5   7    0.53    1.45
  -2  -5  -7   -0.35    0.80
  -3  -5  -7   -0.93    0.79
  -3  -5  -7   -1.15    0.77
   3  -5   7    2.14    1.67
   4  -5   7   -0.13    1.58
  -4  -5  -7   -0.02    0.76
  -4  -5  -7    1.59    1.07
  -5  -5  -7   -0.52    0.91
   5  -5   7    0.49    1.74
   6  -5   7   -0.56    1.57
  -6  -5  -7    0.21    1.05
  -7  -5  -7    0.22    1.22
   7  -5   7    0.37    1.74
  -8  -5  -7   -0.84    1.07
   7  -6  -7   -1.19    1.65
   7  -6  -7   -1.13    1.13
   6  -6  -7   -0.52    0.93
   6  -6  -7   -0.51    1.16
   5  -6  -7   -0.31    0.92
   5  -6  -7   -0.22    1.24
   4  -6  -7    0.58    1.01
   4  -6  -7    1.69    1.12
   4  -6  -7    0.58    1.19
   3  -6  -7    0.66    1.05
   3  -6  -7    1.38    1.32
   3  -6  -7   -1.17    0.93
   2  -6  -7   -0.82    1.16
   2  -6  -7   -0.04    0.97
   2  -6  -7   -1.20    0.81
   1  -6  -7   -0.99    0.88
   1  -6  -7    1.48    1.17
   0  -6  -7   -0.28    1.11
   0  -6  -7    0.04    1.02
  -1  -6  -7    0.55    1.10
  -1  -6  -7    1.31    1.06
  -2  -6  -7   -0.82    0.88
  -2  -6  -7   -0.24    1.03
  -3  -6  -7   -0.10    0.97
   3  -6   7   -2.20    1.71
  -3  -6  -7    0.89    1.14
   4  -6   7   -1.00    1.93
  -4  -6  -7   -0.84    0.85
  -4  -6  -7    0.95    1.17
   5  -6   7    0.33    1.91
  -5  -6  -7   -0.65    1.05
  -6  -6  -7    0.70    1.28
   6  -6   7   -1.29    1.81
   5  -7  -7    0.65    1.28
   5  -7  -7    2.43    1.83
   4  -7  -7   -3.32    1.19
   4  -7  -7    0.89    1.10
   4  -7  -7    1.93    1.62
   3  -7  -7    0.23    1.12
   3  -7  -7    0.20    1.41
   3  -7  -7   -1.12    1.18
   2  -7  -7   -0.26    1.32
   2  -7  -7    0.72    1.31
   2  -7  -7   -0.79    1.04
   1  -7  -7    0.51    1.20
   1  -7  -7    1.81    1.46
   0  -7  -7    0.27    1.12
   0  -7  -7    0.72    1.16
  -1  -7  -7    0.87    1.21
  -1  -7  -7    0.77    1.23
  -2  -7  -7   -0.76    1.13
  -2  -7  -7   -0.07    1.15
  -3  -7  -7    0.02    1.11
  -3  -7  -7    0.21    1.22
  -4  -7  -7   -0.39    1.09
  -4  -7  -7    0.60    1.12
  -5  -7  -7    0.32    1.63
   1  -8  -7    0.27    2.03
   0  -8  -7    0.51    1.42
   0  -8  -7    1.71    1.97
   5   0  -8    3.69    0.77
   4   0  -8    0.59    0.41
   1   0  -8    1.91    0.56
  -1   0   8    0.25    0.60
   0   0  -8   83.38    6.29
   0   0   8   86.71    6.31
  -1   0  -8    1.81    0.47
  -2   0  -8    4.31    0.60
  -3   0  -8    2.58    0.43
  -5   0  -8    0.50    0.72
  -6   0  -8    2.12    0.86
  -7   0  -8   17.99    2.13
   6  -1  -8    5.69    1.16
   5  -1  -8    2.65    0.73
   4  -1  -8    1.10    0.56
   3  -1  -8   13.72    1.64
   3  -1  -8   13.18    1.40
   2  -1  -8    0.81    0.62
   1  -1  -8    0.70    0.52
   0  -1  -8    0.54    0.48
   0   1  -8    2.15    0.48
  -1  -1  -8   31.92    2.76
  -1   1  -8   34.12    2.54
  -2  -1  -8    1.33    0.49
  -3  -1  -8   13.39    1.72
  -3  -1  -8   10.00    1.16
  -4  -1  -8   12.06    1.66
  -5  -1  -8    3.02    0.98
  -6  -1  -8    1.28    0.85
  -6   1  -8    3.61    0.89
  -7  -1  -8    5.82    1.27
   7  -2  -8    0.65    0.92
   7  -2  -8    0.70    0.91
   6  -2  -8    3.04    1.00
   6  -2  -8    1.48    0.97
   5  -2  -8    1.48    0.77
   5  -2  -8    2.96    1.08
   4  -2  -8    0.31    0.54
   4  -2  -8    1.61    0.86
   3  -2  -8    9.80    1.43
   3  -2  -8    8.30    1.30
   2  -2  -8   18.34    2.02
   1  -2  -8    2.12    0.72
   0  -2  -8   39.96    3.33
  -1  -2  -8    1.70    0.68
  -1  -2  -8    0.72    0.71
   1  -2   8    2.36    0.84
  -1   2  -8    2.63    0.39
  -2  -2  -8    2.66    0.94
   2  -2   8    1.90    0.98
  -2  -2  -8    2.96    0.74
  -3  -2  -8    1.04    0.78
  -3  -2  -8    0.85    0.53
  -4  -2  -8   22.19    2.23
  -4  -2  -8   12.96    1.56
  -5  -2  -8    1.28    0.86
  -6  -2  -8    2.79    1.00
  -6   2  -8    0.33    1.04
  -7  -2  -8    6.81    1.50
  -8  -2  -8    2.34    1.19
   9  -3  -8    0.31    1.23
   8  -3  -8   -1.02    1.02
   8  -3  -8   -0.46    1.10
   7  -3  -8   -1.86    0.86
   7  -3  -8   -0.35    0.89
   6  -3  -8    1.19    0.91
   6  -3  -8    0.65    0.95
   5  -3  -8    3.34    0.97
   5  -3  -8    4.06    1.19
   4  -3  -8    3.55    1.04
   4  -3  -8    0.76    0.76
   3  -3  -8    3.68    1.11
   3  -3  -8    6.40    1.24
   2  -3  -8    0.75    0.72
   2  -3  -8   -0.05    0.65
   2  -3  -8   -0.44    0.70
   1  -3  -8    0.23    0.64
   1  -3  -8   -0.68    0.68
   0  -3  -8    1.97    0.84
   0  -3  -8    0.80    0.76
   1  -3   8   12.99    1.64
  -1  -3  -8   12.59    1.72
  -1  -3  -8   14.24    1.79
   2  -3   8    1.80    1.11
  -2  -3  -8    1.22    0.87
  -2  -3  -8    1.03    0.68
  -3  -3  -8    5.67    1.05
   3  -3   8    2.09    1.27
  -3  -3  -8    7.30    1.34
  -4  -3  -8    4.89    1.19
  -4  -3  -8    4.66    0.98
   4  -3   8    1.19    1.19
  -5  -3  -8    0.09    0.84
   5  -3   8    1.01    1.21
   6  -3   8   -0.38    1.22
  -6  -3  -8    0.35    0.89
  -7  -3  -8    1.09    1.10
   7  -3   8   -0.14    1.31
  -8  -3  -8    2.82    1.37
   8  -3   8    0.52    1.46
   8  -4  -8    0.76    1.21
   8  -4  -8   -0.46    1.04
   7  -4  -8   -2.00    0.85
   7  -4  -8    1.32    1.08
   6  -4  -8    0.96    0.90
   6  -4  -8    2.88    1.19
   6  -4  -8   -0.23    0.98
   5  -4  -8    1.88    0.93
   5  -4  -8    0.71    0.97
   5  -4  -8    1.09    0.90
   4  -4  -8    0.15    0.79
   4  -4  -8    1.58    0.92
   4  -4  -8    0.30    0.84
   3  -4  -8    2.80    0.96
   3  -4  -8    2.33    1.03
   3  -4  -8    0.72    0.88
   2  -4  -8    3.75    1.10
   2  -4  -8    1.77    0.91
   2  -4  -8    4.42    1.20
   1  -4  -8    1.82    0.99
   1  -4  -8    0.12    0.75
   0  -4  -8   11.08    1.66
   0  -4  -8    8.04    1.59
  -1  -4  -8    1.00    0.91
  -1  -4  -8    0.85    0.87
   2  -4   8    1.00    1.22
  -2  -4  -8    0.42    0.73
  -2  -4  -8    1.38    0.88
  -3  -4  -8   -0.14    0.78
   3  -4   8    0.72    1.36
  -3  -4  -8    0.34    0.66
  -4  -4  -8    1.37    1.01
   4  -4   8   -0.07    1.33
  -4  -4  -8    1.35    0.86
  -5  -4  -8    2.10    1.04
   5  -4   8    1.09    1.56
  -6  -4  -8    0.82    1.11
   6  -4   8   -0.98    1.49
  -7  -4  -8    0.18    1.10
   7  -4   8    0.93    1.59
   8  -4   8    0.04    1.58
  -8  -4  -8    0.92    1.23
   7  -5  -8    0.96    1.12
   7  -5  -8    0.06    1.14
   6  -5  -8   -0.63    0.88
   6  -5  -8    0.47    1.17
   5  -5  -8    0.34    1.13
   5  -5  -8    0.95    1.02
   5  -5  -8    0.89    1.12
   4  -5  -8    0.63    1.02
   4  -5  -8   -0.53    0.94
   4  -5  -8    1.24    1.07
   3  -5  -8    0.55    0.97
   3  -5  -8    0.04    0.94
   3  -5  -8    0.39    0.96
   2  -5  -8   -1.65    0.78
   2  -5  -8    0.35    1.06
   2  -5  -8   -0.95    0.89
   1  -5  -8    0.71    0.96
   1  -5  -8   -0.03    1.05
   0  -5  -8    0.36    0.86
   0  -5  -8    1.42    1.14
  -1  -5  -8    1.90    1.14
  -1  -5  -8    1.73    1.09
  -2  -5  -8    0.55    0.89
  -2  -5  -8    1.52    0.95
  -3  -5  -8    1.62    0.95
  -3  -5  -8    1.34    1.00
  -4  -5  -8   -0.23    0.96
   4  -5   8    0.86    1.78
  -4  -5  -8    0.97    0.90
  -5  -5  -8   -0.32    1.00
   5  -5   8   -2.48    1.56
   6  -5   8    0.31    1.72
  -6  -5  -8    0.49    1.12
   7  -5   8   -0.43    1.72
  -7  -5  -8    0.55    1.29
   6  -6  -8   -0.53    1.21
   6  -6  -8    0.19    1.01
   5  -6  -8   -1.32    0.96
   5  -6  -8   -1.14    0.98
   4  -6  -8   -0.35    1.04
   4  -6  -8    0.62    1.27
   4  -6  -8    0.59    1.12
   3  -6  -8   -0.04    0.99
   3  -6  -8    1.73    1.45
   3  -6  -8    1.31    1.20
   2  -6  -8    1.06    1.11
   2  -6  -8    0.68    1.36
   2  -6  -8    1.24    1.13
   1  -6  -8    0.33    1.05
   1  -6  -8    2.18    1.38
   0  -6  -8   -0.44    1.10
   0  -6  -8   -0.66    0.97
  -1  -6  -8   -0.67    0.87
  -1  -6  -8    0.28    1.08
  -2  -6  -8    0.86    1.11
  -2  -6  -8   -0.69    0.96
  -3  -6  -8   -0.81    0.98
  -3  -6  -8   -0.11    1.02
  -4  -6  -8    0.09    0.89
  -4  -6  -8    0.56    1.12
  -5  -6  -8    0.40    1.17
  -6  -6  -8    0.51    1.54
   4  -7  -8    0.81    1.86
   4  -7  -8    0.46    1.75
   4  -7  -8    0.89    1.37
   3  -7  -8   -0.03    1.23
   3  -7  -8   -2.12    1.29
   3  -7  -8    1.24    1.22
   2  -7  -8    2.41    1.55
   2  -7  -8   -0.13    1.30
   1  -7  -8   -0.37    1.17
   1  -7  -8    0.40    1.35
   0  -7  -8    0.15    1.20
   0  -7  -8    0.17    1.25
  -1  -7  -8   -0.10    1.22
  -1  -7  -8   -0.80    1.13
  -2  -7  -8    0.23    1.28
  -2  -7  -8   -2.13    1.00
  -3  -7  -8    0.73    1.40
  -3  -7  -8   -0.98    1.12
   2   0  -9    1.31    0.58
   1   0  -9    0.20    0.46
   0   0  -9    9.35    1.11
  -1   0  -9   14.86    1.41
  -2   0  -9    5.48    0.73
  -5   0  -9    8.21    1.49
  -6   0  -9   -0.11    0.79
  -7   0  -9    0.83    0.98
   4  -1  -9    0.01    0.62
   4  -1  -9    0.37    0.61
   3  -1  -9    0.79    0.64
   2  -1  -9   26.79    2.42
   1  -1  -9    0.33    0.50
   0  -1  -9    0.25    0.46
   0   1  -9   -0.23    0.35
  -1  -1  -9    1.80    0.62
  -1   1  -9    2.12    0.45
  -2  -1  -9    4.50    0.78
  -3  -1  -9    0.97    0.49
  -3  -1  -9    1.88    0.98
  -4  -1  -9    7.76    1.49
  -5  -1  -9    9.06    1.64
  -6  -1  -9    0.12    0.86
  -6   1  -9    0.23    0.79
  -7  -1  -9   10.88    1.78
   9  -2  -9    3.13    1.92
   8  -2  -9    1.30    1.19
   7  -2  -9    0.71    0.94
   6  -2  -9    0.98    0.94
   5  -2  -9    3.56    1.13
   5  -2  -9    1.03    0.72
   4  -2  -9   -0.34    0.69
   4  -2  -9    0.44    0.67
   3  -2  -9    6.96    1.18
   3  -2  -9    5.22    1.13
   2  -2  -9    0.23    0.62
   1  -2  -9   -0.75    0.49
   0  -2  -9    4.03    0.92
  -1  -2  -9    8.29    1.51
  -1  -2  -9    9.20    1.32
  -2  -2  -9    5.14    0.96
  -2  -2  -9    4.87    1.22
   2  -2   9    3.04    1.13
  -3  -2  -9   -0.01    0.46
  -3  -2  -9    1.42    0.89
  -4  -2  -9    4.72    1.21
  -4  -2  -9    2.59    0.70
  -5  -2  -9    5.89    1.42
  -6  -2  -9    0.00    0.93
  -7  -2  -9   -0.11    0.92
  -8  -2  -9    6.42    1.64
   8  -3  -9   -0.13    1.12
   7  -3  -9   -2.07    0.78
   6  -3  -9    2.29    1.09
   6  -3  -9   -0.20    0.76
   5  -3  -9    1.68    0.97
   5  -3  -9    0.17    0.78
   4  -3  -9   -0.13    0.76
   4  -3  -9    0.57    0.76
   3  -3  -9    0.34    0.72
   3  -3  -9    0.41    0.73
   2  -3  -9    6.28    1.38
   2  -3  -9    9.09    1.46
   1  -3  -9   -0.52    0.70
   1  -3  -9   -0.01    0.66
   0  -3  -9   -0.39    0.74
   0  -3  -9    0.69    0.75
  -1  -3  -9    0.90    0.74
  -1  -3  -9    1.80    0.92
  -2  -3  -9    1.53    0.93
  -2  -3  -9    0.60    0.68
   3  -3   9    0.93    1.19
  -3  -3  -9   -0.59    0.58
  -3  -3  -9    0.33    0.95
  -4  -3  -9    1.65    0.71
   4  -3   9    1.37    1.21
  -4  -3  -9    4.33    1.29
   5  -3   9   -0.67    1.21
  -5  -3  -9    1.96    1.13
   6  -3   9   -1.31    1.36
  -6  -3  -9   -0.79    0.89
  -7  -3  -9    2.53    1.31
   7  -3   9   -2.22    1.36
  -8  -3  -9   -0.13    1.08
   7  -4  -9   -0.86    0.92
   7  -4  -9   -1.48    0.91
   6  -4  -9   -0.48    0.93
   6  -4  -9    0.11    1.00
   6  -4  -9   -0.54    0.98
   5  -4  -9    0.63    0.96
   5  -4  -9   -0.67    0.90
   5  -4  -9   -0.04    0.96
   4  -4  -9   -0.32    0.89
   4  -4  -9    0.53    0.95
   4  -4  -9   -0.40    0.90
   3  -4  -9    2.05    1.02
   3  -4  -9    1.45    0.97
   3  -4  -9    0.45    0.86
   2  -4  -9    0.75    0.83
   2  -4  -9    0.10    0.85
   1  -4  -9   -0.18    0.84
   1  -4  -9   -0.13    0.81
   0  -4  -9    1.98    0.96
   0  -4  -9    0.06    0.85
  -1  -4  -9    3.00    1.14
  -1  -4  -9    1.62    0.92
  -2  -4  -9    0.35    0.77
  -2  -4  -9    0.60    0.98
  -3  -4  -9    0.24    0.97
  -3  -4  -9   -0.40    0.71
  -4  -4  -9    0.62    1.07
  -4  -4  -9    0.87    0.75
   5  -4   9   -1.19    2.59
  -5  -4  -9    0.44    0.98
   6  -4   9   -0.24    1.59
  -6  -4  -9    0.38    1.09
  -7  -4  -9   -0.76    1.11
   7  -4   9    1.77    1.79
   6  -5  -9    0.71    1.15
   6  -5  -9    0.55    1.12
   5  -5  -9   -0.09    1.00
   5  -5  -9   -0.55    1.03
   5  -5  -9   -0.87    0.98
   4  -5  -9    0.10    1.03
   4  -5  -9   -0.11    0.96
   4  -5  -9    1.43    1.14
   3  -5  -9    0.22    1.01
   3  -5  -9   -0.18    0.99
   3  -5  -9    0.57    1.00
   2  -5  -9    0.42    1.03
   2  -5  -9    2.03    1.27
   1  -5  -9   -0.29    0.92
   1  -5  -9   -0.77    0.94
   0  -5  -9   -0.87    0.91
   0  -5  -9    0.93    1.07
  -1  -5  -9    0.57    1.04
  -1  -5  -9    0.39    1.00
  -2  -5  -9    0.14    0.88
  -2  -5  -9   -0.30    1.03
  -3  -5  -9    0.03    0.81
  -3  -5  -9   -1.09    1.00
  -4  -5  -9   -1.11    0.99
  -4  -5  -9   -0.12    0.82
  -5  -5  -9    0.43    1.19
  -6  -5  -9    0.89    1.23
   5  -6  -9    0.78    1.36
   5  -6  -9    0.31    1.12
   4  -6  -9    0.12    1.11
   4  -6  -9   -0.57    1.21
   4  -6  -9   -1.18    1.25
   3  -6  -9   -0.93    1.20
   3  -6  -9    0.50    1.17
   3  -6  -9    0.76    1.23
   2  -6  -9   -0.15    1.10
   2  -6  -9    0.97    1.30
   1  -6  -9    0.93    1.20
   1  -6  -9    0.91    1.13
   0  -6  -9    0.52    1.14
   0  -6  -9   -0.94    1.04
  -1  -6  -9    0.52    1.17
  -1  -6  -9   -0.29    1.06
  -2  -6  -9   -0.58    1.07
  -2  -6  -9   -0.77    1.01
  -3  -6  -9    1.52    1.28
  -3  -6  -9    0.64    1.10
  -4  -6  -9    0.47    1.17
  -4  -6  -9    0.34    1.06
  -5  -6  -9   -0.77    1.60
   2  -7  -9   -1.10    1.71
   2  -7  -9   -1.51    1.83
   1  -7  -9    0.41    1.29
   1  -7  -9   -1.40    1.39
   0  -7  -9   -0.30    1.26
   0  -7  -9    1.17    1.32
  -1  -7  -9    0.27    1.26
  -1  -7  -9    0.48    1.41
   3   0 -10   -0.06    0.52
   2   0 -10   12.19    1.47
   1   0 -10    9.10    1.18
   0   0 -10    3.15    0.69
  -1   0 -10   10.69    1.24
  -5   0 -10   22.33    2.71
  -6   0 -10   -0.20    0.93
   5  -1 -10    5.84    1.25
   4  -1 -10    1.84    0.87
   3  -1 -10    2.01    0.81
   2  -1 -10    4.72    0.95
   1  -1 -10   11.37    1.41
   1   1 -10   10.96    1.26
   0  -1 -10    6.15    0.99
   0   1 -10    5.85    0.81
  -1  -1 -10    8.40    1.17
  -2  -1 -10   13.28    1.47
  -3  -1 -10   -0.16    0.91
  -4  -1 -10    9.51    1.78
  -5  -1 -10   -1.55    0.84
  -6  -1 -10    1.21    1.11
  -6   1 -10    2.40    1.14
  -7  -1 -10    2.09    1.15
   8  -2 -10    2.78    1.34
   7  -2 -10    0.61    1.02
   6  -2 -10    1.16    1.04
   5  -2 -10    0.97    0.95
   4  -2 -10    3.18    1.05
   3  -2 -10   -0.20    0.65
   2  -2 -10    7.08    1.22
   1  -2 -10    7.32    1.22
   0  -2 -10    2.70    0.85
  -1  -2 -10    4.24    0.97
  -1  -2 -10    6.05    1.41
  -2  -2 -10    1.98    1.13
  -2  -2 -10    3.47    0.85
  -3  -2 -10   -0.51    0.84
  -3  -2 -10   -0.44    0.52
  -4  -2 -10    1.50    1.10
  -5  -2 -10   11.11    1.95
  -6  -2 -10    0.78    1.08
  -7  -2 -10    0.47    1.12
   7  -3 -10    0.32    1.04
   6  -3 -10    0.44    1.00
   5  -3 -10    2.34    1.05
   4  -3 -10    1.41    0.94
   4  -3 -10   -1.22    0.69
   3  -3 -10    1.02    0.85
   2  -3 -10    2.38    0.89
   2  -3 -10    0.09    0.98
   1  -3 -10    2.58    0.89
   1  -3 -10    2.83    1.15
   0  -3 -10    0.63    0.99
   0  -3 -10    2.39    0.90
  -1  -3 -10    3.17    1.01
  -1  -3 -10    5.03    1.36
  -2  -3 -10    5.88    1.20
  -2  -3 -10    4.51    1.39
  -3  -3 -10   -0.10    0.65
  -3  -3 -10    1.13    1.12
  -4  -3 -10    2.01    0.82
  -4  -3 -10    3.73    1.41
  -5  -3 -10    0.54    1.14
  -6  -3 -10   -0.16    1.12
  -7  -3 -10   -1.18    1.10
   6  -4 -10    0.18    1.08
   6  -4 -10   -0.83    1.04
   5  -4 -10    0.27    1.00
   5  -4 -10   -0.03    0.94
   5  -4 -10   -0.22    1.07
   4  -4 -10    1.01    1.05
   4  -4 -10   -0.24    1.04
   4  -4 -10    2.02    1.05
   3  -4 -10    1.15    0.92
   3  -4 -10   -0.68    0.92
   2  -4 -10    1.01    1.09
   2  -4 -10    2.74    1.07
   1  -4 -10    1.16    0.97
   1  -4 -10    0.26    1.03
   0  -4 -10    0.96    1.07
   0  -4 -10    1.66    0.99
  -1  -4 -10    1.29    1.17
  -1  -4 -10    0.47    0.88
  -2  -4 -10    0.57    1.08
  -2  -4 -10   -0.30    0.73
  -3  -4 -10   -1.43    0.96
  -3  -4 -10    0.69    0.82
  -4  -4 -10    1.03    0.87
  -4  -4 -10    1.57    1.34
  -5  -4 -10    2.18    1.48
  -6  -4 -10    1.13    1.29
   5  -5 -10    0.44    1.28
   5  -5 -10    0.43    1.15
   5  -5 -10    1.86    1.31
   4  -5 -10   -0.98    0.93
   4  -5 -10   -0.27    1.07
   4  -5 -10    0.46    1.11
   3  -5 -10   -0.36    1.00
   3  -5 -10    0.20    1.08
   2  -5 -10    0.09    1.05
   2  -5 -10    0.28    1.11
   1  -5 -10    0.01    1.06
   1  -5 -10    0.69    1.09
   0  -5 -10   -1.52    0.90
   0  -5 -10    2.42    1.23
  -1  -5 -10    1.54    1.12
  -1  -5 -10    0.39    1.15
  -2  -5 -10    0.31    1.19
  -2  -5 -10    0.52    1.00
  -3  -5 -10   -0.80    0.83
  -3  -5 -10    1.07    1.28
  -4  -5 -10    2.16    1.31
  -4  -5 -10   -0.46    0.86
  -5  -5 -10    0.08    1.30
   3  -6 -10    0.17    1.24
   3  -6 -10    1.15    1.34
   2  -6 -10    0.46    1.31
   2  -6 -10   -1.57    1.18
   1  -6 -10   -0.28    1.11
   1  -6 -10   -0.52    1.15
   0  -6 -10   -0.12    1.10
   0  -6 -10    1.74    1.32
  -1  -6 -10   -0.62    1.11
  -1  -6 -10    0.51    1.22
  -2  -6 -10    1.00    1.35
  -2  -6 -10    0.59    1.24
  -3  -6 -10    0.39    1.35
  -3  -6 -10   -0.08    1.10
   4   0 -11    2.58    0.86
   3   0 -11    0.03    0.61
   2   0 -11    0.48    0.61
   1   0 -11    5.34    0.91
   0   0 -11    3.63    0.76
  -5   0 -11    0.87    1.16
  -6   0 -11    8.50    1.77
   7  -1 -11    0.24    0.96
   6  -1 -11    0.52    0.91
   5  -1 -11   -0.05    0.79
   4  -1 -11    4.96    1.18
   3  -1 -11    0.28    0.68
   2  -1 -11    2.02    0.75
   2   1 -11    4.12    0.80
   1  -1 -11    4.93    0.99
   1   1 -11    7.26    1.00
   0  -1 -11   -0.21    0.52
  -1  -1 -11    3.76    0.85
  -3  -1 -11    8.56    1.77
  -4  -1 -11   -0.88    1.09
  -5  -1 -11    8.87    1.90
  -6  -1 -11    1.82    1.27
  -7  -1 -11   -0.06    1.18
   7  -2 -11   -0.10    1.06
   6  -2 -11    0.73    0.99
   5  -2 -11    0.53    0.92
   4  -2 -11    0.18    0.83
   3  -2 -11   -0.57    0.66
   2  -2 -11    0.40    0.66
   1  -2 -11    3.34    0.93
   0  -2 -11    3.23    0.93
  -1  -2 -11    5.55    1.46
  -1  -2 -11    2.91    0.93
  -2  -2 -11    8.70    1.77
  -2  -2 -11    8.97    1.34
  -3  -2 -11   -1.77    0.92
  -4  -2 -11    1.65    1.31
  -5  -2 -11    3.09    1.48
  -6  -2 -11    2.27    1.41
  -7  -2 -11   -1.20    1.12
   6  -3 -11   -0.31    0.89
   5  -3 -11    1.08    0.95
   4  -3 -11    0.24    0.81
   3  -3 -11    0.58    0.81
   2  -3 -11    2.60    0.95
   2  -3 -11    0.91    1.08
   1  -3 -11    1.30    0.87
   1  -3 -11    2.54    1.14
   0  -3 -11   -0.50    0.98
   0  -3 -11   -0.36    0.74
  -1  -3 -11    0.27    0.80
  -1  -3 -11    1.72    1.15
  -2  -3 -11   -1.44    1.03
  -2  -3 -11    1.81    0.89
  -3  -3 -11    3.57    1.45
  -3  -3 -11    0.53    1.31
  -4  -3 -11   -0.95    1.16
  -5  -3 -11    5.41    1.72
  -6  -3 -11    0.06    1.35
   5  -4 -11   -1.71    1.05
   5  -4 -11    2.71    1.21
   4  -4 -11   -0.71    0.99
   4  -4 -11    0.10    0.89
   3  -4 -11   -1.25    0.79
   3  -4 -11   -1.57    0.94
   2  -4 -11    0.55    0.89
   2  -4 -11   -1.65    0.89
   1  -4 -11    0.78    0.94
   1  -4 -11   -0.46    1.04
   0  -4 -11    1.10    1.00
   0  -4 -11   -0.54    1.01
  -1  -4 -11    0.64    1.23
  -1  -4 -11    0.70    0.92
  -2  -4 -11    2.75    1.41
  -2  -4 -11    1.78    1.00
  -3  -4 -11    0.09    0.82
  -3  -4 -11    0.18    1.25
  -4  -4 -11   -0.66    1.21
  -5  -4 -11    0.48    1.35
   4  -5 -11    0.48    1.10
   4  -5 -11   -1.24    1.37
   3  -5 -11   -0.48    1.06
   3  -5 -11   -0.59    1.17
   2  -5 -11   -0.82    1.10
   2  -5 -11    1.13    1.10
   1  -5 -11   -0.19    1.21
   1  -5 -11    1.53    1.08
   0  -5 -11   -0.41    0.94
   0  -5 -11   -0.25    1.20
  -1  -5 -11   -1.24    0.94
  -1  -5 -11    0.72    1.24
  -2  -5 -11   -0.92    1.21
  -2  -5 -11    0.28    0.94
  -3  -5 -11   -1.31    1.19
  -3  -5 -11    0.21    0.99
  -4  -5 -11    0.72    1.08
   5   0 -12    0.50    0.86
   4   0 -12   -0.12    0.70
   3   0 -12    1.41    0.77
   2   0 -12   -0.10    0.55
  -4   0 -12   -0.94    1.01
  -5   0 -12    1.65    1.31
  -6   0 -12    6.42    1.74
   6  -1 -12    1.01    0.96
   5  -1 -12    0.23    0.86
   4  -1 -12    0.74    0.89
   3  -1 -12   -0.01    0.68
   3   1 -12   -0.27    0.60
   2  -1 -12    0.19    0.61
   1  -1 -12    1.28    0.65
  -3  -1 -12    2.49    1.35
  -4  -1 -12    0.61    1.13
  -5  -1 -12    2.93    1.36
  -5   1 -12    1.95    1.21
  -6  -1 -12    4.06    1.72
   6  -2 -12    0.44    0.93
   5  -2 -12    0.58    0.90
   4  -2 -12    1.34    0.80
   3  -2 -12    0.15    0.71
   2  -2 -12    0.37    0.66
   1  -2 -12    3.06    0.90
   0  -2 -12    0.15    0.69
  -1  -2 -12   -0.03    1.05
  -2  -2 -12   -1.08    1.03
  -3  -2 -12    4.15    1.51
  -4  -2 -12    0.34    1.27
  -5  -2 -12    2.52    1.54
   5  -3 -12    0.14    0.92
   4  -3 -12    0.58    0.88
   3  -3 -12    0.80    0.81
   2  -3 -12    0.50    0.81
   2  -3 -12   -1.11    1.02
   1  -3 -12   -1.33    1.00
   1  -3 -12    0.32    0.78
   0  -3 -12    1.42    0.90
   0  -3 -12    1.18    1.27
  -1  -3 -12   -0.24    0.77
  -1  -3 -12    0.03    1.13
  -2  -3 -12    1.95    1.46
  -3  -3 -12   -0.78    1.34
  -4  -3 -12   -0.39    1.25
  -5  -3 -12   -1.11    1.35
   4  -4 -12    0.65    0.88
   4  -4 -12    0.58    1.55
   3  -4 -12    1.05    1.21
   3  -4 -12   -0.14    0.84
   2  -4 -12   -0.73    0.90
   2  -4 -12   -0.56    1.14
   1  -4 -12    1.03    1.27
   1  -4 -12   -0.05    0.88
   0  -4 -12    0.57    1.29
   0  -4 -12    0.50    0.99
  -1  -4 -12    0.15    1.35
  -1  -4 -12    0.21    0.97
  -2  -4 -12   -1.25    1.31
  -2  -4 -12   -1.74    0.75
  -3  -4 -12   -1.54    1.28
   1  -5 -12   -0.72    0.98
   0  -5 -12   -1.70    0.96
   0  -5 -12    0.21    2.29
  -1  -5 -12    0.50    1.24
   5   0 -13    0.26    0.86
   4   0 -13    1.93    0.97
  -4   0 -13    0.52    1.21
  -5   0 -13   -0.09    1.78
   5  -1 -13    0.43    0.94
   5   1 -13   -0.10    0.90
   4  -1 -13    0.16    0.83
   3  -1 -13    2.36    0.90
   2  -1 -13    0.49    1.00
  -3  -1 -13    0.66    1.25
  -4  -1 -13    1.00    1.27
   4  -2 -13    1.14    0.89
   3  -2 -13    0.02    0.67
   2  -2 -13    0.64    0.75
   1  -2 -13    0.30    1.02
  -1  -2 -13    1.42    1.26
  -2  -2 -13    0.76    1.26
  -3  -2 -13    1.20    1.40
  -4  -2 -13   -1.78    1.25
   3  -3 -13    1.42    0.89
   3  -3 -13    0.77    1.38
   2  -3 -13    0.21    0.80
   2  -3 -13   -0.02    1.25
   1  -3 -13    2.23    1.04
   1  -3 -13    0.01    1.20
   0  -3 -13    0.79    1.26
  -1  -3 -13    0.01    1.31
  -2  -3 -13    2.65    1.49
  -3  -3 -13    1.07    1.84
   0  -4 -13    1.03    1.22
  -2  -1 -14   -1.48    1.41
   0   0   0    0.00    0.00
;
_shelx_hkl_checksum              63917
loop_
_space_group_symop_operation_xyz
'x, y, z'
'-x, y+1/2, -z'
loop_
_atom_site_label
_atom_site_type_symbol
_atom_site_fract_x
_atom_site_fract_y
_atom_site_fract_z
_atom_site_U_iso_or_equiv
_atom_site_adp_type
_atom_site_occupancy
_atom_site_site_symmetry_order
_atom_site_calc_flag
_atom_site_refinement_flags_posn
_atom_site_refinement_flags_adp
C1 C 0.5035(18) 0.521(7) 0.5984(13) 0.066(5) Uani 1 1 d . U
C2 C 0.3545(17) 0.541(7) 0.5879(14) 0.075(5) Uani 1 1 d . U
H2 H 0.303001 0.569988 0.658050 0.090 Uiso 1 1 calc R U
C3 C 0.275(2) 0.520(7) 0.4798(14) 0.080(5) Uani 1 1 d . U
H3 H 0.176638 0.483517 0.478181 0.096 Uiso 1 1 calc R U
C4 C 0.266(2) 0.505(6) 0.2577(16) 0.077(6) Uani 1 1 d . U
C5 C 0.4973(18) 0.540(7) 0.1455(13) 0.062(4) Uani 1 1 d . U
C6 C 0.7304(16) 0.543(7) 0.2643(13) 0.061(4) Uani 1 1 d . U
H6 H 0.776489 0.557061 0.189813 0.073 Uiso 1 1 calc R U
C7 C 0.8166(19) 0.554(7) 0.3717(15) 0.067(5) Uani 1 1 d . U
H7 H 0.918594 0.560450 0.369791 0.081 Uiso 1 1 calc R U
C8 C 0.7435(18) 0.555(6) 0.4778(14) 0.066(5) Uani 1 1 d . U
C9 C 0.5886(17) 0.514(6) 0.4892(13) 0.065(5) Uani 1 1 d . U
C10 C 0.5058(16) 0.528(7) 0.3766(12) 0.059(4) Uani 1 1 d . U
C11 C 0.5824(16) 0.511(5) 0.2639(12) 0.050(4) Uani 1 1 d . U
C12 C 0.3516(16) 0.559(6) 0.3734(14) 0.064(5) Uani 1 1 d . U
N1 N 0.3477(14) 0.515(5) 0.1499(11) 0.077(5) Uani 1 1 d D U
O1 O 0.1364(13) 0.582(2) 0.2550(10) 0.063(5) Uani 1 1 d . U
O2 O 0.5596(13) 0.511(4) 0.0512(8) 0.068(5) Uani 1 1 d . U
Br1 Br 0.5736(2) 0.5380(6) 0.76220(13) 0.0810(8) Uani 1 1 d . U
Br2 Br 0.8796(2) 0.5378(10) 0.61451(16) 0.1099(10) Uani 1 1 d . U
C15 C 0.085(2) 0.566(10) -0.1212(19) 0.176(19) Uani 1 1 d D .
H15A H 0.033526 0.670988 -0.158785 0.264 Uiso 1 1 calc R U
H15B H 0.142095 0.500465 -0.181333 0.264 Uiso 1 1 calc R U
H15C H 0.016287 0.478350 -0.086525 0.264 Uiso 1 1 calc R U
C13 C 0.264(3) 0.465(4) 0.0322(17) 0.089(11) Uani 1 1 d D .
H13A H 0.330944 0.413201 -0.027367 0.107 Uiso 1 1 calc R U
H13B H 0.189824 0.368213 0.048330 0.107 Uiso 1 1 calc R U
C14 C 0.192(3) 0.645(3) -0.017(2) 0.090(9) Uani 1 1 d D .
H14A H 0.263831 0.732908 -0.049743 0.108 Uiso 1 1 calc R U
H14B H 0.136982 0.710610 0.045850 0.108 Uiso 1 1 calc R U
loop_
_atom_site_aniso_label
_atom_site_aniso_U_11
_atom_site_aniso_U_22
_atom_site_aniso_U_33
_atom_site_aniso_U_23
_atom_site_aniso_U_13
_atom_site_aniso_U_12
C1 0.037(8) 0.117(12) 0.045(7) -0.002(16) -0.002(7) -0.006(15)
C2 0.043(9) 0.136(12) 0.048(8) -0.002(18) 0.018(7) 0.010(17)
C3 0.036(9) 0.147(14) 0.057(8) -0.024(17) -0.003(7) 0.011(16)
C4 0.033(9) 0.144(14) 0.056(8) -0.023(13) 0.000(7) 0.006(13)
C5 0.036(8) 0.110(10) 0.041(7) -0.019(15) 0.001(6) -0.020(14)
C6 0.027(8) 0.110(11) 0.045(7) 0.003(16) 0.007(6) -0.004(15)
C7 0.030(8) 0.114(13) 0.058(8) 0.007(15) 0.007(7) -0.002(14)
C8 0.029(8) 0.119(12) 0.050(8) -0.009(14) -0.016(7) -0.017(13)
C9 0.036(8) 0.114(12) 0.045(7) -0.005(13) 0.003(6) -0.014(12)
C10 0.029(7) 0.111(10) 0.037(6) -0.003(14) -0.002(6) -0.008(13)
C11 0.023(7) 0.091(11) 0.036(6) -0.004(12) 0.003(5) -0.020(11)
C12 0.019(7) 0.127(12) 0.045(7) -0.017(12) 0.001(6) 0.002(12)
N1 0.031(8) 0.149(13) 0.050(7) -0.022(14) -0.015(6) 0.001(14)
O1 0.025(6) 0.099(11) 0.064(6) -0.003(6) 0.002(5) 0.005(6)
O2 0.061(8) 0.119(13) 0.027(5) -0.004(12) 0.011(5) -0.021(12)
Br1 0.0681(13) 0.1319(18) 0.0426(10) 0.003(3) -0.0082(8) -0.001(3)
Br2 0.0414(12) 0.223(3) 0.0641(12) 0.009(5) -0.0215(9) -0.001(5)
C15 0.059(17) 0.39(6) 0.075(14) 0.03(5) -0.035(13) 0.00(5)
C13 0.057(16) 0.15(3) 0.056(14) 0.032(16) 0.005(11) 0.003(17)
C14 0.09(2) 0.085(17) 0.10(2) 0.005(16) 0.020(17) -0.009(17)
loop_
_atom_type_symbol
_atom_type_description
_atom_type_scat_dispersion_real
_atom_type_scat_dispersion_imag
_atom_type_scat_source
C C 0.0033 0.0016 'International Tables Vol C Tables 4.2.6.8 and 6.1.1.4'
H H 0.0000 0.0000 'International Tables Vol C Tables 4.2.6.8 and 6.1.1.4'
N N 0.0061 0.0033 'International Tables Vol C Tables 4.2.6.8 and 6.1.1.4'
O O 0.0106 0.0060 'International Tables Vol C Tables 4.2.6.8 and 6.1.1.4'
Br Br -0.2901 2.4595 'International Tables Vol C Tables 4.2.6.8 and 6.1.1.4'
loop_
_geom_angle_atom_site_label_1
_geom_angle_atom_site_label_2
_geom_angle_atom_site_label_3
_geom_angle
C2 C1 C9 118.9(14)
C2 C1 Br1 112.9(12)
C9 C1 Br1 127.8(12)
C1 C2 C3 124.4(16)
C1 C2 H2 117.8
C3 C2 H2 117.8
C2 C3 C12 116(2)
C2 C3 H3 122.2
C12 C3 H3 122.2
O1 C4 N1 117(2)
O1 C4 C12 112(2)
N1 C4 C12 114.8(16)
O2 C5 N1 119.5(16)
O2 C5 C11 118.2(19)
N1 C5 C11 116.5(16)
C11 C6 C7 123.2(14)
C11 C6 H6 118.4
C7 C6 H6 118.4
C8 C7 C6 116.5(15)
C8 C7 H7 121.8
C6 C7 H7 121.8
C7 C8 C9 124.7(16)
C7 C8 Br2 110.4(13)
C9 C8 Br2 122.2(13)
C1 C9 C10 115.5(15)
C1 C9 C8 127.2(16)
C10 C9 C8 114.0(15)
C12 C10 C11 119.1(13)
C12 C10 C9 122.3(14)
C11 C10 C9 118.6(15)
C6 C11 C10 118.6(15)
C6 C11 C5 118.2(16)
C10 C11 C5 118.6(15)
C3 C12 C10 117.4(19)
C3 C12 C4 113.2(19)
C10 C12 C4 118.3(18)
C5 N1 C4 124.9(12)
C5 N1 C13 118.6(15)
C4 N1 C13 115.8(16)
C14 C15 H15A 109.5
C14 C15 H15B 109.5
H15A C15 H15B 109.5
C14 C15 H15C 109.5
H15A C15 H15C 109.5
H15B C15 H15C 109.5
C14 C13 N1 108.5(19)
C14 C13 H13A 110.0
N1 C13 H13A 110.0
C14 C13 H13B 110.0
N1 C13 H13B 110.0
H13A C13 H13B 108.4
C13 C14 C15 103(2)
C13 C14 H14A 111.2
C15 C14 H14A 111.2
C13 C14 H14B 111.2
C15 C14 H14B 111.2
H14A C14 H14B 109.1
loop_
_geom_bond_atom_site_label_1
_geom_bond_atom_site_label_2
_geom_bond_distance
C1 C2 1.37(2)
C1 C9 1.44(2)
C1 Br1 1.899(14)
C2 C3 1.39(2)
C2 H2 0.9300
C3 C12 1.40(3)
C3 H3 0.9300
C4 O1 1.30(2)
C4 N1 1.41(2)
C4 C12 1.52(2)
C5 O2 1.205(19)
C5 N1 1.37(2)
C5 C11 1.51(2)
C6 C11 1.36(2)
C6 C7 1.41(2)
C6 H6 0.9300
C7 C8 1.35(2)
C7 H7 0.9300
C8 C9 1.45(2)
C8 Br2 1.931(15)
C9 C10 1.44(2)
C10 C12 1.42(2)
C10 C11 1.43(2)
N1 C13 1.528(14)
C15 C14 1.583(15)
C15 H15A 0.9600
C15 H15B 0.9600
C15 H15C 0.9600
C13 C14 1.515(15)
C13 H13A 0.9700
C13 H13B 0.9700
C14 H14A 0.9700
C14 H14B 0.9700
loop_
_geom_hbond_atom_site_label_D
_geom_hbond_atom_site_label_H
_geom_hbond_atom_site_label_A
_geom_hbond_distance_DH
_geom_hbond_distance_HA
_geom_hbond_distance_DA
_geom_hbond_angle_DHA
_geom_hbond_site_symmetry_A
_geom_hbond_publ_flag
C7 H7 O1 0.93 2.37 3.206(19) 149.2 1_655 yes
C14 H14A O2 0.97 2.52 3.43(3) 157.3 2_655 yes
C14 H14B O1 0.97 2.46 3.06(3) 120.0 . yes
C7 H7 O1 0.93 2.37 3.206(19) 149.2 1_655 yes
C14 H14A O2 0.97 2.52 3.43(3) 157.3 2_655 yes
C14 H14B O1 0.97 2.46 3.06(3) 120.0 . yes
loop_
_geom_torsion_atom_site_label_1
_geom_torsion_atom_site_label_2
_geom_torsion_atom_site_label_3
_geom_torsion_atom_site_label_4
_geom_torsion
C9 C1 C2 C3 12(7)
Br1 C1 C2 C3 -175(4)
C1 C2 C3 C12 -26(7)
C11 C6 C7 C8 -8(6)
C6 C7 C8 C9 11(6)
C6 C7 C8 Br2 173(3)
C2 C1 C9 C10 0(6)
Br1 C1 C9 C10 -172(3)
C2 C1 C9 C8 158(4)
Br1 C1 C9 C8 -14(7)
C7 C8 C9 C1 -177(4)
Br2 C8 C9 C1 23(6)
C7 C8 C9 C10 -18(6)
Br2 C8 C9 C10 -178(3)
C1 C9 C10 C12 3(6)
C8 C9 C10 C12 -158(4)
C1 C9 C10 C11 -177(4)
C8 C9 C10 C11 22(5)
C7 C6 C11 C10 13(6)
C7 C6 C11 C5 168(4)
C12 C10 C11 C6 160(4)
C9 C10 C11 C6 -21(6)
C12 C10 C11 C5 4(6)
C9 C10 C11 C5 -176(4)
O2 C5 C11 C6 30(6)
N1 C5 C11 C6 -177(4)
O2 C5 C11 C10 -175(4)
N1 C5 C11 C10 -22(5)
C2 C3 C12 C10 28(6)
C2 C3 C12 C4 171(4)
C11 C10 C12 C3 162(3)
C9 C10 C12 C3 -18(7)
C11 C10 C12 C4 20(6)
C9 C10 C12 C4 -159(3)
O1 C4 C12 C3 53(5)
N1 C4 C12 C3 -171(3)
O1 C4 C12 C10 -164(3)
N1 C4 C12 C10 -28(5)
O2 C5 N1 C4 166(4)
C11 C5 N1 C4 14(6)
O2 C5 N1 C13 -4(6)
C11 C5 N1 C13 -157(3)
O1 C4 N1 C5 144(4)
C12 C4 N1 C5 10(6)
O1 C4 N1 C13 -45(4)
C12 C4 N1 C13 -179(3)
C5 N1 C13 C14 -101(4)
C4 N1 C13 C14 88(3)
N1 C13 C14 C15 -169.2(18)
