#------------------------------------------------------------------------------
#$Date: 2019-11-03 13:46:42 +0200 (Sun, 03 Nov 2019) $
#$Revision: 221567 $
#$URL: file:///home/coder/svn-repositories/cod/cif/4/12/84/4128463.cif $
#------------------------------------------------------------------------------
#
# This file is available in the Crystallography Open Database (COD),
# http://www.crystallography.net/
#
# All data on this site have been placed in the public domain by the
# contributors.
#
data_4128463
loop_
_publ_author_name
'Hung, Kevin'
'Condakes, Matthew L.'
'Novaes, Luiz F. T.'
'Harwood, Stephen J.'
'Morikawa, Takahiro'
'Yang, Zhi'
'Maimone, Thomas J.'
_publ_section_title
;
 Development of a Terpene Feedstock-Based Oxidative Synthetic Approach to
 the Illicium Sesquiterpenes.
;
_journal_issue                   7
_journal_name_full               'Journal of the American Chemical Society'
_journal_page_first              3083
_journal_page_last               3099
_journal_paper_doi               10.1021/jacs.8b12247
_journal_volume                  141
_journal_year                    2019
_chemical_absolute_configuration ad
_chemical_formula_sum            'C15 H22 O5'
_chemical_formula_weight         282.32
_chemical_name_common            ZY_072_lit
_space_group_crystal_system      triclinic
_space_group_IT_number           1
_space_group_name_Hall           'P 1'
_space_group_name_H-M_alt        'P 1'
_atom_sites_solution_hydrogens   mixed
_atom_sites_solution_primary     iterative
_atom_sites_solution_secondary   difmap
_audit_creation_method           SHELXL-2014/7
_cell_angle_alpha                62.655(7)
_cell_angle_beta                 69.084(8)
_cell_angle_gamma                82.665(8)
_cell_formula_units_Z            1
_cell_length_a                   6.2584(10)
_cell_length_b                   7.9523(13)
_cell_length_c                   8.4873(13)
_cell_measurement_reflns_used    9865
_cell_measurement_temperature    100(2)
_cell_measurement_theta_max      26.46
_cell_measurement_theta_min      2.87
_cell_volume                     350.14(10)
_computing_cell_refinement       'Bruker SAINT'
_computing_data_collection       'Bruker APEX2'
_computing_data_reduction        'Bruker SAINT'
_computing_molecular_graphics    Mercury
_computing_publication_material  WinGX
_computing_structure_refinement  'SHELXL-2014/7 (Sheldrick, 2014)'
_computing_structure_solution    'SHELXT (Sheldrick 2014)'
_diffrn_ambient_temperature      100(2)
_diffrn_detector_area_resol_mean 8.366
_diffrn_measured_fraction_theta_full 0.981
_diffrn_measured_fraction_theta_max 0.978
_diffrn_measurement_device_type  'Bruker APEX-II CCD'
_diffrn_measurement_method       'phi and omega scans'
_diffrn_radiation_type           MoK\a
_diffrn_radiation_wavelength     0.71073
_diffrn_reflns_av_R_equivalents  0.0287
_diffrn_reflns_av_unetI/netI     0.0223
_diffrn_reflns_Laue_measured_fraction_full 0.981
_diffrn_reflns_Laue_measured_fraction_max 0.978
_diffrn_reflns_limit_h_max       7
_diffrn_reflns_limit_h_min       -7
_diffrn_reflns_limit_k_max       9
_diffrn_reflns_limit_k_min       -9
_diffrn_reflns_limit_l_max       10
_diffrn_reflns_limit_l_min       -10
_diffrn_reflns_number            18986
_diffrn_reflns_point_group_measured_fraction_full 0.968
_diffrn_reflns_point_group_measured_fraction_max 0.962
_diffrn_reflns_theta_full        25.000
_diffrn_reflns_theta_max         26.465
_diffrn_reflns_theta_min         2.872
_diffrn_source                   'microfocus sealed tube'
_exptl_absorpt_coefficient_mu    0.100
_exptl_absorpt_correction_T_max  0.745
_exptl_absorpt_correction_T_min  0.711
_exptl_absorpt_correction_type   multi-scan
_exptl_absorpt_process_details   SADABS
_exptl_crystal_colour            Colourless
_exptl_crystal_density_diffrn    1.339
_exptl_crystal_description       Block
_exptl_crystal_F_000             152
_exptl_crystal_size_max          0.140
_exptl_crystal_size_mid          0.140
_exptl_crystal_size_min          0.070
_refine_diff_density_max         0.292
_refine_diff_density_min         -0.196
_refine_diff_density_rms         0.044
_refine_ls_abs_structure_details
;
 Flack x determined using 1246 quotients [(I+)-(I-)]/[(I+)+(I-)]
 (Parsons, Flack and Wagner, Acta Cryst. B69 (2013) 249-259).
;
_refine_ls_abs_structure_Flack   0.0(3)
_refine_ls_extinction_method     none
_refine_ls_goodness_of_fit_ref   1.028
_refine_ls_hydrogen_treatment    mixed
_refine_ls_matrix_type           full
_refine_ls_number_parameters     193
_refine_ls_number_reflns         2775
_refine_ls_number_restraints     3
_refine_ls_restrained_S_all      1.027
_refine_ls_R_factor_all          0.0364
_refine_ls_R_factor_gt           0.0348
_refine_ls_shift/su_max          0.000
_refine_ls_shift/su_mean         0.000
_refine_ls_structure_factor_coef Fsqd
_refine_ls_weighting_details
'w=1/[\s^2^(Fo^2^)+(0.0608P)^2^+0.0503P] where P=(Fo^2^+2Fc^2^)/3'
_refine_ls_weighting_scheme      calc
_refine_ls_wR_factor_gt          0.0878
_refine_ls_wR_factor_ref         0.0887
_reflns_Friedel_coverage         0.967
_reflns_Friedel_fraction_full    0.956
_reflns_Friedel_fraction_max     0.945
_reflns_number_gt                2670
_reflns_number_total             2775
_reflns_threshold_expression     'I > 2\s(I)'
_cod_data_source_file            ja8b12247_si_004.cif
_cod_data_source_block           zy_072_lit
_cod_database_code               4128463
_shelx_shelxl_version_number     2014/7
_shelx_space_group_comment
;
The symmetry employed for this shelxl refinement is uniquely defined
by the following loop, which should always be used as a source of
symmetry information in preference to the above space-group names.
They are only intended as comments.
;
_shelx_estimated_absorpt_t_min   0.986
_shelx_estimated_absorpt_t_max   0.993
_shelx_res_file
;
 
    shelx.res created by SHELXL-2014/7
 
TITL shelxt_a.res in P1
CELL  0.71073   6.25840   7.95230   8.48730   62.6554   69.0841   82.6650
ZERR     1.00   0.00100   0.00130   0.00130    0.0072    0.0075    0.0080
LATT  -1
SFAC  C    H    O
UNIT  15 22 5
MERG   2
FMAP   2
PLAN   20
SIZE     0.070   0.140   0.140
ACTA    50.00
BOND   $H
LIST   4
WPDB  -2
L.S.  10
TEMP  -173.00
WGHT    0.060800    0.050300
FVAR       0.72329
C1    1    0.864485    0.756561    0.052717    11.00000    0.02696    0.02596 =
         0.02014   -0.00633    0.00276   -0.00163
AFIX 137
H1A   2    0.992659    0.722984   -0.033962    11.00000   -1.50000
H1B   2    0.918821    0.848514    0.078373    11.00000   -1.50000
H1C   2    0.745797    0.812305   -0.004566    11.00000   -1.50000
AFIX   0
C2    1    0.765367    0.579329    0.236454    11.00000    0.01489    0.02009 =
         0.01556   -0.00816   -0.00254    0.00080
AFIX  13
H2    2    0.892484    0.518664    0.286370    11.00000   -1.20000
AFIX   0
C3    1    0.661916    0.433768    0.206914    11.00000    0.02582    0.03232 =
         0.02136   -0.01700   -0.00180   -0.00420
AFIX  23
H3A   2    0.637874    0.495645    0.083631    11.00000   -1.20000
H3B   2    0.767353    0.329444    0.208532    11.00000   -1.20000
AFIX   0
C4    1    0.431710    0.355325    0.367778    11.00000    0.02078    0.02185 =
         0.01858   -0.01104   -0.00593   -0.00257
AFIX  23
H4A   2    0.420310    0.215509    0.421808    11.00000   -1.20000
H4B   2    0.302525    0.408465    0.320709    11.00000   -1.20000
AFIX   0
C5    1    0.426456    0.416031    0.518579    11.00000    0.01256    0.01562 =
         0.01502   -0.00740   -0.00360   -0.00101
AFIX  13
H5    2    0.264830    0.443577    0.576465    11.00000   -1.20000
AFIX   0
C6    1    0.505562    0.260676    0.679410    11.00000    0.01693    0.01422 =
         0.01516   -0.00613   -0.00368   -0.00044
C7    1    0.736302    0.180303    0.609544    11.00000    0.02299    0.01892 =
         0.01758   -0.00768   -0.00504    0.00583
AFIX 137
H7A   2    0.768131    0.074829    0.717112    11.00000   -1.50000
H7B   2    0.857576    0.279731    0.545415    11.00000   -1.50000
H7C   2    0.730815    0.134930    0.521407    11.00000   -1.50000
AFIX   0
C8    1    0.323773    0.096271    0.797547    11.00000    0.02622    0.01787 =
         0.01855   -0.00555   -0.00630   -0.00351
AFIX 137
H8A   2    0.329077    0.028862    0.724397    11.00000   -1.50000
H8B   2    0.171616    0.146651    0.830259    11.00000   -1.50000
H8C   2    0.354906    0.008645    0.913188    11.00000   -1.50000
AFIX   0
C9    1    0.523549    0.344620    0.809970    11.00000    0.01583    0.01845 =
         0.01394   -0.00614   -0.00614    0.00259
C10   1    0.291923    0.394300    0.921823    11.00000    0.01708    0.02710 =
         0.01628   -0.01244   -0.00370    0.00157
AFIX 137
H10A  2    0.205481    0.277411    1.023703    11.00000   -1.50000
H10B  2    0.204412    0.464785    0.837399    11.00000   -1.50000
H10C  2    0.318567    0.472299    0.975505    11.00000   -1.50000
AFIX   0
C11   1    0.690158    0.515917    0.685017    11.00000    0.01415    0.02076 =
         0.01759   -0.01331   -0.00481    0.00379
C12   1    0.644670    0.676260    0.511815    11.00000    0.01278    0.01541 =
         0.01995   -0.00953   -0.00487   -0.00007
C13   1    0.308480    0.823459    0.482278    11.00000    0.01580    0.01408 =
         0.02259   -0.00777   -0.00688   -0.00118
C14   1    0.407762    0.766613    0.324609    11.00000    0.01481    0.01968 =
         0.01768   -0.00704   -0.00575   -0.00001
AFIX  23
H14A  2    0.493976    0.874483    0.205624    11.00000   -1.20000
H14B  2    0.286026    0.719399    0.304042    11.00000   -1.20000
AFIX   0
C15   1    0.568047    0.607966    0.395105    11.00000    0.01378    0.01695 =
         0.01512   -0.00662   -0.00437    0.00020
O1    3    0.616359    0.208692    0.946832    11.00000    0.02070    0.02201 =
         0.01852   -0.00455   -0.00924    0.00129
O2    3    0.862348    0.525982    0.714897    11.00000    0.01826    0.02712 =
         0.02527   -0.00970   -0.01153    0.00089
O3    3    0.827111    0.805827    0.397809    11.00000    0.01708    0.02002 =
         0.02436   -0.00636   -0.00954   -0.00376
O4    3    0.445616    0.768004    0.589065    11.00000    0.01704    0.01842 =
         0.02394   -0.01235   -0.00940    0.00491
O5    3    0.137321    0.905161    0.519448    11.00000    0.01686    0.02279 =
         0.03329   -0.01722   -0.01000    0.00485
H1    2    0.748982    0.243718    0.929785    11.00000    0.04541
H3    2    0.881646    0.817402    0.464651    11.00000    0.02370
HKLF    4
 
REM  shelxt_a.res in P1
REM R1 =  0.0348 for    2670 Fo > 4sig(Fo)  and  0.0364 for all    2775 data
REM    193 parameters refined using      3 restraints
 
END
 
WGHT      0.0585      0.0563
 
REM Highest difference peak  0.292,  deepest hole -0.196,  1-sigma level  0.044
Q1    1   0.5152  0.3053  0.7500  11.00000  0.05    0.29
Q2    1   0.4103  0.3817  0.8650  11.00000  0.05    0.28
Q3    1   0.6749  0.5983  0.3232  11.00000  0.05    0.28
Q4    1   0.6166  0.6328  0.4533  11.00000  0.05    0.26
Q5    1   0.5019  0.5157  0.4590  11.00000  0.05    0.24
Q6    1   0.4736  0.3316  0.5995  11.00000  0.05    0.24
Q7    1   0.6139  0.2217  0.6325  11.00000  0.05    0.23
Q8    1   0.7179  0.4982  0.2356  11.00000  0.05    0.22
Q9    1   0.4217  0.3819  0.4621  11.00000  0.05    0.22
Q10   1   0.6617  0.5867  0.6042  11.00000  0.05    0.21
Q11   1   0.4205  0.1799  0.7390  11.00000  0.05    0.21
Q12   1   0.3626  0.7905  0.3934  11.00000  0.05    0.20
Q13   1   0.5588  0.2964  0.8535  11.00000  0.05    0.20
Q14   1   0.5901  0.4307  0.7510  11.00000  0.05    0.18
Q15   1   0.5338  0.7007  0.5760  11.00000  0.05    0.18
Q16   1   0.5083  0.6907  0.3377  11.00000  0.05    0.17
Q17   1   0.8096  0.4939  0.6525  11.00000  0.05    0.16
Q18   1   0.4696  0.8794  0.2569  11.00000  0.05    0.16
Q19   1   0.7334  0.0588  0.6788  11.00000  0.05    0.14
Q20   1   0.7286  0.5593  0.7545  11.00000  0.05    0.14
;
_shelx_res_checksum              28690
_shelx_hkl_file
;
  -1   0   0  987.48   28.57
  -1   0   0  956.73   28.18
  -1   0   0  982.53   28.11
  -1   0   0  957.23   28.36
  -1   0   0  962.03   28.07
  -1   0   0  926.60   28.14
  -1   0   0  957.49   28.58
  -1   0   0  946.98   28.21
  -1   0   0  982.89   28.36
  -1   0   0 1000.00   28.74
  -1   0   0  937.89   28.18
  -1   0   0  947.17   28.51
  -1   0   0  991.15   28.22
  -1   0   0  956.57   28.94
  -1   0   0  963.96   28.19
  -1   0   0  935.60   28.32
  -1   0   0  967.24   28.63
   1   0   0  989.45   28.20
   1   0   0  912.38   28.11
   1   0   0  982.25   28.57
   1   0   0  980.94   28.60
   1   0   0  940.65   28.40
   1   0   0  947.21   28.19
   1   0   0  952.91   28.54
   1   0   0  958.20   28.15
   1   0   0  962.07   28.28
   1   0   0  949.18   28.58
   1   0   0  973.57   28.19
   1   0   0  965.15   28.18
   1   0   0  960.96   28.10
   1   0   0  954.65   28.39
   1   0   0  937.08   28.18
   1   0   0  983.12   28.15
   1   0   0  931.06   28.91
   1   0   0  997.71   28.21
  -2   0   0  139.00    4.59
  -2   0   0  146.37    4.63
  -2   0   0  140.84    4.61
  -2   0   0  143.29    4.68
  -2   0   0  144.28    4.48
  -2   0   0  143.26    4.36
  -2   0   0  143.09    4.40
  -2   0   0  138.14    4.57
  -2   0   0  142.01    4.61
  -2   0   0  137.64    5.16
  -2   0   0  143.72    4.67
  -2   0   0  148.36    4.56
  -2   0   0  138.76    4.62
  -2   0   0  139.45    4.48
  -2   0   0  143.82    4.51
  -2   0   0  140.63    4.60
  -2   0   0  144.71    4.54
   2   0   0  144.32    4.40
   2   0   0  144.64    4.53
   2   0   0  145.62    4.62
   2   0   0  142.68    4.65
   2   0   0  139.65    4.59
   2   0   0  150.36    4.55
   2   0   0  147.08    4.35
   2   0   0  151.98    4.53
   2   0   0  145.00    4.49
   2   0   0  139.83    4.56
   2   0   0  141.58    4.62
   2   0   0  144.42    5.28
   2   0   0  152.52    4.68
   2   0   0  139.17    4.46
   2   0   0  140.75    4.54
   2   0   0  139.07    4.61
   2   0   0  145.85    4.62
   2   0   0  146.19    4.44
   2   0   0  141.95    4.48
   2   0   0  145.06    4.63
  -3   0   0   31.48    1.34
  -3   0   0   29.07    1.43
  -3   0   0   32.56    1.25
  -3   0   0   31.67    1.43
  -3   0   0   33.69    1.61
  -3   0   0   32.60    1.52
  -3   0   0   31.69    1.40
  -3   0   0   31.27    1.36
  -3   0   0   30.11    1.48
  -3   0   0   31.99    1.50
  -3   0   0   32.83    1.57
  -3   0   0   33.57    1.50
   3   0   0   28.88    1.51
   3   0   0   29.38    1.44
   3   0   0   32.18    1.51
   3   0   0   31.96    1.51
   3   0   0   28.59    1.41
   3   0   0   31.17    1.29
   3   0   0   32.50    1.33
   3   0   0   30.82    1.55
   3   0   0   30.75    1.52
   3   0   0   32.04    1.38
   3   0   0   31.13    1.53
   3   0   0   32.06    1.52
   3   0   0   32.72    2.25
   3   0   0   30.12    1.24
   3   0   0   32.74    1.51
   3   0   0   30.98    1.44
   3   0   0   33.22    1.18
  -4   0   0   30.70    1.47
  -4   0   0   33.33    1.60
  -4   0   0   30.87    1.68
  -4   0   0   31.97    1.76
  -4   0   0   33.55    1.57
  -4   0   0   29.68    1.50
  -4   0   0   31.28    1.34
  -4   0   0   30.20    1.62
  -4   0   0   30.55    1.60
  -4   0   0   31.84    1.65
   4   0   0   30.08    1.68
   4   0   0   31.18    1.59
   4   0   0   30.27    1.36
   4   0   0   30.08    1.23
   4   0   0   30.41    2.53
   4   0   0   32.97    1.68
   4   0   0   32.47    1.75
   4   0   0   32.04    1.73
   4   0   0   34.86    1.68
   4   0   0   30.64    1.59
   4   0   0   29.49    1.68
   4   0   0   31.26    1.51
   4   0   0   30.59    1.65
   4   0   0   32.30    1.70
   4   0   0   31.92    1.44
  -5   0   0   17.47    1.17
  -5   0   0   20.00    1.57
  -5   0   0   19.09    1.33
  -5   0   0   19.73    1.51
  -5   0   0   18.78    1.43
  -5   0   0   19.67    1.55
  -5   0   0   18.79    1.25
  -5   0   0   17.60    1.29
  -5   0   0   16.91    1.02
  -5   0   0   19.93    1.44
   5   0   0   18.48    1.42
   5   0   0   17.51    1.99
   5   0   0   17.39    1.45
   5   0   0   18.49    1.37
   5   0   0   17.37    1.39
   5   0   0   15.08    1.36
   5   0   0   18.56    0.90
   5   0   0   18.34    1.32
   5   0   0   18.59    2.38
   5   0   0   19.63    1.26
   5   0   0   15.60    1.09
   5   0   0   21.45    1.56
   5   0   0   17.85    1.34
  -6   0   0   10.37    1.18
  -6   0   0   11.82    1.45
  -6   0   0   10.84    1.30
  -6   0   0   10.71    1.45
  -6   0   0   11.83    1.11
  -6   0   0   11.34    1.15
  -6   0   0   12.35    0.93
  -6   0   0    7.82    1.25
  -6   0   0   10.20    1.03
   6   0   0   10.13    0.73
   6   0   0   10.89    1.29
   6   0   0   11.68    1.46
   6   0   0    8.43    0.91
   6   0   0   11.33    1.22
   6   0   0   12.29    1.20
  -7   0   0   20.95    1.63
  -7   0   0   19.16    1.29
  -7   0   0   17.52    1.93
  -7   0   0   22.00    1.68
  -7   0   0   20.24    1.89
  -7   0   0   21.50    1.76
   7   0   0   21.17    2.12
   7   0   0   20.08    1.06
   7   0   0   18.24    1.59
   7  -1   0   12.19    1.15
   7  -1   0   12.15    1.73
  -7   1   0   12.01    1.31
  -7   1   0   14.05    1.13
  -7   1   0   12.26    1.45
  -7   1   0   13.71    2.34
  -7   1   0   11.21    1.27
   6  -1   0    4.66    0.73
   6  -1   0    4.49    0.88
   6  -1   0    5.74    0.95
   6  -1   0    6.05    1.24
   6  -1   0    5.13    0.88
  -6   1   0    4.38    0.79
  -6   1   0    5.31    1.10
  -6   1   0    6.76    1.19
  -6   1   0    5.42    0.85
  -6   1   0    5.82    1.02
  -6   1   0    5.02    0.69
  -6   1   0    5.30    1.04
  -6   1   0    4.60    0.93
  -6   1   0    3.55    0.97
   5  -1   0    7.82    0.81
   5  -1   0    7.48    1.05
   5  -1   0   10.60    1.05
   5  -1   0    7.33    1.03
   5  -1   0    8.69    0.50
   5  -1   0    8.23    0.85
   5  -1   0    8.06    0.94
   5  -1   0    9.22    1.08
   5  -1   0    9.29    1.00
   5  -1   0    9.02    0.94
   5  -1   0    8.82    0.77
   5  -1   0    9.63    1.11
  -5   1   0    7.47    0.96
  -5   1   0    8.53    0.88
  -5   1   0    7.59    1.04
  -5   1   0    8.49    1.05
  -5   1   0    8.68    1.10
  -5   1   0    8.24    0.81
  -5   1   0    8.79    0.73
  -5   1   0    8.17    1.18
  -5   1   0    9.89    0.98
   4  -1   0   10.80    0.97
   4  -1   0   11.93    1.01
   4  -1   0   10.62    0.92
   4  -1   0   10.42    0.90
   4  -1   0   11.65    0.54
   4  -1   0   10.24    0.80
   4  -1   0   10.60    0.65
   4  -1   0   10.94    0.90
   4  -1   0   10.92    0.87
   4  -1   0    9.61    0.71
   4  -1   0   11.99    0.95
   4  -1   0   10.17    0.95
   4  -1   0   12.70    1.02
   4  -1   0   11.85    0.82
   4  -1   0   10.66    0.87
   4  -1   0    9.95    0.57
  -4   1   0   10.47    0.89
  -4   1   0   10.08    0.84
  -4   1   0   12.54    0.96
  -4   1   0   10.85    0.95
  -4   1   0   11.63    1.02
  -4   1   0   12.54    1.06
  -4   1   0   10.60    0.88
  -4   1   0   10.69    0.87
  -4   1   0   10.62    0.80
  -4   1   0   11.36    0.72
  -4   1   0    8.94    1.01
   3  -1   0   14.91    0.69
   3  -1   0   13.41    0.88
   3  -1   0   16.76    0.95
   3  -1   0   15.94    0.98
   3  -1   0   14.91    0.81
   3  -1   0   15.07    0.99
   3  -1   0   15.68    0.60
   3  -1   0   14.95    0.93
   3  -1   0   14.27    0.76
   3  -1   0   15.87    0.93
   3  -1   0   15.83    0.83
   3  -1   0   17.34    0.97
   3  -1   0   15.10    0.97
   3  -1   0   15.85    0.96
   3  -1   0   14.19    0.63
   3  -1   0   16.23    0.89
  -3   1   0   15.23    0.76
  -3   1   0   14.21    0.83
  -3   1   0   15.52    0.99
  -3   1   0   13.91    0.88
  -3   1   0   15.07    0.98
  -3   1   0   13.99    1.03
  -3   1   0   14.71    0.91
  -3   1   0   13.90    0.98
  -3   1   0   15.03    0.87
  -3   1   0   16.16    0.91
  -3   1   0   15.30    0.83
  -3   1   0   15.15    0.94
   2  -1   0   65.69    2.10
   2  -1   0   63.69    2.31
   2  -1   0   68.72    2.38
   2  -1   0   66.24    2.32
   2  -1   0   65.92    2.32
   2  -1   0   66.54    2.31
   2  -1   0   66.02    2.36
   2  -1   0   67.95    2.19
   2  -1   0   67.81    2.28
   2  -1   0   68.99    2.23
   2  -1   0   64.45    2.34
   2  -1   0   66.09    2.31
   2  -1   0   64.42    2.29
   2  -1   0   67.14    2.21
  -2   1   0   63.44    2.33
  -2   1   0   68.56    2.36
  -2   1   0   62.06    2.25
  -2   1   0   67.17    2.18
  -2   1   0   66.51    2.24
  -2   1   0   69.67    2.35
  -2   1   0   66.34    2.95
  -2   1   0   65.43    2.39
  -2   1   0   66.59    2.36
  -2   1   0   68.66    2.31
  -2   1   0   68.20    2.16
  -2   1   0   66.72    2.25
  -2   1   0   68.31    2.22
  -2   1   0   70.77    2.10
  -2   1   0   70.90    2.32
  -2   1   0   65.76    2.34
  -2   1   0   63.13    2.37
   1  -1   0  778.36   22.97
   1  -1   0  773.09   22.98
   1  -1   0  809.42   22.89
   1  -1   0  763.10   23.46
   1  -1   0  780.18   22.95
   1  -1   0  760.31   22.96
  -1   1   0  783.15   23.02
  -1   1   0  806.38   22.98
  -1   1   0  804.37   22.98
  -1   1   0  783.83   22.95
  -1   1   0  776.01   22.95
  -1   1   0  785.95   22.90
  -1   1   0  764.54   22.91
  -1   1   0  806.86   22.96
  -1   1   0  756.15   22.98
  -1   1   0  777.64   22.89
  -1   1   0  809.88   22.98
  -1   1   0  743.02   22.89
  -1   1   0  785.05   22.94
  -1   1   0  770.30   22.99
  -1   1   0  771.22   22.97
  -1   1   0  837.29   23.40
   0  -1   0  318.31    9.42
   0   1   0  329.12    9.41
   0   1   0  303.49    9.33
  -1  -1   0   59.62    1.92
  -1  -1   0   61.88    2.01
  -1  -1   0   58.00    2.00
  -1  -1   0   62.21    2.01
  -1  -1   0   63.12    2.00
  -1  -1   0   60.78    2.02
  -1  -1   0   58.47    2.03
  -1  -1   0   60.79    1.85
  -1  -1   0   59.21    1.90
  -1  -1   0   58.20    2.02
  -1  -1   0   60.15    1.94
  -1  -1   0   60.69    1.97
  -1  -1   0   60.26    2.22
  -1  -1   0   56.79    1.92
  -1  -1   0   59.95    1.99
   1   1   0   63.65    2.03
   1   1   0   60.17    2.00
   1   1   0   61.40    1.95
   1   1   0   59.74    1.86
   1   1   0   61.23    1.98
   1   1   0   61.00    2.04
   1   1   0   62.68    2.01
   1   1   0   62.09    1.96
   1   1   0   60.10    2.01
   1   1   0   60.51    1.96
   1   1   0   61.25    2.04
   1   1   0   59.34    1.97
   1   1   0   62.09    2.31
   1   1   0   58.08    1.93
   1   1   0   58.83    2.03
   1   1   0   61.85    1.90
   1   1   0   61.02    1.87
   1   1   0   60.95    2.02
  -2  -1   0  105.57    3.41
  -2  -1   0  102.25    3.38
  -2  -1   0  102.45    3.26
  -2  -1   0  100.56    3.39
  -2  -1   0  102.17    3.41
  -2  -1   0  101.05    3.40
  -2  -1   0  102.97    3.33
  -2  -1   0  104.29    3.13
  -2  -1   0  100.54    3.45
  -2  -1   0   98.20    3.15
  -2  -1   0   95.05    3.27
  -2  -1   0  100.41    3.42
  -2  -1   0  103.92    3.45
  -2  -1   0   99.80    3.84
  -2  -1   0  102.87    3.22
  -2  -1   0  101.29    3.30
   2   1   0  102.95    3.36
   2   1   0  100.89    3.40
   2   1   0   98.75    3.26
   2   1   0   98.82    3.18
   2   1   0  100.12    3.43
   2   1   0   98.50    3.33
   2   1   0   98.66    3.31
   2   1   0  102.36    3.42
   2   1   0  103.08    3.44
   2   1   0  106.88    3.50
   2   1   0   99.31    3.35
   2   1   0  102.68    3.46
   2   1   0   93.60    3.95
   2   1   0  102.84    3.27
   2   1   0  100.98    3.43
   2   1   0  102.43    3.40
  -3  -1   0   57.64    2.16
  -3  -1   0   55.95    1.96
  -3  -1   0   54.51    2.29
  -3  -1   0   56.37    2.07
  -3  -1   0   52.70    2.17
  -3  -1   0   54.78    2.18
  -3  -1   0   52.01    2.22
  -3  -1   0   59.16    2.28
  -3  -1   0   55.15    2.34
  -3  -1   0   58.20    2.12
  -3  -1   0   56.68    2.30
  -3  -1   0   56.33    1.92
  -3  -1   0   56.39    2.28
   3   1   0   57.33    2.35
   3   1   0   55.66    1.95
   3   1   0   57.12    2.25
   3   1   0   60.10    2.21
   3   1   0   57.85    3.12
   3   1   0   56.69    2.31
   3   1   0   60.24    2.39
   3   1   0   58.33    2.31
   3   1   0   56.41    2.23
   3   1   0   57.53    2.31
   3   1   0   55.90    2.37
   3   1   0   58.31    2.29
   3   1   0   59.14    2.34
  -4  -1   0   53.51    2.34
  -4  -1   0   56.87    2.58
  -4  -1   0   59.84    2.54
  -4  -1   0   58.55    2.26
  -4  -1   0   54.52    2.48
  -4  -1   0   52.89    2.27
  -4  -1   0   54.79    2.41
  -4  -1   0   55.35    2.06
  -4  -1   0   59.72    2.24
  -4  -1   0   60.32    2.50
  -4  -1   0   56.08    2.44
  -4  -1   0   58.49    2.57
   4   1   0   53.93    2.46
   4   1   0   55.44    2.48
   4   1   0   53.21    3.46
   4   1   0   55.05    2.40
   4   1   0   60.01    2.59
   4   1   0   57.03    2.52
   4   1   0   56.74    2.57
   4   1   0   56.47    2.04
   4   1   0   54.65    2.48
   4   1   0   57.55    2.46
   4   1   0   53.22    2.22
   4   1   0   60.45    2.36
  -5  -1   0   44.25    2.27
  -5  -1   0   43.78    2.00
  -5  -1   0   44.26    2.31
  -5  -1   0   44.33    2.10
  -5  -1   0   48.90    2.25
  -5  -1   0   42.55    2.26
  -5  -1   0   42.38    2.22
  -5  -1   0   46.17    2.42
  -5  -1   0   47.84    2.46
  -5  -1   0   43.20    1.81
  -5  -1   0   44.17    2.04
   5   1   0   44.98    2.04
   5   1   0   46.33    3.55
   5   1   0   44.84    1.78
   5   1   0   41.62    3.10
   5   1   0   44.87    2.14
   5   1   0   50.16    2.49
   5   1   0   45.88    2.32
   5   1   0   47.00    2.32
   5   1   0   38.56    2.17
   5   1   0   43.94    2.36
  -6  -1   0    6.26    0.69
  -6  -1   0    7.18    1.17
  -6  -1   0    6.47    1.01
  -6  -1   0    6.16    0.93
  -6  -1   0    6.52    0.95
  -6  -1   0    7.37    1.32
  -6  -1   0    6.16    0.89
  -6  -1   0    6.56    1.12
   6   1   0    5.81    0.99
   6   1   0    7.10    1.16
   6   1   0    5.26    1.25
   6   1   0    4.36    0.59
   6   1   0    5.90    0.84
   6   1   0    7.23    1.19
   6   1   0    5.95    0.98
  -7  -1   0    3.71    1.02
  -7  -1   0    3.46    0.70
  -7  -1   0    4.42    0.92
  -7  -1   0    3.96    1.22
   7   1   0    3.39    0.93
   7   1   0    2.77    1.21
   7   1   0    4.42    0.65
   7   1   0    3.72    1.07
   7  -2   0   12.14    1.68
   7  -2   0   11.28    1.10
  -7   2   0   12.28    1.13
  -7   2   0   14.41    1.57
  -7   2   0   12.81    1.33
  -7   2   0   11.52    1.84
  -7   2   0   13.43    1.33
   6  -2   0   21.61    1.78
   6  -2   0   18.63    1.70
   6  -2   0   20.43    1.23
   6  -2   0   21.61    1.57
  -6   2   0   22.51    1.47
  -6   2   0   23.74    1.81
  -6   2   0   21.54    1.83
  -6   2   0   21.03    1.50
  -6   2   0   18.72    1.51
  -6   2   0   19.64    1.82
  -6   2   0   18.89    1.25
   5  -2   0   44.20    2.16
   5  -2   0   44.99    2.52
   5  -2   0   40.36    1.77
   5  -2   0   42.73    2.53
   5  -2   0   41.38    2.10
   5  -2   0   45.11    2.28
   5  -2   0   44.56    2.31
  -5   2   0   41.03    1.99
  -5   2   0   41.99    2.22
  -5   2   0   39.52    2.26
  -5   2   0   41.86    1.82
  -5   2   0   44.57    2.37
  -5   2   0   42.78    2.00
  -5   2   0   40.16    2.08
  -5   2   0   44.37    2.40
   4  -2   0    0.90    0.38
   4  -2   0    1.38    0.32
   4  -2   0    1.62    0.43
   4  -2   0    1.49    0.48
   4  -2   0    1.97    0.48
   4  -2   0    1.95    0.48
   4  -2   0    1.67    0.52
   4  -2   0    1.23    0.40
   4  -2   0    2.13    0.54
   4  -2   0    1.28    0.32
   4  -2   0    1.91    0.47
   4  -2   0    2.36    0.53
  -4   2   0    2.00    0.55
  -4   2   0    1.20    0.58
  -4   2   0    1.63    0.42
  -4   2   0    1.43    0.43
  -4   2   0    1.43    0.49
  -4   2   0    1.75    0.41
  -4   2   0    1.34    0.42
  -4   2   0    1.07    0.31
  -4   2   0    1.24    0.42
  -4   2   0    1.66    0.42
  -4   2   0    1.71    0.56
  -4   2   0    1.20    0.45
   3  -2   0   54.99    1.92
   3  -2   0   58.39    2.19
   3  -2   0   49.46    2.01
   3  -2   0   54.99    2.13
   3  -2   0   57.43    2.25
   3  -2   0   54.16    1.90
   3  -2   0   53.30    2.07
   3  -2   0   53.34    2.13
   3  -2   0   53.61    2.12
   3  -2   0   53.02    2.18
   3  -2   0   55.62    2.01
   3  -2   0   55.99    2.20
  -3   2   0   55.37    2.28
  -3   2   0   56.09    2.27
  -3   2   0   58.92    2.14
  -3   2   0   59.12    2.23
  -3   2   0   54.75    2.01
  -3   2   0   56.11    2.18
  -3   2   0   52.96    2.06
  -3   2   0   56.53    2.23
  -3   2   0   57.63    1.97
  -3   2   0   57.17    2.24
  -3   2   0   57.75    2.17
  -3   2   0   53.62    2.26
  -3   2   0   57.29    1.95
  -3   2   0   56.97    2.07
   2  -2   0   79.39    2.53
   2  -2   0   75.91    2.60
   2  -2   0   76.99    2.56
   2  -2   0   77.63    2.59
   2  -2   0   77.87    2.60
   2  -2   0   78.82    2.61
   2  -2   0   73.61    2.43
   2  -2   0   76.78    2.64
  -2   2   0   76.08    2.54
  -2   2   0   78.10    2.62
  -2   2   0   77.17    2.63
  -2   2   0   75.53    2.56
  -2   2   0   78.32    2.53
  -2   2   0   70.53    3.24
  -2   2   0   75.58    2.68
  -2   2   0   75.74    2.51
  -2   2   0   75.84    2.62
  -2   2   0   76.90    2.62
  -2   2   0   75.82    2.60
  -2   2   0   77.66    2.67
  -2   2   0   75.74    2.49
  -2   2   0   77.20    2.47
   1  -2   0   16.50    0.83
   1  -2   0   15.90    0.65
   1  -2   0   16.47    0.65
  -1   2   0   16.03    0.62
  -1   2   0   16.74    0.67
  -1   2   0   16.13    0.64
  -1   2   0   16.06    0.63
  -1   2   0   16.15    0.64
   0  -2   0  237.37    7.42
   0   2   0  247.85    7.28
   0   2   0  239.41    7.41
  -1  -2   0  597.68   18.40
  -1  -2   0  621.26   18.24
  -1  -2   0  612.29   18.22
  -1  -2   0  627.82   18.24
  -1  -2   0  620.43   18.22
  -1  -2   0  623.64   18.17
  -1  -2   0  598.17   18.21
  -1  -2   0  616.38   18.20
  -1  -2   0  624.92   18.19
  -1  -2   0  622.18   18.39
   1   2   0  635.39   18.62
   1   2   0  621.86   18.17
   1   2   0  605.65   18.12
   1   2   0  623.88   18.19
   1   2   0  598.45   18.22
   1   2   0  604.64   18.18
   1   2   0  616.48   18.24
   1   2   0  631.64   18.23
   1   2   0  622.28   18.53
   1   2   0  622.03   18.24
   1   2   0  620.25   18.16
   1   2   0  620.03   18.23
   1   2   0  600.74   18.13
   1   2   0  603.98   18.26
   1   2   0  622.98   18.25
  -2  -2   0  207.84    6.56
  -2  -2   0  206.90    6.60
  -2  -2   0  205.81    6.57
  -2  -2   0  201.02    6.60
  -2  -2   0  212.36    6.50
  -2  -2   0  206.34    6.94
  -2  -2   0  210.15    6.45
  -2  -2   0  205.82    6.57
  -2  -2   0  210.04    6.58
  -2  -2   0  206.84    6.63
   2   2   0  205.00    6.61
   2   2   0  219.46    7.23
   2   2   0  203.70    6.30
   2   2   0  214.91    6.63
   2   2   0  202.02    6.65
   2   2   0  206.59    6.63
   2   2   0  209.56    6.49
   2   2   0  209.18    6.33
   2   2   0  216.41    7.28
   2   2   0  214.17    6.68
   2   2   0  211.41    6.46
   2   2   0  210.84    6.51
   2   2   0  211.46    6.64
   2   2   0  213.03    6.60
   2   2   0  220.01    6.44
   2   2   0  202.75    6.48
   2   2   0  208.76    6.56
  -3  -2   0   78.63    2.82
  -3  -2   0   76.53    2.76
  -3  -2   0   78.32    3.01
  -3  -2   0   75.70    2.90
  -3  -2   0   77.35    2.70
  -3  -2   0   74.65    2.92
  -3  -2   0   77.81    2.52
  -3  -2   0   79.54    2.91
  -3  -2   0   74.48    2.89
  -3  -2   0   78.19    2.90
  -3  -2   0   76.43    2.44
  -3  -2   0   79.26    2.91
  -3  -2   0   78.57    2.65
   3   2   0   73.20    3.73
   3   2   0   78.23    2.82
   3   2   0   76.52    2.74
   3   2   0   77.09    2.98
   3   2   0   78.43    2.98
   3   2   0   77.86    3.00
   3   2   0   73.42    2.88
   3   2   0   76.56    2.87
   3   2   0   73.93    2.98
   3   2   0   78.70    2.94
   3   2   0   76.52    3.61
   3   2   0   76.97    2.95
  -4  -2   0    7.13    0.61
  -4  -2   0    6.55    0.66
  -4  -2   0    5.13    0.73
  -4  -2   0    8.02    0.89
  -4  -2   0    5.21    0.42
  -4  -2   0    6.82    0.84
  -4  -2   0    7.58    0.80
  -4  -2   0    6.74    0.53
  -4  -2   0    6.93    0.69
  -4  -2   0    6.24    0.79
  -4  -2   0    7.77    0.76
  -4  -2   0    5.95    0.90
  -4  -2   0    7.55    0.78
   4   2   0    5.38    0.89
   4   2   0    6.47    0.86
   4   2   0    6.60    1.21
   4   2   0    6.07    0.81
   4   2   0    7.32    0.90
   4   2   0    6.85    0.81
   4   2   0    6.63    0.76
   4   2   0    5.38    0.50
   4   2   0    6.32    1.52
   4   2   0    6.22    0.75
  -5  -2   0    0.57    0.36
  -5  -2   0    0.09    0.24
  -5  -2   0    0.52    0.45
  -5  -2   0    0.09    0.38
  -5  -2   0   -0.13    0.28
  -5  -2   0    0.02    0.35
  -5  -2   0    0.54    0.34
  -5  -2   0   -0.15    0.34
  -5  -2   0    0.28    0.36
  -5  -2   0    0.51    0.46
   5   2   0   -0.20    0.27
   5   2   0    0.35    1.08
   5   2   0    1.00    0.61
   5   2   0    1.04    0.60
   5   2   0    0.37    0.26
   5   2   0    0.44    0.39
   5   2   0   -0.14    0.47
   5   2   0    0.51    0.55
   5   2   0    0.15    0.40
  -6  -2   0    3.72    0.92
  -6  -2   0    2.38    0.80
  -6  -2   0    1.96    0.52
  -6  -2   0    2.89    0.56
  -6  -2   0    3.78    0.98
   6   2   0    3.38    1.59
   6   2   0    3.13    0.73
   6   2   0    3.24    0.91
   6   2   0    3.93    0.94
   6   2   0    2.46    0.95
   6   2   0    3.80    0.92
   6   2   0    5.10    1.19
   6   2   0    4.05    0.61
  -7  -2   0   12.06    0.95
  -7  -2   0   11.52    1.44
  -7  -2   0   11.97    1.08
   7   2   0    9.30    1.81
   7   2   0   11.26    1.61
   7   2   0   11.57    0.98
   7   2   0   10.35    1.51
  -7   3   0   17.81    1.77
  -7   3   0   17.45    2.13
   6  -3   0    3.91    0.82
   6  -3   0    5.32    1.13
   6  -3   0    5.68    1.19
  -6   3   0    6.35    1.06
  -6   3   0    4.29    1.19
  -6   3   0    4.46    0.81
  -6   3   0    4.41    0.74
   5  -3   0   48.24    2.23
   5  -3   0   49.55    2.39
   5  -3   0   50.19    2.33
   5  -3   0   49.40    2.48
  -5   3   0   48.42    2.01
  -5   3   0   44.78    2.36
  -5   3   0   49.65    2.19
  -5   3   0   44.06    2.51
  -5   3   0   47.18    2.47
  -5   3   0   44.67    2.12
   4  -3   0    0.62    0.36
   4  -3   0    0.15    0.21
   4  -3   0    0.34    0.30
   4  -3   0    0.44    0.41
   4  -3   0    0.46    0.33
   4  -3   0    0.51    0.42
   4  -3   0    0.33    0.32
   4  -3   0    0.28    0.30
   4  -3   0    0.29    0.25
  -4   3   0    0.38    0.39
  -4   3   0    0.91    0.40
  -4   3   0    0.57    0.36
  -4   3   0    0.41    0.30
  -4   3   0    0.54    0.35
  -4   3   0    0.57    0.26
  -4   3   0    0.74    0.52
  -4   3   0    0.11    0.28
  -4   3   0    0.46    0.44
  -4   3   0    0.43    0.28
  -4   3   0    0.39    0.40
  -4   3   0    0.45    0.31
   3  -3   0   44.53    1.72
   3  -3   0   43.42    1.75
   3  -3   0   45.82    1.81
   3  -3   0   46.16    1.84
   3  -3   0   46.69    1.84
   3  -3   0   45.26    1.91
   3  -3   0   45.62    1.74
   3  -3   0   46.05    1.84
  -3   3   0   44.67    1.75
  -3   3   0   45.22    1.90
  -3   3   0   42.56    1.93
  -3   3   0   48.72    1.77
  -3   3   0   44.22    1.80
  -3   3   0   43.02    1.88
  -3   3   0   49.46    1.63
  -3   3   0   45.41    1.85
  -3   3   0   42.93    1.92
  -3   3   0   42.47    1.91
  -3   3   0   42.81    1.74
  -3   3   0   44.52    1.69
   2  -3   0   49.91    1.73
   2  -3   0   51.13    1.84
   2  -3   0   48.77    2.23
   2  -3   0   51.80    1.84
   2  -3   0   52.01    1.73
   2  -3   0   52.12    1.91
   2  -3   0   50.09    1.79
  -2   3   0   55.27    1.90
  -2   3   0   52.88    1.86
  -2   3   0   54.69    1.93
  -2   3   0   51.79    1.77
  -2   3   0   50.96    1.93
  -2   3   0   50.91    1.82
  -2   3   0   52.03    1.85
  -2   3   0   49.44    1.86
   1  -3   0  191.23    6.18
   0  -3   0  201.90    6.50
   0   3   0  203.78    6.27
  -1  -3   0  193.43    5.84
  -1  -3   0  185.70    5.74
  -1  -3   0  186.90    5.80
  -1  -3   0  180.55    6.14
  -1  -3   0  189.57    5.84
  -1  -3   0  192.47    5.76
  -1  -3   0  189.46    5.86
  -1  -3   0  178.36    5.96
   1   3   0  194.66    6.26
   1   3   0  183.02    5.87
   1   3   0  192.54    5.85
   1   3   0  194.20    5.83
   1   3   0  183.76    5.76
   1   3   0  201.12    5.87
   1   3   0  190.17    5.86
   1   3   0  193.83    5.91
   1   3   0  195.79    6.18
   1   3   0  191.56    5.87
  -2  -3   0  510.39   15.81
  -2  -3   0  532.63   15.95
  -2  -3   0  507.19   15.68
  -2  -3   0  541.48   15.88
  -2  -3   0  520.06   15.97
  -2  -3   0  523.74   15.91
  -2  -3   0  529.77   15.93
  -2  -3   0  517.92   16.19
   2   3   0  523.00   15.98
   2   3   0  540.18   15.98
   2   3   0  524.51   16.02
   2   3   0  530.76   16.00
   2   3   0  515.98   15.82
   2   3   0  504.47   15.81
   2   3   0  591.71   15.86
   2   3   0  533.04   15.82
   2   3   0  527.51   15.64
   2   3   0  527.82   15.99
   2   3   0  513.27   15.78
   2   3   0  542.29   16.66
   2   3   0  541.29   15.95
   2   3   0  540.42   16.66
   2   3   0  510.08   15.59
   2   3   0  535.77   15.86
   2   3   0  541.37   16.04
  -3  -3   0   18.29    1.07
  -3  -3   0   15.83    0.97
  -3  -3   0   18.52    1.16
  -3  -3   0   17.66    1.16
  -3  -3   0   16.52    1.05
  -3  -3   0   17.49    0.93
  -3  -3   0   18.01    1.11
  -3  -3   0   19.29    1.12
  -3  -3   0   16.22    1.09
  -3  -3   0   17.46    0.87
   3   3   0   18.13    1.11
   3   3   0   16.28    1.01
   3   3   0   17.70    1.13
   3   3   0   20.14    1.84
   3   3   0   19.41    1.21
   3   3   0   18.37    0.99
   3   3   0   16.75    1.18
   3   3   0   17.83    1.09
   3   3   0   18.80    1.06
   3   3   0   18.51    1.14
  -4  -3   0   27.28    1.50
  -4  -3   0   28.54    1.62
  -4  -3   0   28.79    1.60
  -4  -3   0   28.82    1.42
  -4  -3   0   28.48    1.59
  -4  -3   0   29.09    1.10
  -4  -3   0   28.77    1.36
  -4  -3   0   29.01    1.64
  -4  -3   0   24.88    1.64
  -4  -3   0   27.01    1.66
   4   3   0   30.30    1.76
   4   3   0   28.08    1.56
   4   3   0   27.72    1.60
   4   3   0   27.27    1.63
   4   3   0   25.77    2.51
   4   3   0   28.36    1.68
   4   3   0   28.33    1.74
  -5  -3   0   26.35    1.68
  -5  -3   0   21.78    1.50
  -5  -3   0   23.12    1.70
  -5  -3   0   25.79    1.10
  -5  -3   0   25.27    1.65
  -5  -3   0   23.49    1.65
   5   3   0   24.45    1.70
   5   3   0   22.98    1.22
   5   3   0   21.58    1.71
   5   3   0   23.71    1.59
   5   3   0   24.49    1.71
   5   3   0   24.77    1.84
   5   3   0   31.35    3.03
   5   3   0   22.48    1.76
   5   3   0   23.03    1.63
  -6  -3   0    0.54    0.52
  -6  -3   0   -0.11    0.51
  -6  -3   0    0.29    0.28
   6   3   0    0.72    0.64
   6   3   0    0.12    0.63
   6   3   0    0.69    0.35
   6   3   0    0.32    0.61
   6   3   0    0.00    0.40
   6   3   0   -0.51    0.58
   6   3   0   -0.02    0.49
   6   3   0    0.46    1.23
   6  -4   0   10.56    1.42
   6  -4   0   10.39    1.31
  -6   4   0   12.96    1.65
  -6   4   0   11.30    1.25
  -6   4   0   11.35    1.04
  -6   4   0   11.38    1.13
   5  -4   0   30.51    1.62
   5  -4   0   32.16    1.79
   5  -4   0   32.40    1.99
  -5   4   0   29.48    1.63
  -5   4   0   28.09    2.00
  -5   4   0   33.76    1.70
  -5   4   0   33.44    1.56
   4  -4   0   39.76    1.82
   4  -4   0   42.31    2.03
   4  -4   0   38.39    1.97
   4  -4   0   39.79    1.86
   4  -4   0   36.95    2.45
   4  -4   0   38.89    1.79
   4  -4   0   40.17    1.67
   4  -4   0   38.27    1.67
   4  -4   0   40.70    1.74
  -4   4   0   39.57    1.59
  -4   4   0   43.17    1.76
  -4   4   0   36.96    1.91
  -4   4   0   39.57    1.95
  -4   4   0   37.24    2.02
  -4   4   0   40.19    2.16
  -4   4   0   35.07    1.56
  -4   4   0   40.59    2.06
   3  -4   0   30.84    1.31
   3  -4   0   30.41    1.38
   3  -4   0   30.85    1.87
   3  -4   0   30.75    1.41
   3  -4   0   31.76    1.23
   3  -4   0   30.09    1.46
  -3   4   0   31.23    1.46
  -3   4   0   30.18    1.49
  -3   4   0   28.09    1.36
  -3   4   0   31.85    1.31
  -3   4   0   31.37    1.41
  -3   4   0   30.06    1.45
  -3   4   0   31.02    1.51
  -3   4   0   30.22    1.46
  -3   4   0   30.27    1.33
  -3   4   0   30.51    1.33
   2  -4   0  111.65    3.62
   2  -4   0  103.48    3.95
   2  -4   0  112.73    3.69
  -2   4   0  111.92    3.65
  -2   4   0  111.53    3.71
  -2   4   0  105.21    3.63
  -2   4   0  115.30    3.65
  -2   4   0  120.81    3.68
  -2   4   0  117.56    3.62
  -2   4   0  109.81    3.59
   1  -4   0   46.69    2.08
   0  -4   0   14.02    1.00
   0   4   0   15.20    0.85
   0   4   0   14.02    0.62
  -1  -4   0   28.56    1.19
  -1  -4   0   28.39    1.20
  -1  -4   0   28.01    1.50
  -1  -4   0   31.25    1.35
   1   4   0   27.87    1.21
   1   4   0   29.33    1.24
   1   4   0   27.30    1.11
   1   4   0   32.28    1.55
   1   4   0   27.47    1.18
   1   4   0   28.48    1.18
   1   4   0   28.46    1.20
   1   4   0   30.88    1.26
  -2  -4   0  168.19    5.81
  -2  -4   0  180.98    5.53
  -2  -4   0  163.52    5.54
  -2  -4   0  173.66    5.62
  -2  -4   0  175.88    5.58
  -2  -4   0  172.82    5.48
  -2  -4   0  174.05    5.65
  -2  -4   0  178.46    5.71
  -2  -4   0  179.66    5.52
  -2  -4   0  176.54    6.03
   2   4   0  181.46    6.39
   2   4   0  179.17    5.70
   2   4   0  173.08    5.55
   2   4   0  171.50    5.49
   2   4   0  172.84    5.53
   2   4   0  173.00    5.71
   2   4   0  168.84    5.62
   2   4   0  160.56    5.48
   2   4   0  182.86    5.74
  -3  -4   0   34.55    1.63
  -3  -4   0   32.83    1.66
  -3  -4   0   31.86    1.33
  -3  -4   0   33.30    1.87
  -3  -4   0   30.15    1.57
  -3  -4   0   33.00    1.64
  -3  -4   0   33.61    1.52
  -3  -4   0   34.17    1.57
  -3  -4   0   31.29    1.70
   3   4   0   31.50    2.43
   3   4   0   30.63    1.47
   3   4   0   33.42    1.64
   3   4   0   33.16    1.68
   3   4   0   32.27    1.72
   3   4   0   34.95    1.59
   3   4   0   33.11    1.30
   3   4   0   31.56    1.54
   3   4   0   30.88    1.60
   3   4   0   28.61    1.67
  -4  -4   0   42.78    2.09
  -4  -4   0   44.48    2.16
  -4  -4   0   41.07    1.95
  -4  -4   0   38.98    1.99
  -4  -4   0   40.05    2.12
   4   4   0   38.65    2.20
   4   4   0   46.96    2.11
   4   4   0   44.18    2.17
   4   4   0   36.46    3.08
   4   4   0   39.20    2.18
   4   4   0   40.90    2.08
   4   4   0   42.83    2.19
  -5  -4   0   11.42    1.26
  -5  -4   0   11.78    1.13
  -5  -4   0   10.33    1.17
  -5  -4   0   11.51    1.15
   5   4   0   11.21    1.31
   5   4   0   10.20    1.32
   5   4   0   11.37    2.34
   5   4   0    9.17    1.17
   5   4   0   10.00    1.39
  -6  -4   0   11.54    1.31
   6   4   0   13.07    1.27
   6   4   0   13.77    1.49
   6   4   0   13.55    1.62
   6   4   0   15.46    2.86
   6   4   0   13.26    1.04
   6   4   0   10.15    1.61
   6  -5   0   52.52    2.86
   6  -5   0   49.19    2.37
  -6   5   0   46.47    2.39
  -6   5   0   45.68    2.21
   5  -5   0   13.04    1.67
   5  -5   0   12.05    1.02
   5  -5   0   11.96    1.31
  -5   5   0    8.56    0.94
  -5   5   0   11.71    0.95
  -5   5   0   11.42    1.02
   4  -5   0   16.75    1.28
   4  -5   0   18.28    1.67
   4  -5   0   18.55    1.22
   4  -5   0   17.16    1.61
  -4   5   0   19.10    1.11
   3  -5   0   20.21    1.06
   3  -5   0   19.87    1.14
   3  -5   0   16.68    1.32
  -3   5   0   18.29    1.16
  -3   5   0   16.73    1.10
  -3   5   0   19.74    0.93
  -3   5   0   17.44    0.94
  -3   5   0   14.38    1.02
  -3   5   0   17.81    1.23
  -3   5   0   18.30    1.00
  -3   5   0   16.84    0.94
  -3   5   0   17.10    1.00
  -2   5   0   21.64    0.98
  -2   5   0   22.79    1.03
   1  -5   0   20.59    1.38
  -1   5   0   22.53    1.21
   0  -5   0   44.34    2.20
   0   5   0   46.22    1.65
   0   5   0   50.49    1.96
  -1  -5   0   45.47    1.75
  -1  -5   0   45.82    2.22
  -1  -5   0   43.99    1.72
   1   5   0   45.42    1.74
   1   5   0   43.15    1.72
   1   5   0   39.69    1.71
   1   5   0   47.72    2.15
   1   5   0   45.12    1.64
   1   5   0   46.36    1.68
  -2  -5   0   46.04    1.69
  -2  -5   0   47.16    1.87
  -2  -5   0   41.79    1.94
  -2  -5   0   46.07    1.94
  -2  -5   0   48.07    2.34
  -2  -5   0   47.04    1.71
   2   5   0   44.10    1.94
   2   5   0   45.24    1.89
   2   5   0   47.18    2.00
   2   5   0   43.95    1.77
   2   5   0   43.35    1.81
   2   5   0   45.60    1.83
   2   5   0   49.77    2.65
   2   5   0   44.37    1.98
  -3  -5   0   43.12    1.78
  -3  -5   0   41.69    2.06
  -3  -5   0   39.42    1.81
  -3  -5   0   39.89    1.95
  -3  -5   0   38.96    1.75
  -3  -5   0   38.94    1.88
  -3  -5   0   38.30    2.23
  -3  -5   0   43.03    1.76
   3   5   0   37.65    1.98
   3   5   0   39.79    1.91
   3   5   0   40.94    1.86
   3   5   0   39.79    2.84
   3   5   0   42.23    1.92
   3   5   0   38.13    1.54
  -4  -5   0    2.93    0.65
  -4  -5   0    3.25    0.66
  -4  -5   0    2.22    0.81
  -4  -5   0    2.72    0.70
  -4  -5   0    3.06    0.71
   4   5   0    2.61    0.70
   4   5   0    3.52    0.81
   4   5   0    3.98    1.56
   4   5   0    2.05    0.71
  -5  -5   0   14.94    1.46
  -5  -5   0   15.81    1.73
  -5  -5   0   14.24    1.28
   5   5   0   15.69    1.57
   5   5   0   12.86    1.62
   5   5   0   14.89    1.54
   5   5   0   13.52    1.38
   5   5   0   14.80    2.58
   5  -6   0    3.16    0.85
  -5   6   0    4.12    0.80
   4  -6   0    2.19    0.64
   4  -6   0    2.94    0.85
   4  -6   0    2.37    0.60
  -4   6   0    2.06    0.51
   3  -6   0   13.98    0.98
   3  -6   0   13.32    0.93
  -3   6   0   12.91    0.84
   1  -6   0   20.35    1.49
  -1   6   0   20.12    1.24
   0  -6   0   14.64    1.27
  -1  -6   0   20.53    1.53
   1   6   0   17.50    1.43
  -2  -6   0   14.01    1.04
  -2  -6   0   17.81    1.17
  -2  -6   0   17.86    1.45
   2   6   0   12.61    0.93
   2   6   0   15.38    1.10
   2   6   0   18.07    1.74
  -3  -6   0    6.53    0.88
  -3  -6   0    5.81    0.88
  -3  -6   0    4.19    1.03
  -3  -6   0    5.82    0.98
  -3  -6   0    5.23    0.59
   3   6   0    5.96    0.91
   3   6   0    6.74    0.84
   3   6   0    5.69    1.71
   3   6   0    6.30    0.93
  -4  -6   0    3.33    1.03
  -4  -6   0    4.85    0.98
  -4  -6   0    3.59    0.73
  -4  -6   0    4.51    0.75
  -4  -6   0    3.35    0.69
   4   6   0    2.98    0.72
   4   6   0    4.98    1.72
   4   6   0    3.03    0.86
   4   6   0    2.88    0.76
  -5  -6   0    1.20    0.62
  -5  -6   0    0.99    0.86
  -5  -6   0    1.31    0.80
   5   6   0    2.43    0.87
   5   6   0    1.03    0.95
   5   6   0    1.66    0.87
   5   6   0    1.14    0.71
   5   6   0    4.71    2.34
   4  -7   0    1.19    0.50
   4  -7   0   -0.21    0.50
  -4   7   0   -0.36    0.32
  -4   7   0    0.16    0.36
   1  -7   0    1.37    0.65
   0  -7   0   21.14    1.70
  -1  -7   0    5.51    1.08
  -2  -7   0   21.64    1.40
  -2  -7   0   18.98    1.76
  -2  -7   0   20.50    1.31
   2   7   0   20.68    1.39
   2   7   0   21.13    1.25
  -3  -7   0    3.92    1.07
  -3  -7   0    3.85    0.89
   3   7   0    3.41    0.74
   3   7   0    3.90    0.93
  -4  -7   0   18.20    1.93
  -4  -7   0   15.22    1.51
   4   7   0   14.83    1.41
   4   7   0   15.95    1.56
   0  -8   0    4.69    1.14
  -1  -8   0    8.57    1.38
  -2  -8   0   20.88    1.56
  -2  -8   0   23.00    2.04
  -2  -8   0   20.95    1.39
   2   8   0   18.31    1.30
   2   8   0   21.85    1.50
  -1  -8   1    6.72    1.44
   0  -8   1    3.76    1.11
   1  -8   1    1.88    0.87
   3   7  -1    0.31    0.56
   3   7  -1    0.82    0.55
  -3  -7   1    0.80    0.73
  -3  -7   1    0.19    0.56
   2   7  -1    5.25    0.91
   2   7  -1    5.49    0.77
  -2  -7   1    3.66    1.08
  -2  -7   1    5.21    0.94
  -2  -7   1    3.27    0.81
  -1  -7   1    0.37    0.65
   0  -7   1   12.40    1.43
   1  -7   1    0.03    0.59
   4   6  -1    6.98    1.32
   4   6  -1    6.53    1.09
   4   6  -1    6.71    2.06
   4   6  -1    5.94    1.19
  -4  -6   1    7.75    1.45
  -4  -6   1    6.45    1.14
  -4  -6   1    7.02    0.87
   3   6  -1   10.75    1.22
   3   6  -1   15.83    2.26
   3   6  -1   12.48    1.11
  -3  -6   1   12.47    1.17
  -3  -6   1   10.72    1.48
   2   6  -1   16.90    1.25
   2   6  -1   15.98    1.93
   2   6  -1   19.06    1.14
  -2  -6   1   19.45    1.22
  -2  -6   1   19.25    1.31
  -2  -6   1   18.13    1.13
  -2  -6   1   17.08    1.59
   1   6  -1   24.38    1.80
  -1  -6   1   21.38    1.74
   0   6  -1   37.88    2.01
   0  -6   1   34.95    2.18
  -1   6  -1  114.80    4.20
   1  -6   1  103.75    4.47
   4  -6   1   18.70    1.22
   4  -6   1   17.38    1.25
  -5   6  -1   10.96    1.02
  -5   6  -1   11.44    1.00
   5  -6   1   11.12    1.23
   5   5  -1   19.16    3.03
   5   5  -1   13.14    1.61
   5   5  -1   13.51    1.01
   5   5  -1   14.81    1.48
   5   5  -1   13.69    1.65
  -5  -5   1   14.89    1.33
  -5  -5   1   10.93    1.68
  -5  -5   1   14.12    1.51
   4   5  -1    3.45    0.77
   4   5  -1    2.86    0.81
   4   5  -1    2.20    1.42
   4   5  -1    3.20    0.90
  -4  -5   1    4.58    1.17
  -4  -5   1    1.88    0.68
  -4  -5   1    3.11    0.74
  -4  -5   1    2.25    0.60
  -4  -5   1    3.15    0.74
   3   5  -1    8.87    0.89
   3   5  -1    7.14    0.92
   3   5  -1    6.01    0.96
   3   5  -1    9.28    1.82
  -3  -5   1    7.53    1.17
  -3  -5   1    6.30    0.69
  -3  -5   1    7.70    0.94
  -3  -5   1    6.50    0.71
  -3  -5   1    6.84    0.87
  -3  -5   1    7.03    0.71
  -3  -5   1    7.66    0.97
   2   5  -1   87.66    3.86
   2   5  -1   80.49    3.21
   2   5  -1   83.97    3.04
   2   5  -1   89.25    4.09
  -2  -5   1   85.40    3.71
  -2  -5   1   84.94    3.14
  -2  -5   1   86.02    3.23
  -2  -5   1   84.05    3.17
  -2  -5   1   84.04    3.22
   1   5  -1   10.08    0.71
   1   5  -1    9.39    1.11
  -1  -5   1    8.22    1.00
  -1  -5   1    8.83    0.75
   0   5  -1   33.51    1.73
   0  -5   1   33.48    1.93
  -1   5  -1   34.96    1.72
   1  -5   1   26.46    1.76
  -4   5  -1   51.26    2.02
   4  -5   1   51.48    2.16
   4  -5   1   50.89    2.64
   4  -5   1   51.64    2.27
   4  -5   1   48.91    2.57
  -5   5  -1    7.40    0.84
   5  -5   1    8.65    1.35
   5  -5   1    8.32    1.11
  -6   5  -1   10.10    1.10
   6  -5   1    9.29    1.35
   5   4  -1   21.81    1.50
   5   4  -1   23.02    1.87
   5   4  -1   20.51    1.78
   5   4  -1   26.06    3.21
   5   4  -1   21.82    1.25
   5   4  -1   23.44    1.72
  -5  -4   1   22.03    1.76
  -5  -4   1   24.07    1.58
   4   4  -1    3.94    1.58
   4   4  -1    5.60    0.89
   4   4  -1    5.35    1.00
   4   4  -1    7.26    1.08
  -4  -4   1    5.44    1.08
  -4  -4   1    5.76    0.91
  -4  -4   1    6.21    0.79
  -4  -4   1    3.80    0.77
  -4  -4   1    7.03    0.86
   3   4  -1   16.42    1.30
   3   4  -1   17.22    1.17
   3   4  -1   17.33    2.03
   3   4  -1   18.42    1.22
   3   4  -1   18.83    1.32
   3   4  -1   16.55    1.20
   3   4  -1   16.61    1.14
  -3  -4   1   17.51    1.21
  -3  -4   1   18.93    1.12
  -3  -4   1   16.52    1.11
  -3  -4   1   17.61    1.49
  -3  -4   1   16.22    1.13
  -3  -4   1   16.91    1.26
  -3  -4   1   17.03    1.26
  -3  -4   1   17.97    1.09
  -3  -4   1   17.68    1.06
   2   4  -1   49.83    2.14
   2   4  -1   50.15    1.98
   2   4  -1   45.51    1.88
   2   4  -1   51.61    2.15
   2   4  -1   47.89    2.08
   2   4  -1   50.83    1.92
   2   4  -1   52.53    2.06
   2   4  -1   47.52    1.96
   2   4  -1   51.35    2.80
  -2  -4   1   52.21    2.16
  -2  -4   1   50.64    1.93
  -2  -4   1   52.19    1.89
  -2  -4   1   48.89    2.12
  -2  -4   1   48.53    2.44
  -2  -4   1   49.41    1.92
  -2  -4   1   50.12    2.01
  -2  -4   1   51.42    2.08
  -2  -4   1   53.24    1.91
   1   4  -1   41.87    1.68
   1   4  -1   44.60    1.67
   1   4  -1   39.04    1.65
   1   4  -1   43.19    1.63
   1   4  -1   41.53    1.59
   1   4  -1   40.51    1.52
   1   4  -1   44.98    2.16
  -1  -4   1   42.26    1.67
  -1  -4   1   41.50    2.08
  -1  -4   1   41.22    1.61
  -1  -4   1   42.77    1.64
  -1  -4   1   41.76    1.56
   0   4  -1    9.67    0.81
   0  -4   1    9.04    0.88
  -1   4  -1    7.48    0.74
   1  -4   1    8.46    0.85
  -3   4  -1   17.95    1.02
  -3   4  -1   16.26    0.90
  -3   4  -1   16.36    0.92
  -3   4  -1   16.32    0.93
  -3   4  -1   15.24    0.96
  -3   4  -1   17.06    0.84
  -3   4  -1   17.32    0.89
   3  -4   1   17.36    1.21
   3  -4   1   17.65    0.96
   3  -4   1   16.81    0.85
   3  -4   1   16.37    0.99
   3  -4   1   17.20    1.22
  -4   4  -1   53.67    2.50
  -4   4  -1   61.83    2.31
  -4   4  -1   61.70    2.73
  -4   4  -1   61.21    2.41
   4  -4   1   58.12    2.99
   4  -4   1   57.16    2.50
   4  -4   1   60.17    2.42
   4  -4   1   63.59    2.38
  -5   4  -1   19.37    1.61
  -5   4  -1   17.93    1.07
  -5   4  -1   15.96    1.13
   5  -4   1   19.18    1.46
   5  -4   1   18.90    1.22
   5  -4   1   17.97    1.45
  -6   4  -1    8.99    1.00
  -6   4  -1    9.42    0.93
   6  -4   1    7.85    1.03
   6  -4   1    8.98    1.12
   6  -4   1    8.67    1.29
   6   3  -1   29.62    1.59
   6   3  -1   28.30    2.24
   6   3  -1   33.55    1.99
   6   3  -1   30.15    3.72
   6   3  -1   35.72    2.21
   6   3  -1   31.33    2.40
  -6  -3   1   34.64    2.10
   5   3  -1    5.84    1.18
   5   3  -1    4.94    0.97
   5   3  -1    4.57    1.84
   5   3  -1    6.46    1.13
   5   3  -1    6.23    0.85
   5   3  -1    5.39    0.95
   5   3  -1    6.89    1.48
   5   3  -1    4.79    0.63
  -5  -3   1    6.63    1.01
  -5  -3   1    6.03    0.99
  -5  -3   1    6.00    1.00
  -5  -3   1    5.96    0.94
   4   3  -1   28.08    2.73
   4   3  -1   28.86    1.83
   4   3  -1   27.98    1.73
   4   3  -1   29.31    1.64
   4   3  -1   27.87    1.71
   4   3  -1   27.06    1.80
   4   3  -1   24.77    1.62
  -4  -3   1   25.57    1.58
  -4  -3   1   28.43    1.69
  -4  -3   1   30.78    1.78
  -4  -3   1   27.36    1.54
  -4  -3   1   26.91    1.78
  -4  -3   1   27.65    1.64
   3   3  -1    1.97    0.51
   3   3  -1    0.59    0.85
   3   3  -1    1.50    0.45
   3   3  -1    1.69    0.46
   3   3  -1    1.05    0.43
   3   3  -1    2.24    0.46
   3   3  -1    1.00    0.47
   3   3  -1    1.71    0.56
  -3  -3   1    1.79    0.49
  -3  -3   1    1.12    0.40
  -3  -3   1    1.88    0.49
  -3  -3   1    2.21    0.55
  -3  -3   1    1.53    0.45
  -3  -3   1    1.34    0.41
  -3  -3   1    1.79    0.43
  -3  -3   1    1.48    0.46
  -3  -3   1    1.64    0.45
   2   3  -1   60.50    2.22
   2   3  -1   59.65    2.28
   2   3  -1   60.02    2.39
   2   3  -1   65.20    2.26
   2   3  -1   60.22    2.37
   2   3  -1   64.68    2.30
   2   3  -1   60.69    2.44
   2   3  -1   61.33    2.42
   2   3  -1   69.46    2.85
   2   3  -1   62.17    2.02
   2   3  -1   59.86    2.43
   2   3  -1   61.70    3.04
  -2  -3   1   61.01    2.36
  -2  -3   1   63.71    2.48
  -2  -3   1   58.71    2.32
  -2  -3   1   59.68    2.23
  -2  -3   1   64.28    2.31
  -2  -3   1   62.79    2.33
  -2  -3   1   60.40    2.67
  -2  -3   1   63.19    2.44
  -2  -3   1   63.35    2.29
  -2  -3   1   65.12    2.36
   1   3  -1   11.59    0.66
   1   3  -1   10.47    0.69
   1   3  -1   12.31    0.70
   1   3  -1   11.13    0.98
   1   3  -1   10.89    0.66
   1   3  -1   11.82    0.59
   1   3  -1   12.60    0.66
   1   3  -1   11.76    0.71
  -1  -3   1   10.63    0.90
  -1  -3   1   11.84    0.70
  -1  -3   1   11.09    0.64
  -1  -3   1   11.37    0.64
  -1  -3   1   12.57    0.88
  -1  -3   1   11.65    0.58
  -1  -3   1   12.21    0.71
  -1  -3   1   12.16    0.56
   0   3  -1   36.91    1.60
   0  -3   1   34.81    1.68
   1  -3   1  123.72    4.32
  -2   3  -1   26.45    1.09
  -2   3  -1   28.37    1.09
  -2   3  -1   28.45    1.06
  -3   3  -1  101.30    3.28
  -3   3  -1   97.14    3.45
  -3   3  -1  100.60    3.32
  -3   3  -1  105.14    3.46
  -3   3  -1  101.61    3.55
  -3   3  -1  105.78    3.58
  -3   3  -1  102.46    3.48
  -3   3  -1  101.94    3.33
  -3   3  -1   94.67    3.48
  -3   3  -1  100.99    3.41
   3  -3   1  104.35    3.46
   3  -3   1  103.63    3.28
   3  -3   1  103.41    3.54
   3  -3   1  103.04    3.99
   3  -3   1  102.07    3.23
   3  -3   1  102.48    3.43
   3  -3   1  100.51    3.32
  -4   3  -1   30.17    1.66
  -4   3  -1   32.59    1.54
  -4   3  -1   27.88    1.21
  -4   3  -1   32.82    1.43
  -4   3  -1   28.77    1.58
  -4   3  -1   31.58    1.42
  -4   3  -1   28.51    1.42
  -4   3  -1   30.06    1.62
  -4   3  -1   34.28    1.70
  -4   3  -1   28.72    1.26
  -4   3  -1   28.31    1.55
  -4   3  -1   31.09    1.50
   4  -3   1   28.81    1.38
   4  -3   1   32.89    1.65
   4  -3   1   33.94    1.58
   4  -3   1   32.91    1.40
   4  -3   1   29.47    2.04
   4  -3   1   32.16    1.52
   4  -3   1   31.04    1.44
   4  -3   1   28.94    1.44
   4  -3   1   29.99    1.35
  -5   3  -1   96.15    3.57
  -5   3  -1  102.28    4.35
  -5   3  -1  102.80    3.70
  -5   3  -1   98.98    4.10
  -5   3  -1   97.03    3.48
   5  -3   1   97.88    3.80
   5  -3   1  101.08    3.71
   5  -3   1  104.07    4.02
   5  -3   1  104.30    3.80
  -6   3  -1   12.81    1.17
  -6   3  -1   14.56    1.28
  -6   3  -1   13.95    1.05
  -6   3  -1   15.08    1.70
  -6   3  -1   13.43    1.15
   6  -3   1   15.94    1.51
   6  -3   1   16.11    1.36
   6  -3   1   13.80    1.18
  -7   3  -1    0.72    0.55
  -7   3  -1    1.21    0.59
  -7   3  -1    0.87    0.52
  -7   3  -1    0.99    0.78
  -7   3  -1    2.72    1.15
   7  -3   1    0.24    0.76
   7  -3   1    2.13    0.92
   6   2  -1    0.33    0.59
   6   2  -1    0.34    0.44
   6   2  -1    0.20    0.67
   6   2  -1   -0.18    1.30
   6   2  -1    0.18    0.30
   6   2  -1    1.53    0.77
   6   2  -1    0.24    0.67
  -6  -2   1    0.51    0.60
  -6  -2   1    0.52    0.30
  -6  -2   1    0.02    0.57
   5   2  -1   11.14    1.16
   5   2  -1    8.81    1.23
   5   2  -1    8.68    0.74
   5   2  -1   10.49    1.28
   5   2  -1    9.85    1.14
   5   2  -1    9.07    1.07
   5   2  -1    8.16    0.90
   5   2  -1   13.42    2.36
   5   2  -1    8.85    1.26
  -5  -2   1    9.23    0.70
  -5  -2   1    9.98    1.21
  -5  -2   1   11.45    1.19
  -5  -2   1    9.51    1.07
  -5  -2   1   10.55    1.16
  -5  -2   1    8.82    1.06
   4   2  -1   63.33    2.61
   4   2  -1   62.05    2.93
   4   2  -1   65.75    2.39
   4   2  -1   63.89    4.04
   4   2  -1   60.38    2.83
   4   2  -1   65.41    2.84
   4   2  -1   67.32    2.99
   4   2  -1   66.63    2.75
   4   2  -1   69.80    2.90
  -4  -2   1   66.41    2.57
  -4  -2   1   66.81    2.87
  -4  -2   1   65.33    2.28
  -4  -2   1   68.50    2.75
  -4  -2   1   69.21    2.88
  -4  -2   1   65.45    2.82
  -4  -2   1   68.59    2.65
  -4  -2   1   65.56    2.79
  -4  -2   1   63.92    2.92
  -4  -2   1   67.92    2.86
  -4  -2   1   59.77    2.93
   3   2  -1   46.48    2.71
   3   2  -1   38.89    1.82
   3   2  -1   37.39    1.82
   3   2  -1   38.75    1.91
   3   2  -1   38.90    1.74
   3   2  -1   36.86    1.64
   3   2  -1   36.30    1.86
   3   2  -1   41.81    1.82
   3   2  -1   34.72    2.55
   3   2  -1   38.24    1.81
  -3  -2   1   38.11    1.81
  -3  -2   1   39.62    1.87
  -3  -2   1   41.66    1.85
  -3  -2   1   39.67    1.73
  -3  -2   1   36.40    1.75
  -3  -2   1   39.54    1.82
  -3  -2   1   38.59    1.63
  -3  -2   1   38.38    1.58
  -3  -2   1   37.04    1.91
  -3  -2   1   40.20    1.83
  -3  -2   1   35.61    1.83
   2   2  -1  232.19    7.34
   2   2  -1  231.18    7.29
   2   2  -1  236.10    7.17
   2   2  -1  234.05    7.34
   2   2  -1  228.81    7.35
   2   2  -1  234.01    7.32
   2   2  -1  239.17    7.40
   2   2  -1  226.36    7.18
   2   2  -1  229.78    7.33
   2   2  -1  223.75    7.10
   2   2  -1  230.72    7.25
   2   2  -1  226.55    8.01
  -2  -2   1  228.21    7.31
  -2  -2   1  234.71    7.18
  -2  -2   1  232.83    7.26
  -2  -2   1  227.88    6.99
  -2  -2   1  230.62    7.26
  -2  -2   1  229.64    7.40
  -2  -2   1  229.03    7.27
  -2  -2   1  227.62    7.24
  -2  -2   1  232.81    7.25
  -2  -2   1  221.44    7.30
  -2  -2   1  231.85    7.07
   1   2  -1  362.80   11.06
   1   2  -1  374.33   11.01
   1   2  -1  352.85   10.93
   1   2  -1  380.17   11.08
   1   2  -1  377.94   11.52
   1   2  -1  369.33   10.99
   1   2  -1  373.46   11.10
   1   2  -1  365.85   11.11
   1   2  -1  368.00   11.13
   1   2  -1  368.64   11.11
   1   2  -1  349.64   10.96
  -1  -2   1  382.82   11.02
  -1  -2   1  377.03   11.34
  -1  -2   1  374.68   10.99
  -1  -2   1  365.51   11.06
  -1  -2   1  384.55   11.04
  -1  -2   1  350.42   11.02
  -1  -2   1  356.31   11.04
  -1  -2   1  370.96   11.11
  -1  -2   1  365.48   11.38
  -1  -2   1  367.65   11.14
  -1  -2   1  367.23   11.05
   0   2  -1   64.56    2.33
   0  -2   1   63.41    2.36
   1  -2   1   15.41    0.89
  -2   2  -1   80.63    2.63
  -2   2  -1   78.60    2.59
  -2   2  -1   80.59    2.64
  -2   2  -1   78.59    2.64
  -2   2  -1   80.50    2.53
  -2   2  -1   77.94    2.67
  -2   2  -1   80.98    2.57
   2  -2   1   80.02    2.61
   2  -2   1   81.45    2.62
   2  -2   1   79.22    2.97
   2  -2   1   78.25    2.55
   2  -2   1   78.72    2.52
   2  -2   1   81.49    2.68
  -3   2  -1   43.89    1.89
  -3   2  -1   45.53    1.87
  -3   2  -1   46.56    1.62
  -3   2  -1   42.41    1.65
  -3   2  -1   41.70    1.77
  -3   2  -1   44.33    1.76
  -3   2  -1   43.67    1.82
  -3   2  -1   43.63    1.67
  -3   2  -1   45.67    1.74
  -3   2  -1   48.72    1.83
  -3   2  -1   44.35    1.53
  -3   2  -1   41.66    1.62
  -3   2  -1   47.05    1.83
  -3   2  -1   45.12    1.67
   3  -2   1   41.76    1.73
   3  -2   1   42.73    1.75
   3  -2   1   37.74    1.65
   3  -2   1   43.57    1.70
   3  -2   1   44.81    1.83
   3  -2   1   44.28    2.25
   3  -2   1   46.35    1.72
   3  -2   1   44.43    1.75
   3  -2   1   42.70    1.66
   3  -2   1   46.62    1.74
  -4   2  -1  140.02    4.91
  -4   2  -1  147.87    5.51
  -4   2  -1  140.75    4.79
  -4   2  -1  144.87    4.59
  -4   2  -1  147.83    4.89
  -4   2  -1  139.58    4.93
  -4   2  -1  134.04    4.72
  -4   2  -1  146.57    4.56
  -4   2  -1  145.72    5.03
  -4   2  -1  146.75    5.05
  -4   2  -1  144.60    4.72
   4  -2   1  145.66    4.86
   4  -2   1  141.38    4.87
   4  -2   1  135.87    4.77
   4  -2   1  140.23    4.85
   4  -2   1  141.95    4.84
   4  -2   1  140.57    4.81
   4  -2   1  133.66    4.77
   4  -2   1  140.29    4.72
   4  -2   1  143.63    4.96
   4  -2   1  144.82    5.74
   4  -2   1  138.11    4.56
  -5   2  -1   19.59    1.17
  -5   2  -1   15.52    1.14
  -5   2  -1   15.87    1.36
  -5   2  -1   17.58    1.40
  -5   2  -1   18.34    1.25
  -5   2  -1   18.68    1.53
  -5   2  -1   13.70    1.23
  -5   2  -1   16.42    0.99
   5  -2   1   17.03    1.81
   5  -2   1   17.67    1.25
   5  -2   1   17.80    1.20
   5  -2   1   17.76    1.44
   5  -2   1   19.89    1.44
   5  -2   1   17.22    1.30
   5  -2   1   16.09    1.17
   5  -2   1   17.60    1.42
  -6   2  -1    7.66    1.02
  -6   2  -1    6.58    1.36
  -6   2  -1    6.52    0.88
  -6   2  -1    8.98    0.99
  -6   2  -1    7.72    0.80
   6  -2   1    7.68    0.97
   6  -2   1    5.86    1.08
   6  -2   1    7.69    0.71
   6  -2   1   10.35    1.28
  -7   2  -1   25.11    1.83
  -7   2  -1   25.43    2.33
  -7   2  -1   25.91    1.74
  -7   2  -1   24.18    1.50
  -7   2  -1   26.52    1.82
   7  -2   1   26.02    2.04
   6   1  -1   14.01    0.95
   6   1  -1   13.13    1.35
   6   1  -1   12.10    1.17
   6   1  -1   14.01    1.70
   6   1  -1   17.07    1.69
   6   1  -1   10.98    1.30
   6   1  -1   13.37    2.67
   6   1  -1   13.66    1.52
  -6  -1   1   13.03    1.12
  -6  -1   1   11.01    0.93
  -6  -1   1   11.05    1.48
  -6  -1   1   10.44    1.37
  -6  -1   1   15.97    1.44
   5   1  -1   64.92    3.08
   5   1  -1   64.89    3.05
   5   1  -1   73.61    3.29
   5   1  -1   72.46    3.32
   5   1  -1   68.28    2.85
   5   1  -1   74.69    3.14
   5   1  -1   60.46    4.44
   5   1  -1   66.29    3.14
   5   1  -1   73.32    3.01
   5   1  -1   68.96    2.57
  -5  -1   1   67.75    3.29
  -5  -1   1   74.13    2.86
  -5  -1   1   71.76    3.06
  -5  -1   1   68.00    3.33
  -5  -1   1   74.75    3.35
  -5  -1   1   71.70    2.72
  -5  -1   1   71.43    2.59
  -5  -1   1   65.03    3.14
  -5  -1   1   68.05    3.23
  -5  -1   1   67.78    2.91
  -5  -1   1   65.96    3.28
   4   1  -1  117.31    4.30
   4   1  -1  111.67    4.08
   4   1  -1  109.36    4.22
   4   1  -1  111.61    4.26
   4   1  -1  115.81    4.36
   4   1  -1  114.62    4.34
   4   1  -1  113.37    4.20
   4   1  -1  114.95    4.00
   4   1  -1  111.09    5.57
   4   1  -1  111.45    3.72
  -4  -1   1  106.71    4.19
  -4  -1   1  110.70    4.29
  -4  -1   1  113.32    3.63
  -4  -1   1  114.94    4.23
  -4  -1   1  112.77    4.03
  -4  -1   1  114.41    3.73
  -4  -1   1  116.01    4.23
  -4  -1   1  114.69    3.96
  -4  -1   1  106.97    4.23
  -4  -1   1  116.78    3.85
  -4  -1   1  114.41    4.42
  -4  -1   1  109.44    4.10
  -4  -1   1  103.84    4.29
   3   1  -1   58.88    2.48
   3   1  -1   56.56    3.33
   3   1  -1   67.95    2.45
   3   1  -1   70.44    2.65
   3   1  -1   64.11    2.63
   3   1  -1   60.84    2.15
   3   1  -1   62.54    2.48
   3   1  -1   61.52    2.54
   3   1  -1   61.77    2.53
   3   1  -1   63.41    2.55
   3   1  -1   61.83    2.33
   3   1  -1   62.08    2.59
  -3  -1   1   66.87    2.53
  -3  -1   1   60.72    2.05
  -3  -1   1   62.03    2.26
  -3  -1   1   59.96    2.52
  -3  -1   1   63.83    2.52
  -3  -1   1   58.86    2.56
  -3  -1   1   62.58    2.44
  -3  -1   1   60.60    2.13
  -3  -1   1   59.88    2.62
  -3  -1   1   63.46    2.21
  -3  -1   1   61.96    2.53
  -3  -1   1   59.15    2.47
  -3  -1   1   63.89    2.32
  -3  -1   1   59.28    2.53
  -3  -1   1   61.25    2.35
   2   1  -1   13.88    0.87
   2   1  -1   15.74    0.93
   2   1  -1   16.30    0.87
   2   1  -1   15.30    0.70
   2   1  -1   15.29    0.77
   2   1  -1   14.10    0.88
   2   1  -1   14.18    0.87
   2   1  -1   14.91    0.87
   2   1  -1   16.92    0.87
   2   1  -1   14.38    0.82
   2   1  -1   15.15    1.37
   2   1  -1   15.03    0.93
   2   1  -1   15.68    0.80
   2   1  -1   15.13    0.95
   2   1  -1   15.33    0.96
  -2  -1   1   15.21    0.78
  -2  -1   1   16.15    0.88
  -2  -1   1   14.29    0.58
  -2  -1   1   14.32    0.84
  -2  -1   1   15.60    0.71
  -2  -1   1   14.43    0.63
  -2  -1   1   15.36    0.87
  -2  -1   1   14.05    0.88
  -2  -1   1   14.29    0.89
  -2  -1   1   13.80    0.82
  -2  -1   1   13.38    0.85
  -2  -1   1   15.13    0.75
  -2  -1   1   15.33    0.65
  -2  -1   1   17.06    0.92
  -2  -1   1   15.50    1.16
  -2  -1   1   13.81    0.92
   1   1  -1  249.72    7.28
   1   1  -1  232.53    7.27
   1   1  -1  242.31    7.14
   1   1  -1  242.93    7.29
   1   1  -1  246.19    7.09
   1   1  -1  239.27    7.08
   1   1  -1  238.24    7.29
   1   1  -1  244.08    7.22
   1   1  -1  239.14    7.29
   1   1  -1  241.56    7.19
   1   1  -1  242.95    7.17
   1   1  -1  239.65    7.27
   1   1  -1  235.75    7.22
   1   1  -1  242.11    7.64
   1   1  -1  238.79    7.32
  -1  -1   1  231.93    7.51
  -1  -1   1  236.31    7.28
  -1  -1   1  225.58    7.27
  -1  -1   1  241.53    7.16
  -1  -1   1  236.47    7.13
  -1  -1   1  225.94    7.11
  -1  -1   1  236.41    7.27
  -1  -1   1  242.51    7.27
  -1  -1   1  241.90    7.26
  -1  -1   1  237.79    7.20
  -1  -1   1  237.67    7.34
  -1  -1   1  239.75    7.21
  -1  -1   1  235.06    7.23
  -1  -1   1  230.23    7.26
   0   1  -1  661.22   19.34
   0   1  -1  672.49   19.59
   0   1  -1  650.29   19.34
   0   1  -1  648.46   19.33
   0   1  -1  664.75   19.33
   0   1  -1  668.51   19.37
   0   1  -1  683.59   19.34
   0   1  -1  654.28   19.35
   0   1  -1  658.91   19.56
   0   1  -1  687.62   19.55
   0   1  -1  653.66   19.32
   0  -1   1  664.36   19.57
   0  -1   1  615.58   19.55
   0  -1   1  660.20   19.35
  -1   1  -1  158.83    4.65
  -1   1  -1  156.64    4.62
  -1   1  -1  148.07    4.63
  -1   1  -1  154.63    4.84
  -1   1  -1  155.71    4.64
  -1   1  -1  155.92    4.87
  -1   1  -1  151.61    4.65
   1  -1   1  154.66    4.83
   1  -1   1  159.84    4.65
   1  -1   1  152.34    4.64
   1  -1   1  155.02    4.87
  -2   1  -1  364.73   10.62
  -2   1  -1  356.30   10.51
  -2   1  -1  357.00   10.43
  -2   1  -1  345.98   10.53
  -2   1  -1  361.60   10.58
  -2   1  -1  356.09   10.51
  -2   1  -1  349.40   10.52
  -2   1  -1  344.59   10.54
  -2   1  -1  340.96   10.47
  -2   1  -1  349.78   10.42
  -2   1  -1  354.81   10.32
  -2   1  -1  355.60   10.39
  -2   1  -1  355.46   10.49
   2  -1   1  331.11   10.49
   2  -1   1  344.32   10.96
   2  -1   1  352.31   10.38
   2  -1   1  342.67   10.52
   2  -1   1  355.15   10.37
   2  -1   1  341.45   10.54
   2  -1   1  342.28   10.50
   2  -1   1  344.87   10.51
  -3   1  -1   48.29    1.92
  -3   1  -1   46.14    1.88
  -3   1  -1   47.10    1.98
  -3   1  -1   46.71    1.78
  -3   1  -1   49.54    2.00
  -3   1  -1   44.35    1.89
  -3   1  -1   47.41    1.68
  -3   1  -1   48.85    1.94
  -3   1  -1   47.89    1.81
  -3   1  -1   49.00    1.94
  -3   1  -1   49.52    1.87
  -3   1  -1   48.79    1.88
  -3   1  -1   48.50    1.70
   3  -1   1   51.01    1.95
   3  -1   1   48.32    1.93
   3  -1   1   48.36    1.90
   3  -1   1   47.07    1.78
   3  -1   1   49.98    1.69
   3  -1   1   50.52    1.92
   3  -1   1   46.29    1.89
   3  -1   1   46.00    1.82
   3  -1   1   45.84    2.40
   3  -1   1   47.70    1.80
   3  -1   1   45.62    1.89
   3  -1   1   50.25    1.98
  -4   1  -1   13.06    1.03
  -4   1  -1   12.41    0.74
  -4   1  -1   13.80    1.15
  -4   1  -1   14.30    0.94
  -4   1  -1   13.30    1.05
  -4   1  -1   12.86    0.83
  -4   1  -1   12.36    0.92
  -4   1  -1   12.42    0.91
  -4   1  -1   14.69    0.88
  -4   1  -1   12.31    0.87
  -4   1  -1   11.94    0.97
  -4   1  -1   12.47    0.97
  -4   1  -1   14.10    0.90
   4  -1   1   14.44    0.98
   4  -1   1   14.29    0.91
   4  -1   1   13.00    0.75
   4  -1   1   12.44    0.77
   4  -1   1   13.15    1.02
   4  -1   1   10.87    0.93
   4  -1   1   11.41    1.32
   4  -1   1   12.71    0.91
   4  -1   1   12.79    0.90
   4  -1   1   11.63    0.90
   4  -1   1   12.39    0.88
   4  -1   1   13.25    1.01
   4  -1   1   12.11    0.90
  -5   1  -1    5.18    0.60
  -5   1  -1    5.49    0.79
  -5   1  -1    7.26    0.74
  -5   1  -1    5.32    0.85
  -5   1  -1    6.31    1.10
  -5   1  -1    5.74    0.71
  -5   1  -1    5.63    0.78
  -5   1  -1    6.46    0.95
   5  -1   1    6.58    0.85
   5  -1   1    6.27    0.88
   5  -1   1    5.88    0.82
   5  -1   1    5.74    0.61
   5  -1   1    6.30    0.93
   5  -1   1    5.30    0.74
   5  -1   1    5.73    0.65
   5  -1   1    6.12    1.20
   5  -1   1    5.62    0.76
   5  -1   1    4.95    0.75
   5  -1   1    6.34    0.90
  -6   1  -1   77.93    3.00
  -6   1  -1   79.84    3.34
  -6   1  -1   75.46    3.65
  -6   1  -1   81.88    3.30
  -6   1  -1   79.19    3.75
  -6   1  -1   84.77    3.81
  -6   1  -1   83.26    3.29
  -6   1  -1   81.09    3.57
  -6   1  -1   79.31    3.36
   6  -1   1   76.96    3.58
   6  -1   1   77.50    3.55
   6  -1   1   80.99    3.47
   6  -1   1   75.06    2.98
  -7   1  -1    7.01    1.04
  -7   1  -1    8.83    1.33
  -7   1  -1    7.72    1.62
  -7   1  -1    6.77    1.03
  -7   1  -1    4.56    0.78
   7  -1   1    6.78    1.40
   7  -1   1    8.24    0.92
   6   0  -1   21.37    1.45
   6   0  -1   23.55    3.19
   6   0  -1   20.73    1.13
   6   0  -1   23.11    1.87
   6   0  -1   18.75    1.65
   6   0  -1   23.10    1.77
   6   0  -1   22.17    1.74
   6   0  -1   21.73    1.96
  -6   0   1   22.07    1.68
  -6   0   1   22.15    1.82
  -6   0   1   21.39    1.86
  -6   0   1   22.27    1.28
  -6   0   1   20.40    1.52
  -6   0   1   19.00    1.49
  -6   0   1   19.23    1.51
   5   0  -1   38.97    1.91
   5   0  -1   41.64    1.64
   5   0  -1   42.73    2.36
   5   0  -1   37.95    3.40
   5   0  -1   38.02    2.13
   5   0  -1   38.67    2.00
   5   0  -1   43.35    2.31
   5   0  -1   38.88    2.12
   5   0  -1   39.84    2.19
  -5   0   1   42.06    2.14
  -5   0   1   40.93    2.33
  -5   0   1   38.86    2.00
  -5   0   1   35.84    2.28
  -5   0   1   43.68    2.02
  -5   0   1   38.98    1.73
  -5   0   1   40.01    2.26
  -5   0   1   42.62    1.97
   4   0  -1   30.18    1.66
   4   0  -1   31.29    2.71
   4   0  -1   30.55    1.77
   4   0  -1   28.98    1.26
   4   0  -1   29.97    1.65
   4   0  -1   27.40    1.44
   4   0  -1   32.49    1.78
   4   0  -1   31.18    1.70
   4   0  -1   32.62    1.68
   4   0  -1   29.40    1.69
   4   0  -1   30.30    1.65
   4   0  -1   30.25    1.58
   4   0  -1   32.90    1.82
   4   0  -1   30.00    1.73
  -4   0   1   28.11    1.64
  -4   0   1   29.50    1.47
  -4   0   1   31.44    1.83
  -4   0   1   29.58    1.76
  -4   0   1   28.57    1.63
  -4   0   1   31.34    1.74
  -4   0   1   32.77    1.60
  -4   0   1   30.70    1.75
  -4   0   1   30.03    1.34
  -4   0   1   31.70    1.68
  -4   0   1   30.66    1.50
  -4   0   1   30.34    1.74
  -4   0   1   31.13    1.63
   3   0  -1  194.60    6.36
   3   0  -1  176.76    7.34
   3   0  -1  197.03    6.48
   3   0  -1  193.25    6.14
   3   0  -1  186.11    6.36
   3   0  -1  190.19    6.45
   3   0  -1  200.46    6.43
   3   0  -1  193.29    6.41
   3   0  -1  192.75    6.42
   3   0  -1  192.16    6.38
   3   0  -1  189.21    6.28
   3   0  -1  193.38    5.95
   3   0  -1  196.61    6.28
   3   0  -1  196.04    6.23
  -3   0   1  194.33    6.40
  -3   0   1  197.10    6.16
  -3   0   1  193.54    6.33
  -3   0   1  186.51    6.11
  -3   0   1  205.07    6.51
  -3   0   1  197.29    6.40
  -3   0   1  192.05    6.00
  -3   0   1  187.78    6.25
  -3   0   1  191.98    6.50
  -3   0   1  192.25    6.37
  -3   0   1  193.56    6.40
  -3   0   1  195.27    6.36
   2   0  -1   42.52    1.74
   2   0  -1   42.90    1.64
   2   0  -1   42.62    1.67
   2   0  -1   41.11    1.76
   2   0  -1   40.97    1.71
   2   0  -1   42.40    1.52
   2   0  -1   41.60    1.72
   2   0  -1   42.37    1.58
   2   0  -1   41.46    1.75
   2   0  -1   40.56    1.64
   2   0  -1   44.60    2.34
   2   0  -1   44.93    1.59
   2   0  -1   40.80    1.69
   2   0  -1   40.91    1.66
   2   0  -1   43.14    1.77
   2   0  -1   43.02    1.46
   2   0  -1   44.50    1.60
   2   0  -1   42.51    1.78
  -2   0   1   40.27    1.66
  -2   0   1   44.14    1.76
  -2   0   1   43.85    1.60
  -2   0   1   41.23    1.58
  -2   0   1   40.59    1.70
  -2   0   1   43.12    1.50
  -2   0   1   41.65    1.73
  -2   0   1   44.67    1.82
  -2   0   1   39.75    2.08
  -2   0   1   46.30    1.74
  -2   0   1   41.32    1.77
  -2   0   1   43.53    1.73
  -2   0   1   43.02    1.61
  -2   0   1   43.52    1.68
  -2   0   1   39.48    1.69
   1   0  -1   48.46    1.73
   1   0  -1   50.93    1.79
   1   0  -1   53.61    2.13
   1   0  -1   51.11    1.68
   1   0  -1   49.83    1.69
   1   0  -1   48.96    1.77
   1   0  -1   51.35    1.72
   1   0  -1   51.48    1.79
   1   0  -1   50.61    1.68
   1   0  -1   52.52    1.79
   1   0  -1   47.32    1.72
   1   0  -1   50.72    1.64
   1   0  -1   48.85    1.71
   1   0  -1   53.20    1.85
   1   0  -1   53.12    1.80
   1   0  -1   51.55    1.77
   1   0  -1   49.95    1.60
  -1   0   1   51.16    1.69
  -1   0   1   50.04    1.78
  -1   0   1   48.34    1.99
  -1   0   1   51.65    1.81
  -1   0   1   50.49    1.77
  -1   0   1   50.08    1.77
  -1   0   1   49.58    1.74
  -1   0   1   49.13    1.76
  -1   0   1   48.34    1.77
  -1   0   1   48.80    1.81
  -1   0   1   51.31    1.63
  -1   0   1   48.93    1.66
  -1   0   1   48.42    1.70
  -1   0   1   48.34    1.72
  -1   0   1   51.63    1.67
   0   0  -1  622.29   17.70
   0   0  -1  525.71   17.86
   0   0  -1  616.02   17.88
   0   0  -1  604.65   17.64
   0   0  -1  598.08   17.66
   0   0  -1  592.12   17.60
   0   0  -1  608.46   17.63
   0   0  -1  594.99   17.95
   0   0  -1  605.02   17.65
   0   0  -1  603.69   17.76
   0   0  -1  601.37   17.67
   0   0  -1  623.67   17.67
   0   0  -1  614.45   18.16
   0   0  -1  634.44   17.78
   0   0  -1  602.17   17.68
   0   0  -1  602.19   17.59
   0   0  -1  592.36   17.92
   0   0  -1  585.14   17.70
   0   0  -1  630.17   17.79
   0   0  -1  620.38   17.61
   0   0   1  585.84   17.69
   0   0   1  599.63   18.02
   0   0   1  607.76   17.88
   0   0   1  609.03   17.70
   0   0   1  611.05   17.69
   0   0   1  553.95   17.62
   0   0   1  601.30   17.66
   0   0   1  649.67   18.27
   0   0   1  606.24   17.69
   0   0   1  611.06   17.59
   0   0   1  614.23   17.68
   0   0   1  628.29   17.63
   0   0   1  586.86   17.61
   0   0   1  607.58   17.64
   0   0   1  603.68   17.64
   0   0   1  544.74   17.66
   0   0   1  611.51   17.65
  -1   0  -1  187.59    5.51
  -1   0  -1  179.32    5.42
  -1   0  -1  183.71    5.46
  -1   0  -1  175.40    5.37
  -1   0  -1  188.29    5.48
  -1   0  -1  189.78    5.49
  -1   0  -1  183.04    5.50
  -1   0  -1  186.33    5.52
  -1   0  -1  180.39    5.75
  -1   0  -1  181.48    5.45
  -1   0  -1  184.71    5.47
  -1   0  -1  179.80    5.40
  -1   0  -1  180.35    5.45
  -1   0  -1  185.81    5.37
  -1   0  -1  188.91    5.52
  -1   0  -1  181.07    5.50
  -1   0  -1  177.27    5.49
   1   0   1  184.01    5.50
   1   0   1  183.30    5.47
   1   0   1  181.18    5.50
   1   0   1  183.39    5.45
   1   0   1  181.71    5.50
   1   0   1  181.73    5.50
   1   0   1  180.25    5.38
   1   0   1  181.86    5.43
   1   0   1  184.90    5.44
   1   0   1  179.48    5.49
   1   0   1  186.04    5.45
   1   0   1  179.98    5.46
   1   0   1  182.15    5.51
   1   0   1  180.09    5.50
  -2   0  -1   16.28    0.80
  -2   0  -1   17.02    0.86
  -2   0  -1   15.61    0.78
  -2   0  -1   17.40    0.80
  -2   0  -1   16.58    0.80
  -2   0  -1   16.45    0.72
  -2   0  -1   15.11    0.74
  -2   0  -1   14.15    0.66
  -2   0  -1   15.26    0.79
  -2   0  -1   16.06    0.62
  -2   0  -1   16.71    1.23
  -2   0  -1   16.89    0.85
  -2   0  -1   16.65    0.77
  -2   0  -1   16.19    0.74
  -2   0  -1   16.36    0.65
  -2   0  -1   15.82    0.73
  -2   0  -1   15.91    0.80
  -2   0  -1   15.92    0.82
   2   0   1   16.66    0.78
   2   0   1   15.89    0.60
   2   0   1   16.38    0.80
   2   0   1   16.27    0.82
   2   0   1   15.75    0.75
   2   0   1   15.38    0.70
   2   0   1   15.84    0.79
   2   0   1   16.42    0.82
   2   0   1   15.45    0.78
   2   0   1   16.00    0.71
   2   0   1   15.94    0.58
   2   0   1   15.55    1.07
   2   0   1   15.08    0.79
   2   0   1   15.72    0.63
   2   0   1   15.69    0.77
   2   0   1   17.88    0.84
   2   0   1   16.86    0.71
  -3   0  -1  131.92    4.33
  -3   0  -1  128.55    4.34
  -3   0  -1  126.47    4.43
  -3   0  -1  127.35    4.35
  -3   0  -1  129.98    4.26
  -3   0  -1  125.27    4.20
  -3   0  -1  130.60    4.39
  -3   0  -1  129.59    4.38
  -3   0  -1  136.52    4.49
  -3   0  -1  132.82    4.18
  -3   0  -1  132.45    4.29
  -3   0  -1  127.91    4.37
  -3   0  -1  129.43    4.09
  -3   0  -1  130.21    4.24
   3   0   1  124.94    4.35
   3   0   1  129.07    4.19
   3   0   1  125.96    4.38
   3   0   1  131.99    4.40
   3   0   1  119.81    4.33
   3   0   1  133.74    4.37
   3   0   1  128.63    4.17
   3   0   1  131.64    5.03
   3   0   1  132.57    4.39
   3   0   1  130.68    3.97
   3   0   1  124.27    4.31
   3   0   1  131.54    4.35
   3   0   1  130.75    4.15
   3   0   1  128.88    4.02
   3   0   1  132.76    4.34
   3   0   1  130.91    4.29
   3   0   1  130.41    4.05
  -4   0  -1   13.90    0.97
  -4   0  -1   12.15    0.93
  -4   0  -1   14.67    0.91
  -4   0  -1   11.83    1.08
  -4   0  -1   13.74    0.97
  -4   0  -1   13.87    0.76
  -4   0  -1   12.53    0.92
  -4   0  -1   12.28    0.87
  -4   0  -1   13.34    0.85
  -4   0  -1   12.51    1.05
  -4   0  -1   11.64    0.96
   4   0   1   11.86    0.85
   4   0   1   12.15    0.84
   4   0   1   12.10    0.69
   4   0   1   13.92    1.44
   4   0   1   13.47    1.05
   4   0   1   13.25    0.80
   4   0   1   11.67    0.97
   4   0   1   14.23    0.99
   4   0   1   13.40    1.02
   4   0   1   14.50    1.01
   4   0   1   13.24    1.02
   4   0   1   11.36    0.97
   4   0   1   12.64    0.73
   4   0   1   13.00    0.93
   4   0   1   14.15    0.63
   4   0   1   11.97    0.94
  -5   0  -1   23.27    1.70
  -5   0  -1   22.36    1.46
  -5   0  -1   25.02    1.56
  -5   0  -1   22.73    1.37
  -5   0  -1   22.57    1.32
  -5   0  -1   21.84    1.58
  -5   0  -1   21.11    1.44
  -5   0  -1   24.02    1.18
  -5   0  -1   23.73    1.39
  -5   0  -1   24.39    1.44
   5   0   1   20.50    2.05
   5   0   1   23.94    1.26
   5   0   1   24.11    1.62
   5   0   1   22.48    1.31
   5   0   1   21.77    1.04
   5   0   1   21.63    1.29
   5   0   1   23.70    1.56
   5   0   1   24.96    1.52
   5   0   1   21.61    1.43
   5   0   1   22.53    1.56
   5   0   1   22.67    1.51
   5   0   1   22.90    0.97
   5   0   1   24.55    1.51
  -6   0  -1    4.94    0.96
  -6   0  -1    5.84    1.01
  -6   0  -1    5.49    0.81
  -6   0  -1    4.89    0.92
  -6   0  -1    5.95    1.06
  -6   0  -1    4.37    1.10
  -6   0  -1    5.46    0.68
  -6   0  -1    4.20    0.77
   6   0   1    4.88    1.00
   6   0   1    5.96    1.15
   6   0   1    4.94    0.87
   6   0   1    6.06    0.91
   6   0   1    5.14    0.73
   6   0   1    6.04    0.49
  -7   0  -1    7.43    1.22
  -7   0  -1    7.12    1.20
  -7   0  -1    4.63    0.95
  -7   0  -1    4.55    0.94
  -7   0  -1    5.36    1.22
  -7   0  -1    7.65    1.52
  -7   0  -1    6.99    0.84
   7   0   1    5.19    1.23
   7   0   1    5.79    0.88
   7   0   1    6.94    1.15
   7   0   1    4.59    0.94
   7  -1  -1    9.89    1.73
   7  -1  -1    9.50    1.28
  -7   1   1    8.64    1.57
  -7   1   1    8.73    1.25
  -7   1   1   12.12    1.49
  -7   1   1    8.94    1.41
  -7   1   1    9.43    1.04
   6  -1  -1    9.28    1.41
   6  -1  -1    7.92    0.93
   6  -1  -1    6.78    1.08
   6  -1  -1    7.83    0.62
   6  -1  -1    7.26    1.12
  -6   1   1    4.57    1.35
  -6   1   1    7.89    1.31
  -6   1   1    7.17    0.98
  -6   1   1    9.13    1.19
  -6   1   1    9.92    1.03
  -6   1   1    5.34    1.02
  -6   1   1    5.99    1.19
  -6   1   1    7.14    0.81
   5  -1  -1   32.36    1.87
   5  -1  -1   30.66    1.98
   5  -1  -1   34.92    1.94
   5  -1  -1   31.83    1.77
   5  -1  -1   33.55    1.32
   5  -1  -1   29.96    1.89
   5  -1  -1   25.62    1.52
   5  -1  -1   30.86    1.69
   5  -1  -1   30.73    1.91
   5  -1  -1   29.90    3.08
   5  -1  -1   31.67    2.00
   5  -1  -1   31.12    1.88
  -5   1   1   33.99    2.05
  -5   1   1   33.73    1.71
  -5   1   1   30.44    1.70
  -5   1   1   30.97    1.93
  -5   1   1   30.42    1.50
  -5   1   1   35.02    2.09
  -5   1   1   30.27    2.01
  -5   1   1   33.80    1.87
  -5   1   1   32.92    1.77
   4  -1  -1   70.74    2.72
   4  -1  -1   66.78    2.90
   4  -1  -1   66.81    2.63
   4  -1  -1   63.96    2.80
   4  -1  -1   65.96    2.81
   4  -1  -1   69.31    2.30
   4  -1  -1   67.72    2.90
   4  -1  -1   69.98    2.94
   4  -1  -1   65.93    2.82
   4  -1  -1   63.76    2.79
   4  -1  -1   66.38    2.55
   4  -1  -1   65.50    2.41
   4  -1  -1   68.78    2.94
   4  -1  -1   70.99    2.88
   4  -1  -1   66.89    2.78
   4  -1  -1   64.16    3.95
  -4   1   1   67.39    2.94
  -4   1   1   68.98    2.65
  -4   1   1   64.43    2.76
  -4   1   1   59.65    2.87
  -4   1   1   69.99    2.89
  -4   1   1   71.16    2.94
  -4   1   1   69.86    2.84
  -4   1   1   70.01    3.03
  -4   1   1   68.11    2.75
  -4   1   1   68.71    2.48
  -4   1   1   68.38    2.66
   3  -1  -1   54.66    1.96
   3  -1  -1   57.18    2.28
   3  -1  -1   56.20    2.26
   3  -1  -1   56.51    2.34
   3  -1  -1   55.45    2.31
   3  -1  -1   56.83    3.20
   3  -1  -1   53.91    2.27
   3  -1  -1   54.02    2.14
   3  -1  -1   52.79    2.04
   3  -1  -1   55.68    2.22
   3  -1  -1   53.23    2.24
   3  -1  -1   53.29    1.85
   3  -1  -1   53.62    2.31
   3  -1  -1   54.93    2.33
   3  -1  -1   54.36    2.12
   3  -1  -1   57.05    2.15
   3  -1  -1   54.74    2.26
   3  -1  -1   55.10    1.98
   3  -1  -1   55.43    2.27
  -3   1   1   58.94    2.28
  -3   1   1   52.60    2.36
  -3   1   1   54.59    2.22
  -3   1   1   55.30    2.21
  -3   1   1   56.70    2.00
  -3   1   1   51.93    2.27
  -3   1   1   56.37    2.13
  -3   1   1   52.64    2.32
  -3   1   1   50.95    2.25
  -3   1   1   54.26    2.26
  -3   1   1   55.15    2.11
  -3   1   1   57.86    2.38
   2  -1  -1   63.29    2.33
   2  -1  -1   62.53    2.11
   2  -1  -1   65.44    2.31
   2  -1  -1   62.95    2.38
   2  -1  -1   62.14    2.22
   2  -1  -1   64.95    2.27
   2  -1  -1   64.74    2.39
   2  -1  -1   60.91    2.24
   2  -1  -1   63.55    2.34
   2  -1  -1   65.18    2.05
   2  -1  -1   59.02    2.93
   2  -1  -1   64.70    2.40
   2  -1  -1   65.82    2.37
   2  -1  -1   60.90    2.31
   2  -1  -1   64.91    2.24
   2  -1  -1   64.13    2.19
   2  -1  -1   66.03    2.15
   2  -1  -1   63.15    2.37
  -2   1   1   62.00    2.25
  -2   1   1   60.82    2.41
  -2   1   1   64.22    2.23
  -2   1   1   64.99    2.26
  -2   1   1   64.98    2.33
  -2   1   1   64.97    2.35
  -2   1   1   64.66    2.29
  -2   1   1   62.36    2.19
  -2   1   1   60.70    2.81
  -2   1   1   66.77    2.24
  -2   1   1   64.28    2.30
  -2   1   1   64.11    2.41
  -2   1   1   64.37    2.14
  -2   1   1   61.54    2.34
  -2   1   1   65.88    2.08
  -2   1   1   67.28    2.38
  -2   1   1   60.35    2.33
   1  -1  -1  147.47    4.46
   1  -1  -1  147.06    4.50
   1  -1  -1  149.33    4.62
   1  -1  -1  149.11    4.96
   1  -1  -1  150.11    4.48
   1  -1  -1  148.65    4.42
   1  -1  -1  143.54    4.54
   1  -1  -1  151.56    4.46
   1  -1  -1  148.43    4.48
   1  -1  -1  141.86    4.93
   1  -1  -1  144.86    4.48
   1  -1  -1  140.67    4.58
   1  -1  -1  149.63    4.55
   1  -1  -1  147.52    4.36
   1  -1  -1  142.66    4.40
   1  -1  -1  144.99    4.55
   1  -1  -1  144.33    4.54
   1  -1  -1  148.20    4.58
  -1   1   1  144.35    4.55
  -1   1   1  140.71    4.58
  -1   1   1  141.89    4.48
  -1   1   1  147.79    4.56
  -1   1   1  145.71    4.52
  -1   1   1  144.27    4.45
  -1   1   1  142.99    4.41
  -1   1   1  142.18    4.84
  -1   1   1  141.36    4.48
  -1   1   1  146.77    4.55
  -1   1   1  140.50    4.54
  -1   1   1  150.92    4.37
  -1   1   1  140.52    4.50
  -1   1   1  150.79    4.61
  -1   1   1  149.55    4.47
  -1   1   1  150.04    4.57
  -1   1   1  143.53    4.49
  -1   1   1  144.09    4.55
  -1   1   1  147.06    4.56
  -1   1   1  139.49    4.46
   0  -1  -1  573.25   16.98
   0  -1  -1  563.18   16.97
   0  -1  -1  581.67   17.03
   0  -1  -1  591.33   17.04
   0  -1  -1  574.59   17.04
   0  -1  -1  580.88   16.94
   0  -1  -1  598.79   17.01
   0  -1  -1  576.05   17.02
   0  -1  -1  587.64   17.00
   0  -1  -1  580.17   17.05
   0  -1  -1  581.26   17.02
   0  -1  -1  581.34   16.97
   0  -1  -1  566.13   17.27
   0  -1  -1  577.51   17.03
   0  -1  -1  573.86   17.04
   0  -1  -1  586.85   17.05
   0  -1  -1  582.32   16.97
   0  -1  -1  588.98   17.01
   0  -1  -1  580.84   17.02
   0  -1  -1  589.75   17.05
   0   1   1  573.59   17.02
   0   1   1  568.90   17.03
   0   1   1  556.05   16.96
   0   1   1  545.00   17.04
   0   1   1  584.33   17.03
   0   1   1  591.07   16.98
   0   1   1  573.87   16.99
   0   1   1  580.32   17.01
   0   1   1  594.70   17.01
   0   1   1  583.35   17.05
   0   1   1  594.60   16.95
   0   1   1  570.70   17.01
   0   1   1  597.54   17.03
   0   1   1  584.34   17.04
   0   1   1  575.47   17.29
   0   1   1  576.05   17.00
   0   1   1  572.75   17.04
   0   1   1  574.79   17.02
   0   1   1  597.56   17.05
  -1  -1  -1  466.52   14.06
  -1  -1  -1  495.81   14.13
  -1  -1  -1  482.59   14.09
  -1  -1  -1  486.29   14.07
  -1  -1  -1  484.94   14.12
  -1  -1  -1  467.64   14.10
  -1  -1  -1  484.12   14.42
  -1  -1  -1  475.38   14.06
  -1  -1  -1  470.80   14.09
  -1  -1  -1  445.93   14.09
  -1  -1  -1  483.43   14.04
  -1  -1  -1  481.65   13.98
  -1  -1  -1  478.89   14.04
  -1  -1  -1  472.49   14.10
  -1  -1  -1  467.22   14.09
  -1  -1  -1  476.00   14.01
  -1  -1  -1  473.90   13.97
   1   1   1  476.27   14.09
   1   1   1  469.87   13.98
   1   1   1  459.43   14.05
   1   1   1  479.40   14.06
   1   1   1  472.43   14.04
   1   1   1  473.44   14.04
   1   1   1  474.92   14.09
   1   1   1  468.19   14.40
   1   1   1  493.59   14.01
   1   1   1  463.39   13.97
   1   1   1  482.75   14.12
   1   1   1  470.99   14.09
   1   1   1  477.70   14.11
   1   1   1  485.86   14.12
   1   1   1  470.55   14.09
   1   1   1  481.65   14.10
   1   1   1  489.40   14.06
   1   1   1  490.12   14.11
  -2  -1  -1   21.91    0.95
  -2  -1  -1   21.42    1.02
  -2  -1  -1   21.70    1.01
  -2  -1  -1   22.35    0.99
  -2  -1  -1   20.90    0.98
  -2  -1  -1   20.46    0.93
  -2  -1  -1   22.25    1.07
  -2  -1  -1   21.06    0.83
  -2  -1  -1   23.41    0.92
  -2  -1  -1   20.23    1.03
  -2  -1  -1   20.65    0.99
  -2  -1  -1   22.57    0.93
  -2  -1  -1   22.09    1.00
  -2  -1  -1   20.47    0.80
  -2  -1  -1   21.36    0.93
  -2  -1  -1   20.11    0.96
  -2  -1  -1   21.85    1.00
  -2  -1  -1   20.53    1.39
   2   1   1   22.68    1.04
   2   1   1   23.43    1.07
   2   1   1   21.74    1.33
   2   1   1   21.75    0.84
   2   1   1   21.36    0.95
   2   1   1   21.46    1.00
   2   1   1   21.28    0.99
   2   1   1   21.79    0.91
   2   1   1   21.88    0.89
   2   1   1   23.05    0.95
   2   1   1   21.32    0.98
   2   1   1   21.89    0.98
   2   1   1   21.75    1.00
   2   1   1   23.04    1.02
   2   1   1   23.11    1.05
   2   1   1   22.86    1.02
   2   1   1   20.37    0.92
  -3  -1  -1   95.54    3.44
  -3  -1  -1   90.58    2.90
  -3  -1  -1   85.08    3.03
  -3  -1  -1   90.18    3.20
  -3  -1  -1   89.70    3.10
  -3  -1  -1   82.36    3.15
  -3  -1  -1   92.61    4.89
  -3  -1  -1   86.81    3.21
  -3  -1  -1   91.22    3.03
  -3  -1  -1   86.27    3.16
  -3  -1  -1   85.65    3.07
  -3  -1  -1   88.34    3.27
  -3  -1  -1   93.23    3.22
   3   1   1   90.53    2.86
   3   1   1   89.78    2.97
   3   1   1   88.83    3.22
   3   1   1   88.13    3.12
   3   1   1   88.94    3.07
   3   1   1   85.19    3.19
   3   1   1   85.93    3.18
   3   1   1   85.53    3.14
   3   1   1   86.63    2.90
   3   1   1   93.52    3.22
   3   1   1   85.65    3.17
   3   1   1   89.07    3.25
   3   1   1   93.83    3.28
   3   1   1   96.86    3.31
   3   1   1   89.10    3.86
  -4  -1  -1   11.42    0.92
  -4  -1  -1   14.28    0.88
  -4  -1  -1   11.96    0.94
  -4  -1  -1   12.09    0.96
  -4  -1  -1   12.29    1.03
  -4  -1  -1   13.29    1.00
  -4  -1  -1   12.68    0.72
  -4  -1  -1   11.81    0.84
  -4  -1  -1   13.01    0.92
  -4  -1  -1   11.02    0.97
  -4  -1  -1   12.17    0.86
  -4  -1  -1   13.67    1.15
   4   1   1   11.90    0.92
   4   1   1   11.92    0.98
   4   1   1   11.87    0.66
   4   1   1   11.59    1.37
   4   1   1   11.90    0.89
   4   1   1   12.64    1.04
   4   1   1   10.91    0.91
   4   1   1   12.84    1.00
   4   1   1   12.14    0.94
   4   1   1   13.45    1.10
   4   1   1   12.79    0.97
   4   1   1   10.81    1.01
   4   1   1   12.91    1.00
  -5  -1  -1    6.19    0.83
  -5  -1  -1    6.68    0.95
  -5  -1  -1    8.58    1.16
  -5  -1  -1    7.53    0.90
  -5  -1  -1    7.93    0.87
  -5  -1  -1    7.69    0.88
  -5  -1  -1    7.73    0.65
  -5  -1  -1    9.52    1.01
  -5  -1  -1    7.50    0.90
  -5  -1  -1    9.02    0.83
  -5  -1  -1    7.79    0.81
   5   1   1    7.73    0.83
   5   1   1    7.41    1.34
   5   1   1    6.27    0.86
   5   1   1    7.49    1.00
   5   1   1    8.07    1.03
   5   1   1    6.29    0.95
   5   1   1    7.77    0.59
   5   1   1    7.88    0.98
   5   1   1    6.64    0.70
   5   1   1    8.45    1.09
   5   1   1    8.63    0.95
   5   1   1    6.96    0.87
  -6  -1  -1   42.99    2.38
  -6  -1  -1   46.97    2.26
  -6  -1  -1   41.84    1.84
  -6  -1  -1   43.53    2.14
  -6  -1  -1   45.74    2.16
  -6  -1  -1   42.79    2.26
  -6  -1  -1   39.73    2.48
  -6  -1  -1   37.13    2.40
   6   1   1   43.05    2.52
   6   1   1   41.61    2.34
   6   1   1   42.47    2.17
   6   1   1   40.51    1.69
   6   1   1   44.91    2.91
   6   1   1   40.48    2.12
   6   1   1   41.35    2.37
   6   1   1   41.12    2.01
  -7  -1  -1    2.19    0.83
  -7  -1  -1    1.58    0.71
  -7  -1  -1    1.75    0.49
  -7  -1  -1    1.95    1.01
  -7  -1  -1    0.96    0.61
  -7  -1  -1    2.73    0.89
  -7  -1  -1    1.19    0.70
   7   1   1    2.22    0.82
   7   1   1    1.93    0.44
   7   1   1    1.77    0.96
   7   1   1    1.48    0.68
   7   1   1    1.99    0.62
   6  -2  -1    8.27    1.35
   6  -2  -1    7.05    0.86
   6  -2  -1    8.12    1.09
  -6   2   1    5.96    1.18
  -6   2   1    9.04    1.46
  -6   2   1    6.67    1.12
  -6   2   1    6.02    1.11
  -6   2   1    5.24    0.89
  -6   2   1    7.30    1.25
  -6   2   1    5.65    0.88
  -6   2   1    6.52    0.82
   5  -2  -1    7.58    1.00
   5  -2  -1    6.76    0.92
   5  -2  -1    8.86    0.85
   5  -2  -1    6.24    0.87
   5  -2  -1    6.57    0.73
   5  -2  -1    6.77    1.10
   5  -2  -1    8.15    1.12
  -5   2   1    8.50    1.04
  -5   2   1    5.53    0.98
  -5   2   1    7.65    0.99
  -5   2   1    7.03    1.06
  -5   2   1    8.07    1.11
  -5   2   1    7.22    0.75
  -5   2   1    8.54    1.22
  -5   2   1    8.12    0.87
   4  -2  -1   19.44    1.32
   4  -2  -1   17.97    1.05
   4  -2  -1   17.01    1.20
   4  -2  -1   16.00    1.28
   4  -2  -1   17.08    1.02
   4  -2  -1   17.69    1.29
   4  -2  -1   17.28    0.87
   4  -2  -1   18.34    1.20
   4  -2  -1   17.96    1.17
   4  -2  -1   18.05    1.01
   4  -2  -1   18.43    1.20
   4  -2  -1   20.84    1.29
   4  -2  -1   17.10    1.23
   4  -2  -1   18.13    2.13
  -4   2   1   19.51    1.34
  -4   2   1   17.48    1.31
  -4   2   1   16.15    1.16
  -4   2   1   17.57    1.39
  -4   2   1   18.94    1.23
  -4   2   1   18.02    1.16
  -4   2   1   18.64    1.01
  -4   2   1   18.53    1.11
  -4   2   1   16.86    1.18
  -4   2   1   16.98    1.32
   3  -2  -1  184.04    6.10
   3  -2  -1  191.56    5.81
   3  -2  -1  192.06    6.21
   3  -2  -1  184.70    5.69
   3  -2  -1  187.28    6.08
   3  -2  -1  182.44    5.99
   3  -2  -1  180.85    7.16
   3  -2  -1  181.01    6.06
   3  -2  -1  182.06    6.06
   3  -2  -1  183.68    6.16
   3  -2  -1  187.86    6.06
   3  -2  -1  189.49    5.85
   3  -2  -1  180.94    6.16
   3  -2  -1  182.19    5.87
   3  -2  -1  179.62    6.07
  -3   2   1  184.10    5.96
  -3   2   1  197.57    6.29
  -3   2   1  175.14    5.96
  -3   2   1  188.59    6.16
  -3   2   1  188.70    6.22
  -3   2   1  190.20    5.83
  -3   2   1  192.21    6.06
  -3   2   1  193.73    6.17
  -3   2   1  191.79    6.19
  -3   2   1  187.76    6.26
  -3   2   1  175.55    6.02
  -3   2   1  187.08    6.13
  -3   2   1  185.37    5.91
   2  -2  -1  331.11   10.17
   2  -2  -1  341.58   10.17
   2  -2  -1  299.55   10.00
   2  -2  -1  334.54   10.17
   2  -2  -1  339.76   10.26
   2  -2  -1  338.17   11.02
   2  -2  -1  332.40   10.26
   2  -2  -1  335.17   10.27
   2  -2  -1  329.04   10.12
   2  -2  -1  335.82   10.17
   2  -2  -1  332.63   10.01
   2  -2  -1  337.61   10.21
   2  -2  -1  328.16   10.20
  -2   2   1  341.05   10.06
  -2   2   1  332.53   10.15
  -2   2   1  344.23    9.91
  -2   2   1  337.54   10.31
  -2   2   1  339.21   10.00
  -2   2   1  332.48   10.21
  -2   2   1  327.07   10.22
  -2   2   1  343.35   10.31
  -2   2   1  335.42   10.24
  -2   2   1  331.21   10.16
  -2   2   1  345.07   10.26
  -2   2   1  332.41   10.11
  -2   2   1  332.35   10.27
  -2   2   1  326.34   10.10
  -2   2   1  333.03   10.09
  -2   2   1  328.74   10.89
  -2   2   1  329.92   10.12
  -2   2   1  341.30   10.03
   1  -2  -1   60.20    1.91
   1  -2  -1   58.55    1.95
   1  -2  -1   58.87    1.99
   1  -2  -1   58.04    1.99
   1  -2  -1   59.28    2.07
   1  -2  -1   62.79    2.43
   1  -2  -1   57.57    1.88
   1  -2  -1   58.50    2.04
   1  -2  -1   57.69    2.00
   1  -2  -1   56.43    2.03
   1  -2  -1   58.71    2.03
   1  -2  -1   59.61    2.39
   1  -2  -1   60.55    1.89
   1  -2  -1   60.18    1.87
  -1   2   1   56.17    2.01
  -1   2   1   59.30    2.05
  -1   2   1   59.35    1.96
  -1   2   1   58.59    2.01
  -1   2   1   58.67    2.03
  -1   2   1   62.26    1.94
  -1   2   1   58.96    1.93
  -1   2   1   59.88    2.01
  -1   2   1   58.49    2.35
  -1   2   1   56.37    2.01
  -1   2   1   57.92    1.97
  -1   2   1   58.70    2.01
  -1   2   1   60.20    1.88
  -1   2   1   60.83    2.02
  -1   2   1   58.18    2.06
  -1   2   1   57.16    1.94
  -1   2   1   59.76    1.99
   0  -2  -1  114.51    3.51
   0  -2  -1  116.82    3.56
   0  -2  -1  116.99    3.57
   0  -2  -1  120.04    3.87
   0  -2  -1  112.95    3.64
   0  -2  -1  115.59    3.56
   0  -2  -1  116.32    3.58
   0  -2  -1  118.69    3.60
   0  -2  -1  115.08    3.60
   0  -2  -1  109.27    3.57
   0   2   1  113.98    3.56
   0   2   1  116.08    3.55
   0   2   1  117.20    3.57
   0   2   1  119.23    3.61
   0   2   1  118.01    3.61
   0   2   1  116.58    3.60
   0   2   1  116.01    3.56
   0   2   1  115.97    3.51
   0   2   1  114.15    3.52
   0   2   1  116.62    3.59
   0   2   1  118.92    3.55
   0   2   1  117.44    3.57
   0   2   1  118.99    3.58
   0   2   1  117.59    3.58
   0   2   1  113.68    3.64
   0   2   1  118.23    3.87
  -1  -2  -1  215.15    6.58
  -1  -2  -1  217.26    6.48
  -1  -2  -1  221.87    6.98
  -1  -2  -1  213.29    6.52
  -1  -2  -1  205.81    6.55
  -1  -2  -1  215.89    6.57
  -1  -2  -1  216.19    6.60
  -1  -2  -1  216.68    6.60
  -1  -2  -1  216.46    6.60
  -1  -2  -1  220.95    6.60
  -1  -2  -1  212.63    6.67
  -1  -2  -1  214.26    6.60
  -1  -2  -1  221.07    6.60
  -1  -2  -1  216.33    6.62
  -1  -2  -1  214.28    6.55
   1   2   1  225.69    6.63
   1   2   1  217.46    6.62
   1   2   1  214.89    6.55
   1   2   1  215.79    6.52
   1   2   1  220.74    6.58
   1   2   1  214.00    6.60
   1   2   1  224.46    6.60
   1   2   1  212.18    6.55
   1   2   1  216.52    6.43
   1   2   1  208.98    6.43
   1   2   1  219.25    6.62
   1   2   1  218.03    6.54
   1   2   1  223.45    6.60
   1   2   1  217.82    6.61
   1   2   1  224.86    6.45
   1   2   1  219.40    6.57
   1   2   1  213.75    6.95
   1   2   1  213.20    6.52
  -2  -2  -1  119.56    4.00
  -2  -2  -1  122.73    3.78
  -2  -2  -1  120.49    4.07
  -2  -2  -1  122.45    4.05
  -2  -2  -1  122.45    4.02
  -2  -2  -1  121.50    3.88
  -2  -2  -1  117.02    3.74
  -2  -2  -1  120.09    4.01
  -2  -2  -1  117.41    3.87
  -2  -2  -1  125.97    4.01
  -2  -2  -1  122.41    3.74
  -2  -2  -1  123.41    4.02
  -2  -2  -1  122.44    3.96
  -2  -2  -1  117.09    4.04
  -2  -2  -1  120.01    3.91
  -2  -2  -1  119.05    4.41
  -2  -2  -1  119.68    4.03
   2   2   1  120.26    4.01
   2   2   1  121.05    3.96
   2   2   1  124.70    4.57
   2   2   1  126.14    3.80
   2   2   1  125.92    4.07
   2   2   1  118.31    3.79
   2   2   1  125.33    4.04
   2   2   1  123.57    4.09
   2   2   1  118.28    3.93
   2   2   1  123.80    4.01
   2   2   1  129.10    4.07
   2   2   1  129.48    3.88
   2   2   1  126.75    4.55
   2   2   1  122.94    3.98
   2   2   1  126.23    4.01
   2   2   1  128.80    4.09
   2   2   1  122.35    3.93
   2   2   1  123.07    4.05
   2   2   1  123.07    3.92
  -3  -2  -1    5.15    0.50
  -3  -2  -1    6.33    0.65
  -3  -2  -1    6.58    0.69
  -3  -2  -1    5.12    0.54
  -3  -2  -1    4.78    0.59
  -3  -2  -1    6.73    0.43
  -3  -2  -1    6.41    0.57
  -3  -2  -1    5.65    0.72
  -3  -2  -1    6.29    0.60
  -3  -2  -1    6.49    0.68
  -3  -2  -1    6.07    0.61
  -3  -2  -1    5.83    0.50
  -3  -2  -1    5.26    1.19
  -3  -2  -1    5.65    0.39
  -3  -2  -1    6.00    0.60
  -3  -2  -1    5.86    0.54
   3   2   1    5.31    0.66
   3   2   1    6.72    0.63
   3   2   1    4.65    1.06
   3   2   1    6.49    0.64
   3   2   1    5.36    0.88
   3   2   1    5.18    0.64
   3   2   1    5.08    0.57
   3   2   1    6.06    0.67
   3   2   1    5.33    0.56
   3   2   1    4.88    0.66
   3   2   1    5.84    0.56
   3   2   1    6.81    0.72
   3   2   1    6.07    0.53
   3   2   1    6.48    0.65
   3   2   1    5.26    0.58
  -4  -2  -1    3.14    0.72
  -4  -2  -1    3.30    0.62
  -4  -2  -1    3.24    0.64
  -4  -2  -1    2.23    0.56
  -4  -2  -1    3.75    0.38
  -4  -2  -1    2.86    0.54
  -4  -2  -1    4.06    0.57
  -4  -2  -1    3.23    0.40
  -4  -2  -1    3.12    0.57
  -4  -2  -1    3.38    0.49
  -4  -2  -1    2.86    0.64
  -4  -2  -1    2.93    0.58
  -4  -2  -1    2.60    0.48
   4   2   1    3.87    0.74
   4   2   1    4.01    1.17
   4   2   1    2.94    0.61
   4   2   1    2.88    0.36
   4   2   1    3.55    0.60
   4   2   1    3.02    0.62
   4   2   1    3.33    0.68
   4   2   1    3.13    0.65
   4   2   1    3.76    0.61
   4   2   1    2.86    0.57
   4   2   1    3.62    0.69
   4   2   1    3.07    0.89
  -5  -2  -1   25.95    1.79
  -5  -2  -1   29.36    1.59
  -5  -2  -1   31.35    1.76
  -5  -2  -1   29.06    1.31
  -5  -2  -1   27.49    1.46
  -5  -2  -1   24.12    1.63
  -5  -2  -1   26.10    1.59
  -5  -2  -1   30.34    1.75
  -5  -2  -1   28.07    1.82
  -5  -2  -1   29.90    1.55
  -5  -2  -1   27.64    1.72
   5   2   1   30.59    1.82
   5   2   1   27.21    1.72
   5   2   1   26.60    1.58
   5   2   1   27.80    2.43
   5   2   1   24.12    1.65
   5   2   1   29.09    1.88
   5   2   1   29.98    1.30
   5   2   1   27.81    1.71
  -6  -2  -1   53.27    2.23
  -6  -2  -1   61.37    2.77
  -6  -2  -1   55.04    2.93
  -6  -2  -1   59.01    2.66
  -6  -2  -1   58.33    2.44
  -6  -2  -1   59.26    2.86
  -6  -2  -1   51.77    2.93
   6   2   1   53.18    2.67
   6   2   1   56.25    2.98
   6   2   1   52.59    2.46
   6   2   1   62.64    2.97
   6   2   1   49.12    2.71
   6   2   1   55.34    2.86
   6   2   1   53.28    2.17
   6   2   1   58.74    2.66
  -7  -2  -1    4.27    0.84
  -7  -2  -1    3.33    0.68
  -7  -2  -1    4.24    1.06
  -7  -2  -1    5.20    1.29
   7   2   1    4.90    1.11
   7   2   1    4.00    1.18
   7   2   1    4.77    0.67
   7   2   1    6.04    1.34
   7   2   1    5.41    1.26
   6  -3  -1    6.79    1.68
   6  -3  -1    5.16    1.14
   6  -3  -1    4.59    1.15
   6  -3  -1    5.61    0.75
  -6   3   1    5.12    0.91
  -6   3   1    6.91    1.21
  -6   3   1    5.35    1.21
  -6   3   1    4.72    0.79
   5  -3  -1   22.47    1.22
   5  -3  -1   29.02    1.88
   5  -3  -1   22.70    1.68
   5  -3  -1   23.98    1.57
  -5   3   1   23.89    1.33
  -5   3   1   26.54    1.81
  -5   3   1   23.81    1.82
  -5   3   1   23.39    1.55
  -5   3   1   26.72    1.51
  -5   3   1   21.79    1.75
  -5   3   1   21.68    1.51
  -5   3   1   24.33    1.74
   4  -3  -1   84.02    3.23
   4  -3  -1   78.91    3.06
   4  -3  -1   88.63    3.44
   4  -3  -1   86.37    3.28
   4  -3  -1   82.72    3.30
   4  -3  -1   81.96    3.31
   4  -3  -1   81.38    2.84
   4  -3  -1   82.94    3.39
   4  -3  -1   85.09    3.25
   4  -3  -1   81.73    3.16
   4  -3  -1   80.52    3.02
   4  -3  -1   81.77    2.91
  -4   3   1   78.44    3.23
  -4   3   1   81.06    3.21
  -4   3   1   81.49    3.06
  -4   3   1   82.31    3.42
  -4   3   1   79.11    3.92
  -4   3   1   81.65    2.94
  -4   3   1   84.71    3.38
  -4   3   1   79.80    3.38
  -4   3   1   86.87    3.14
  -4   3   1   85.80    3.44
   3  -3  -1   27.57    1.42
   3  -3  -1   24.67    1.27
   3  -3  -1   28.50    1.34
   3  -3  -1   30.08    1.13
   3  -3  -1   29.96    1.51
   3  -3  -1   27.44    1.21
   3  -3  -1   28.42    1.36
   3  -3  -1   28.87    1.45
   3  -3  -1   25.88    1.36
   3  -3  -1   28.41    1.13
   3  -3  -1   27.93    1.94
   3  -3  -1   27.64    1.38
  -3   3   1   29.24    1.20
  -3   3   1   27.54    1.47
  -3   3   1   29.36    1.52
  -3   3   1   27.71    1.32
  -3   3   1   25.73    1.42
  -3   3   1   25.78    1.49
  -3   3   1   27.26    1.31
  -3   3   1   27.76    1.35
  -3   3   1   27.94    1.24
  -3   3   1   27.04    1.39
  -3   3   1   28.74    1.31
  -3   3   1   30.38    1.49
  -3   3   1   26.89    1.35
   2  -3  -1    3.72    0.49
   2  -3  -1    3.28    0.35
   2  -3  -1    3.64    0.43
   2  -3  -1    3.36    0.44
   2  -3  -1    2.68    0.47
   2  -3  -1    3.52    0.39
   2  -3  -1    2.99    0.41
   2  -3  -1    3.52    0.66
  -2   3   1    3.08    0.34
  -2   3   1    3.06    0.41
  -2   3   1    3.80    0.46
  -2   3   1    3.27    0.41
  -2   3   1    3.24    0.39
  -2   3   1    3.40    0.48
  -2   3   1    3.20    0.47
  -2   3   1    3.24    0.35
  -2   3   1    3.10    0.41
  -2   3   1    3.22    0.34
  -2   3   1    3.77    0.41
  -2   3   1    3.32    0.28
  -2   3   1    3.34    0.37
  -2   3   1    3.71    0.53
  -2   3   1    3.06    0.42
  -2   3   1    3.06    0.41
  -2   3   1    3.93    0.88
  -2   3   1    3.36    0.46
   1  -3  -1    7.37    0.44
   1  -3  -1    7.21    0.47
   1  -3  -1    8.81    0.76
   1  -3  -1    7.53    0.46
   1  -3  -1    7.78    0.48
   1  -3  -1    8.31    0.54
   1  -3  -1    7.97    0.50
   1  -3  -1    7.36    0.46
   1  -3  -1    7.77    0.51
  -1   3   1    7.76    0.43
  -1   3   1    7.28    0.43
  -1   3   1    7.98    0.52
  -1   3   1    7.82    0.50
  -1   3   1    8.23    0.42
  -1   3   1    7.97    0.49
  -1   3   1    7.68    0.52
  -1   3   1    7.35    0.48
  -1   3   1    8.17    0.48
  -1   3   1    6.90    0.79
  -1   3   1    7.91    0.45
  -1   3   1    7.45    0.48
  -1   3   1    7.90    0.50
   0  -3  -1   23.31    0.89
   0  -3  -1   22.93    0.93
   0  -3  -1   25.52    1.19
   0  -3  -1   23.73    0.89
   0  -3  -1   23.77    0.93
   0  -3  -1   24.55    1.09
   0  -3  -1   24.08    0.91
   0   3   1   24.23    0.93
   0   3   1   23.73    0.92
   0   3   1   23.50    0.89
   0   3   1   24.52    0.95
   0   3   1   24.22    1.18
   0   3   1   23.47    0.96
   0   3   1   23.30    0.91
   0   3   1   23.96    0.93
   0   3   1   24.20    0.94
   0   3   1   24.75    0.89
  -1  -3  -1  309.18    9.51
  -1  -3  -1  315.81    9.52
  -1  -3  -1  309.56    9.64
  -1  -3  -1  323.45    9.52
  -1  -3  -1  320.75    9.46
  -1  -3  -1  308.46    9.47
  -1  -3  -1  319.39    9.52
  -1  -3  -1  314.50    9.52
  -1  -3  -1  318.95    9.96
  -1  -3  -1  310.72    9.45
   1   3   1  316.79    9.97
   1   3   1  317.85    9.46
   1   3   1  315.81    9.51
   1   3   1  314.37    9.44
   1   3   1  315.11    9.42
   1   3   1  317.08    9.55
   1   3   1  328.60    9.55
   1   3   1  309.87    9.41
   1   3   1  317.98    9.53
   1   3   1  316.77    9.52
   1   3   1  315.41    9.52
   1   3   1  313.67    9.54
   1   3   1  309.05    9.45
  -2  -3  -1  372.11   11.05
  -2  -3  -1  351.77   10.87
  -2  -3  -1  366.81   11.02
  -2  -3  -1  357.87   11.05
  -2  -3  -1  342.04   10.79
  -2  -3  -1  364.23   11.14
  -2  -3  -1  361.72   10.99
  -2  -3  -1  350.43   10.93
  -2  -3  -1  364.29   11.04
  -2  -3  -1  349.81   11.07
  -2  -3  -1  354.76   11.04
  -2  -3  -1  360.33   10.94
  -2  -3  -1  362.06   11.27
   2   3   1  365.61   11.05
   2   3   1  356.77   10.95
   2   3   1  357.36   10.76
   2   3   1  374.70   11.13
   2   3   1  375.53   11.10
   2   3   1  356.00   10.75
   2   3   1  365.08   11.06
   2   3   1  361.13   11.56
   2   3   1  374.11   11.14
   2   3   1  358.39   10.91
   2   3   1  358.96   11.08
   2   3   1  368.07   10.83
   2   3   1  367.06   10.97
   2   3   1  363.70   10.93
   2   3   1  369.15   11.70
   2   3   1  362.81   11.06
   2   3   1  360.95   10.98
  -3  -3  -1   12.40    0.56
  -3  -3  -1   11.77    0.67
  -3  -3  -1   11.26    0.88
  -3  -3  -1   11.66    0.84
  -3  -3  -1   11.66    0.79
  -3  -3  -1   12.49    0.71
  -3  -3  -1   12.53    0.87
  -3  -3  -1   11.62    0.75
  -3  -3  -1   12.80    0.95
  -3  -3  -1   13.37    0.87
  -3  -3  -1   12.43    0.88
  -3  -3  -1   11.65    0.91
  -3  -3  -1   10.36    0.87
   3   3   1   11.84    0.85
   3   3   1   13.06    1.47
   3   3   1   11.70    1.24
   3   3   1    9.99    0.75
   3   3   1   12.09    0.93
   3   3   1   13.01    0.83
   3   3   1   10.54    0.88
   3   3   1   12.10    0.88
   3   3   1   11.37    0.89
   3   3   1   10.62    0.90
   3   3   1   13.02    0.65
   3   3   1   11.43    0.88
   3   3   1   10.81    0.83
   3   3   1   10.10    0.90
   3   3   1   11.13    0.74
  -4  -3  -1   37.02    1.75
  -4  -3  -1   37.80    1.64
  -4  -3  -1   38.47    1.62
  -4  -3  -1   37.62    1.87
  -4  -3  -1   37.72    1.83
  -4  -3  -1   32.68    1.87
  -4  -3  -1   35.64    1.83
  -4  -3  -1   36.31    1.39
  -4  -3  -1   38.54    1.70
  -4  -3  -1   37.43    1.90
  -4  -3  -1   37.39    1.83
   4   3   1   36.01    1.91
   4   3   1   37.60    1.92
   4   3   1   40.17    1.81
   4   3   1   35.00    1.95
   4   3   1   35.00    1.84
   4   3   1   34.93    1.82
   4   3   1   33.75    1.84
   4   3   1   39.51    2.81
  -5  -3  -1   91.47    3.45
  -5  -3  -1   86.78    3.63
  -5  -3  -1   88.17    3.69
  -5  -3  -1   83.54    3.58
  -5  -3  -1   92.28    3.83
  -5  -3  -1   87.86    3.03
  -5  -3  -1   91.24    3.52
  -5  -3  -1   87.83    3.69
   5   3   1   84.07    3.70
   5   3   1   94.31    3.57
   5   3   1   87.22    3.75
   5   3   1   86.67    3.12
   5   3   1   91.16    3.72
   5   3   1   85.75    3.78
   5   3   1   88.64    4.96
   5   3   1   94.11    3.70
  -6  -3  -1    6.76    1.01
  -6  -3  -1    8.11    0.71
  -6  -3  -1   11.48    1.42
  -6  -3  -1    7.65    1.12
  -6  -3  -1    8.06    1.21
   6   3   1    9.33    1.38
   6   3   1    6.71    1.08
   6   3   1   10.03    1.17
   6   3   1    8.86    1.31
   6   3   1    8.09    0.94
   6   3   1    5.46    1.18
   6   3   1    9.52    0.79
   6   3   1    6.56    1.06
  -7  -3  -1   20.98    1.77
  -7  -3  -1   21.47    1.23
   7   3   1   22.75    2.23
   7   3   1   20.97    1.30
   7   3   1   26.55    2.00
   7   3   1   22.23    2.04
   6  -4  -1   10.18    1.90
   6  -4  -1    9.85    1.41
   6  -4  -1   11.14    1.54
  -6   4   1    8.45    1.09
  -6   4   1    7.86    1.58
  -6   4   1   11.26    1.38
  -6   4   1    9.99    1.03
   5  -4  -1   20.06    1.38
   5  -4  -1   18.37    2.11
   5  -4  -1   22.25    1.77
   5  -4  -1   20.16    1.54
  -5   4   1   21.36    1.39
  -5   4   1   21.08    1.40
  -5   4   1   20.61    1.76
  -5   4   1   21.68    1.26
  -5   4   1   22.69    1.42
   4  -4  -1   27.62    1.59
   4  -4  -1   33.57    1.73
   4  -4  -1   34.82    1.84
   4  -4  -1   31.55    1.66
   4  -4  -1   32.56    2.39
   4  -4  -1   30.99    1.56
   4  -4  -1   29.42    1.63
  -4   4   1   31.44    1.42
  -4   4   1   31.86    1.77
  -4   4   1   30.09    1.52
  -4   4   1   29.22    1.74
  -4   4   1   26.40    1.46
  -4   4   1   29.71    1.83
  -4   4   1   30.78    1.64
  -4   4   1   31.75    1.83
   3  -4  -1   34.54    2.19
   3  -4  -1   34.34    1.59
   3  -4  -1   34.27    1.49
   3  -4  -1   32.81    1.58
   3  -4  -1   34.05    1.46
   3  -4  -1   35.01    1.50
   3  -4  -1   34.56    1.57
   3  -4  -1   37.73    1.74
   3  -4  -1   35.32    1.59
  -3   4   1   31.33    1.62
  -3   4   1   31.45    1.63
  -3   4   1   35.73    1.62
  -3   4   1   33.46    1.71
  -3   4   1   34.54    1.57
  -3   4   1   34.64    1.48
  -3   4   1   31.86    1.33
  -3   4   1   32.68    1.62
  -3   4   1   35.34    1.38
  -3   4   1   32.76    1.70
  -3   4   1   33.03    1.50
  -3   4   1   34.42    1.53
   2  -4  -1   71.40    3.02
   2  -4  -1   70.25    2.43
   2  -4  -1   67.38    2.30
   2  -4  -1   64.25    2.49
   2  -4  -1   67.51    2.38
   2  -4  -1   68.48    2.32
   2  -4  -1   69.62    2.32
  -2   4   1   69.84    2.47
  -2   4   1   66.95    2.44
  -2   4   1   68.27    2.53
  -2   4   1   63.85    2.34
  -2   4   1   67.89    2.46
  -2   4   1   68.39    2.49
  -2   4   1   65.09    2.33
  -2   4   1   67.23    2.31
  -2   4   1   67.19    2.31
  -2   4   1   65.57    2.45
  -2   4   1   68.65    2.49
  -2   4   1   69.56    3.19
  -2   4   1   64.37    2.39
   1  -4  -1   58.74    2.08
   1  -4  -1   60.11    2.14
   1  -4  -1   59.41    2.45
  -1   4   1   63.10    2.13
  -1   4   1   63.16    2.13
  -1   4   1   64.23    2.14
  -1   4   1   60.79    2.03
  -1   4   1   57.63    2.07
  -1   4   1   61.74    2.10
  -1   4   1   62.88    2.16
  -1   4   1   60.65    2.09
   0  -4  -1   62.10    2.07
   0  -4  -1   60.80    2.03
   0  -4  -1   60.63    2.35
   0  -4  -1   60.97    2.35
   0   4   1   63.99    2.06
   0   4   1   62.15    2.05
   0   4   1   58.92    2.04
   0   4   1   60.13    2.05
   0   4   1   55.85    2.06
   0   4   1   61.09    2.06
   0   4   1   59.91    2.36
  -1  -4  -1   64.05    2.28
  -1  -4  -1   67.53    2.31
  -1  -4  -1   63.78    2.24
  -1  -4  -1   61.72    2.51
  -1  -4  -1   65.94    2.19
  -1  -4  -1   65.40    2.30
  -1  -4  -1   67.57    2.72
  -1  -4  -1   67.61    2.19
   1   4   1   68.02    2.19
   1   4   1   64.77    2.22
   1   4   1   66.01    2.17
   1   4   1   65.05    2.31
   1   4   1   68.32    2.32
   1   4   1   66.13    2.30
   1   4   1   68.18    2.33
   1   4   1   65.22    2.30
   1   4   1   65.18    2.31
   1   4   1   68.44    2.35
   1   4   1   65.23    2.69
  -2  -4  -1   12.88    0.88
  -2  -4  -1   13.45    0.93
  -2  -4  -1   11.63    0.73
  -2  -4  -1   13.24    0.84
  -2  -4  -1   12.97    0.81
  -2  -4  -1   11.25    0.77
  -2  -4  -1   11.39    0.71
  -2  -4  -1   12.85    0.73
  -2  -4  -1   12.92    0.79
  -2  -4  -1   11.80    0.80
   2   4   1   11.79    0.69
   2   4   1   12.21    0.82
   2   4   1   12.20    0.84
   2   4   1   11.49    0.77
   2   4   1   14.21    1.24
   2   4   1   13.04    0.90
   2   4   1   12.07    0.80
   2   4   1   12.31    0.57
   2   4   1   12.94    0.81
   2   4   1   10.81    0.71
   2   4   1   10.88    0.71
   2   4   1   13.14    0.86
   2   4   1   12.65    0.86
  -3  -4  -1    6.15    0.70
  -3  -4  -1    5.87    0.63
  -3  -4  -1    6.17    0.70
  -3  -4  -1    5.63    0.65
  -3  -4  -1    5.77    0.73
  -3  -4  -1    6.12    0.78
  -3  -4  -1    5.01    0.70
  -3  -4  -1    5.80    0.62
  -3  -4  -1    6.77    0.61
   3   4   1    6.58    0.69
   3   4   1    5.98    0.74
   3   4   1    5.67    0.74
   3   4   1    6.02    0.65
   3   4   1    6.70    0.62
   3   4   1    5.87    0.67
   3   4   1    5.98    0.65
   3   4   1    6.29    0.60
   3   4   1    5.95    0.48
   3   4   1    5.89    0.74
   3   4   1    7.99    1.34
  -4  -4  -1    6.25    0.78
  -4  -4  -1    6.39    0.84
  -4  -4  -1    4.57    0.68
  -4  -4  -1    4.91    0.72
  -4  -4  -1    6.75    0.66
  -4  -4  -1    6.01    0.77
  -4  -4  -1    6.85    0.91
  -4  -4  -1    4.59    0.78
   4   4   1    6.84    0.82
   4   4   1    6.80    0.92
   4   4   1    5.11    1.54
   4   4   1    6.00    0.78
   4   4   1    6.52    0.81
   4   4   1    5.87    0.86
   4   4   1    4.25    0.87
   4   4   1    6.31    0.99
  -5  -4  -1    4.21    0.80
  -5  -4  -1    2.48    0.65
  -5  -4  -1    1.92    0.58
  -5  -4  -1    3.13    0.78
  -5  -4  -1    3.60    0.83
   5   4   1    3.72    0.85
   5   4   1    4.85    1.00
   5   4   1    5.21    1.64
   5   4   1    3.31    0.80
   5   4   1    3.80    0.89
   5   4   1    3.89    0.95
   5   4   1    5.61    0.90
  -6  -4  -1    1.78    0.95
  -6  -4  -1    2.69    0.71
   6   4   1    2.49    0.90
   6   4   1    3.27    0.83
   6   4   1    2.56    0.84
   6   4   1    2.29    0.50
   6  -5  -1    5.59    1.38
   6  -5  -1    6.49    1.27
  -6   5   1    6.36    1.01
  -6   5   1    4.35    0.91
   5  -5  -1    2.07    0.99
   5  -5  -1    1.81    0.76
   5  -5  -1    2.11    0.79
   5  -5  -1    2.20    0.55
  -5   5   1    0.54    0.44
  -5   5   1    1.59    0.56
  -5   5   1    2.63    0.93
   4  -5  -1   15.82    1.16
   4  -5  -1   14.79    1.16
   4  -5  -1   14.55    0.97
   4  -5  -1   16.19    1.28
   4  -5  -1   14.09    1.62
  -4   5   1   16.09    1.07
  -4   5   1   15.21    1.37
  -4   5   1   14.61    0.94
  -4   5   1   12.15    1.00
   3  -5  -1   25.36    1.83
   3  -5  -1   25.36    1.32
   3  -5  -1   25.70    1.44
   3  -5  -1   26.63    1.25
   3  -5  -1   24.71    1.12
   3  -5  -1   24.83    1.14
  -3   5   1   24.35    1.34
  -3   5   1   24.75    1.25
  -3   5   1   22.89    1.42
  -3   5   1   24.82    1.43
  -3   5   1   24.12    1.37
  -3   5   1   22.85    1.19
  -3   5   1   25.42    1.32
   2  -5  -1   42.03    1.65
   2  -5  -1   41.74    2.09
   2  -5  -1   44.20    1.77
  -2   5   1   39.44    1.53
  -2   5   1   38.08    1.67
  -2   5   1   41.19    1.75
  -2   5   1   40.01    2.43
  -2   5   1   41.11    1.60
  -2   5   1   38.76    1.67
  -2   5   1   39.41    1.62
  -2   5   1   40.62    1.53
  -2   5   1   41.21    1.66
  -2   5   1   43.21    1.66
   1  -5  -1   10.66    0.65
   1  -5  -1   11.00    0.67
  -1   5   1   12.82    0.65
  -1   5   1   11.55    0.76
  -1   5   1   12.04    0.70
  -1   5   1   11.96    0.70
  -1   5   1   10.84    0.64
   0  -5  -1   45.67    2.09
   0   5   1   45.79    1.69
   0   5   1   47.14    1.68
   0   5   1   47.76    1.77
   0   5   1   48.74    1.73
   0   5   1   46.74    1.71
  -1  -5  -1   15.81    0.83
  -1  -5  -1   17.59    0.92
  -1  -5  -1   18.89    1.18
  -1  -5  -1   16.25    0.89
   1   5   1   15.90    0.89
   1   5   1   17.94    0.89
   1   5   1   15.99    0.81
   1   5   1   17.19    0.94
   1   5   1   18.03    0.91
   1   5   1   19.32    0.94
   1   5   1   17.20    0.91
  -2  -5  -1   16.38    0.95
  -2  -5  -1   16.69    0.96
  -2  -5  -1   16.29    1.00
  -2  -5  -1   16.59    0.86
  -2  -5  -1   17.74    0.89
  -2  -5  -1   17.15    0.86
  -2  -5  -1   16.57    0.92
  -2  -5  -1   16.43    1.17
  -2  -5  -1   17.25    1.04
   2   5   1   17.86    1.45
   2   5   1   14.89    0.96
   2   5   1   15.60    0.90
   2   5   1   14.71    1.00
   2   5   1   15.03    0.86
   2   5   1   14.98    1.00
   2   5   1   16.42    0.97
   2   5   1   15.95    0.91
   2   5   1   16.90    0.95
  -3  -5  -1    5.69    0.88
  -3  -5  -1    7.27    0.69
  -3  -5  -1    7.40    0.68
  -3  -5  -1    7.68    0.75
  -3  -5  -1    6.22    0.85
  -3  -5  -1    6.52    0.73
  -3  -5  -1    7.77    0.86
  -3  -5  -1    6.80    0.68
  -3  -5  -1    7.07    0.81
   3   5   1    6.66    0.52
   3   5   1    6.33    0.83
   3   5   1    6.51    0.84
   3   5   1    7.09    0.78
   3   5   1    6.52    0.74
   3   5   1    8.65    1.46
   3   5   1    6.64    0.84
   3   5   1    6.12    0.72
  -4  -5  -1    4.35    0.78
  -4  -5  -1    5.09    0.76
  -4  -5  -1    5.97    0.97
  -4  -5  -1    4.22    0.69
  -4  -5  -1    4.52    0.72
  -4  -5  -1    3.33    0.79
   4   5   1    5.06    1.41
   4   5   1    4.93    0.94
   4   5   1    3.85    0.76
   4   5   1    3.82    0.75
   4   5   1    4.33    0.88
   4   5   1    3.51    0.85
  -5  -5  -1    0.91    0.66
  -5  -5  -1   -0.08    0.40
  -5  -5  -1   -0.21    0.45
  -5  -5  -1    0.22    0.49
  -5  -5  -1   -0.10    0.35
   5   5   1   -0.32    0.39
   5   5   1    0.22    0.51
   5   5   1    0.24    1.09
   5   5   1    0.24    0.70
  -6  -5  -1    4.95    1.02
   6   5   1    7.24    1.55
   6   5   1    5.07    1.14
   6   5   1    5.85    1.30
   6   5   1    6.17    0.76
   5  -6  -1   12.49    1.88
   5  -6  -1   14.47    1.56
   5  -6  -1   13.90    1.16
  -5   6   1   11.25    1.13
   4  -6  -1    3.45    0.83
   4  -6  -1    3.61    1.04
  -4   6   1    2.03    0.54
  -4   6   1    3.21    0.65
   3  -6  -1   35.28    2.17
   3  -6  -1   39.23    1.89
   3  -6  -1   40.88    1.77
  -3   6   1   35.76    1.60
  -3   6   1   36.87    1.67
   2  -6  -1    1.13    0.37
   2  -6  -1    1.85    0.45
  -2   6   1    1.83    0.40
  -2   6   1    1.12    0.43
  -2   6   1    1.49    0.35
  -1   6   1   15.36    0.86
  -1   6   1   15.26    0.86
   0  -6  -1    7.87    0.92
   0   6   1    6.70    0.63
   0   6   1    9.05    0.62
  -1  -6  -1   37.58    1.45
  -1  -6  -1   33.41    1.51
  -1  -6  -1   34.92    1.52
  -1  -6  -1   37.82    1.95
   1   6   1   31.91    1.41
   1   6   1   35.30    1.52
   1   6   1   34.73    1.46
   1   6   1   35.12    1.53
  -2  -6  -1   53.18    2.58
  -2  -6  -1   57.21    2.31
  -2  -6  -1   56.93    2.26
  -2  -6  -1   57.45    2.18
   2   6   1   55.84    2.14
   2   6   1   46.10    2.51
   2   6   1   52.66    2.18
   2   6   1   53.07    2.28
  -3  -6  -1    2.12    0.51
  -3  -6  -1    1.12    0.53
  -3  -6  -1    0.77    0.46
  -3  -6  -1    1.47    0.43
  -3  -6  -1    0.77    0.57
  -3  -6  -1    1.38    0.39
   3   6   1    1.05    0.49
   3   6   1    0.97    0.42
   3   6   1    1.65    0.92
   3   6   1    1.50    0.52
  -4  -6  -1   25.02    1.69
  -4  -6  -1   26.35    1.94
  -4  -6  -1   27.20    1.49
  -4  -6  -1   24.69    1.55
  -4  -6  -1   26.52    1.48
   4   6   1   23.56    2.54
   4   6   1   27.45    1.63
   4   6   1   26.68    1.82
   4   6   1   27.04    1.74
   4   6   1   24.27    1.73
   4   6   1   22.75    1.25
  -5  -6  -1    0.82    0.64
  -5  -6  -1    0.68    0.50
  -5  -6  -1    0.89    0.70
   5   6   1    0.91    0.61
   5   6   1    1.10    1.29
   5   6   1   -0.13    0.75
   5   6   1    1.23    0.77
   4  -7  -1    3.85    0.92
   4  -7  -1    2.83    0.99
  -4   7   1    3.35    0.69
  -4   7   1    3.85    0.72
   3  -7  -1   15.98    1.22
   3  -7  -1   18.45    1.16
  -3   7   1   15.25    1.03
  -3   7   1   15.54    1.01
   0  -7  -1   15.46    1.37
  -1  -7  -1   49.28    2.02
  -1  -7  -1   52.11    2.60
  -1  -7  -1   51.90    2.05
   1   7   1   44.90    2.02
  -2  -7  -1    5.27    0.83
  -2  -7  -1    3.35    0.66
  -2  -7  -1    3.50    0.90
   2   7   1    3.86    0.74
   2   7   1    4.05    0.65
  -3  -7  -1   19.88    1.38
  -3  -7  -1   20.22    1.65
   3   7   1   19.73    1.30
   3   7   1   16.83    1.38
  -4  -7  -1    5.87    0.83
  -4  -7  -1    7.04    1.33
  -4  -7  -1    6.83    1.07
  -4  -7  -1    4.83    0.73
   4   7   1    5.76    1.14
   4   7   1    6.50    1.18
   4   7   1    6.38    1.00
   4   7   1    5.42    1.08
   3  -8  -1    4.48    0.90
   3  -8  -1    5.92    0.93
  -3   8   1    4.71    0.71
  -3   8   1    4.79    0.72
   0  -8  -1   35.85    2.27
  -1  -8  -1    2.60    0.83
   1   8   1    1.19    0.47
  -2  -8  -1    7.47    1.25
  -2  -8  -1    8.89    1.01
  -2  -8  -1    7.68    0.94
   2   8   1    5.33    0.82
   2   8   1    7.37    1.00
  -3  -8  -1    3.41    1.06
  -3  -8  -1    5.21    0.96
   3   8   1    5.81    0.97
   3   8   1    3.92    0.90
   0  -9  -1    5.10    1.33
  -1  -9  -1    1.35    0.79
   2   7  -2   21.92    1.60
   2   7  -2   18.02    1.36
  -2  -7   2   22.79    1.51
  -2  -7   2   23.02    2.22
  -1  -7   2   30.61    2.39
   0  -7   2    2.41    0.94
   1  -7   2    2.98    1.03
   3   6  -2    8.03    1.19
   3   6  -2    6.72    1.99
   3   6  -2    8.27    1.04
  -3  -6   2    6.03    1.06
  -3  -6   2    7.54    1.51
   2   6  -2   23.49    1.61
   2   6  -2   29.73    1.54
   2   6  -2   28.43    2.60
  -2  -6   2   27.19    1.69
  -2  -6   2   29.43    2.23
  -2  -6   2   31.30    1.63
   1   6  -2   19.40    1.84
  -1  -6   2   15.65    1.72
   0   6  -2    1.25    0.67
   0  -6   2    2.32    0.84
  -1   6  -2    2.77    0.82
   1  -6   2    3.85    1.00
  -2   6  -2   15.69    1.42
   2  -6   2   15.68    1.53
  -5   6  -2   14.44    1.08
   5  -6   2    8.89    1.15
   4   5  -2    4.79    0.98
   4   5  -2    2.17    1.54
   4   5  -2    4.58    1.09
   4   5  -2    4.78    1.02
  -4  -5   2    4.81    0.84
  -4  -5   2    6.21    1.45
  -4  -5   2    4.13    0.99
   3   5  -2    7.24    1.06
   3   5  -2    6.84    1.95
   3   5  -2    7.08    1.02
   3   5  -2    6.62    0.90
  -3  -5   2    5.94    0.93
  -3  -5   2    7.87    0.75
  -3  -5   2    7.61    1.33
  -3  -5   2    6.58    0.71
   2   5  -2   22.61    1.43
   2   5  -2   20.74    1.24
   2   5  -2   19.99    2.11
  -2  -5   2   23.13    1.29
  -2  -5   2   21.02    1.32
  -2  -5   2   22.43    1.81
  -2  -5   2   22.95    1.43
   1   5  -2    7.28    0.71
   1   5  -2    9.69    1.31
  -1  -5   2    7.35    1.12
  -1  -5   2    7.77    0.69
  -1  -5   2    8.62    0.79
   0   5  -2   67.34    2.94
   0  -5   2   55.55    2.92
  -1   5  -2   60.75    2.84
   1  -5   2   68.30    3.10
  -2   5  -2    9.97    1.10
   2  -5   2   11.25    1.20
   4  -5   2   32.89    1.59
   4  -5   2   32.23    1.62
  -5   5  -2    0.23    0.36
   5  -5   2    0.05    0.45
   5  -5   2    0.08    0.53
   5  -5   2    0.58    0.56
  -6   5  -2   -0.04    0.41
  -6   5  -2    0.55    0.46
   6  -5   2    0.26    0.60
   5   4  -2    3.41    0.68
   5   4  -2    2.86    0.86
   5   4  -2    2.51    1.78
   5   4  -2    3.40    0.80
   5   4  -2    2.83    1.00
   5   4  -2    4.09    1.06
  -5  -4   2    2.49    0.79
  -5  -4   2    2.40    1.09
  -5  -4   2    3.88    0.91
   4   4  -2    1.26    0.54
   4   4  -2    0.52    0.45
   4   4  -2    1.85    0.75
   4   4  -2   -0.43    1.07
   4   4  -2    0.56    0.59
  -4  -4   2    0.13    0.43
  -4  -4   2    0.30    0.40
  -4  -4   2    1.23    0.80
  -4  -4   2    0.62    0.50
  -4  -4   2    0.49    0.45
   3   4  -2    2.39    1.17
   3   4  -2    1.21    0.49
   3   4  -2    0.98    0.54
   3   4  -2    0.17    0.41
  -3  -4   2    1.21    0.54
  -3  -4   2    0.94    0.41
  -3  -4   2    1.20    0.64
  -3  -4   2    1.12    0.39
  -3  -4   2    2.31    0.55
  -3  -4   2    0.62    0.48
   2   4  -2    2.59    0.55
   2   4  -2    3.27    0.56
   2   4  -2    1.97    0.53
   2   4  -2    2.96    0.53
   2   4  -2    2.48    0.97
   2   4  -2    2.57    0.55
  -2  -4   2    3.97    0.93
  -2  -4   2    3.36    0.48
  -2  -4   2    4.35    0.72
  -2  -4   2    3.09    0.54
  -2  -4   2    3.12    0.51
  -2  -4   2    2.97    0.59
  -2  -4   2    3.91    0.63
  -2  -4   2    2.99    0.48
  -2  -4   2    3.42    0.48
   1   4  -2   32.67    1.35
   1   4  -2   30.00    1.40
   1   4  -2   28.48    1.42
   1   4  -2   35.49    2.07
   1   4  -2   31.89    1.42
   1   4  -2   35.38    1.84
   1   4  -2   30.70    1.30
  -1  -4   2   29.06    1.84
  -1  -4   2   31.96    1.36
  -1  -4   2   30.98    1.45
  -1  -4   2   32.07    1.31
  -1  -4   2   29.94    1.37
   0   4  -2  185.49    6.38
   0  -4   2  183.60    6.51
  -1   4  -2   24.05    1.51
   1  -4   2   29.11    1.67
   2  -4   2   10.99    1.07
  -3   4  -2   24.96    1.16
  -4   4  -2    2.79    0.49
  -4   4  -2    2.43    0.49
   4  -4   2    2.36    0.55
   4  -4   2    3.23    0.77
   4  -4   2    4.12    0.66
   4  -4   2    3.29    0.50
  -5   4  -2    0.75    0.40
   5  -4   2    1.11    0.55
   5  -4   2    1.23    0.52
   5  -4   2    1.57    0.48
  -6   4  -2    0.72    0.44
  -6   4  -2    1.21    0.50
   6  -4   2    0.78    0.63
   6  -4   2    0.84    0.50
   5   3  -2    1.01    0.55
   5   3  -2    1.98    0.80
   5   3  -2    0.52    0.60
   5   3  -2    1.10    0.70
   5   3  -2   -0.11    1.40
   5   3  -2    1.27    0.43
  -5  -3   2    0.91    0.68
  -5  -3   2    0.85    0.59
   4   3  -2    1.25    0.56
   4   3  -2    2.06    0.66
   4   3  -2    2.61    0.87
   4   3  -2    1.69    0.58
   4   3  -2    2.86    0.64
   4   3  -2    2.41    0.48
   4   3  -2    3.20    1.39
  -4  -3   2    1.75    0.58
  -4  -3   2    2.78    0.73
  -4  -3   2    1.49    0.53
  -4  -3   2    2.61    0.68
   3   3  -2   15.52    1.27
   3   3  -2   18.98    2.10
   3   3  -2   16.74    1.18
   3   3  -2   16.05    1.13
   3   3  -2   16.23    1.15
   3   3  -2   14.27    1.24
   3   3  -2   13.42    1.11
  -3  -3   2   16.74    1.16
  -3  -3   2   14.49    1.01
  -3  -3   2   15.67    1.22
  -3  -3   2   15.13    1.09
  -3  -3   2   15.67    1.14
  -3  -3   2   14.75    1.41
  -3  -3   2   14.26    1.24
  -3  -3   2   15.19    1.16
   2   3  -2   68.27    2.49
   2   3  -2   65.67    2.70
   2   3  -2   65.62    2.55
   2   3  -2   69.77    2.70
   2   3  -2   69.30    2.65
   2   3  -2   68.75    2.50
   2   3  -2   68.88    2.75
   2   3  -2   71.42    3.51
  -2  -3   2   69.63    2.73
  -2  -3   2   70.57    2.56
  -2  -3   2   66.60    3.05
  -2  -3   2   68.33    2.48
  -2  -3   2   61.43    2.52
  -2  -3   2   73.13    2.66
  -2  -3   2   67.94    2.52
  -2  -3   2   67.24    2.72
  -2  -3   2   71.11    2.55
  -2  -3   2   69.38    2.64
   1   3  -2   79.15    3.03
   1   3  -2   88.71    3.05
   1   3  -2   97.63    3.71
   1   3  -2   89.53    3.03
   1   3  -2   84.96    2.89
   1   3  -2   87.05    2.86
   1   3  -2   87.02    3.00
   1   3  -2   87.76    3.52
   1   3  -2   85.99    3.06
  -1  -3   2   91.27    2.84
  -1  -3   2   88.58    2.99
  -1  -3   2   86.00    2.99
  -1  -3   2   88.57    3.05
  -1  -3   2   88.39    3.08
  -1  -3   2   84.96    3.49
   0   3  -2   30.48    1.22
   0   3  -2   34.42    1.69
   0  -3   2   33.41    1.71
  -1   3  -2   21.70    1.30
   1  -3   2   23.30    1.36
   2  -3   2   27.01    1.53
  -3   3  -2   26.10    1.13
  -3   3  -2   25.91    1.14
  -3   3  -2   24.69    1.13
  -3   3  -2   23.79    1.18
  -3   3  -2   26.19    1.25
   3  -3   2   27.13    1.20
   3  -3   2   26.47    1.23
   3  -3   2   26.06    1.13
   3  -3   2   28.94    1.54
  -4   3  -2  129.83    4.93
  -4   3  -2  135.80    4.90
  -4   3  -2  150.26    4.72
  -4   3  -2  150.51    4.84
  -4   3  -2  138.62    4.88
  -4   3  -2  145.37    5.00
  -4   3  -2  140.30    4.71
  -4   3  -2  137.74    4.90
   4  -3   2  153.59    4.90
   4  -3   2  148.00    4.63
   4  -3   2  137.86    5.49
   4  -3   2  144.06    4.93
   4  -3   2  145.40    4.52
   4  -3   2  145.53    4.80
  -5   3  -2   67.74    2.60
  -5   3  -2   67.39    2.41
  -5   3  -2   62.41    2.62
  -5   3  -2   56.82    2.84
   5  -3   2   64.37    2.68
   5  -3   2   67.09    2.87
   5  -3   2   62.43    2.48
   5  -3   2   64.58    2.72
   5  -3   2   64.78    2.57
   5  -3   2   63.80    3.51
  -6   3  -2   10.42    1.06
  -6   3  -2   13.11    0.98
  -6   3  -2   12.07    1.57
  -6   3  -2   10.91    1.03
   6  -3   2   12.92    1.05
   6  -3   2   13.32    1.40
   6  -3   2   12.59    1.18
  -7   3  -2    6.97    0.94
  -7   3  -2    5.64    0.98
  -7   3  -2    5.61    0.98
   7  -3   2    7.16    1.17
   7  -3   2    6.53    1.36
   6   2  -2    9.15    1.54
   6   2  -2    5.75    2.36
   6   2  -2    5.36    1.22
   6   2  -2    6.06    1.31
   6   2  -2    5.72    1.28
   6   2  -2    7.34    0.84
  -6  -2   2    6.00    1.20
   5   2  -2    4.56    0.64
   5   2  -2    4.65    1.05
   5   2  -2    5.43    0.86
   5   2  -2    6.15    1.01
   5   2  -2    6.35    1.06
   5   2  -2    4.39    1.04
   5   2  -2    6.92    2.10
   5   2  -2    7.17    1.29
  -5  -2   2    6.78    1.00
  -5  -2   2    4.85    1.01
  -5  -2   2    3.90    0.93
   4   2  -2   48.21    2.47
   4   2  -2   42.84    2.42
   4   2  -2   41.72    2.27
   4   2  -2   45.57    1.82
   4   2  -2   44.68    2.20
   4   2  -2   42.70    2.27
   4   2  -2   44.03    2.06
   4   2  -2   43.31    2.25
   4   2  -2   46.66    3.57
  -4  -2   2   45.44    2.29
  -4  -2   2   43.97    2.15
  -4  -2   2   48.26    2.37
  -4  -2   2   44.43    2.29
  -4  -2   2   42.43    2.37
  -4  -2   2   44.99    2.27
   3   2  -2   21.51    1.28
   3   2  -2   18.20    1.12
   3   2  -2   19.42    1.31
   3   2  -2   19.60    1.23
   3   2  -2   20.10    2.13
   3   2  -2   23.15    1.31
   3   2  -2   19.60    1.28
   3   2  -2   19.75    1.27
   3   2  -2   21.68    0.99
   3   2  -2   20.01    1.39
   3   2  -2   22.70    1.47
   3   2  -2   22.94    1.35
  -3  -2   2   22.49    1.33
  -3  -2   2   20.78    1.22
  -3  -2   2   19.94    1.36
  -3  -2   2   21.14    1.33
  -3  -2   2   20.74    1.31
  -3  -2   2   21.44    1.27
  -3  -2   2   22.40    1.32
  -3  -2   2   20.56    1.04
  -3  -2   2   22.89    1.36
  -3  -2   2   20.98    1.11
  -3  -2   2   23.69    1.46
   2   2  -2   20.92    1.04
   2   2  -2   20.09    1.20
   2   2  -2   21.93    1.19
   2   2  -2   21.66    1.26
   2   2  -2   20.89    1.08
   2   2  -2   22.83    1.79
   2   2  -2   22.40    1.73
   2   2  -2   23.56    1.13
   2   2  -2   21.12    1.15
   2   2  -2   21.78    1.16
   2   2  -2   21.99    1.34
  -2  -2   2   18.64    1.18
  -2  -2   2   20.94    1.10
  -2  -2   2   23.54    1.19
  -2  -2   2   18.64    1.17
  -2  -2   2   21.07    1.08
  -2  -2   2   19.65    1.14
  -2  -2   2   23.08    1.18
  -2  -2   2   19.62    1.13
  -2  -2   2   20.81    1.11
   1   2  -2    9.62    0.68
   1   2  -2    9.22    0.55
   1   2  -2   11.49    0.74
   1   2  -2   10.93    0.62
   1   2  -2    9.95    0.68
   1   2  -2   12.35    0.70
   1   2  -2   10.52    0.99
   1   2  -2   11.90    0.71
   1   2  -2   10.12    0.67
  -1  -2   2    9.98    0.63
  -1  -2   2    9.74    0.64
  -1  -2   2    9.28    0.59
  -1  -2   2   10.46    0.60
  -1  -2   2    9.96    0.60
  -1  -2   2    9.80    0.69
  -1  -2   2   10.96    0.63
  -1  -2   2   10.09    0.61
  -1  -2   2   10.02    0.68
  -1  -2   2    9.54    0.64
  -1  -2   2    8.81    0.82
   0   2  -2  147.66    4.89
   0   2  -2  170.69    4.92
   0   2  -2  163.07    4.95
   0   2  -2  155.89    4.89
   0   2  -2  160.28    4.91
   0   2  -2  163.21    4.93
   0   2  -2  167.88    5.27
   0   2  -2  160.34    5.35
   0  -2   2  144.83    4.87
   0  -2   2  146.48    5.26
   0  -2   2  163.18    5.36
   0  -2   2  163.13    4.93
   0  -2   2  160.74    4.87
  -1   2  -2  307.19    9.37
   1  -2   2  285.83    9.32
  -2   2  -2  256.82    7.80
  -2   2  -2  266.09    7.85
  -2   2  -2  253.22    7.83
  -2   2  -2  260.75    7.86
  -2   2  -2  269.17    7.88
   2  -2   2  247.17    8.14
   2  -2   2  263.37    7.82
   2  -2   2  261.17    7.86
  -3   2  -2   83.70    2.87
  -3   2  -2   84.46    2.95
  -3   2  -2   85.69    2.93
  -3   2  -2   80.87    2.92
  -3   2  -2   85.93    2.81
  -3   2  -2   79.60    2.88
  -3   2  -2   86.57    2.80
  -3   2  -2   82.74    2.90
  -3   2  -2   87.35    3.02
   3  -2   2   84.38    2.91
   3  -2   2   86.00    2.80
   3  -2   2   79.88    2.77
   3  -2   2   87.75    3.00
   3  -2   2   79.76    2.92
   3  -2   2   84.65    3.42
   3  -2   2   87.49    2.83
   3  -2   2   86.61    2.79
   3  -2   2   85.34    2.79
  -4   2  -2   39.50    1.46
  -4   2  -2   36.93    1.58
  -4   2  -2   38.64    1.65
  -4   2  -2   38.50    1.71
  -4   2  -2   38.43    1.83
  -4   2  -2   38.72    1.44
  -4   2  -2   37.48    1.66
  -4   2  -2   36.61    1.60
  -4   2  -2   34.59    1.73
  -4   2  -2   36.44    1.81
  -4   2  -2   37.12    1.75
   4  -2   2   37.48    1.69
   4  -2   2   37.71    1.64
   4  -2   2   38.45    1.62
   4  -2   2   35.11    1.59
   4  -2   2   37.97    1.66
   4  -2   2   36.71    1.71
   4  -2   2   38.61    2.31
   4  -2   2   35.36    1.56
   4  -2   2   37.10    1.78
  -5   2  -2    4.71    0.56
  -5   2  -2    3.04    0.80
  -5   2  -2    4.40    0.66
  -5   2  -2    3.61    0.72
  -5   2  -2    3.01    0.57
  -5   2  -2    3.70    0.68
  -5   2  -2    2.39    0.77
  -5   2  -2    3.61    0.61
   5  -2   2    3.51    0.80
   5  -2   2    3.65    1.03
   5  -2   2    3.25    0.57
   5  -2   2    3.26    0.66
   5  -2   2    4.99    0.79
   5  -2   2    3.52    0.66
  -6   2  -2    1.52    0.52
  -6   2  -2    1.24    0.48
  -6   2  -2    0.56    0.70
  -6   2  -2    0.99    0.50
  -6   2  -2    1.10    0.40
   6  -2   2    0.62    0.61
   6  -2   2    0.27    0.55
   6  -2   2    0.70    0.41
   6  -2   2    1.04    0.52
  -7   2  -2    2.04    0.56
  -7   2  -2    2.21    0.64
  -7   2  -2    2.19    0.69
  -7   2  -2    2.07    1.10
  -7   2  -2    2.87    0.87
   7  -2   2    1.71    0.84
   7  -2   2    0.90    0.73
   6   1  -2    1.48    0.86
   6   1  -2    1.34    0.72
   6   1  -2    4.33    1.21
   6   1  -2    1.43    0.97
   6   1  -2    1.36    0.82
   6   1  -2    2.20    0.53
   6   1  -2    3.54    0.97
   6   1  -2    1.97    0.84
   6   1  -2    2.66    1.99
  -6  -1   2    2.45    0.58
  -6  -1   2    1.59    0.78
  -6  -1   2    2.96    0.58
   5   1  -2    6.18    1.02
   5   1  -2    7.47    1.05
   5   1  -2    5.92    0.66
   5   1  -2    6.13    1.05
   5   1  -2    6.60    1.21
   5   1  -2    5.40    1.14
   5   1  -2    7.80    1.22
   5   1  -2    7.13    2.18
   5   1  -2    7.36    0.92
   5   1  -2    5.78    0.99
  -5  -1   2    8.25    1.06
  -5  -1   2    8.57    1.13
  -5  -1   2    7.41    1.11
  -5  -1   2    6.13    0.65
  -5  -1   2    6.71    0.71
   4   1  -2    4.59    0.78
   4   1  -2    6.27    0.58
   4   1  -2    6.20    0.84
   4   1  -2    5.41    0.81
   4   1  -2    6.39    1.77
   4   1  -2    5.75    0.98
   4   1  -2    5.22    0.95
   4   1  -2    6.29    1.01
   4   1  -2    4.25    0.65
  -4  -1   2    5.46    0.57
  -4  -1   2    5.04    0.91
  -4  -1   2    4.19    0.75
  -4  -1   2    5.72    0.67
  -4  -1   2    4.86    0.83
  -4  -1   2    5.18    0.52
  -4  -1   2    6.62    0.86
  -4  -1   2    5.87    0.81
  -4  -1   2    5.52    0.87
  -4  -1   2    5.52    0.70
  -4  -1   2    5.24    0.87
   3   1  -2   67.61    2.68
   3   1  -2   63.24    2.45
   3   1  -2   58.75    2.63
   3   1  -2   63.54    3.65
   3   1  -2   63.71    2.67
   3   1  -2   62.61    2.59
   3   1  -2   66.80    2.78
   3   1  -2   64.47    2.75
   3   1  -2   62.96    2.24
   3   1  -2   65.21    2.57
  -3  -1   2   66.42    2.47
  -3  -1   2   67.24    2.60
  -3  -1   2   60.01    2.60
  -3  -1   2   64.86    2.73
  -3  -1   2   60.46    2.63
  -3  -1   2   65.18    2.39
  -3  -1   2   62.29    2.66
  -3  -1   2   66.66    2.64
  -3  -1   2   60.50    2.22
  -3  -1   2   62.98    2.62
  -3  -1   2   64.57    2.18
  -3  -1   2   58.98    2.71
   2   1  -2   32.36    1.53
   2   1  -2   31.14    1.60
   2   1  -2   36.40    2.19
   2   1  -2   34.03    1.43
   2   1  -2   34.49    1.58
   2   1  -2   33.31    1.47
   2   1  -2   33.13    1.57
   2   1  -2   32.37    1.47
   2   1  -2   33.97    1.26
   2   1  -2   36.15    1.64
   2   1  -2   34.14    1.61
   2   1  -2   33.74    1.40
   2   1  -2   34.14    1.58
  -2  -1   2   33.96    1.53
  -2  -1   2   33.79    1.58
  -2  -1   2   34.08    1.54
  -2  -1   2   37.02    1.61
  -2  -1   2   35.08    1.65
  -2  -1   2   35.41    1.22
  -2  -1   2   36.84    1.58
  -2  -1   2   33.93    1.20
  -2  -1   2   34.70    1.42
  -2  -1   2   34.70    1.50
  -2  -1   2   32.06    1.57
  -2  -1   2   32.01    1.34
  -2  -1   2   31.81    1.53
   1   1  -2  336.75   10.28
   1   1  -2  340.29   10.31
   1   1  -2  321.71   10.34
   1   1  -2  355.52   10.06
   1   1  -2  337.12   10.09
   1   1  -2  335.22   10.28
   1   1  -2  333.96   10.29
   1   1  -2  332.50   10.30
   1   1  -2  342.51   10.79
   1   1  -2  342.53   10.30
   1   1  -2  348.30   10.15
   1   1  -2  338.25   10.04
   1   1  -2  347.64   10.29
   1   1  -2  325.20   10.17
   1   1  -2  334.98   10.16
   1   1  -2  348.95   10.90
   1   1  -2  324.48   10.37
   1   1  -2  327.16   10.15
  -1  -1   2  345.62   10.05
  -1  -1   2  334.19   10.23
  -1  -1   2  356.82   10.31
  -1  -1   2  343.77   10.28
  -1  -1   2  329.62   10.57
  -1  -1   2  339.43   10.32
  -1  -1   2  302.99   10.09
  -1  -1   2  343.14   10.28
  -1  -1   2  353.03   10.28
  -1  -1   2  338.03   10.35
  -1  -1   2  325.43   10.28
  -1  -1   2  345.14   10.22
  -1  -1   2  342.55   10.25
   0   1  -2  120.62    4.15
   0   1  -2  124.44    3.78
   0   1  -2  117.99    3.67
   0   1  -2  122.76    3.82
   0   1  -2  121.05    3.83
   0   1  -2  116.55    3.78
   0   1  -2  123.50    3.79
   0   1  -2  112.55    4.07
   0   1  -2  123.89    3.74
   0   1  -2  118.32    3.75
   0   1  -2  118.04    3.79
   0  -1   2  124.93    3.77
   0  -1   2  122.58    3.75
   0  -1   2  121.80    3.76
   0  -1   2  120.76    3.78
   0  -1   2  121.98    4.09
   0  -1   2  116.31    3.72
   0  -1   2  123.37    3.72
   0  -1   2  117.46    3.79
   0  -1   2  126.56    3.76
   0  -1   2  120.87    3.72
   0  -1   2  120.23    3.81
   0  -1   2  119.41    4.04
  -1   1  -2  343.03   10.67
  -1   1  -2  360.83   10.64
  -1   1  -2  366.70   10.68
  -1   1  -2  343.10   10.66
  -1   1  -2  368.28   10.67
  -1   1  -2  341.10   10.63
  -1   1  -2  383.70   10.98
  -1   1  -2  362.40   10.64
   1  -1   2  347.30   10.66
   1  -1   2  367.18   10.66
   1  -1   2  361.69   10.67
   1  -1   2  363.27   10.96
   1  -1   2  360.10   10.95
  -2   1  -2  179.99    5.55
  -2   1  -2  177.05    5.46
  -2   1  -2  182.55    5.45
  -2   1  -2  180.46    5.48
  -2   1  -2  171.11    5.40
  -2   1  -2  182.50    5.52
  -2   1  -2  181.64    5.46
  -2   1  -2  179.69    5.53
  -2   1  -2  180.15    5.43
  -2   1  -2  178.91    5.56
  -2   1  -2  175.73    5.95
  -2   1  -2  182.52    5.41
   2  -1   2  174.93    5.44
   2  -1   2  171.71    5.47
   2  -1   2  180.94    5.54
   2  -1   2  172.55    5.93
   2  -1   2  175.90    5.46
   2  -1   2  174.88    5.47
   2  -1   2  177.70    5.46
   2  -1   2  182.57    5.48
   2  -1   2  180.90    5.53
   2  -1   2  180.65    5.53
  -3   1  -2   30.27    1.14
  -3   1  -2   30.07    1.37
  -3   1  -2   32.64    1.32
  -3   1  -2   29.43    1.30
  -3   1  -2   32.60    1.46
  -3   1  -2   30.69    1.25
  -3   1  -2   29.36    1.23
  -3   1  -2   30.06    1.39
  -3   1  -2   29.57    1.26
  -3   1  -2   29.28    1.29
  -3   1  -2   28.61    1.33
  -3   1  -2   30.21    1.36
  -3   1  -2   31.48    1.38
  -3   1  -2   31.00    1.06
  -3   1  -2   29.77    1.08
   3  -1   2   31.46    1.35
   3  -1   2   29.92    1.35
   3  -1   2   32.94    1.83
   3  -1   2   33.14    1.18
   3  -1   2   31.36    1.33
   3  -1   2   31.89    1.41
   3  -1   2   31.27    1.36
   3  -1   2   31.70    1.35
  -4   1  -2   32.65    1.56
  -4   1  -2   32.06    1.62
  -4   1  -2   32.57    1.44
  -4   1  -2   34.97    1.55
  -4   1  -2   30.64    1.46
  -4   1  -2   29.63    1.47
  -4   1  -2   31.76    1.58
  -4   1  -2   33.57    1.71
  -4   1  -2   32.14    1.31
  -4   1  -2   37.78    1.55
  -4   1  -2   32.03    1.35
  -4   1  -2   33.67    1.70
   4  -1   2   33.13    1.64
   4  -1   2   32.30    1.56
   4  -1   2   31.24    1.54
   4  -1   2   33.89    1.58
   4  -1   2   32.29    2.13
   4  -1   2   31.76    1.24
   4  -1   2   35.14    1.58
   4  -1   2   30.61    1.53
   4  -1   2   29.21    1.29
   4  -1   2   30.89    1.36
   4  -1   2   29.42    1.53
   4  -1   2   32.08    1.28
   4  -1   2   32.52    1.48
  -5   1  -2   52.99    2.14
  -5   1  -2   44.87    2.27
  -5   1  -2   48.09    2.17
  -5   1  -2   53.16    2.16
  -5   1  -2   49.40    2.52
  -5   1  -2   51.00    2.23
  -5   1  -2   49.71    1.96
  -5   1  -2   49.45    2.45
   5  -1   2   51.80    2.31
   5  -1   2   48.05    2.05
   5  -1   2   48.83    2.28
   5  -1   2   53.11    2.42
   5  -1   2   49.28    2.29
   5  -1   2   45.76    2.21
   5  -1   2   51.60    2.29
   5  -1   2   49.42    1.89
   5  -1   2   47.32    2.01
   5  -1   2   51.61    2.32
  -6   1  -2   38.51    2.23
  -6   1  -2   44.15    2.13
  -6   1  -2   39.78    2.11
  -6   1  -2   35.18    1.98
  -6   1  -2   42.66    2.07
  -6   1  -2   39.05    2.48
  -6   1  -2   38.99    1.80
   6  -1   2   40.08    2.15
   6  -1   2   41.17    2.32
   6  -1   2   41.03    1.75
   6  -1   2   43.01    2.25
  -7   1  -2    3.83    0.85
  -7   1  -2    3.05    0.75
  -7   1  -2    3.63    0.73
  -7   1  -2    5.01    1.08
  -7   1  -2    3.24    1.16
   7  -1   2    2.48    0.99
   7  -1   2    3.69    0.69
   6   0  -2   22.64    1.29
   6   0  -2   24.10    2.14
   6   0  -2   22.87    1.90
   6   0  -2   24.54    1.65
   6   0  -2   24.38    2.06
   6   0  -2   22.25    1.88
   6   0  -2   24.52    3.47
  -6   0   2   26.39    1.41
  -6   0   2   25.57    1.86
  -6   0   2   24.05    1.58
  -6   0   2   22.80    1.99
  -6   0   2   23.68    1.95
   5   0  -2   32.72    1.77
   5   0  -2   31.20    1.87
   5   0  -2   32.39    1.45
   5   0  -2   33.14    2.18
   5   0  -2   32.24    2.00
   5   0  -2   36.03    3.50
   5   0  -2   32.42    2.01
   5   0  -2   29.50    2.05
   5   0  -2   33.46    2.01
   5   0  -2   31.42    1.99
   5   0  -2   33.80    2.07
  -5   0   2   32.77    1.72
  -5   0   2   31.27    2.04
  -5   0   2   31.65    2.09
  -5   0   2   29.71    1.78
  -5   0   2   30.04    1.51
  -5   0   2   31.94    1.96
  -5   0   2   33.01    1.69
  -5   0   2   38.42    2.38
   4   0  -2  116.80    4.38
   4   0  -2  109.65    4.28
   4   0  -2  111.88    4.13
   4   0  -2  109.44    3.92
   4   0  -2  113.89    4.22
   4   0  -2  110.94    4.24
   4   0  -2  108.09    3.63
   4   0  -2  102.33    4.16
   4   0  -2  109.09    5.63
   4   0  -2  106.45    4.25
  -4   0   2  112.80    4.11
  -4   0   2  102.69    4.25
  -4   0   2  110.86    3.69
  -4   0   2  103.96    4.13
  -4   0   2  113.16    4.28
  -4   0   2  102.14    4.30
  -4   0   2  113.04    3.91
  -4   0   2  100.64    4.12
  -4   0   2   95.90    4.09
  -4   0   2  107.98    4.00
  -4   0   2  114.62    3.84
   3   0  -2   26.01    1.44
   3   0  -2   26.98    1.43
   3   0  -2   27.58    1.49
   3   0  -2   24.97    1.54
   3   0  -2   25.45    1.45
   3   0  -2   26.06    1.54
   3   0  -2   28.65    1.52
   3   0  -2   25.34    1.11
   3   0  -2   25.22    1.51
   3   0  -2   25.88    1.29
   3   0  -2   28.00    2.30
   3   0  -2   27.63    1.39
   3   0  -2   25.97    1.53
  -3   0   2   25.93    1.42
  -3   0   2   25.19    1.49
  -3   0   2   28.97    1.50
  -3   0   2   26.08    1.41
  -3   0   2   25.58    1.23
  -3   0   2   25.85    1.26
  -3   0   2   24.09    1.47
  -3   0   2   24.28    1.50
  -3   0   2   25.40    1.47
  -3   0   2   25.97    1.14
  -3   0   2   26.58    1.45
   2   0  -2   28.37    1.44
   2   0  -2   28.37    1.39
   2   0  -2   29.85    1.35
   2   0  -2   28.37    1.37
   2   0  -2   27.54    1.09
   2   0  -2   29.85    1.40
   2   0  -2   28.58    1.95
   2   0  -2   28.04    1.25
   2   0  -2   29.91    1.44
   2   0  -2   28.41    1.38
   2   0  -2   29.69    1.38
   2   0  -2   29.68    1.32
   2   0  -2   28.77    1.44
   2   0  -2   28.59    1.32
   2   0  -2   26.32    1.39
   2   0  -2   29.10    1.25
   2   0  -2   28.07    1.27
  -2   0   2   26.64    1.34
  -2   0   2   26.97    1.41
  -2   0   2   27.95    1.16
  -2   0   2   28.83    1.40
  -2   0   2   25.01    1.32
  -2   0   2   27.61    1.21
  -2   0   2   26.89    1.39
  -2   0   2   28.08    1.16
  -2   0   2   29.34    1.42
  -2   0   2   29.94    1.35
  -2   0   2   28.32    1.11
  -2   0   2   28.03    1.31
  -2   0   2   27.07    1.34
   1   0  -2   64.76    2.14
   1   0  -2   63.50    2.13
   1   0  -2   63.12    2.07
   1   0  -2   58.14    2.24
   1   0  -2   64.74    2.18
   1   0  -2   59.77    2.22
   1   0  -2   62.43    2.24
   1   0  -2   61.59    2.18
   1   0  -2   61.03    2.25
   1   0  -2   63.01    2.73
   1   0  -2   63.27    2.01
   1   0  -2   69.36    2.34
   1   0  -2   60.15    2.57
   1   0  -2   64.14    2.12
   1   0  -2   60.39    2.18
   1   0  -2   65.14    2.15
   1   0  -2   61.54    2.24
   1   0  -2   64.32    2.34
   1   0  -2   61.46    2.26
  -1   0   2   61.12    2.02
  -1   0   2   60.00    2.25
  -1   0   2   61.57    2.24
  -1   0   2   63.31    2.01
  -1   0   2   63.61    2.48
  -1   0   2   64.01    2.22
  -1   0   2   64.57    2.10
  -1   0   2   61.34    2.02
  -1   0   2   61.34    2.23
  -1   0   2   61.75    2.21
  -1   0   2   63.44    2.27
  -1   0   2   63.38    2.20
  -1   0   2   60.52    2.27
  -1   0   2   61.57    2.19
  -1   0   2   62.37    2.11
  -1   0   2   63.89    2.25
  -1   0   2   63.33    2.11
  -1   0   2   64.19    2.30
   0   0  -2   60.99    2.15
   0   0  -2   57.93    1.93
   0   0  -2   58.76    1.95
   0   0  -2   55.73    1.95
   0   0  -2   57.99    1.89
   0   0  -2   50.30    2.26
   0   0  -2   55.99    1.91
   0   0  -2   55.64    1.81
   0   0  -2   60.64    1.97
   0   0  -2   56.06    1.92
   0   0  -2   58.70    1.99
   0   0  -2   56.75    1.94
   0   0  -2   57.87    1.92
   0   0  -2   56.56    1.76
   0   0  -2   58.48    1.89
   0   0  -2   59.06    1.79
   0   0  -2   60.20    1.87
   0   0  -2   57.49    1.87
   0   0  -2   56.79    1.80
   0   0  -2   55.66    1.96
   0   0   2   58.21    2.02
   0   0   2   56.93    1.92
   0   0   2   58.28    1.92
   0   0   2   59.25    1.95
   0   0   2   56.47    1.91
   0   0   2   57.26    1.87
   0   0   2   47.96    2.21
   0   0   2   55.83    2.11
   0   0   2   59.26    1.94
   0   0   2   58.34    1.89
   0   0   2   57.74    1.97
   0   0   2   58.41    1.85
   0   0   2   58.69    1.97
   0   0   2   58.21    1.83
   0   0   2   57.11    1.96
   0   0   2   57.79    1.94
  -1   0  -2  304.10    9.00
  -1   0  -2  304.16    8.87
  -1   0  -2  292.20    9.29
  -1   0  -2  298.82    8.81
  -1   0  -2  293.15    8.92
  -1   0  -2  306.53    8.89
  -1   0  -2  292.85    8.89
  -1   0  -2  305.62    8.96
  -1   0  -2  298.01    8.88
  -1   0  -2  303.91    8.92
  -1   0  -2  289.03    8.93
  -1   0  -2  278.67    8.95
  -1   0  -2  296.83    8.79
  -1   0  -2  293.59    8.93
  -1   0  -2  308.11    8.97
  -1   0  -2  312.54    8.98
  -1   0  -2  296.60    8.97
  -1   0  -2  298.49    8.94
  -1   0  -2  297.51    8.93
   1   0   2  297.03    8.92
   1   0   2  297.99    8.83
   1   0   2  309.12    8.95
   1   0   2  299.56    8.87
   1   0   2  301.17    8.92
   1   0   2  294.16    8.96
   1   0   2  296.79    8.95
   1   0   2  299.24    8.97
   1   0   2  293.22    8.94
   1   0   2  305.06    8.95
   1   0   2  300.10    8.99
   1   0   2  301.21    8.82
   1   0   2  290.49    9.30
   1   0   2  306.08    8.84
  -2   0  -2   30.38    1.21
  -2   0  -2   30.84    1.15
  -2   0  -2   29.74    1.12
  -2   0  -2   28.82    1.13
  -2   0  -2   32.26    1.20
  -2   0  -2   32.39    1.21
  -2   0  -2   28.72    1.04
  -2   0  -2   32.35    1.24
  -2   0  -2   29.58    1.20
  -2   0  -2   30.19    1.17
  -2   0  -2   29.10    1.21
  -2   0  -2   30.67    1.22
  -2   0  -2   28.56    1.55
  -2   0  -2   28.85    1.21
  -2   0  -2   31.00    1.26
  -2   0  -2   30.02    1.03
   2   0   2   32.32    1.24
   2   0   2   30.28    1.13
   2   0   2   29.51    1.21
   2   0   2   32.04    1.23
   2   0   2   30.15    1.12
   2   0   2   30.08    1.24
   2   0   2   28.41    1.21
   2   0   2   26.41    1.50
   2   0   2   30.51    1.17
   2   0   2   29.55    1.20
   2   0   2   30.11    1.13
   2   0   2   31.12    1.23
  -3   0  -2   27.48    1.25
  -3   0  -2   29.55    1.25
  -3   0  -2   31.60    1.35
  -3   0  -2   27.35    1.12
  -3   0  -2   28.57    1.22
  -3   0  -2   26.54    1.36
  -3   0  -2   26.49    1.28
  -3   0  -2   28.92    1.09
  -3   0  -2   30.84    1.42
  -3   0  -2   29.21    1.21
  -3   0  -2   27.00    1.27
  -3   0  -2   27.87    1.32
  -3   0  -2   29.94    1.34
   3   0   2   27.20    1.31
   3   0   2   29.84    1.35
   3   0   2   29.64    1.32
   3   0   2   27.88    1.14
   3   0   2   28.01    1.30
   3   0   2   26.90    1.72
   3   0   2   25.85    1.20
   3   0   2   27.03    1.11
   3   0   2   27.52    1.02
   3   0   2   26.94    1.31
   3   0   2   29.10    1.25
   3   0   2   26.94    1.22
   3   0   2   28.88    1.33
   3   0   2   28.12    1.07
   3   0   2   26.07    1.29
  -4   0  -2    9.61    0.74
  -4   0  -2   10.30    0.81
  -4   0  -2   10.17    0.90
  -4   0  -2    8.69    0.94
  -4   0  -2    9.62    0.62
  -4   0  -2   11.16    0.84
  -4   0  -2   10.73    0.76
  -4   0  -2    9.82    0.83
  -4   0  -2    9.08    0.70
  -4   0  -2   11.14    0.84
  -4   0  -2   10.25    0.83
  -4   0  -2    8.85    1.17
  -4   0  -2   10.26    0.92
   4   0   2    9.59    0.64
   4   0   2    9.99    0.85
   4   0   2    9.58    0.66
   4   0   2    9.74    0.83
   4   0   2   11.01    0.71
   4   0   2   10.18    0.88
   4   0   2    9.46    1.18
   4   0   2   10.20    0.58
   4   0   2   10.40    0.81
   4   0   2    9.47    0.84
   4   0   2    9.23    0.79
   4   0   2    9.44    0.76
   4   0   2    8.65    0.77
   4   0   2   10.13    0.83
  -5   0  -2    8.28    0.87
  -5   0  -2    8.76    0.85
  -5   0  -2    9.09    1.15
  -5   0  -2    8.51    0.79
  -5   0  -2    6.26    0.83
  -5   0  -2    8.86    0.82
  -5   0  -2    8.09    0.92
  -5   0  -2    8.35    1.01
  -5   0  -2    8.51    0.87
  -5   0  -2    7.89    0.66
   5   0   2    7.70    0.68
   5   0   2    7.54    0.60
   5   0   2    7.31    0.72
   5   0   2    9.61    1.00
   5   0   2    8.75    0.95
   5   0   2    9.24    0.86
   5   0   2    8.53    0.96
   5   0   2    9.08    0.89
   5   0   2    8.67    0.94
   5   0   2    7.96    0.86
   5   0   2    6.89    0.84
   5   0   2    8.57    0.76
   5   0   2    8.32    0.90
   5   0   2    6.73    1.24
  -6   0  -2   30.96    1.76
  -6   0  -2   30.69    1.48
  -6   0  -2   26.16    1.67
  -6   0  -2   29.71    2.13
  -6   0  -2   29.41    1.89
  -6   0  -2   33.14    2.10
  -6   0  -2   32.47    1.73
  -6   0  -2   29.82    1.78
   6   0   2   26.64    1.48
   6   0   2   27.81    1.45
   6   0   2   29.51    1.93
   6   0   2   30.50    1.93
   6   0   2   28.38    1.81
  -7   0  -2    4.42    1.00
  -7   0  -2    4.02    1.25
  -7   0  -2    2.75    0.70
  -7   0  -2    3.00    0.88
  -7   0  -2    1.09    0.56
  -7   0  -2    1.88    0.50
  -7   0  -2    2.43    0.79
   7   0   2    1.88    0.72
   7   0   2    2.76    0.68
   7   0   2    4.03    1.01
   6  -1  -2   24.96    1.22
   6  -1  -2   23.96    2.10
   6  -1  -2   22.91    1.82
   6  -1  -2   21.04    1.53
   6  -1  -2   24.28    1.86
   6  -1  -2   24.88    3.41
  -6   1   2   24.42    2.03
  -6   1   2   22.12    1.38
  -6   1   2   24.95    2.07
  -6   1   2   24.98    1.74
  -6   1   2   23.13    1.81
  -6   1   2   25.45    1.72
   5  -1  -2   20.66    1.10
   5  -1  -2   26.81    3.11
   5  -1  -2   22.23    1.50
   5  -1  -2   22.53    1.40
   5  -1  -2   21.44    1.60
   5  -1  -2   25.18    1.79
   5  -1  -2   24.86    1.70
   5  -1  -2   23.29    1.65
   5  -1  -2   22.98    1.80
  -5   1   2   22.76    1.52
  -5   1   2   23.41    1.43
  -5   1   2   25.24    1.82
  -5   1   2   21.51    1.60
  -5   1   2   22.39    1.27
  -5   1   2   21.28    1.72
  -5   1   2   23.12    1.72
   4  -1  -2   37.81    1.79
   4  -1  -2   39.58    2.17
   4  -1  -2   41.68    2.20
   4  -1  -2   39.07    1.55
   4  -1  -2   37.80    2.00
   4  -1  -2   36.94    2.45
   4  -1  -2   40.43    2.00
   4  -1  -2   40.10    2.05
   4  -1  -2   38.65    2.03
   4  -1  -2   36.58    2.08
   4  -1  -2   40.70    2.18
   4  -1  -2   38.54    3.17
   4  -1  -2   41.94    1.93
  -4   1   2   34.48    1.96
  -4   1   2   39.12    2.15
  -4   1   2   39.43    1.68
  -4   1   2   41.69    1.92
  -4   1   2   39.39    2.14
  -4   1   2   38.47    2.04
  -4   1   2   40.56    2.16
  -4   1   2   41.89    2.03
  -4   1   2   37.46    1.98
  -4   1   2   40.62    1.86
   3  -1  -2    3.51    0.55
   3  -1  -2    2.25    0.54
   3  -1  -2    2.27    0.50
   3  -1  -2    2.56    0.53
   3  -1  -2    2.76    0.61
   3  -1  -2    3.67    0.67
   3  -1  -2    2.02    0.53
   3  -1  -2    2.36    0.33
   3  -1  -2    3.75    1.12
   3  -1  -2    2.77    0.45
   3  -1  -2    2.23    0.59
   3  -1  -2    2.43    0.62
   3  -1  -2    3.56    0.71
   3  -1  -2    3.41    0.61
  -3   1   2    2.24    0.56
  -3   1   2    2.42    0.51
  -3   1   2    2.57    0.57
  -3   1   2    1.68    0.47
  -3   1   2    2.33    0.48
  -3   1   2    2.30    0.50
  -3   1   2    2.50    0.54
  -3   1   2    2.79    0.40
  -3   1   2    2.75    0.44
  -3   1   2    2.77    0.57
  -3   1   2    3.52    0.61
   2  -1  -2    1.86    0.38
   2  -1  -2    2.50    0.50
   2  -1  -2    2.31    0.42
   2  -1  -2    1.93    0.45
   2  -1  -2    0.94    0.66
   2  -1  -2    2.45    0.55
   2  -1  -2    1.92    0.42
   2  -1  -2    1.98    0.41
   2  -1  -2    1.93    0.41
   2  -1  -2    1.41    0.37
   2  -1  -2    2.20    0.27
   2  -1  -2    1.81    0.40
   2  -1  -2    1.62    0.45
   2  -1  -2    1.94    0.33
   2  -1  -2    2.07    0.48
   2  -1  -2    1.66    0.34
   2  -1  -2    1.72    0.46
  -2   1   2    0.66    0.29
  -2   1   2    1.29    0.35
  -2   1   2    1.60    0.42
  -2   1   2    1.74    0.39
  -2   1   2    1.88    0.40
  -2   1   2    2.30    0.46
  -2   1   2    1.32    0.29
  -2   1   2    1.69    0.40
  -2   1   2    1.95    0.41
  -2   1   2    2.30    0.34
  -2   1   2    1.31    0.34
  -2   1   2    1.68    0.33
  -2   1   2    1.58    0.25
   1  -1  -2   49.49    1.84
   1  -1  -2   54.51    2.01
   1  -1  -2   50.02    1.89
   1  -1  -2   49.95    1.86
   1  -1  -2   51.60    1.80
   1  -1  -2   50.51    1.87
   1  -1  -2   49.09    2.36
   1  -1  -2   49.60    1.92
   1  -1  -2   50.59    1.92
   1  -1  -2   51.14    1.80
   1  -1  -2   50.92    1.96
   1  -1  -2   51.40    1.81
   1  -1  -2   52.32    1.85
   1  -1  -2   55.46    1.98
   1  -1  -2   50.29    1.75
   1  -1  -2   52.50    1.93
   1  -1  -2   52.12    1.69
   1  -1  -2   54.72    2.30
   1  -1  -2   51.14    1.94
   1  -1  -2   52.43    1.84
  -1   1   2   51.92    1.95
  -1   1   2   51.82    1.89
  -1   1   2   51.10    1.83
  -1   1   2   51.15    2.11
  -1   1   2   51.37    1.75
  -1   1   2   47.78    1.91
  -1   1   2   51.86    1.87
  -1   1   2   52.26    1.96
  -1   1   2   50.89    1.84
  -1   1   2   51.94    1.69
  -1   1   2   50.05    1.91
  -1   1   2   50.43    1.81
  -1   1   2   54.10    1.80
  -1   1   2   51.72    1.78
  -1   1   2   53.19    1.97
  -1   1   2   49.89    1.80
  -1   1   2   52.27    1.92
  -1   1   2   52.02    1.90
  -1   1   2   53.18    1.90
   0  -1  -2  345.64   10.35
   0  -1  -2  345.73   10.28
   0  -1  -2  333.69   10.77
   0  -1  -2  344.68   10.25
   0  -1  -2  335.23   10.32
   0  -1  -2  337.95   10.30
   0  -1  -2  329.71   10.35
   0  -1  -2  351.02   10.18
   0  -1  -2  333.12   10.30
   0  -1  -2  349.55   10.27
   0  -1  -2  349.59   10.22
   0  -1  -2  351.49   10.37
   0  -1  -2  351.62   10.33
   0  -1  -2  345.97   10.29
   0  -1  -2  342.46   10.35
   0  -1  -2  340.97   10.42
   0  -1  -2  334.80   10.33
   0  -1  -2  348.98   10.36
   0  -1  -2  345.40   10.21
   0   1   2  349.15   10.22
   0   1   2  345.49   10.81
   0   1   2  353.26   10.32
   0   1   2  341.59   10.31
   0   1   2  351.89   10.31
   0   1   2  349.47   10.22
   0   1   2  325.08   10.26
   0   1   2  340.49   10.33
   0   1   2  345.72   10.40
   0   1   2  350.24   10.35
   0   1   2  355.27   10.32
   0   1   2  358.22   10.27
   0   1   2  348.28   10.32
   0   1   2  352.96   10.38
   0   1   2  341.88   10.26
   0   1   2  342.29   10.18
   0   1   2  341.27   10.28
   0   1   2  339.37   10.35
   0   1   2  339.94   10.36
   0   1   2  349.19   10.16
  -1  -1  -2   73.17    2.46
  -1  -1  -2   75.07    2.45
  -1  -1  -2   75.25    2.41
  -1  -1  -2   77.14    2.47
  -1  -1  -2   75.31    2.50
  -1  -1  -2   76.08    2.85
  -1  -1  -2   75.65    2.43
  -1  -1  -2   74.66    2.29
  -1  -1  -2   76.43    2.45
  -1  -1  -2   75.01    2.49
  -1  -1  -2   77.80    2.50
  -1  -1  -2   73.86    2.49
  -1  -1  -2   73.07    2.41
  -1  -1  -2   73.44    2.45
  -1  -1  -2   76.70    2.36
  -1  -1  -2   74.27    2.34
  -1  -1  -2   71.08    2.33
  -1  -1  -2   71.54    2.45
  -1  -1  -2   75.35    2.48
   1   1   2   77.09    2.44
   1   1   2   77.63    2.50
   1   1   2   76.08    2.47
   1   1   2   77.84    2.88
   1   1   2   76.23    2.46
   1   1   2   76.88    2.42
   1   1   2   74.79    2.44
   1   1   2   77.16    2.32
   1   1   2   77.23    2.45
   1   1   2   81.13    2.45
   1   1   2   72.67    2.46
   1   1   2   70.48    2.48
   1   1   2   73.12    2.33
   1   1   2   76.07    2.40
   1   1   2   74.20    2.47
   1   1   2   71.05    2.48
   1   1   2   74.62    2.33
   1   1   2   73.74    2.38
   1   1   2   76.75    2.52
   1   1   2   74.25    2.50
  -2  -1  -2   60.86    2.25
  -2  -1  -2   68.01    2.31
  -2  -1  -2   64.84    2.72
  -2  -1  -2   64.84    2.29
  -2  -1  -2   61.92    2.16
  -2  -1  -2   64.43    2.06
  -2  -1  -2   63.26    2.25
  -2  -1  -2   64.80    2.21
  -2  -1  -2   62.32    2.26
  -2  -1  -2   61.97    2.23
  -2  -1  -2   62.34    2.18
  -2  -1  -2   64.36    2.20
  -2  -1  -2   66.24    2.25
  -2  -1  -2   65.99    2.05
  -2  -1  -2   63.36    2.16
  -2  -1  -2   62.98    2.24
  -2  -1  -2   64.62    2.11
  -2  -1  -2   62.85    2.24
   2   1   2   62.09    2.27
   2   1   2   61.23    2.13
   2   1   2   64.13    2.15
   2   1   2   57.96    2.21
   2   1   2   63.82    2.26
   2   1   2   65.08    2.05
   2   1   2   61.39    2.04
   2   1   2   62.97    2.25
   2   1   2   62.77    2.25
   2   1   2   67.69    2.23
   2   1   2   63.49    2.15
   2   1   2   66.58    2.25
   2   1   2   65.47    2.26
   2   1   2   64.46    2.20
   2   1   2   64.86    2.28
   2   1   2   64.32    2.18
   2   1   2   52.67    2.58
  -3  -1  -2   23.94    1.29
  -3  -1  -2   22.86    1.21
  -3  -1  -2   24.86    1.15
  -3  -1  -2   26.62    1.00
  -3  -1  -2   22.98    1.18
  -3  -1  -2   21.14    1.72
  -3  -1  -2   23.05    1.13
  -3  -1  -2   23.50    1.19
  -3  -1  -2   23.65    1.19
  -3  -1  -2   27.45    1.74
  -3  -1  -2   23.19    1.11
  -3  -1  -2   23.13    1.07
  -3  -1  -2   23.94    1.27
  -3  -1  -2   22.11    1.10
  -3  -1  -2   23.19    1.19
  -3  -1  -2   24.72    1.23
   3   1   2   24.04    1.17
   3   1   2   24.91    1.21
   3   1   2   23.74    1.22
   3   1   2   24.41    1.23
   3   1   2   24.01    1.20
   3   1   2   23.28    1.21
   3   1   2   24.15    1.20
   3   1   2   25.00    0.98
   3   1   2   23.41    0.91
   3   1   2   23.28    1.09
   3   1   2   23.31    0.97
   3   1   2   23.66    1.21
   3   1   2   24.12    1.14
   3   1   2   26.09    1.25
   3   1   2   21.17    1.58
   3   1   2   22.24    1.08
  -4  -1  -2   13.28    1.05
  -4  -1  -2   11.83    0.88
  -4  -1  -2   12.96    0.94
  -4  -1  -2   10.98    0.87
  -4  -1  -2   12.63    0.86
  -4  -1  -2   11.83    0.83
  -4  -1  -2   10.59    1.03
  -4  -1  -2   10.92    0.88
  -4  -1  -2   11.76    0.69
  -4  -1  -2   11.16    0.91
  -4  -1  -2   10.85    0.79
   4   1   2   13.35    0.99
   4   1   2   10.44    0.86
   4   1   2   11.12    0.89
   4   1   2   10.52    0.89
   4   1   2   13.33    0.98
   4   1   2   11.62    0.97
   4   1   2   12.22    1.35
   4   1   2   11.16    0.83
   4   1   2   11.57    0.68
   4   1   2   11.72    0.97
   4   1   2   10.98    0.93
   4   1   2   11.44    0.81
   4   1   2   11.99    0.62
   4   1   2   14.48    0.99
  -5  -1  -2   39.08    1.85
  -5  -1  -2   40.98    1.87
  -5  -1  -2   40.34    1.94
  -5  -1  -2   40.15    2.01
  -5  -1  -2   40.34    2.03
  -5  -1  -2   39.81    2.01
  -5  -1  -2   41.04    1.93
  -5  -1  -2   39.48    1.64
  -5  -1  -2   40.77    2.24
  -5  -1  -2   38.83    2.14
   5   1   2   39.63    2.03
   5   1   2   39.58    2.07
   5   1   2   38.51    1.75
   5   1   2   36.75    1.81
   5   1   2   39.32    1.82
   5   1   2   37.33    1.56
   5   1   2   38.82    1.96
   5   1   2   38.19    2.08
   5   1   2   35.28    1.99
   5   1   2   37.54    1.48
   5   1   2   39.97    2.07
   5   1   2   41.01    2.06
   5   1   2   37.28    2.71
  -6  -1  -2   82.40    3.32
  -6  -1  -2   80.29    3.53
  -6  -1  -2   84.18    3.29
  -6  -1  -2   78.61    3.76
  -6  -1  -2   76.44    2.97
  -6  -1  -2   79.78    3.40
  -6  -1  -2   82.37    3.74
  -6  -1  -2   87.22    3.44
   6   1   2   81.81    3.56
   6   1   2   75.57    3.12
   6   1   2   73.69    3.87
   6   1   2   82.81    3.22
   6   1   2   80.13    3.45
   6   1   2   81.43    2.77
   6   1   2   81.42    3.63
   6   1   2   86.46    3.64
  -7  -1  -2   15.63    1.43
  -7  -1  -2   14.03    1.32
  -7  -1  -2   14.09    1.50
  -7  -1  -2   12.37    1.00
  -7  -1  -2   11.15    1.31
  -7  -1  -2   10.73    1.49
  -7  -1  -2   10.58    1.20
  -7  -1  -2   15.81    1.81
   7   1   2   12.84    1.38
   7   1   2   12.06    0.76
   7   1   2   11.20    1.09
   7   1   2   12.90    1.52
   7   1   2   11.65    1.18
   6  -2  -2    0.85    0.54
   6  -2  -2    0.97    0.63
   6  -2  -2    1.14    0.81
   6  -2  -2    2.04    0.79
  -6   2   2    1.11    0.59
  -6   2   2    1.88    0.56
  -6   2   2    1.33    0.76
  -6   2   2    1.68    0.74
  -6   2   2    1.67    0.72
  -6   2   2    2.06    0.63
   5  -2  -2   76.01    3.40
   5  -2  -2   68.22    3.18
   5  -2  -2   70.99    2.39
   5  -2  -2   71.72    3.48
   5  -2  -2   72.18    4.85
   5  -2  -2   61.34    2.78
   5  -2  -2   70.93    3.21
   5  -2  -2   67.72    2.92
  -5   2   2   71.43    3.15
  -5   2   2   70.86    3.38
  -5   2   2   72.13    3.00
  -5   2   2   71.49    2.77
  -5   2   2   69.97    3.39
  -5   2   2   73.60    3.38
  -5   2   2   71.44    3.00
   4  -2  -2    5.43    0.79
   4  -2  -2    4.79    0.83
   4  -2  -2    6.00    0.98
   4  -2  -2    4.56    1.17
   4  -2  -2    6.96    0.86
   4  -2  -2    3.71    1.53
   4  -2  -2    5.34    0.85
   4  -2  -2    5.46    0.66
   4  -2  -2    4.64    0.52
   4  -2  -2    4.96    0.44
   4  -2  -2    4.98    0.77
   4  -2  -2    4.13    0.85
   4  -2  -2    5.51    0.89
   4  -2  -2    5.94    0.74
  -4   2   2    4.87    0.85
  -4   2   2    4.31    0.73
  -4   2   2    6.19    0.83
  -4   2   2    5.31    0.67
  -4   2   2    4.81    0.61
  -4   2   2    5.98    0.82
  -4   2   2    5.66    0.83
  -4   2   2    6.83    0.92
  -4   2   2    5.88    0.89
   3  -2  -2   45.83    1.93
   3  -2  -2   45.88    2.97
   3  -2  -2   43.36    2.04
   3  -2  -2   48.74    1.87
   3  -2  -2   47.38    1.92
   3  -2  -2   45.98    2.15
   3  -2  -2   46.26    2.78
   3  -2  -2   46.81    2.14
   3  -2  -2   43.07    1.68
   3  -2  -2   42.94    1.73
   3  -2  -2   43.82    1.59
   3  -2  -2   46.90    2.14
   3  -2  -2   49.91    2.10
   3  -2  -2   45.61    2.01
   3  -2  -2   44.98    2.03
   3  -2  -2   45.92    2.15
   3  -2  -2   42.47    2.01
  -3   2   2   43.16    1.77
  -3   2   2   47.83    2.03
  -3   2   2   45.92    2.01
  -3   2   2   45.98    2.11
  -3   2   2   46.40    1.93
  -3   2   2   45.90    1.91
  -3   2   2   45.35    2.15
  -3   2   2   44.13    2.06
  -3   2   2   48.57    2.07
  -3   2   2   49.65    2.21
   2  -2  -2  427.22   12.87
   2  -2  -2  425.92   12.88
   2  -2  -2  418.99   13.70
   2  -2  -2  429.07   12.86
   2  -2  -2  394.93   13.60
   2  -2  -2  413.07   12.64
   2  -2  -2  426.00   12.82
   2  -2  -2  400.82   12.74
   2  -2  -2  423.15   12.63
   2  -2  -2  419.90   12.90
   2  -2  -2  410.50   12.80
   2  -2  -2  417.07   12.48
   2  -2  -2  406.67   12.49
   2  -2  -2  415.78   12.72
   2  -2  -2  419.80   12.82
   2  -2  -2  450.93   13.01
   2  -2  -2  420.33   12.65
   2  -2  -2  424.26   12.39
  -2   2   2  423.98   12.84
  -2   2   2  423.68   12.83
  -2   2   2  422.33   12.75
  -2   2   2  425.22   12.55
  -2   2   2  417.48   12.67
  -2   2   2  423.06   12.75
  -2   2   2  427.79   12.91
  -2   2   2  402.42   12.87
  -2   2   2  418.61   12.81
  -2   2   2  418.24   12.68
  -2   2   2  425.66   12.64
  -2   2   2  418.80   12.62
  -2   2   2  411.86   12.70
  -2   2   2  414.17   12.83
  -2   2   2  394.76   13.29
   1  -2  -2  792.86   22.95
   1  -2  -2  795.57   22.87
   1  -2  -2  763.54   23.60
   1  -2  -2  781.51   23.14
   1  -2  -2  790.65   23.25
   1  -2  -2  777.42   23.09
   1  -2  -2  744.25   23.81
   1  -2  -2  778.11   23.04
   1  -2  -2  773.03   22.93
   1  -2  -2  769.86   23.16
   1  -2  -2  772.74   23.16
   1  -2  -2  783.35   23.05
   1  -2  -2  782.19   23.03
   1  -2  -2  786.35   23.22
   1  -2  -2  787.55   23.16
   1  -2  -2  787.70   23.19
   1  -2  -2  777.10   23.03
   1  -2  -2  784.34   23.22
  -1   2   2  788.54   23.07
  -1   2   2  766.86   23.16
  -1   2   2  767.57   23.08
  -1   2   2  791.98   22.91
  -1   2   2  775.56   23.11
  -1   2   2  761.72   23.03
  -1   2   2  788.35   22.98
  -1   2   2  807.57   23.20
  -1   2   2  797.05   23.17
  -1   2   2  764.15   23.19
  -1   2   2  808.15   23.05
  -1   2   2  778.02   23.17
  -1   2   2  792.72   23.16
  -1   2   2  762.19   23.02
  -1   2   2  780.56   23.12
  -1   2   2  774.92   23.38
  -1   2   2  818.41   23.84
  -1   2   2  766.28   23.22
  -1   2   2  757.81   23.04
  -1   2   2  777.97   23.22
   0  -2  -2  465.26   13.92
   0  -2  -2  472.95   13.86
   0  -2  -2  471.02   13.91
   0  -2  -2  468.03   13.79
   0  -2  -2  488.08   13.73
   0  -2  -2  453.30   13.75
   0  -2  -2  477.17   13.90
   0  -2  -2  468.53   13.94
   0  -2  -2  472.50   13.95
   0  -2  -2  453.66   13.89
   0  -2  -2  464.65   13.81
   0  -2  -2  457.59   13.94
   0  -2  -2  454.32   13.93
   0  -2  -2  469.70   13.85
   0  -2  -2  475.27   13.93
   0  -2  -2  462.46   13.90
   0  -2  -2  445.51   14.38
   0  -2  -2  453.30   13.91
   0  -2  -2  471.64   13.84
   0   2   2  466.68   13.90
   0   2   2  495.42   13.75
   0   2   2  454.37   13.88
   0   2   2  459.40   13.95
   0   2   2  472.16   13.81
   0   2   2  468.93   13.94
   0   2   2  486.35   13.96
   0   2   2  469.52   13.87
   0   2   2  446.60   13.84
   0   2   2  480.50   13.86
   0   2   2  458.26   13.90
   0   2   2  466.40   13.86
   0   2   2  458.62   13.89
   0   2   2  457.50   13.78
   0   2   2  464.77   13.83
   0   2   2  467.65   13.89
   0   2   2  462.38   13.82
   0   2   2  470.83   14.44
   0   2   2  471.06   13.93
   0   2   2  481.61   13.97
  -1  -2  -2  332.87    9.66
  -1  -2  -2  310.14    9.55
  -1  -2  -2  315.08    9.62
  -1  -2  -2  313.81    9.54
  -1  -2  -2  319.12   10.12
  -1  -2  -2  331.61    9.67
  -1  -2  -2  316.80    9.60
  -1  -2  -2  319.97    9.54
  -1  -2  -2  319.05    9.47
  -1  -2  -2  320.51    9.66
  -1  -2  -2  314.34    9.48
  -1  -2  -2  297.04    9.57
  -1  -2  -2  322.67    9.67
  -1  -2  -2  317.92    9.61
  -1  -2  -2  320.38    9.46
  -1  -2  -2  317.44    9.60
  -1  -2  -2  315.97    9.64
   1   2   2  323.63    9.60
   1   2   2  325.63    9.57
   1   2   2  336.82    9.65
   1   2   2  318.71    9.60
   1   2   2  312.11    9.46
   1   2   2  329.24    9.65
   1   2   2  315.84   10.15
   1   2   2  308.58    9.56
   1   2   2  347.27    9.51
   1   2   2  312.86    9.65
   1   2   2  315.53    9.65
   1   2   2  315.41    9.62
   1   2   2  319.05    9.55
   1   2   2  316.54    9.67
   1   2   2  321.41    9.60
   1   2   2  323.32    9.50
   1   2   2  320.74    9.62
   1   2   2  314.12    9.62
   1   2   2  312.74    9.61
  -2  -2  -2  173.64    5.46
  -2  -2  -2  169.69    5.51
  -2  -2  -2  173.82    5.54
  -2  -2  -2  175.03    5.47
  -2  -2  -2  167.01    5.44
  -2  -2  -2  182.73    5.31
  -2  -2  -2  174.40    5.59
  -2  -2  -2  172.48    5.54
  -2  -2  -2  167.14    5.41
  -2  -2  -2  171.07    5.58
  -2  -2  -2  176.13    5.51
  -2  -2  -2  163.76    5.51
  -2  -2  -2  174.41    6.12
  -2  -2  -2  172.50    5.55
  -2  -2  -2  165.67    5.90
  -2  -2  -2  171.59    5.28
  -2  -2  -2  180.93    5.36
  -2  -2  -2  169.01    5.53
   2   2   2  180.52    6.13
   2   2   2  172.92    5.30
   2   2   2  183.39    5.59
   2   2   2  178.23    5.55
   2   2   2  176.73    5.44
   2   2   2  170.54    5.45
   2   2   2  178.26    5.55
   2   2   2  179.28    5.48
   2   2   2  170.81    5.42
   2   2   2  172.76    5.57
   2   2   2  172.49    5.31
   2   2   2  181.71    5.54
   2   2   2  179.45    5.36
   2   2   2  174.08    5.51
   2   2   2  168.82    5.45
   2   2   2  179.28    5.52
   2   2   2  171.19    5.51
   2   2   2  170.97    5.54
  -3  -2  -2   49.14    1.97
  -3  -2  -2   44.67    2.01
  -3  -2  -2   46.14    1.95
  -3  -2  -2   46.01    1.85
  -3  -2  -2   47.54    1.94
  -3  -2  -2   47.99    1.67
  -3  -2  -2   47.72    1.99
  -3  -2  -2   48.57    1.79
  -3  -2  -2   47.17    1.83
  -3  -2  -2   46.07    1.88
  -3  -2  -2   46.19    2.04
  -3  -2  -2   47.99    2.58
  -3  -2  -2   49.52    1.67
  -3  -2  -2   44.91    1.94
  -3  -2  -2   44.46    1.88
  -3  -2  -2   44.88    2.51
   3   2   2   47.16    1.97
   3   2   2   45.28    1.84
   3   2   2   43.48    2.46
   3   2   2   47.69    1.89
   3   2   2   46.62    1.97
   3   2   2   46.77    1.97
   3   2   2   46.73    1.93
   3   2   2   48.98    2.16
   3   2   2   47.89    1.96
   3   2   2   46.62    2.00
   3   2   2   48.52    2.00
   3   2   2   49.06    1.97
   3   2   2   47.90    1.96
  -4  -2  -2   35.00    1.53
  -4  -2  -2   33.23    1.79
  -4  -2  -2   35.79    1.58
  -4  -2  -2   31.40    1.71
  -4  -2  -2   32.84    1.60
  -4  -2  -2   36.70    1.73
  -4  -2  -2   33.30    1.83
  -4  -2  -2   33.66    1.38
  -4  -2  -2   34.33    1.70
  -4  -2  -2   33.94    1.69
  -4  -2  -2   35.45    1.64
  -4  -2  -2   33.67    1.70
   4   2   2   31.09    2.25
   4   2   2   37.29    1.63
   4   2   2   35.42    1.70
   4   2   2   32.50    1.72
   4   2   2   35.50    1.79
   4   2   2   34.14    1.73
   4   2   2   30.28    1.65
   4   2   2   33.57    1.71
   4   2   2   34.41    1.78
   4   2   2   32.75    1.73
   4   2   2   34.94    1.64
  -5  -2  -2    6.76    0.85
  -5  -2  -2    7.40    1.11
  -5  -2  -2    5.97    0.91
  -5  -2  -2    5.79    0.77
  -5  -2  -2    6.55    0.60
  -5  -2  -2    5.65    0.85
  -5  -2  -2    5.28    0.81
  -5  -2  -2    6.23    0.72
  -5  -2  -2    5.62    0.80
  -5  -2  -2    6.14    0.78
  -5  -2  -2    4.59    0.69
   5   2   2    7.35    0.96
   5   2   2    5.64    0.85
   5   2   2    7.32    0.88
   5   2   2    6.70    0.56
   5   2   2    7.63    0.94
   5   2   2    7.36    0.98
   5   2   2    6.46    0.80
   5   2   2    7.61    1.34
   5   2   2    7.34    0.89
   5   2   2    5.65    0.95
  -6  -2  -2   25.58    1.53
  -6  -2  -2   25.24    1.73
  -6  -2  -2   23.25    1.50
  -6  -2  -2   28.51    1.98
  -6  -2  -2   20.55    1.48
  -6  -2  -2   25.76    1.63
  -6  -2  -2   22.26    1.25
  -6  -2  -2   22.29    1.87
   6   2   2   23.74    1.72
   6   2   2   23.37    1.72
   6   2   2   23.65    1.16
   6   2   2   26.77    1.66
   6   2   2   20.08    1.61
   6   2   2   25.49    1.89
   6   2   2   21.47    1.50
   6   2   2   25.32    1.47
  -7  -2  -2   22.70    2.05
  -7  -2  -2   27.37    2.22
  -7  -2  -2   25.92    1.81
  -7  -2  -2   26.79    1.48
  -7  -2  -2   29.00    2.07
  -7  -2  -2   27.36    1.90
  -7  -2  -2   26.40    1.70
   7   2   2   25.96    1.67
   7   2   2   26.51    2.00
   7   2   2   27.39    1.34
   7   2   2   28.88    2.16
   7   2   2   25.53    1.84
   6  -3  -2    1.22    0.57
   6  -3  -2    0.62    0.74
   6  -3  -2    2.18    1.17
  -6   3   2    0.71    0.52
  -6   3   2    1.60    0.57
  -6   3   2    2.59    0.88
   5  -3  -2    3.31    1.29
   5  -3  -2    2.22    0.75
   5  -3  -2    3.06    0.65
   5  -3  -2    3.14    0.76
   5  -3  -2    1.88    0.75
  -5   3   2    1.80    0.70
  -5   3   2    2.14    0.68
  -5   3   2    2.18    0.55
  -5   3   2    1.06    0.45
  -5   3   2    2.70    0.80
  -5   3   2    2.25    0.77
  -5   3   2    1.91    0.65
   4  -3  -2    7.56    1.36
   4  -3  -2    8.74    0.99
   4  -3  -2    8.36    1.01
   4  -3  -2    8.64    0.92
   4  -3  -2    7.32    1.92
   4  -3  -2   10.32    1.09
   4  -3  -2    6.98    1.03
   4  -3  -2    7.79    0.88
   4  -3  -2    7.68    0.87
   4  -3  -2    8.06    0.71
   4  -3  -2    8.22    0.89
  -4   3   2    8.39    1.05
  -4   3   2    7.47    0.93
  -4   3   2    7.95    1.02
  -4   3   2    6.32    0.86
  -4   3   2    8.55    0.83
  -4   3   2    8.62    0.76
  -4   3   2    9.05    1.02
   3  -3  -2   19.38    1.06
   3  -3  -2   20.69    1.18
   3  -3  -2   21.41    1.22
   3  -3  -2   20.57    1.24
   3  -3  -2   24.56    1.30
   3  -3  -2   22.24    1.07
   3  -3  -2   24.00    1.91
   3  -3  -2   21.55    1.27
   3  -3  -2   19.90    1.23
   3  -3  -2   21.52    2.07
   3  -3  -2   22.18    1.35
   3  -3  -2   21.87    1.37
   3  -3  -2   20.97    1.36
   3  -3  -2   20.04    1.21
  -3   3   2   23.51    1.09
  -3   3   2   21.68    1.26
  -3   3   2   22.77    1.25
  -3   3   2   20.81    1.19
  -3   3   2   21.80    1.25
  -3   3   2   20.35    1.15
  -3   3   2   21.10    1.31
  -3   3   2   21.92    1.35
  -3   3   2   19.06    1.14
  -3   3   2   18.71    1.15
  -3   3   2   22.31    1.39
  -3   3   2   21.39    1.34
   2  -3  -2  233.72    7.20
   2  -3  -2  234.37    7.38
   2  -3  -2  237.07    7.41
   2  -3  -2  235.25    7.48
   2  -3  -2  233.93    7.34
   2  -3  -2  237.78    7.53
   2  -3  -2  230.26    7.42
   2  -3  -2  235.17    7.51
   2  -3  -2  234.41    7.38
   2  -3  -2  231.44    7.38
   2  -3  -2  223.15    8.21
   2  -3  -2  231.07    8.27
   2  -3  -2  229.14    7.57
  -2   3   2  231.40    7.53
  -2   3   2  232.81    7.36
  -2   3   2  231.11    7.26
  -2   3   2  243.94    7.33
  -2   3   2  243.80    7.54
  -2   3   2  234.27    7.20
  -2   3   2  238.76    7.39
  -2   3   2  241.09    7.49
  -2   3   2  231.76    7.35
  -2   3   2  228.04    7.33
  -2   3   2  238.45    7.47
  -2   3   2  233.20    7.47
  -2   3   2  235.08    7.27
  -2   3   2  236.15    8.01
   1  -3  -2   21.30    1.40
   1  -3  -2   18.57    0.89
   1  -3  -2   17.39    0.87
   1  -3  -2   17.67    1.27
   1  -3  -2   18.20    0.79
   1  -3  -2   18.16    0.96
   1  -3  -2   14.85    0.74
   1  -3  -2   16.54    0.88
   1  -3  -2   18.20    0.94
   1  -3  -2   18.05    0.87
   1  -3  -2   17.10    0.86
   1  -3  -2   17.80    0.94
   1  -3  -2   16.92    0.87
  -1   3   2   18.38    0.87
  -1   3   2   17.69    0.91
  -1   3   2   17.33    0.91
  -1   3   2   17.41    0.69
  -1   3   2   18.16    0.93
  -1   3   2   17.01    0.86
  -1   3   2   17.34    0.81
  -1   3   2   17.71    0.85
  -1   3   2   14.71    1.03
  -1   3   2   15.79    0.76
  -1   3   2   17.31    0.92
  -1   3   2   18.13    1.27
  -1   3   2   18.94    0.83
  -1   3   2   16.96    0.89
  -1   3   2   17.09    0.87
  -1   3   2   19.03    0.79
  -1   3   2   17.96    0.91
  -1   3   2   18.19    0.95
   0  -3  -2   26.79    1.13
   0  -3  -2   25.66    0.98
   0  -3  -2   27.31    1.13
   0  -3  -2   26.81    1.45
   0  -3  -2   25.32    1.08
   0  -3  -2   26.79    1.10
   0  -3  -2   26.38    1.13
   0  -3  -2   27.22    1.10
   0  -3  -2   26.86    1.10
   0  -3  -2   28.13    1.05
   0  -3  -2   25.00    1.06
   0  -3  -2   26.59    1.02
   0  -3  -2   26.52    1.09
   0  -3  -2   24.40    1.11
   0   3   2   25.85    1.08
   0   3   2   26.45    1.09
   0   3   2   26.47    1.03
   0   3   2   26.64    1.13
   0   3   2   25.98    1.09
   0   3   2   26.70    1.07
   0   3   2   27.55    1.15
   0   3   2   28.14    1.15
   0   3   2   27.85    1.03
   0   3   2   26.64    1.12
   0   3   2   25.87    1.09
   0   3   2   26.05    1.06
   0   3   2   26.27    1.47
   0   3   2   27.05    1.05
   0   3   2   26.66    1.06
   0   3   2   25.91    0.98
   0   3   2   27.63    0.93
  -1  -3  -2  140.18    4.64
  -1  -3  -2  142.66    4.57
  -1  -3  -2  147.99    4.68
  -1  -3  -2  139.35    4.58
  -1  -3  -2  144.13    4.67
  -1  -3  -2  152.86    4.64
  -1  -3  -2  149.37    4.68
  -1  -3  -2  148.47    4.66
  -1  -3  -2  146.71    4.62
  -1  -3  -2  151.40    5.21
  -1  -3  -2  146.87    4.55
  -1  -3  -2  147.70    4.68
  -1  -3  -2  140.19    4.60
  -1  -3  -2  139.65    4.50
   1   3   2  148.44    4.61
   1   3   2  142.34    4.56
   1   3   2  148.99    4.56
   1   3   2  146.28    4.57
   1   3   2  151.85    4.48
   1   3   2  153.73    5.22
   1   3   2  146.23    4.64
   1   3   2  146.19    4.64
   1   3   2  148.93    4.61
   1   3   2  146.20    4.65
   1   3   2  140.11    4.47
   1   3   2  148.14    4.66
   1   3   2  146.98    4.46
   1   3   2  148.99    4.69
   1   3   2  148.47    4.58
   1   3   2  145.16    4.67
   1   3   2  148.51    4.69
   1   3   2  150.43    4.70
  -2  -3  -2   60.26    2.19
  -2  -3  -2   64.17    2.42
  -2  -3  -2   65.29    2.41
  -2  -3  -2   64.52    2.40
  -2  -3  -2   64.14    2.31
  -2  -3  -2   64.77    2.08
  -2  -3  -2   66.24    2.40
  -2  -3  -2   66.46    2.29
  -2  -3  -2   67.33    2.66
  -2  -3  -2   65.58    2.34
  -2  -3  -2   62.27    2.27
  -2  -3  -2   68.81    2.98
  -2  -3  -2   61.87    2.37
  -2  -3  -2   65.40    2.39
  -2  -3  -2   62.37    2.36
  -2  -3  -2   63.42    2.22
   2   3   2   64.69    2.41
   2   3   2   65.08    2.40
   2   3   2   65.65    2.14
   2   3   2   64.77    2.29
   2   3   2   65.93    2.39
   2   3   2   64.95    2.34
   2   3   2   67.01    2.44
   2   3   2   60.30    2.28
   2   3   2   63.24    2.38
   2   3   2   62.94    2.33
   2   3   2   65.31    2.38
   2   3   2   66.44    2.17
   2   3   2   61.43    2.26
   2   3   2   68.85    2.25
   2   3   2   66.90    2.43
   2   3   2   64.47    2.92
  -3  -3  -2   11.50    0.92
  -3  -3  -2   14.39    0.72
  -3  -3  -2   12.81    0.91
  -3  -3  -2   14.59    1.37
  -3  -3  -2   15.55    0.93
  -3  -3  -2   13.47    0.82
  -3  -3  -2   14.45    0.99
  -3  -3  -2   13.95    0.64
  -3  -3  -2   13.94    0.79
  -3  -3  -2   12.70    0.63
  -3  -3  -2   13.62    0.91
  -3  -3  -2   13.71    1.35
  -3  -3  -2   14.44    1.01
  -3  -3  -2   12.13    0.79
  -3  -3  -2   12.33    0.82
  -3  -3  -2   14.10    0.91
   3   3   2   13.31    0.95
   3   3   2   11.54    0.77
   3   3   2   12.41    0.82
   3   3   2   13.25    0.96
   3   3   2   12.38    0.88
   3   3   2   15.46    0.97
   3   3   2   13.88    0.91
   3   3   2   11.30    0.90
   3   3   2   12.74    0.91
   3   3   2   11.99    0.99
   3   3   2   15.22    0.90
   3   3   2   13.52    0.70
   3   3   2   14.87    1.36
   3   3   2   13.72    0.96
  -4  -3  -2   21.07    1.30
  -4  -3  -2   22.22    1.32
  -4  -3  -2   19.93    1.31
  -4  -3  -2   20.97    1.36
  -4  -3  -2   19.00    1.39
  -4  -3  -2   21.53    0.97
  -4  -3  -2   21.75    1.32
  -4  -3  -2   21.75    1.41
  -4  -3  -2   20.70    1.18
  -4  -3  -2   19.22    1.20
  -4  -3  -2   22.15    0.95
  -4  -3  -2   21.63    1.09
  -4  -3  -2   23.17    1.18
   4   3   2   22.42    1.40
   4   3   2   24.12    1.38
   4   3   2   24.07    1.46
   4   3   2   19.74    1.35
   4   3   2   20.08    1.29
   4   3   2   21.34    1.88
   4   3   2   23.22    1.38
   4   3   2   22.27    1.35
   4   3   2   21.01    1.25
  -5  -3  -2   43.50    2.36
  -5  -3  -2   40.84    2.02
  -5  -3  -2   44.80    2.22
  -5  -3  -2   42.14    2.24
  -5  -3  -2   48.34    2.30
  -5  -3  -2   41.99    2.20
  -5  -3  -2   45.98    2.02
  -5  -3  -2   44.63    1.76
  -5  -3  -2   41.40    2.32
  -5  -3  -2   45.39    2.16
  -5  -3  -2   46.20    1.90
   5   3   2   45.39    1.78
   5   3   2   44.44    2.32
   5   3   2   45.42    2.37
   5   3   2   42.74    2.27
   5   3   2   40.96    2.08
   5   3   2   47.06    2.30
   5   3   2   42.68    2.18
  -6  -3  -2   18.04    1.48
  -6  -3  -2   16.52    1.28
  -6  -3  -2   15.61    1.11
  -6  -3  -2   18.01    1.65
  -6  -3  -2   16.79    1.57
  -6  -3  -2   15.97    1.37
  -6  -3  -2   15.91    0.97
   6   3   2   13.61    1.37
   6   3   2   16.75    1.62
   6   3   2   14.83    1.31
   6   3   2   15.78    1.52
   6   3   2   14.87    1.42
   6   3   2   15.41    0.98
   6   3   2   14.85    1.43
  -7  -3  -2   11.43    0.93
  -7  -3  -2    9.79    1.52
  -7  -3  -2   13.22    1.15
  -7  -3  -2   11.84    1.40
   7   3   2   12.91    1.44
   7   3   2    9.39    1.35
   7   3   2   11.94    1.60
   7   3   2   11.20    1.47
   7   3   2    9.82    0.85
   6  -4  -2    2.43    1.37
   6  -4  -2    1.79    0.79
   6  -4  -2    2.45    0.96
  -6   4   2    1.54    0.58
  -6   4   2    1.53    0.80
  -6   4   2    2.04    0.68
   5  -4  -2   15.97    1.50
   5  -4  -2   15.94    1.56
   5  -4  -2   12.97    1.22
   5  -4  -2   16.25    1.01
   5  -4  -2   14.69    1.99
  -5   4   2   17.39    1.42
  -5   4   2   12.37    1.16
  -5   4   2   16.42    1.15
  -5   4   2   16.32    1.28
   4  -4  -2    9.23    1.03
   4  -4  -2    8.66    0.87
   4  -4  -2    6.18    1.27
   4  -4  -2    7.31    1.01
   4  -4  -2    7.64    0.91
  -4   4   2    6.51    0.87
  -4   4   2    8.94    1.03
  -4   4   2    8.61    0.99
  -4   4   2    7.17    0.79
  -4   4   2    8.77    1.07
  -4   4   2    8.14    0.95
  -4   4   2    7.01    0.74
   3  -4  -2   17.22    1.13
   3  -4  -2   17.91    1.24
   3  -4  -2   17.51    1.04
   3  -4  -2   16.11    1.05
   3  -4  -2   16.74    1.64
   3  -4  -2   15.88    1.17
   3  -4  -2   16.83    1.16
   3  -4  -2   16.72    0.99
   3  -4  -2   16.76    1.06
  -3   4   2   16.98    1.17
  -3   4   2   14.85    1.15
  -3   4   2   15.23    1.02
  -3   4   2   17.36    1.03
  -3   4   2   16.00    0.92
  -3   4   2   17.08    1.20
  -3   4   2   16.32    1.09
  -3   4   2   15.12    0.99
  -3   4   2   18.33    1.14
  -3   4   2   15.86    1.15
  -3   4   2   15.66    1.02
   2  -4  -2   50.24    2.10
   2  -4  -2   49.76    1.98
   2  -4  -2   50.15    1.97
   2  -4  -2   48.54    1.83
   2  -4  -2   52.83    2.06
   2  -4  -2   47.85    2.11
   2  -4  -2   49.00    1.98
   2  -4  -2   53.40    2.71
  -2   4   2   46.94    1.92
  -2   4   2   51.47    2.06
  -2   4   2   49.55    2.08
  -2   4   2   50.08    2.12
  -2   4   2   47.32    1.97
  -2   4   2   52.33    1.93
  -2   4   2   52.36    1.82
  -2   4   2   49.17    2.52
  -2   4   2   47.85    2.03
  -2   4   2   47.12    1.79
  -2   4   2   46.96    1.92
  -2   4   2   50.58    2.03
   1  -4  -2    1.33    0.32
   1  -4  -2    0.24    0.18
   1  -4  -2    1.41    0.31
   1  -4  -2    1.33    0.35
   1  -4  -2    1.13    0.33
   1  -4  -2    1.23    0.29
   1  -4  -2    1.06    0.29
   1  -4  -2    1.36    0.33
   1  -4  -2    1.48    0.51
  -1   4   2    1.16    0.28
  -1   4   2    1.02    0.29
  -1   4   2    1.76    0.33
  -1   4   2    0.80    0.27
  -1   4   2    0.65    0.21
  -1   4   2    1.78    0.35
  -1   4   2    1.17    0.34
  -1   4   2    1.51    0.50
  -1   4   2    1.19    0.31
  -1   4   2    0.89    0.25
  -1   4   2    1.44    0.29
  -1   4   2    1.48    0.35
  -1   4   2    0.51    0.24
  -1   4   2    0.97    0.23
  -1   4   2    1.08    0.25
  -1   4   2    1.13    0.29
   0  -4  -2    2.05    0.33
   0  -4  -2    1.95    0.49
   0  -4  -2    1.88    0.32
   0  -4  -2    1.66    0.31
   0  -4  -2    1.79    0.33
   0  -4  -2    2.43    0.35
   0  -4  -2    2.36    0.36
   0  -4  -2    2.01    0.32
   0  -4  -2    1.71    0.32
   0   4   2    1.96    0.32
   0   4   2    2.22    0.35
   0   4   2    1.86    0.34
   0   4   2    1.72    0.30
   0   4   2    2.06    0.35
   0   4   2    1.89    0.30
   0   4   2    1.95    0.32
   0   4   2    2.03    0.49
   0   4   2    2.47    0.39
   0   4   2    2.15    0.33
   0   4   2    1.97    0.31
   0   4   2    1.78    0.33
   0   4   2    1.38    0.26
  -1  -4  -2   83.84    2.68
  -1  -4  -2   79.11    2.73
  -1  -4  -2   80.98    2.77
  -1  -4  -2   79.66    2.71
  -1  -4  -2   80.44    3.24
  -1  -4  -2   78.80    2.66
  -1  -4  -2   79.34    2.74
  -1  -4  -2   72.20    2.69
  -1  -4  -2   79.87    2.75
  -1  -4  -2   75.63    2.74
   1   4   2   78.26    2.65
   1   4   2   80.55    2.73
   1   4   2   79.59    2.65
   1   4   2   79.35    2.65
   1   4   2   78.16    2.77
   1   4   2   78.07    2.76
   1   4   2   80.86    2.73
   1   4   2   76.79    2.50
   1   4   2   80.56    2.78
   1   4   2   76.81    2.68
   1   4   2   80.53    3.27
   1   4   2   80.09    2.76
   1   4   2   79.23    2.74
   1   4   2   79.86    2.64
  -2  -4  -2   11.60    0.78
  -2  -4  -2   11.19    0.79
  -2  -4  -2   13.13    0.76
  -2  -4  -2   11.39    0.60
  -2  -4  -2   12.19    0.82
  -2  -4  -2   11.80    0.72
  -2  -4  -2   11.04    0.74
  -2  -4  -2   12.91    0.83
  -2  -4  -2   12.80    0.78
  -2  -4  -2   10.91    0.79
  -2  -4  -2   11.57    1.13
  -2  -4  -2   12.52    0.79
   2   4   2   11.07    0.81
   2   4   2   11.19    0.79
   2   4   2   11.94    0.73
   2   4   2   11.94    0.79
   2   4   2   12.33    0.83
   2   4   2   11.63    0.82
   2   4   2   12.48    0.89
   2   4   2   10.58    0.77
   2   4   2   12.48    1.15
   2   4   2   11.60    0.78
   2   4   2   12.34    0.74
   2   4   2   12.18    0.62
   2   4   2   10.87    0.69
   2   4   2   12.67    0.76
  -3  -4  -2    8.58    0.77
  -3  -4  -2    5.93    0.60
  -3  -4  -2    5.82    0.68
  -3  -4  -2    6.96    0.71
  -3  -4  -2    7.01    1.04
  -3  -4  -2    6.87    0.58
  -3  -4  -2    8.23    0.80
  -3  -4  -2    6.96    0.92
  -3  -4  -2    7.22    0.74
  -3  -4  -2    6.21    0.66
  -3  -4  -2    5.72    0.61
  -3  -4  -2    7.70    0.78
  -3  -4  -2    8.65    0.72
   3   4   2    6.61    0.69
   3   4   2    6.14    0.63
   3   4   2    7.64    1.15
   3   4   2    5.92    0.73
   3   4   2    7.04    0.68
   3   4   2    8.13    0.67
   3   4   2    6.83    0.50
   3   4   2    6.32    0.78
   3   4   2    6.95    0.65
   3   4   2    5.89    0.65
   3   4   2    6.30    0.73
  -4  -4  -2   37.70    1.83
  -4  -4  -2   40.20    1.80
  -4  -4  -2   38.94    1.93
  -4  -4  -2   36.01    1.97
  -4  -4  -2   39.19    1.71
  -4  -4  -2   36.50    1.86
  -4  -4  -2   34.83    1.89
  -4  -4  -2   42.18    2.03
  -4  -4  -2   40.20    1.62
  -4  -4  -2   37.73    2.01
  -4  -4  -2   39.84    1.45
  -4  -4  -2   40.43    2.00
  -4  -4  -2   40.14    2.06
   4   4   2   43.54    2.08
   4   4   2   40.38    2.02
   4   4   2   40.92    1.88
   4   4   2   40.88    2.07
   4   4   2   41.31    2.03
   4   4   2   39.81    1.93
   4   4   2   41.85    2.02
  -5  -4  -2   22.26    1.47
  -5  -4  -2   21.92    1.53
  -5  -4  -2   22.35    1.56
  -5  -4  -2   25.53    1.70
  -5  -4  -2   21.55    1.64
  -5  -4  -2   27.36    1.72
  -5  -4  -2   25.39    1.45
  -5  -4  -2   24.03    1.08
   5   4   2   20.48    1.58
   5   4   2   21.56    1.57
   5   4   2   25.02    1.55
   5   4   2   29.05    1.83
   5   4   2   25.62    1.75
   5   4   2   24.40    1.63
  -6  -4  -2    5.23    1.19
  -6  -4  -2    5.45    0.57
  -6  -4  -2    5.60    0.98
  -6  -4  -2    5.19    0.95
  -6  -4  -2    5.15    1.09
   6   4   2    4.73    0.62
   6   4   2    5.42    1.06
   6   4   2    8.57    1.09
   6   4   2    5.73    1.01
   6   4   2    7.24    1.27
   6   4   2    3.40    0.89
   6   4   2    4.51    1.12
  -7  -4  -2    4.71    1.11
  -7  -4  -2    4.12    0.61
   7   4   2    5.35    1.33
   7   4   2    3.19    0.65
   7   4   2    5.28    1.19
   7   4   2    3.78    0.97
   5  -5  -2    4.79    1.10
   5  -5  -2    8.20    0.99
   5  -5  -2    9.77    1.36
   5  -5  -2    7.89    1.63
  -5   5   2    8.16    0.99
  -5   5   2    8.65    0.94
  -5   5   2    7.98    1.17
   4  -5  -2    5.03    0.93
   4  -5  -2    2.96    0.64
   4  -5  -2    4.42    0.88
   4  -5  -2    4.59    1.16
  -4   5   2    4.53    0.81
  -4   5   2    4.65    0.69
  -4   5   2    4.25    0.69
  -4   5   2    4.02    0.65
   3  -5  -2   28.39    1.43
   3  -5  -2   28.92    1.42
   3  -5  -2   28.61    1.55
   3  -5  -2   30.54    2.21
   3  -5  -2   28.18    1.52
   3  -5  -2   30.00    1.52
   3  -5  -2   30.26    1.69
  -3   5   2   32.71    1.73
  -3   5   2   29.52    1.87
  -3   5   2   29.94    1.48
  -3   5   2   25.39    1.53
  -3   5   2   27.01    1.35
  -3   5   2   28.91    1.59
  -3   5   2   27.17    1.53
  -3   5   2   28.98    1.33
  -3   5   2   27.76    1.41
   2  -5  -2   43.07    2.41
   2  -5  -2   41.16    1.72
   2  -5  -2   41.76    1.77
   2  -5  -2   41.38    1.87
   2  -5  -2   41.05    1.65
   2  -5  -2   43.23    1.70
   2  -5  -2   40.34    1.87
   2  -5  -2   41.05    1.65
   2  -5  -2   42.12    1.78
  -2   5   2   39.72    2.32
  -2   5   2   39.80    1.81
  -2   5   2   41.73    1.76
  -2   5   2   43.41    1.59
  -2   5   2   40.62    1.66
  -2   5   2   39.28    1.80
  -2   5   2   40.87    1.77
  -2   5   2   41.22    1.81
  -2   5   2   41.42    1.88
  -2   5   2   44.58    1.74
  -2   5   2   37.66    1.68
   1  -5  -2    8.60    0.91
   1  -5  -2    7.55    0.61
   1  -5  -2    7.49    0.59
   1  -5  -2    8.40    0.55
   1  -5  -2    6.59    0.62
   1  -5  -2    7.96    0.65
  -1   5   2    7.14    0.58
  -1   5   2    8.14    0.77
  -1   5   2    8.61    0.56
  -1   5   2    8.13    0.57
  -1   5   2    8.18    0.65
  -1   5   2    6.86    0.63
  -1   5   2    7.21    0.62
  -1   5   2    7.92    0.62
  -1   5   2    7.23    0.55
  -1   5   2    8.12    0.61
  -1   5   2    6.32    0.58
   0  -5  -2   39.31    1.48
   0  -5  -2   41.56    1.60
   0  -5  -2   39.79    1.56
   0  -5  -2   38.60    1.47
   0  -5  -2   38.93    1.60
   0  -5  -2   40.04    1.98
   0   5   2   39.33    1.63
   0   5   2   40.42    1.47
   0   5   2   39.19    1.57
   0   5   2   37.63    1.53
   0   5   2   41.02    1.54
   0   5   2   38.82    1.56
   0   5   2   41.76    1.62
   0   5   2   40.03    1.63
   0   5   2   37.79    1.54
   0   5   2   40.09    1.58
   0   5   2   36.43    1.46
  -1  -5  -2   21.97    0.98
  -1  -5  -2   21.44    0.98
  -1  -5  -2   20.49    1.08
  -1  -5  -2   21.33    1.18
  -1  -5  -2   21.76    0.97
  -1  -5  -2   22.93    1.08
  -1  -5  -2   20.44    1.40
  -1  -5  -2   20.89    1.03
  -1  -5  -2   21.72    1.08
  -1  -5  -2   22.03    1.02
   1   5   2   20.48    1.08
   1   5   2   22.44    1.03
   1   5   2   22.28    0.99
   1   5   2   22.02    1.07
   1   5   2   20.26    1.04
   1   5   2   21.41    0.98
   1   5   2   20.77    1.05
   1   5   2   21.44    1.07
   1   5   2   20.69    1.10
   1   5   2   22.87    1.11
  -2  -5  -2   51.24    1.98
  -2  -5  -2   52.25    2.08
  -2  -5  -2   46.73    2.00
  -2  -5  -2   52.31    2.66
  -2  -5  -2   51.77    2.04
  -2  -5  -2   52.50    1.95
  -2  -5  -2   49.55    2.12
  -2  -5  -2   52.50    2.10
  -2  -5  -2   52.64    1.95
  -2  -5  -2   49.26    2.02
   2   5   2   53.53    2.11
   2   5   2   52.68    2.03
   2   5   2   49.19    1.94
   2   5   2   49.15    2.06
   2   5   2   49.98    1.76
   2   5   2   48.38    2.03
   2   5   2   47.37    1.96
   2   5   2   47.15    1.91
   2   5   2   47.91    2.06
  -3  -5  -2    3.36    0.71
  -3  -5  -2    2.58    0.57
  -3  -5  -2    2.51    0.48
  -3  -5  -2    2.46    0.52
  -3  -5  -2    2.79    0.58
  -3  -5  -2    3.66    0.65
  -3  -5  -2    2.31    0.48
  -3  -5  -2    2.56    0.51
  -3  -5  -2    2.47    0.40
  -3  -5  -2    3.61    0.65
  -3  -5  -2    2.76    0.59
   3   5   2    3.19    0.66
   3   5   2    3.00    0.52
   3   5   2    3.22    0.42
   3   5   2    2.49    0.54
   3   5   2    2.59    0.49
   3   5   2    2.64    0.64
   3   5   2    2.51    0.54
   3   5   2    1.86    0.51
   3   5   2    3.71    0.60
  -4  -5  -2   26.73    1.47
  -4  -5  -2   27.66    1.66
  -4  -5  -2   26.30    1.66
  -4  -5  -2   26.79    1.63
  -4  -5  -2   27.73    1.53
  -4  -5  -2   26.30    1.57
   4   5   2   31.29    1.76
   4   5   2   26.40    1.60
   4   5   2   26.24    1.65
   4   5   2   26.48    1.64
   4   5   2   26.86    1.70
   4   5   2   27.42    1.28
   4   5   2   26.93    1.53
  -5  -5  -2    3.84    0.91
  -5  -5  -2    3.41    0.75
  -5  -5  -2    5.98    1.36
  -5  -5  -2    3.49    0.77
  -5  -5  -2    5.16    0.94
   5   5   2    3.57    0.84
   5   5   2    3.19    0.82
   5   5   2    4.00    0.92
   5   5   2    4.61    1.02
   5   5   2    3.68    1.01
  -6  -5  -2    1.63    0.60
   6   5   2    0.87    0.78
   6   5   2    1.81    0.81
   6   5   2    1.38    0.61
   5  -6  -2    4.32    1.08
   5  -6  -2    4.30    1.05
   5  -6  -2    6.77    1.60
  -5   6   2    4.32    0.87
  -5   6   2    4.52    0.85
   4  -6  -2    6.90    0.77
   4  -6  -2    6.94    1.36
   4  -6  -2    7.66    1.11
   4  -6  -2    6.58    0.95
  -4   6   2    7.26    0.86
  -4   6   2    8.47    0.90
  -4   6   2    6.43    0.78
   3  -6  -2   59.84    3.28
   3  -6  -2   60.82    2.67
   3  -6  -2   62.49    2.54
   3  -6  -2   59.10    2.39
  -3   6   2   58.72    2.45
  -3   6   2   59.07    2.26
  -3   6   2   58.84    2.39
   2  -6  -2   29.58    1.55
   2  -6  -2   32.10    2.00
   2  -6  -2   33.35    1.62
   2  -6  -2   32.78    1.51
  -2   6   2   30.33    1.37
  -2   6   2   31.71    1.49
  -2   6   2   30.55    1.44
  -2   6   2   26.36    1.50
  -2   6   2   33.46    1.91
  -2   6   2   29.38    1.47
   1  -6  -2   16.34    1.29
   1  -6  -2   15.23    0.93
   1  -6  -2   16.21    0.99
   1  -6  -2   15.12    0.93
  -1   6   2   16.72    1.01
  -1   6   2   17.35    0.99
  -1   6   2   15.98    0.94
  -1   6   2   17.85    0.92
  -1   6   2   16.67    0.92
  -1   6   2   17.97    0.88
  -1   6   2   15.35    0.93
  -1   6   2   16.28    0.93
   0  -6  -2    3.34    0.65
   0  -6  -2    4.07    0.52
   0  -6  -2    2.87    0.45
   0  -6  -2    3.67    0.64
   0   6   2    3.67    0.50
   0   6   2    4.25    0.56
   0   6   2    3.03    0.47
   0   6   2    3.58    0.41
   0   6   2    3.80    0.46
   0   6   2    4.19    0.48
   0   6   2    4.22    0.49
  -1  -6  -2   34.38    1.51
  -1  -6  -2   37.09    2.02
  -1  -6  -2   35.70    1.79
  -1  -6  -2   35.90    1.58
  -1  -6  -2   36.45    1.61
   1   6   2   35.51    1.58
   1   6   2   33.19    1.43
   1   6   2   34.52    1.48
   1   6   2   35.56    1.56
   1   6   2   33.58    1.54
   1   6   2   36.73    1.55
   1   6   2   37.84    1.47
  -2  -6  -2   35.14    1.54
  -2  -6  -2   38.84    1.74
  -2  -6  -2   38.26    1.88
  -2  -6  -2   36.38    1.50
  -2  -6  -2   37.30    1.74
  -2  -6  -2   35.80    1.64
  -2  -6  -2   37.39    1.51
  -2  -6  -2   34.94    2.18
  -2  -6  -2   34.72    1.58
  -2  -6  -2   35.50    1.50
   2   6   2   33.87    1.66
   2   6   2   38.13    1.68
   2   6   2   33.47    1.59
   2   6   2   37.09    1.71
   2   6   2   34.48    1.58
   2   6   2   34.41    1.64
   2   6   2   36.43    1.71
   2   6   2   34.47    1.55
  -3  -6  -2   92.36    3.34
  -3  -6  -2   90.15    3.42
  -3  -6  -2   94.43    3.69
  -3  -6  -2   91.78    3.30
  -3  -6  -2   93.16    3.58
  -3  -6  -2   91.74    3.48
  -3  -6  -2   88.65    3.29
  -3  -6  -2   92.16    3.54
   3   6   2   86.88    3.10
   3   6   2   95.66    3.52
   3   6   2   86.70    3.47
   3   6   2   92.95    3.61
   3   6   2   93.41    3.40
  -4  -6  -2    6.70    1.01
  -4  -6  -2    6.55    0.92
  -4  -6  -2    6.29    0.89
  -4  -6  -2    5.79    0.80
  -4  -6  -2    7.88    0.83
   4   6   2    7.83    0.93
   4   6   2    6.96    0.66
   4   6   2    7.88    1.16
   4   6   2    6.28    1.00
  -5  -6  -2    3.53    0.94
  -5  -6  -2    4.26    0.96
  -5  -6  -2    4.73    0.90
  -5  -6  -2    5.66    0.89
  -5  -6  -2    6.03    1.07
   5   6   2    5.60    1.17
   5   6   2    5.43    1.26
   5   6   2    4.93    0.97
  -6  -6  -2   29.21    2.20
  -6  -6  -2   25.04    1.76
   6   6   2   24.66    1.85
   6   6   2   21.95    2.04
   6   6   2   22.96    2.08
   4  -7  -2    0.48    0.52
   4  -7  -2    0.63    0.72
  -4   7   2    0.82    0.48
  -4   7   2    0.24    0.42
   3  -7  -2    4.17    0.76
   3  -7  -2    2.98    0.95
   3  -7  -2    3.10    0.82
  -3   7   2    3.80    0.63
  -3   7   2    4.17    0.66
   2  -7  -2   18.46    1.16
   2  -7  -2   18.12    1.47
   2  -7  -2   19.84    1.26
  -2   7   2   19.24    1.05
  -2   7   2   18.83    1.10
   1  -7  -2   14.15    0.98
   1  -7  -2   14.07    0.94
  -1   7   2   13.85    0.88
  -1   7   2   13.59    0.84
  -1   7   2   13.64    0.82
   0  -7  -2   19.95    1.08
   0  -7  -2   19.15    1.10
   0   7   2   17.07    0.93
   0   7   2   17.74    1.02
  -1  -7  -2    4.80    0.83
  -1  -7  -2    3.14    0.59
  -1  -7  -2    4.05    0.62
  -1  -7  -2    2.93    0.75
   1   7   2    3.86    0.60
   1   7   2    4.26    0.56
  -2  -7  -2   27.27    1.49
  -2  -7  -2   25.61    1.45
  -2  -7  -2   25.87    1.67
   2   7   2   24.97    1.34
   2   7   2   25.36    1.46
  -3  -7  -2   20.22    1.18
  -3  -7  -2   21.27    1.19
  -3  -7  -2   21.09    1.58
  -3  -7  -2   21.24    1.41
  -3  -7  -2   20.80    1.13
   3   7   2   21.65    1.34
   3   7   2   18.22    1.41
   3   7   2   19.96    1.49
  -4  -7  -2    6.81    1.14
  -4  -7  -2    6.32    1.03
  -4  -7  -2    7.01    0.90
  -4  -7  -2    8.35    0.93
  -4  -7  -2    8.22    0.85
   4   7   2    6.92    1.13
   4   7   2    7.52    1.00
   4   7   2    6.87    1.24
  -5  -7  -2    0.15    0.47
  -5  -7  -2    0.97    0.68
  -5  -7  -2    0.37    0.59
   5   7   2   -0.51    0.64
   5   7   2    0.21    0.76
   5   7   2    0.27    0.59
   3  -8  -2   12.35    1.23
  -3   8   2   10.14    0.98
  -3   8   2    9.12    0.92
   2  -8  -2    8.46    0.95
   2  -8  -2   11.75    0.99
  -2   8   2    7.97    0.81
  -2   8   2    8.20    0.78
   1  -8  -2   32.34    1.53
   1  -8  -2   31.23    1.58
  -1   8   2   27.82    1.44
   0  -8  -2   46.57    1.94
   0  -8  -2   43.54    1.95
   0   8   2   43.31    1.89
  -1  -8  -2   15.66    1.41
  -1  -8  -2   13.72    1.08
  -1  -8  -2   13.16    1.06
   1   8   2   16.04    1.08
  -2  -8  -2    1.39    0.59
  -2  -8  -2    1.49    0.51
  -2  -8  -2    1.49    0.73
   2   8   2    0.66    0.45
   2   8   2    0.84    0.50
  -3  -8  -2   10.40    1.16
  -3  -8  -2   11.08    1.36
   3   8   2   10.05    1.05
   3   8   2   10.12    1.14
  -4  -8  -2    2.21    0.87
  -4  -8  -2    0.98    0.53
  -4  -8  -2    1.65    0.71
   4   8   2    2.07    0.70
   4   8   2    1.10    0.69
   2  -9  -2    8.29    1.04
   2  -9  -2    4.61    0.96
  -2   9   2    5.78    0.78
  -1   9   2   29.19    1.50
   0   9   2    5.35    0.75
  -1  -9  -2    4.35    0.83
  -1  -9  -2    3.06    0.93
  -1  -9  -2    3.81    0.85
   1   9   2    4.62    0.73
   1   9   2    4.74    0.78
  -2  -9  -2    3.30    0.95
  -2  -9  -2    2.16    0.65
   2   9   2    2.62    0.64
   2   9   2    2.45    0.71
   0  -7   3   16.50    1.98
   1  -7   3    9.53    1.57
   2  -7   3   18.61    1.95
   2   6  -3    6.34    0.91
   2   6  -3    4.60    1.56
   2   6  -3    4.27    0.99
  -2  -6   3    6.18    1.46
  -2  -6   3    5.33    0.94
   1   6  -3    7.63    0.92
   1   6  -3    8.80    1.69
  -1  -6   3    7.21    1.41
   0   6  -3    7.46    1.33
   0  -6   3   10.46    1.49
  -1   6  -3    1.42    0.71
   1  -6   3    3.04    0.96
  -2   6  -3    0.13    0.52
   2  -6   3    0.26    0.60
  -3   6  -3    9.14    1.36
  -3   6  -3    9.00    1.36
   3   5  -3    0.49    0.52
   3   5  -3    0.96    0.69
   3   5  -3   -0.13    1.21
  -3  -5   3   -0.10    0.80
  -3  -5   3    0.10    0.49
   2   5  -3    7.48    1.83
   2   5  -3    6.33    0.94
   2   5  -3    8.25    0.91
  -2  -5   3    5.49    1.32
  -2  -5   3    8.00    0.95
  -2  -5   3    9.75    1.19
  -2  -5   3    9.57    1.11
   1   5  -3    0.66    0.79
   1   5  -3    0.38    0.40
  -1  -5   3    1.21    0.50
  -1  -5   3    0.94    0.37
  -1  -5   3    1.00    0.68
   0   5  -3    2.57    0.86
   0  -5   3    2.98    0.87
  -1   5  -3    9.94    1.18
   1  -5   3   10.79    1.27
  -2   5  -3    4.80    0.97
   2  -5   3    5.16    1.03
  -5   5  -3    0.38    0.33
  -5   5  -3    1.02    0.45
   5  -5   3    1.23    0.51
   5  -5   3    0.86    0.56
   4   4  -3    1.67    0.72
   4   4  -3    1.32    0.64
   4   4  -3    3.46    0.93
   4   4  -3    1.62    1.49
   4   4  -3    0.28    0.69
  -4  -4   3    1.86    0.71
  -4  -4   3    2.99    1.19
  -4  -4   3    2.36    0.67
   3   4  -3    7.48    0.99
   3   4  -3    7.74    1.12
   3   4  -3    5.21    1.65
   3   4  -3    6.84    1.05
   3   4  -3    7.92    0.88
  -3  -4   3    7.09    1.02
  -3  -4   3    8.08    0.84
  -3  -4   3    6.12    0.78
  -3  -4   3    6.85    1.31
  -3  -4   3    7.92    0.82
   2   4  -3   17.52    1.13
   2   4  -3   19.58    1.21
   2   4  -3   18.59    2.11
   2   4  -3   18.90    1.35
  -2  -4   3   20.41    1.39
  -2  -4   3   20.97    1.03
  -2  -4   3   18.93    1.00
  -2  -4   3   16.71    1.20
  -2  -4   3   18.14    1.69
  -2  -4   3   18.22    1.24
   1   4  -3   44.31    2.65
   1   4  -3   37.86    2.78
   1   4  -3   42.33    1.89
   1   4  -3   44.05    1.76
  -1  -4   3   44.14    1.94
  -1  -4   3   42.17    2.43
  -1  -4   3   42.20    1.77
  -1  -4   3   46.89    1.87
   0   4  -3  231.53    7.82
   0  -4   3  211.70    7.77
  -1   4  -3   10.49    1.12
   1  -4   3   10.42    1.14
  -2   4  -3   19.45    1.51
   2  -4   3   23.57    1.62
  -4   4  -3   90.28    3.15
   4  -4   3   87.77    3.25
   4  -4   3   88.76    3.25
  -5   4  -3    4.66    0.67
  -5   4  -3    4.10    0.65
   5  -4   3    5.32    0.70
   5  -4   3    4.08    1.00
   5  -4   3    4.78    0.85
   5  -4   3    5.90    0.84
  -6   4  -3    9.78    1.00
  -6   4  -3    9.47    0.99
   6  -4   3    8.29    1.16
   5   3  -3    3.30    1.05
   5   3  -3    4.19    1.01
   5   3  -3    4.17    0.71
   5   3  -3    3.64    1.00
   5   3  -3    4.17    1.15
   5   3  -3    3.99    2.03
  -5  -3   3    3.79    0.91
   4   3  -3    1.90    1.38
   4   3  -3    1.31    0.66
   4   3  -3    1.94    0.44
   4   3  -3    1.79    0.80
   4   3  -3    1.75    0.71
   4   3  -3    2.03    0.60
  -4  -3   3    2.31    0.72
  -4  -3   3    0.94    0.56
  -4  -3   3    0.92    0.85
  -4  -3   3    1.42    0.60
  -4  -3   3    2.48    0.68
   3   3  -3    3.63    0.63
   3   3  -3    1.53    1.23
   3   3  -3    2.74    0.44
   3   3  -3    4.27    0.78
   3   3  -3    3.52    0.71
   3   3  -3    2.55    0.70
  -3  -3   3    3.43    0.77
  -3  -3   3    4.09    1.01
  -3  -3   3    4.67    0.76
  -3  -3   3    4.03    0.72
  -3  -3   3    4.00    0.73
   2   3  -3   27.00    1.41
   2   3  -3   28.31    1.37
   2   3  -3   25.81    1.30
   2   3  -3   23.77    1.50
   2   3  -3   24.41    1.40
   2   3  -3   28.10    2.56
   2   3  -3   25.90    1.48
   2   3  -3   28.82    2.32
   2   3  -3   23.79    1.44
  -2  -3   3   24.97    1.31
  -2  -3   3   28.17    1.44
  -2  -3   3   27.62    1.34
  -2  -3   3   25.64    1.34
  -2  -3   3   26.44    1.30
  -2  -3   3   25.04    1.46
  -2  -3   3   26.97    1.30
  -2  -3   3   27.28    1.48
  -2  -3   3   25.06    1.78
  -2  -3   3   27.89    1.57
   1   3  -3  114.41    4.25
   1   3  -3  121.72    4.25
   1   3  -3  130.05    5.06
   1   3  -3  127.48    4.28
   1   3  -3  118.94    4.04
   1   3  -3  116.96    4.09
   1   3  -3  134.11    4.99
  -1  -3   3  126.07    3.98
  -1  -3   3  123.20    4.17
  -1  -3   3  124.79    3.94
  -1  -3   3  125.90    4.31
  -1  -3   3  125.51    4.23
  -1  -3   3  134.13    4.88
  -1  -3   3  124.52    4.20
   0   3  -3   16.80    0.86
   0   3  -3   15.61    1.27
   0   3  -3   15.85    0.88
   0   3  -3   16.60    1.19
   0   3  -3   16.29    1.12
   0  -3   3   15.49    0.78
   0  -3   3   16.64    0.78
   0  -3   3   14.81    0.88
   0  -3   3   16.78    0.84
   0  -3   3   17.75    1.28
  -1   3  -3   79.85    3.30
   1  -3   3   76.97    3.24
  -2   3  -3   85.47    2.83
   2  -3   3   92.35    3.60
  -3   3  -3   17.49    0.91
  -3   3  -3   18.65    1.01
  -3   3  -3   16.64    0.88
  -3   3  -3   19.32    0.87
  -3   3  -3   17.54    0.87
   3  -3   3   18.13    0.97
  -4   3  -3   40.32    1.67
  -4   3  -3   40.15    1.61
  -4   3  -3   39.62    1.69
  -4   3  -3   35.13    1.73
   4  -3   3   37.28    1.75
   4  -3   3   37.33    1.72
   4  -3   3   37.23    1.62
   4  -3   3   38.99    2.19
  -5   3  -3   17.09    1.14
  -5   3  -3   17.59    1.12
  -5   3  -3   17.19    0.97
   5  -3   3   17.63    1.26
   5  -3   3   20.05    1.77
   5  -3   3   18.36    1.19
   5  -3   3   17.60    1.30
  -6   3  -3   13.93    1.10
  -6   3  -3   12.64    1.10
  -6   3  -3   12.74    0.98
   6  -3   3   14.19    1.12
   6  -3   3   13.49    1.35
  -7   3  -3    8.38    1.13
  -7   3  -3    6.70    0.98
  -7   3  -3    7.48    0.95
   7  -3   3    9.79    1.15
   5   2  -3    3.31    0.85
   5   2  -3    3.75    1.06
   5   2  -3    4.54    0.92
   5   2  -3    4.39    2.05
   5   2  -3    4.89    1.19
   5   2  -3    4.01    0.70
  -5  -2   3    4.38    1.01
   4   2  -3    7.42    2.06
   4   2  -3    8.86    1.19
   4   2  -3    8.02    1.05
   4   2  -3    9.70    1.13
   4   2  -3    7.86    0.93
   4   2  -3    9.21    1.31
   4   2  -3    8.77    0.75
  -4  -2   3    9.01    1.10
  -4  -2   3    8.96    1.13
  -4  -2   3    9.27    1.04
  -4  -2   3    9.74    1.15
   3   2  -3   64.19    2.36
   3   2  -3   63.19    2.79
   3   2  -3   62.90    2.84
   3   2  -3   70.35    2.93
   3   2  -3   62.91    2.75
   3   2  -3   67.12    2.77
   3   2  -3   65.41    2.95
   3   2  -3   67.18    4.01
   3   2  -3   61.45    2.58
   3   2  -3   63.82    2.96
  -3  -2   3   68.12    2.82
  -3  -2   3   62.57    2.79
  -3  -2   3   66.91    2.83
  -3  -2   3   67.20    2.69
  -3  -2   3   61.23    2.88
  -3  -2   3   62.58    2.76
   2   2  -3    4.71    0.62
   2   2  -3    2.66    0.61
   2   2  -3    4.19    0.62
   2   2  -3    3.99    0.60
   2   2  -3    4.30    0.92
   2   2  -3    3.70    0.51
   2   2  -3    4.28    0.60
   2   2  -3    4.74    1.15
   2   2  -3    4.33    0.60
   2   2  -3    4.30    0.71
   2   2  -3    3.54    0.53
  -2  -2   3    4.06    0.42
  -2  -2   3    4.67    0.59
  -2  -2   3    4.35    0.58
  -2  -2   3    3.78    0.61
  -2  -2   3    4.86    0.63
  -2  -2   3    3.88    0.69
  -2  -2   3    3.66    0.62
  -2  -2   3    4.29    0.58
  -2  -2   3    4.32    0.61
  -2  -2   3    3.38    0.75
  -2  -2   3    3.59    0.59
   1   2  -3   39.54    1.55
   1   2  -3   41.20    1.74
   1   2  -3   38.98    1.61
   1   2  -3   37.43    2.20
   1   2  -3   35.51    1.70
   1   2  -3   37.66    2.18
   1   2  -3   41.11    1.73
   1   2  -3   39.72    1.46
   1   2  -3   41.09    1.57
   1   2  -3   40.47    1.72
  -1  -2   3   37.79    1.74
  -1  -2   3   38.05    1.65
  -1  -2   3   42.17    1.62
  -1  -2   3   40.64    1.59
  -1  -2   3   41.75    1.75
  -1  -2   3   39.86    1.62
  -1  -2   3   37.42    1.99
  -1  -2   3   39.17    1.58
  -1  -2   3   43.08    1.60
  -1  -2   3   42.08    1.65
  -1  -2   3   42.20    1.69
   0   2  -3   22.55    1.07
   0   2  -3   23.77    1.11
   0   2  -3   23.79    1.07
   0   2  -3   27.57    1.50
   0   2  -3   25.01    1.49
   0   2  -3   22.69    1.07
   0   2  -3   22.32    1.10
   0   2  -3   23.03    0.94
   0   2  -3   24.21    0.93
   0   2  -3   23.04    1.02
   0  -2   3   23.92    1.40
   0  -2   3   23.33    1.06
   0  -2   3   23.77    1.11
   0  -2   3   24.27    1.04
   0  -2   3   25.24    1.06
  -1   2  -3    7.13    0.83
  -1   2  -3    9.11    0.55
  -1   2  -3   10.16    0.54
  -1   2  -3   10.44    0.55
  -1   2  -3   10.35    0.58
  -1   2  -3   10.28    0.56
   1  -2   3    9.79    0.53
   1  -2   3    9.47    0.52
   1  -2   3    9.07    0.83
  -2   2  -3    4.34    0.42
  -2   2  -3    4.05    0.36
  -2   2  -3    4.76    0.39
  -2   2  -3    4.15    0.38
  -2   2  -3    4.26    0.58
  -2   2  -3    4.10    0.40
   2  -2   3    4.35    0.61
   2  -2   3    3.96    0.41
   2  -2   3    3.65    0.39
  -3   2  -3    9.86    0.69
  -3   2  -3   10.77    0.69
  -3   2  -3   11.90    0.78
  -3   2  -3   11.93    0.63
  -3   2  -3   10.67    0.66
  -3   2  -3   12.00    0.64
  -3   2  -3   11.41    0.69
  -3   2  -3   11.01    0.69
  -3   2  -3   10.54    0.64
   3  -2   3   10.93    1.00
   3  -2   3   11.29    0.75
   3  -2   3   10.00    0.68
   3  -2   3   10.25    0.74
  -4   2  -3    3.40    0.54
  -4   2  -3    3.86    0.66
  -4   2  -3    3.86    0.49
  -4   2  -3    3.74    0.58
  -4   2  -3    2.31    0.59
  -4   2  -3    2.66    0.45
  -4   2  -3    3.70    0.54
  -4   2  -3    3.43    0.53
  -4   2  -3    3.41    0.61
   4  -2   3    3.00    0.44
   4  -2   3    3.10    0.50
   4  -2   3    3.82    0.84
   4  -2   3    3.68    0.47
   4  -2   3    2.69    0.46
   4  -2   3    3.61    0.60
   4  -2   3    3.63    0.51
   4  -2   3    4.01    0.49
   4  -2   3    3.76    0.62
   4  -2   3    3.34    0.53
  -5   2  -3   65.95    2.62
  -5   2  -3   62.34    2.54
  -5   2  -3   58.11    2.82
  -5   2  -3   59.54    2.36
  -5   2  -3   66.24    2.37
   5  -2   3   66.87    3.52
   5  -2   3   65.28    2.69
   5  -2   3   65.22    2.56
   5  -2   3   66.11    2.80
   5  -2   3   63.54    2.57
   5  -2   3   67.77    2.77
  -6   2  -3    6.83    1.27
  -6   2  -3    5.97    0.72
  -6   2  -3    5.54    0.79
  -6   2  -3    6.62    0.88
  -6   2  -3    7.39    0.88
   6  -2   3    6.89    1.08
   6  -2   3    6.68    0.89
   6  -2   3    6.08    0.78
   6  -2   3    7.04    0.84
  -7   2  -3    1.50    0.53
  -7   2  -3    2.14    1.11
  -7   2  -3    2.78    0.79
  -7   2  -3    1.99    0.65
  -7   2  -3    0.99    0.55
   7  -2   3    2.01    0.77
   7  -2   3    1.43    0.66
   5   1  -3    6.05    1.26
   5   1  -3    5.89    0.94
   5   1  -3    8.31    2.46
   5   1  -3    5.58    0.72
   5   1  -3    4.99    1.03
   5   1  -3    6.32    1.30
   5   1  -3    6.32    1.14
   5   1  -3    6.87    1.39
  -5  -1   3    5.43    1.10
  -5  -1   3    6.24    0.62
  -5  -1   3    6.94    1.19
  -5  -1   3    6.59    1.08
   4   1  -3   43.58    3.66
   4   1  -3   46.07    1.94
   4   1  -3   45.41    2.56
   4   1  -3   51.16    2.48
   4   1  -3   47.77    2.22
   4   1  -3   48.91    2.51
   4   1  -3   50.26    2.67
   4   1  -3   44.50    2.39
   4   1  -3   51.18    2.40
  -4  -1   3   47.05    2.42
  -4  -1   3   46.98    2.45
  -4  -1   3   43.59    2.29
  -4  -1   3   46.99    1.79
  -4  -1   3   48.97    2.54
  -4  -1   3   50.86    2.47
   3   1  -3   12.60    1.23
   3   1  -3   13.47    0.99
   3   1  -3   14.86    1.69
   3   1  -3   13.18    1.13
   3   1  -3   15.68    0.83
   3   1  -3   13.35    1.14
   3   1  -3   13.99    1.23
   3   1  -3   12.50    1.86
   3   1  -3   15.31    1.14
   3   1  -3   15.81    1.16
  -3  -1   3   14.34    1.08
  -3  -1   3   11.65    0.88
  -3  -1   3   15.35    0.71
  -3  -1   3   11.84    1.05
  -3  -1   3   13.16    1.17
  -3  -1   3   13.90    1.15
  -3  -1   3   15.02    1.19
  -3  -1   3   14.23    1.20
  -3  -1   3   12.89    1.03
  -3  -1   3   14.10    0.89
  -3  -1   3   12.25    1.10
   2   1  -3   10.32    0.76
   2   1  -3   11.43    0.85
   2   1  -3    7.54    1.27
   2   1  -3   10.20    0.92
   2   1  -3    9.39    0.84
   2   1  -3   10.58    0.91
   2   1  -3   11.91    0.84
   2   1  -3    9.47    0.76
   2   1  -3   10.42    0.74
   2   1  -3   11.77    0.95
   2   1  -3   10.10    1.22
   2   1  -3   10.70    0.60
   2   1  -3   11.05    0.85
  -2  -1   3   11.48    0.91
  -2  -1   3    9.90    0.89
  -2  -1   3   12.38    0.89
  -2  -1   3   11.30    0.85
  -2  -1   3   10.15    0.88
  -2  -1   3   10.77    0.85
  -2  -1   3   10.10    0.82
  -2  -1   3    9.02    0.61
  -2  -1   3   10.47    0.71
  -2  -1   3   11.56    0.86
  -2  -1   3    8.48    0.76
  -2  -1   3   12.29    0.91
   1   1  -3   29.65    1.33
   1   1  -3   30.41    1.32
   1   1  -3   30.55    1.44
   1   1  -3   31.13    1.10
   1   1  -3   31.69    1.43
   1   1  -3   31.19    1.50
   1   1  -3   29.82    1.89
   1   1  -3   31.39    1.30
   1   1  -3   30.72    1.41
   1   1  -3   33.40    1.25
   1   1  -3   28.96    1.80
   1   1  -3   28.59    1.44
   1   1  -3   30.18    1.39
   1   1  -3   28.96    1.40
   1   1  -3   32.28    1.29
   1   1  -3   33.86    1.47
  -1  -1   3   31.22    1.40
  -1  -1   3   30.35    1.44
  -1  -1   3   31.65    1.42
  -1  -1   3   30.82    1.40
  -1  -1   3   31.67    1.35
  -1  -1   3   30.40    1.33
  -1  -1   3   30.94    1.39
  -1  -1   3   31.84    1.38
  -1  -1   3   28.32    1.58
  -1  -1   3   29.07    1.42
  -1  -1   3   32.52    1.39
   0   1  -3   72.65    2.46
   0   1  -3   71.20    2.44
   0   1  -3   76.77    2.58
   0   1  -3   76.11    2.58
   0   1  -3   74.41    2.62
   0   1  -3   76.76    2.42
   0   1  -3   71.73    2.50
   0   1  -3   61.03    2.93
   0   1  -3   72.64    2.54
   0   1  -3   73.74    2.43
   0   1  -3   71.10    2.53
   0   1  -3   74.10    2.51
   0   1  -3   76.50    2.61
   0   1  -3   78.66    2.97
   0  -1   3   74.08    2.52
   0  -1   3   72.96    2.50
   0  -1   3   76.26    2.84
   0  -1   3   72.51    2.53
   0  -1   3   75.51    2.59
   0  -1   3   71.66    2.55
   0  -1   3   74.48    2.50
   0  -1   3   73.99    2.45
   0  -1   3   73.91    2.47
   0  -1   3   70.77    2.45
   0  -1   3   72.44    2.48
  -1   1  -3  152.41    4.90
  -1   1  -3  157.48    4.95
  -1   1  -3  156.68    5.38
  -1   1  -3  160.05    5.41
  -1   1  -3  159.56    4.88
  -1   1  -3  155.88    4.84
  -1   1  -3  157.47    4.91
  -1   1  -3  159.69    4.96
  -1   1  -3  166.70    4.97
  -1   1  -3  162.03    4.83
  -1   1  -3  161.83    4.97
   1  -1   3  158.66    4.94
   1  -1   3  155.81    4.92
   1  -1   3  155.22    4.84
   1  -1   3  159.27    4.83
   1  -1   3  154.42    4.83
   1  -1   3  156.95    4.84
   1  -1   3  159.14    5.25
   1  -1   3  161.42    4.96
   1  -1   3  151.69    5.38
  -2   1  -3  413.86   12.49
  -2   1  -3  422.45   12.40
  -2   1  -3  412.41   12.54
  -2   1  -3  409.19   12.40
  -2   1  -3  416.73   12.39
  -2   1  -3  416.98   12.44
  -2   1  -3  413.44   12.48
  -2   1  -3  437.93   13.07
  -2   1  -3  419.40   12.55
  -2   1  -3  420.74   12.45
  -2   1  -3  420.23   12.56
   2  -1   3  423.04   12.55
   2  -1   3  410.62   12.42
   2  -1   3  433.90   12.83
   2  -1   3  407.81   12.41
   2  -1   3  414.18   12.43
   2  -1   3  412.86   12.41
   2  -1   3  396.84   13.01
   2  -1   3  429.98   12.55
   2  -1   3  402.25   12.52
   2  -1   3  427.53   12.43
  -3   1  -3  101.53    3.53
  -3   1  -3  102.90    3.50
  -3   1  -3  104.87    3.50
  -3   1  -3   99.39    3.18
  -3   1  -3  104.09    4.11
  -3   1  -3  104.96    3.40
  -3   1  -3   99.08    3.45
  -3   1  -3  104.45    3.46
  -3   1  -3  101.65    3.43
  -3   1  -3  105.53    3.35
  -3   1  -3  102.85    3.35
  -3   1  -3  101.33    3.42
   3  -1   3   98.31    3.45
   3  -1   3   97.41    3.39
   3  -1   3  102.13    3.39
   3  -1   3  100.81    3.41
   3  -1   3   93.75    3.33
   3  -1   3  101.43    3.49
   3  -1   3  103.13    3.40
   3  -1   3  100.99    3.41
   3  -1   3  103.31    3.51
   3  -1   3  103.02    4.09
  -4   1  -3   36.09    1.39
  -4   1  -3   35.59    1.76
  -4   1  -3   36.15    1.75
  -4   1  -3   39.14    1.69
  -4   1  -3   35.65    1.54
  -4   1  -3   35.17    1.37
  -4   1  -3   33.65    1.64
  -4   1  -3   35.84    1.69
  -4   1  -3   38.04    1.58
  -4   1  -3   37.71    1.59
  -4   1  -3   35.04    1.58
   4  -1   3   36.48    2.24
   4  -1   3   34.81    1.63
   4  -1   3   37.48    1.69
   4  -1   3   34.72    1.60
   4  -1   3   34.49    1.68
   4  -1   3   32.13    1.57
   4  -1   3   29.02    1.48
   4  -1   3   35.34    1.35
   4  -1   3   33.54    1.58
  -5   1  -3    8.17    0.79
  -5   1  -3    7.48    0.66
  -5   1  -3   10.41    1.07
  -5   1  -3    8.53    0.91
  -5   1  -3    9.43    0.81
  -5   1  -3   10.13    0.89
  -5   1  -3    7.75    0.75
  -5   1  -3    8.87    1.12
   5  -1   3    8.75    0.90
   5  -1   3    8.12    0.83
   5  -1   3    9.93    0.94
   5  -1   3    8.11    0.95
   5  -1   3    9.48    0.90
   5  -1   3    7.60    0.89
   5  -1   3   10.38    1.40
  -6   1  -3   12.74    1.06
  -6   1  -3   10.31    0.86
  -6   1  -3   11.97    1.10
  -6   1  -3   11.33    1.46
  -6   1  -3   14.17    1.15
   6  -1   3   12.65    1.23
   6  -1   3   14.89    1.33
   6  -1   3   10.82    1.05
  -7   1  -3    3.41    1.16
  -7   1  -3    3.71    0.72
  -7   1  -3    4.02    0.87
  -7   1  -3    2.67    0.75
  -7   1  -3    2.50    0.77
   7  -1   3    2.68    0.82
   7  -1   3    3.27    0.90
   6   0  -3    5.71    2.51
   6   0  -3    4.96    1.27
   6   0  -3    3.71    1.02
   6   0  -3    5.11    1.34
   6   0  -3    8.21    1.64
   6   0  -3    4.75    0.76
   6   0  -3    4.82    1.13
  -6   0   3    6.81    1.29
  -6   0   3    5.67    0.86
  -6   0   3    5.90    0.79
   5   0  -3    8.87    1.18
   5   0  -3    6.38    0.94
   5   0  -3    9.34    1.44
   5   0  -3    8.24    1.34
   5   0  -3    8.84    0.79
   5   0  -3    9.21    1.36
   5   0  -3    5.93    2.09
   5   0  -3    9.50    1.20
  -5   0   3    9.19    1.28
  -5   0   3    8.93    0.79
  -5   0   3    7.95    1.23
  -5   0   3    7.19    1.15
  -5   0   3    7.50    0.85
   4   0  -3   21.20    2.61
   4   0  -3   22.93    1.72
   4   0  -3   20.76    1.70
   4   0  -3   21.17    2.27
   4   0  -3   23.00    1.62
   4   0  -3   20.17    1.11
   4   0  -3   22.66    1.55
   4   0  -3   21.11    1.35
   4   0  -3   23.56    1.60
   4   0  -3   19.70    1.47
  -4   0   3   22.02    1.55
  -4   0   3   23.54    1.42
  -4   0   3   24.18    1.68
  -4   0   3   24.60    1.68
  -4   0   3   20.47    1.51
  -4   0   3   24.61    1.16
  -4   0   3   21.82    1.58
  -4   0   3   20.80    1.28
  -4   0   3   23.95    1.21
  -4   0   3   20.39    1.63
  -4   0   3   22.11    1.50
   3   0  -3   63.62    2.57
   3   0  -3   65.36    3.66
   3   0  -3   68.69    2.72
   3   0  -3   61.91    2.76
   3   0  -3   65.84    2.91
   3   0  -3   65.79    2.78
   3   0  -3   62.71    2.34
   3   0  -3   72.84    4.01
   3   0  -3   62.95    2.82
   3   0  -3   64.35    2.87
   3   0  -3   64.00    2.72
  -3   0   3   64.44    2.77
  -3   0   3   66.46    2.80
  -3   0   3   59.93    2.84
  -3   0   3   66.01    2.73
  -3   0   3   63.32    2.83
  -3   0   3   67.91    2.78
  -3   0   3   69.76    2.34
  -3   0   3   62.12    2.83
  -3   0   3   68.41    2.53
  -3   0   3   67.71    2.35
  -3   0   3   65.14    2.84
   2   0  -3   68.41    2.73
   2   0  -3   68.96    2.58
   2   0  -3   64.51    2.64
   2   0  -3   69.64    2.69
   2   0  -3   64.03    2.78
   2   0  -3   63.20    3.33
   2   0  -3   63.69    2.70
   2   0  -3   69.55    2.31
   2   0  -3   68.76    2.50
   2   0  -3   68.79    2.57
   2   0  -3   67.68    2.69
   2   0  -3   63.76    2.73
   2   0  -3   70.39    3.47
   2   0  -3   66.72    2.67
  -2   0   3   66.75    2.73
  -2   0   3   66.52    2.69
  -2   0   3   68.38    2.66
  -2   0   3   68.18    2.63
  -2   0   3   65.80    2.28
  -2   0   3   68.06    2.66
  -2   0   3   68.73    2.44
  -2   0   3   69.51    2.74
  -2   0   3   67.47    2.59
  -2   0   3   68.65    2.25
  -2   0   3   60.88    2.63
  -2   0   3   64.10    2.58
  -2   0   3   68.23    2.28
   1   0  -3  176.18    5.41
   1   0  -3  179.21    5.46
   1   0  -3  173.45    5.39
   1   0  -3  168.68    5.22
   1   0  -3  153.73    5.96
   1   0  -3  171.68    5.58
   1   0  -3  178.38    5.69
   1   0  -3  173.16    5.46
   1   0  -3  173.74    5.37
   1   0  -3  166.44    5.56
   1   0  -3  157.94    5.52
   1   0  -3  172.90    5.58
   1   0  -3  163.52    6.26
   1   0  -3  162.96    5.60
   1   0  -3  169.36    5.54
  -1   0   3  170.25    5.50
  -1   0   3  176.42    5.54
  -1   0   3  169.88    5.47
  -1   0   3  175.06    5.34
  -1   0   3  171.03    5.61
  -1   0   3  173.35    5.58
  -1   0   3  164.54    5.58
  -1   0   3  170.01    5.48
  -1   0   3  172.00    5.55
  -1   0   3  177.61    5.19
  -1   0   3  169.33    5.17
  -1   0   3  173.42    5.56
  -1   0   3  173.38    5.55
   0   0  -3   16.61    0.77
   0   0  -3   16.54    0.83
   0   0  -3   15.88    0.76
   0   0  -3   13.47    0.64
   0   0  -3   15.96    0.83
   0   0  -3   14.98    0.83
   0   0  -3   14.86    0.72
   0   0  -3   15.59    0.66
   0   0  -3   15.95    0.84
   0   0  -3   15.47    0.83
   0   0  -3   15.44    0.68
   0   0  -3   14.36    0.83
   0   0  -3   13.92    1.12
   0   0  -3   14.54    1.00
   0   0  -3   14.23    0.79
   0   0  -3   17.57    0.76
   0   0  -3   15.35    0.61
   0   0  -3   15.81    0.82
   0   0   3   16.05    0.67
   0   0   3   17.13    0.83
   0   0   3   15.48    0.89
   0   0   3   14.40    0.97
   0   0   3   17.59    0.83
   0   0   3   15.67    0.78
   0   0   3   17.36    0.87
   0   0   3   16.86    0.84
   0   0   3   16.31    0.86
   0   0   3   14.51    0.76
   0   0   3   17.74    1.21
   0   0   3   16.03    0.78
   0   0   3   15.98    0.71
   0   0   3   17.37    0.86
   0   0   3   17.27    0.83
  -1   0  -3   10.64    0.44
  -1   0  -3    9.83    0.39
  -1   0  -3   10.29    0.47
  -1   0  -3   10.37    0.60
  -1   0  -3    9.96    0.56
  -1   0  -3    9.61    0.53
  -1   0  -3   10.35    0.53
  -1   0  -3   10.52    0.62
  -1   0  -3   11.31    0.80
  -1   0  -3    8.53    0.57
  -1   0  -3    9.40    0.60
  -1   0  -3   10.13    0.57
  -1   0  -3    9.77    0.57
  -1   0  -3   10.51    0.55
  -1   0  -3   10.72    0.62
  -1   0  -3   10.37    0.52
  -1   0  -3   10.19    0.86
   1   0   3   10.94    0.88
   1   0   3    9.31    0.59
   1   0   3    9.16    0.55
   1   0   3    8.61    0.54
   1   0   3    9.35    0.56
   1   0   3    9.50    0.58
   1   0   3    8.67    0.57
   1   0   3   10.88    0.60
   1   0   3    9.71    0.49
   1   0   3   10.84    0.65
   1   0   3    9.63    0.43
   1   0   3    7.15    0.50
   1   0   3    9.44    0.55
  -2   0  -3  143.23    4.55
  -2   0  -3  138.43    4.42
  -2   0  -3  140.88    4.29
  -2   0  -3  138.88    4.41
  -2   0  -3  141.60    4.48
  -2   0  -3  144.07    4.57
  -2   0  -3  145.45    4.56
  -2   0  -3  141.70    4.51
  -2   0  -3  142.34    4.46
  -2   0  -3  146.99    4.47
  -2   0  -3  141.09    4.34
  -2   0  -3  147.18    4.52
  -2   0  -3  155.29    5.14
  -2   0  -3  137.85    4.24
  -2   0  -3  140.20    4.46
   2   0   3  141.62    4.52
   2   0   3  136.80    4.30
   2   0   3  136.52    4.43
   2   0   3  140.18    4.51
   2   0   3  140.25    4.50
   2   0   3  144.69    4.54
   2   0   3  134.42    4.28
   2   0   3  133.35    4.46
   2   0   3  139.60    4.54
   2   0   3  135.09    4.52
   2   0   3  138.54    4.48
   2   0   3  139.55    5.09
  -3   0  -3   74.97    2.37
  -3   0  -3   69.59    2.61
  -3   0  -3   71.67    2.64
  -3   0  -3   69.42    2.49
  -3   0  -3   69.82    2.54
  -3   0  -3   69.62    2.57
  -3   0  -3   69.81    2.58
  -3   0  -3   78.64    2.69
  -3   0  -3   67.52    2.49
  -3   0  -3   74.87    3.27
  -3   0  -3   73.29    2.61
  -3   0  -3   72.65    2.68
  -3   0  -3   73.16    2.56
  -3   0  -3   69.34    2.34
   3   0   3   67.07    2.57
   3   0   3   74.40    2.62
   3   0   3   67.03    2.36
   3   0   3   72.11    2.62
   3   0   3   69.80    2.59
   3   0   3   69.30    2.51
   3   0   3   72.42    2.64
   3   0   3   70.79    3.22
   3   0   3   70.59    2.44
   3   0   3   72.98    2.64
   3   0   3   71.81    2.40
   3   0   3   72.00    2.60
  -4   0  -3   45.62    2.08
  -4   0  -3   45.58    2.02
  -4   0  -3   47.09    2.00
  -4   0  -3   47.04    2.18
  -4   0  -3   50.64    1.98
  -4   0  -3   48.15    2.01
  -4   0  -3   51.00    1.87
  -4   0  -3   49.91    2.11
  -4   0  -3   52.25    2.11
  -4   0  -3   45.03    2.18
  -4   0  -3   46.18    1.95
  -4   0  -3   49.98    1.81
   4   0   3   48.41    2.00
   4   0   3   49.86    1.88
   4   0   3   45.18    2.05
   4   0   3   47.94    2.08
   4   0   3   48.68    1.92
   4   0   3   47.39    2.11
   4   0   3   48.64    2.08
   4   0   3   45.69    2.07
   4   0   3   51.96    1.80
   4   0   3   48.19    2.07
   4   0   3   48.11    2.08
  -5   0  -3    9.53    1.15
  -5   0  -3    9.47    0.86
  -5   0  -3    8.10    0.78
  -5   0  -3    7.68    0.98
  -5   0  -3    8.09    0.88
  -5   0  -3    7.38    0.65
  -5   0  -3    8.72    0.82
  -5   0  -3    7.13    0.88
  -5   0  -3    8.61    0.85
   5   0   3    8.89    0.67
   5   0   3    9.02    0.99
   5   0   3    9.08    0.92
   5   0   3    7.68    1.26
   5   0   3    8.50    0.77
   5   0   3    8.03    0.92
   5   0   3    9.04    0.88
   5   0   3    9.94    0.96
   5   0   3    8.77    0.79
   5   0   3    8.99    0.90
   5   0   3    8.83    0.93
   5   0   3    8.20    0.70
  -6   0  -3  107.36    4.76
  -6   0  -3  114.86    4.29
  -6   0  -3  125.11    4.64
  -6   0  -3  115.37    4.05
  -6   0  -3  121.46    4.38
  -6   0  -3  116.33    4.40
  -6   0  -3  110.83    4.73
  -6   0  -3  114.92    4.42
   6   0   3  121.33    4.60
   6   0   3  117.41    4.54
   6   0   3  121.30    4.65
   6   0   3  113.88    4.04
  -7   0  -3   18.48    2.01
  -7   0  -3   19.83    1.54
  -7   0  -3   18.98    1.57
  -7   0  -3   19.64    1.27
  -7   0  -3   20.71    1.53
   7   0   3   21.29    1.75
   7   0   3   20.24    1.25
   7   0   3   22.94    1.83
   6  -1  -3   26.23    1.40
   6  -1  -3   29.27    3.95
   6  -1  -3   28.74    2.40
   6  -1  -3   28.17    2.18
   6  -1  -3   27.21    2.10
  -6   1   3   26.93    1.72
  -6   1   3   25.61    2.08
  -6   1   3   28.63    2.28
  -6   1   3   29.62    1.59
   5  -1  -3   15.95    1.48
   5  -1  -3   15.19    1.66
   5  -1  -3   13.53    0.92
   5  -1  -3   14.98    1.22
   5  -1  -3   15.94    1.63
   5  -1  -3   15.06    1.35
   5  -1  -3   13.29    1.46
   5  -1  -3   16.59    2.86
  -5   1   3   15.33    1.06
  -5   1   3   13.47    1.20
  -5   1   3   15.64    1.53
  -5   1   3   11.85    1.45
  -5   1   3   15.08    1.42
  -5   1   3   14.23    1.38
   4  -1  -3    0.27    0.40
   4  -1  -3   -0.14    0.39
   4  -1  -3    0.94    0.45
   4  -1  -3    0.47    0.56
   4  -1  -3    0.85    0.52
   4  -1  -3    0.41    0.64
   4  -1  -3    0.32    0.56
   4  -1  -3    1.01    0.32
   4  -1  -3   -0.56    0.42
   4  -1  -3   -0.12    1.03
  -4   1   3    1.10    0.37
  -4   1   3    0.18    0.43
  -4   1   3    1.03    0.63
  -4   1   3    0.18    0.43
  -4   1   3    1.15    0.60
  -4   1   3   -0.08    0.32
  -4   1   3    0.40    0.46
  -4   1   3    0.44    0.36
  -4   1   3   -0.32    0.40
  -4   1   3   -0.05    0.32
   3  -1  -3   81.78    3.20
   3  -1  -3   88.99    4.37
   3  -1  -3   77.85    3.33
   3  -1  -3   82.03    3.28
   3  -1  -3   90.72    3.51
   3  -1  -3   81.36    2.82
   3  -1  -3   78.43    3.05
   3  -1  -3   86.59    4.49
   3  -1  -3   81.61    3.17
   3  -1  -3   81.81    3.32
   3  -1  -3   83.73    3.40
   3  -1  -3   83.79    3.31
   3  -1  -3   79.65    3.33
  -3   1   3   80.67    3.38
  -3   1   3   76.76    3.29
  -3   1   3   78.40    3.27
  -3   1   3   89.41    3.47
  -3   1   3   83.97    3.38
  -3   1   3   86.71    3.10
  -3   1   3   80.78    3.26
  -3   1   3   83.81    3.23
  -3   1   3   84.38    3.03
  -3   1   3   83.01    2.89
  -3   1   3   79.84    3.22
   2  -1  -3   56.84    2.56
   2  -1  -3   60.50    2.34
   2  -1  -3   64.58    2.60
   2  -1  -3   64.29    2.57
   2  -1  -3   64.59    2.46
   2  -1  -3   61.81    2.65
   2  -1  -3   66.14    2.46
   2  -1  -3   63.76    2.60
   2  -1  -3   65.66    2.17
   2  -1  -3   62.41    3.27
   2  -1  -3   58.27    2.48
   2  -1  -3   63.96    2.59
   2  -1  -3   61.48    3.22
   2  -1  -3   61.01    2.42
   2  -1  -3   65.13    2.60
  -2   1   3   65.50    2.57
  -2   1   3   61.43    2.34
  -2   1   3   60.25    2.50
  -2   1   3   65.70    2.47
  -2   1   3   64.04    2.29
  -2   1   3   62.92    2.57
  -2   1   3   62.20    2.29
  -2   1   3   62.38    2.56
  -2   1   3   61.83    2.51
  -2   1   3   62.41    2.59
  -2   1   3   60.44    2.21
  -2   1   3   66.44    2.63
  -2   1   3   59.79    2.47
  -2   1   3   63.45    2.12
   1  -1  -3  186.88    6.04
   1  -1  -3  191.84    6.82
   1  -1  -3  186.33    6.06
   1  -1  -3  187.44    5.87
   1  -1  -3  180.36    5.93
   1  -1  -3  196.18    5.93
   1  -1  -3  178.95    5.98
   1  -1  -3  188.44    6.09
   1  -1  -3  179.44    6.43
   1  -1  -3  187.66    6.03
   1  -1  -3  195.69    5.89
   1  -1  -3  186.92    5.91
   1  -1  -3  179.57    6.09
   1  -1  -3  184.97    5.93
   1  -1  -3  187.56    5.71
   1  -1  -3  189.49    6.04
   1  -1  -3  186.26    5.87
  -1   1   3  188.32    5.98
  -1   1   3  196.03    5.97
  -1   1   3  190.28    5.75
  -1   1   3  184.09    6.07
  -1   1   3  188.94    6.03
  -1   1   3  178.05    5.99
  -1   1   3  187.13    5.86
  -1   1   3  194.12    6.05
  -1   1   3  183.61    6.03
  -1   1   3  181.56    6.22
  -1   1   3  191.62    5.91
  -1   1   3  190.79    5.84
  -1   1   3  184.61    6.00
  -1   1   3  183.06    5.77
  -1   1   3  179.81    6.06
  -1   1   3  185.11    5.96
  -1   1   3  181.06    5.73
  -1   1   3  192.24    5.66
   0  -1  -3    2.65    0.36
   0  -1  -3    2.62    0.35
   0  -1  -3    2.02    0.24
   0  -1  -3    2.69    0.41
   0  -1  -3    2.69    0.55
   0  -1  -3    2.79    0.31
   0  -1  -3    3.15    0.39
   0  -1  -3    2.22    0.36
   0  -1  -3    2.64    0.34
   0  -1  -3    2.68    0.38
   0  -1  -3    2.52    0.35
   0  -1  -3    2.69    0.36
   0  -1  -3    2.98    0.34
   0  -1  -3    3.29    0.33
   0  -1  -3    2.73    0.29
   0  -1  -3    3.17    0.48
   0  -1  -3    2.31    0.34
   0  -1  -3    2.43    0.34
   0  -1  -3    2.54    0.31
   0  -1  -3    2.91    0.38
   0   1   3    2.27    0.24
   0   1   3    2.68    0.36
   0   1   3    2.54    0.35
   0   1   3    2.65    0.30
   0   1   3    2.84    0.45
   0   1   3    2.69    0.36
   0   1   3    3.38    0.61
   0   1   3    2.26    0.32
   0   1   3    2.94    0.33
   0   1   3    2.87    0.37
   0   1   3    2.91    0.39
   0   1   3    2.69    0.38
   0   1   3    2.61    0.36
   0   1   3    2.36    0.32
   0   1   3    2.54    0.21
   0   1   3    2.79    0.30
   0   1   3    2.82    0.27
   0   1   3    3.29    0.29
  -1  -1  -3  326.52    9.70
  -1  -1  -3  344.68   10.06
  -1  -1  -3  319.87    9.90
  -1  -1  -3  314.66    9.90
  -1  -1  -3  318.71    9.88
  -1  -1  -3  325.30    9.81
  -1  -1  -3  326.64    9.67
  -1  -1  -3  301.60    9.88
  -1  -1  -3  333.43    9.66
  -1  -1  -3  316.60    9.85
  -1  -1  -3  318.64    9.84
  -1  -1  -3  331.24    9.74
  -1  -1  -3  323.12    9.84
  -1  -1  -3  329.00    9.84
  -1  -1  -3  328.81    9.86
  -1  -1  -3  319.99    9.79
  -1  -1  -3  326.11   10.46
  -1  -1  -3  326.35    9.89
  -1  -1  -3  312.77    9.71
  -1  -1  -3  327.40    9.81
  -1  -1  -3  322.49    9.78
   1   1   3  335.93    9.76
   1   1   3  319.46    9.61
   1   1   3  326.31    9.79
   1   1   3  317.29    9.89
   1   1   3  328.22    9.90
   1   1   3  315.96    9.87
   1   1   3  330.59    9.75
   1   1   3  328.37    9.85
   1   1   3  325.56    9.72
   1   1   3  331.86    9.68
   1   1   3  322.61    9.83
   1   1   3  333.82    9.83
   1   1   3  331.52    9.85
   1   1   3  340.87    9.82
   1   1   3  322.68    9.63
   1   1   3  326.35    9.89
   1   1   3  328.74    9.60
  -2  -1  -3  153.45    4.80
  -2  -1  -3  145.35    4.82
  -2  -1  -3  148.93    4.62
  -2  -1  -3  153.15    4.88
  -2  -1  -3  148.28    5.42
  -2  -1  -3  157.57    4.62
  -2  -1  -3  147.74    4.83
  -2  -1  -3  154.38    4.82
  -2  -1  -3  146.68    4.72
  -2  -1  -3  151.83    4.83
  -2  -1  -3  150.90    4.88
  -2  -1  -3  140.96    4.66
  -2  -1  -3  151.28    4.79
  -2  -1  -3  153.40    4.60
  -2  -1  -3  148.29    4.85
  -2  -1  -3  146.94    4.71
  -2  -1  -3  151.15    4.75
  -2  -1  -3  150.95    4.79
   2   1   3  149.43    4.52
   2   1   3  147.60    4.74
   2   1   3  150.64    4.69
   2   1   3  152.43    4.73
   2   1   3  151.40    4.86
   2   1   3  153.80    4.83
   2   1   3  155.03    4.57
   2   1   3  144.18    4.61
   2   1   3  149.02    4.84
   2   1   3  146.22    4.80
   2   1   3  143.78    5.39
   2   1   3  155.89    4.89
   2   1   3  152.15    4.86
   2   1   3  148.50    4.84
   2   1   3  150.57    4.77
   2   1   3  152.52    4.81
  -3  -1  -3   10.42    0.71
  -3  -1  -3   10.79    0.70
  -3  -1  -3    9.86    0.76
  -3  -1  -3   10.55    0.65
  -3  -1  -3   11.70    0.80
  -3  -1  -3    9.87    1.14
  -3  -1  -3    9.64    0.83
  -3  -1  -3   11.12    0.77
  -3  -1  -3   11.43    0.84
  -3  -1  -3   12.45    1.19
  -3  -1  -3   10.46    0.70
  -3  -1  -3   11.06    0.74
  -3  -1  -3   10.36    0.57
  -3  -1  -3   10.14    0.75
  -3  -1  -3    8.58    0.71
   3   1   3   10.96    0.79
   3   1   3   11.38    0.78
   3   1   3   11.32    0.79
   3   1   3   10.52    0.50
   3   1   3   11.36    0.50
   3   1   3   10.12    0.63
   3   1   3   11.07    0.56
   3   1   3   10.54    0.74
   3   1   3   10.17    0.76
   3   1   3   12.30    0.69
   3   1   3   10.80    1.10
   3   1   3   10.55    0.72
   3   1   3   11.89    0.74
   3   1   3   10.80    0.78
   3   1   3    8.76    0.72
  -4  -1  -3   73.52    2.87
  -4  -1  -3   72.33    2.73
  -4  -1  -3   71.77    3.64
  -4  -1  -3   73.73    2.86
  -4  -1  -3   73.13    2.89
  -4  -1  -3   72.95    2.98
  -4  -1  -3   73.04    2.84
  -4  -1  -3   74.66    2.55
  -4  -1  -3   75.30    3.02
  -4  -1  -3   73.18    2.79
  -4  -1  -3   76.03    2.80
  -4  -1  -3   74.90    2.66
   4   1   3   71.56    2.85
   4   1   3   76.34    2.61
   4   1   3   73.84    2.48
   4   1   3   74.68    2.91
   4   1   3   67.69    3.54
   4   1   3   70.12    2.75
   4   1   3   72.92    2.87
   4   1   3   71.54    2.78
   4   1   3   66.99    2.82
   4   1   3   74.94    2.90
   4   1   3   73.75    2.36
   4   1   3   76.40    2.91
   4   1   3   75.21    2.66
   4   1   3   69.55    2.78
   4   1   3   73.13    2.88
   4   1   3   71.69    2.38
  -5  -1  -3   22.26    1.46
  -5  -1  -3   20.94    1.54
  -5  -1  -3   24.49    1.18
  -5  -1  -3   23.88    1.43
  -5  -1  -3   24.85    1.42
  -5  -1  -3   23.61    1.34
  -5  -1  -3   24.98    1.50
  -5  -1  -3   24.70    1.69
  -5  -1  -3   23.09    1.47
  -5  -1  -3   25.09    1.40
   5   1   3   23.21    1.39
   5   1   3   23.01    0.99
   5   1   3   24.51    1.50
   5   1   3   24.39    1.29
   5   1   3   25.16    0.97
   5   1   3   24.54    1.54
   5   1   3   21.71    1.43
   5   1   3   24.65    1.51
   5   1   3   23.82    1.45
   5   1   3   24.36    1.26
   5   1   3   26.06    1.57
   5   1   3   21.47    2.02
   5   1   3   23.36    1.51
   5   1   3   26.93    1.61
  -6  -1  -3   35.82    2.01
  -6  -1  -3   35.04    2.26
  -6  -1  -3   32.25    1.81
  -6  -1  -3   32.63    1.81
  -6  -1  -3   28.41    1.77
  -6  -1  -3   30.93    2.11
  -6  -1  -3   31.58    1.55
  -6  -1  -3   33.00    1.87
   6   1   3   34.84    2.00
   6   1   3   34.42    1.25
   6   1   3   33.18    1.63
   6   1   3   30.47    2.14
   6   1   3   32.93    2.03
   6   1   3   33.87    1.87
   6   1   3   33.14    2.04
   6   1   3   33.10    1.63
  -7  -1  -3   34.16    2.21
  -7  -1  -3   34.42    1.70
  -7  -1  -3   31.85    2.50
  -7  -1  -3   35.92    2.04
  -7  -1  -3   30.65    1.98
  -7  -1  -3   31.45    2.57
  -7  -1  -3   35.47    2.13
  -7  -1  -3   33.41    2.06
   7   1   3   36.19    1.77
   7   1   3   34.18    1.80
   7   1   3   33.49    2.16
   7   1   3   33.60    2.28
   6  -2  -3    6.77    1.23
   6  -2  -3    5.60    2.31
   6  -2  -3    6.75    1.50
   6  -2  -3    6.79    0.69
  -6   2   3    6.50    1.07
  -6   2   3    5.48    1.15
  -6   2   3    6.55    0.91
  -6   2   3    6.29    1.28
  -6   2   3    9.56    1.54
  -6   2   3    6.41    1.52
   5  -2  -3    2.11    0.85
   5  -2  -3    3.53    0.92
   5  -2  -3    2.53    0.48
   5  -2  -3    3.87    1.74
   5  -2  -3    2.76    0.78
   5  -2  -3    2.24    0.61
   5  -2  -3    2.58    1.12
   5  -2  -3    2.32    0.75
  -5   2   3    2.54    0.69
  -5   2   3    2.97    0.86
  -5   2   3    2.05    0.72
  -5   2   3    2.79    0.80
  -5   2   3    3.46    0.95
  -5   2   3    2.41    0.81
  -5   2   3    1.76    0.50
   4  -2  -3    3.30    0.80
   4  -2  -3    3.25    0.75
   4  -2  -3    2.55    0.74
   4  -2  -3    3.36    0.77
   4  -2  -3    2.54    0.73
   4  -2  -3    2.89    0.79
   4  -2  -3    3.18    1.10
   4  -2  -3    2.95    0.44
   4  -2  -3    3.31    1.57
   4  -2  -3    4.26    0.78
   4  -2  -3    3.07    0.63
   4  -2  -3    3.92    0.78
   4  -2  -3    2.50    0.73
  -4   2   3    2.71    0.56
  -4   2   3    2.20    0.70
  -4   2   3    3.66    0.79
  -4   2   3    2.61    0.72
  -4   2   3    3.25    0.67
  -4   2   3    3.24    0.81
  -4   2   3    2.71    0.61
   3  -2  -3    1.90    0.49
   3  -2  -3    1.28    0.48
   3  -2  -3    1.81    0.51
   3  -2  -3    0.48    0.42
   3  -2  -3    1.78    0.56
   3  -2  -3    1.48    0.53
   3  -2  -3    0.73    0.58
   3  -2  -3    2.06    0.56
   3  -2  -3    1.23    0.29
   3  -2  -3    1.43    0.43
   3  -2  -3    1.54    0.38
   3  -2  -3    1.36    0.46
   3  -2  -3    1.24    0.50
   3  -2  -3    1.10    0.40
   3  -2  -3    1.39    0.95
  -3   2   3    1.65    0.50
  -3   2   3    0.74    0.29
  -3   2   3    0.87    0.44
  -3   2   3    1.80    0.51
  -3   2   3    2.53    0.58
  -3   2   3    2.05    0.49
  -3   2   3    1.26    0.41
  -3   2   3    1.05    0.41
  -3   2   3    1.65    0.56
  -3   2   3    1.70    0.52
   2  -2  -3   13.79    0.69
   2  -2  -3   14.53    0.95
   2  -2  -3   14.87    1.05
   2  -2  -3   13.37    0.82
   2  -2  -3   14.59    1.04
   2  -2  -3   17.39    1.06
   2  -2  -3   14.48    1.07
   2  -2  -3   14.45    0.94
   2  -2  -3   12.01    1.46
   2  -2  -3   14.70    0.98
   2  -2  -3   13.10    1.00
   2  -2  -3   13.83    0.91
   2  -2  -3   14.14    1.02
   2  -2  -3   13.18    0.84
   2  -2  -3   13.95    1.43
   2  -2  -3   12.67    1.02
   2  -2  -3   13.89    0.96
  -2   2   3   13.38    0.95
  -2   2   3   13.75    1.02
  -2   2   3   13.65    0.98
  -2   2   3   14.07    0.90
  -2   2   3   14.55    0.85
  -2   2   3   14.28    1.00
  -2   2   3   14.19    0.95
  -2   2   3   12.57    0.95
  -2   2   3   15.09    0.99
  -2   2   3   12.47    0.86
  -2   2   3   15.66    1.05
  -2   2   3   13.92    0.79
  -2   2   3   14.13    0.97
  -2   2   3   12.80    0.84
   1  -2  -3   50.69    1.99
   1  -2  -3   47.81    1.76
   1  -2  -3   49.11    1.81
   1  -2  -3   48.41    1.94
   1  -2  -3   49.43    2.37
   1  -2  -3   50.11    1.99
   1  -2  -3   48.22    1.84
   1  -2  -3   47.09    2.02
   1  -2  -3   49.63    1.99
   1  -2  -3   48.08    1.67
   1  -2  -3   50.90    1.89
   1  -2  -3   47.91    1.85
   1  -2  -3   48.07    1.89
   1  -2  -3   49.16    2.01
   1  -2  -3   48.43    1.91
   1  -2  -3   44.88    2.49
   1  -2  -3   50.32    2.03
  -1   2   3   43.46    2.46
  -1   2   3   49.39    2.03
  -1   2   3   46.61    1.82
  -1   2   3   49.09    2.12
  -1   2   3   48.50    1.94
  -1   2   3   51.40    1.93
  -1   2   3   48.60    1.83
  -1   2   3   49.98    1.67
  -1   2   3   49.73    1.83
  -1   2   3   49.09    1.88
  -1   2   3   48.64    2.00
  -1   2   3   47.93    1.90
  -1   2   3   49.09    1.76
  -1   2   3   49.57    1.99
  -1   2   3   47.10    1.94
  -1   2   3   47.23    1.95
  -1   2   3   48.73    1.97
  -1   2   3   48.72    1.92
   0  -2  -3  141.84    4.78
   0  -2  -3  150.82    4.89
   0  -2  -3  146.30    4.82
   0  -2  -3  151.08    4.76
   0  -2  -3  151.56    4.70
   0  -2  -3  140.07    4.76
   0  -2  -3  147.45    5.40
   0  -2  -3  142.12    4.80
   0  -2  -3  148.81    4.80
   0  -2  -3  153.01    4.70
   0  -2  -3  146.11    4.76
   0  -2  -3  148.55    4.81
   0  -2  -3  143.35    4.72
   0  -2  -3  144.95    4.63
   0  -2  -3  149.18    4.54
   0  -2  -3  151.13    4.70
   0  -2  -3  143.41    4.61
   0  -2  -3  147.13    4.62
   0  -2  -3  148.54    4.75
   0  -2  -3  149.39    4.66
   0   2   3  143.30    4.77
   0   2   3  139.59    4.73
   0   2   3  149.05    4.70
   0   2   3  151.65    4.53
   0   2   3  149.32    4.79
   0   2   3  151.64    4.64
   0   2   3  148.68    4.73
   0   2   3  147.41    4.60
   0   2   3  153.08    4.75
   0   2   3  149.31    4.69
   0   2   3  146.09    4.73
   0   2   3  146.58    4.80
   0   2   3  159.60    4.70
   0   2   3  148.74    4.66
   0   2   3  153.87    5.46
   0   2   3  143.69    4.56
   0   2   3  150.34    4.81
   0   2   3  149.52    4.74
   0   2   3  143.82    4.81
  -1  -2  -3  447.54   13.84
  -1  -2  -3  467.18   13.84
  -1  -2  -3  450.62   13.85
  -1  -2  -3  462.85   13.66
  -1  -2  -3  472.47   13.92
  -1  -2  -3  468.70   13.91
  -1  -2  -3  476.08   13.87
  -1  -2  -3  461.52   13.80
  -1  -2  -3  465.38   13.83
  -1  -2  -3  457.30   13.75
  -1  -2  -3  468.24   13.83
  -1  -2  -3  452.43   13.74
  -1  -2  -3  474.28   13.66
  -1  -2  -3  442.54   13.89
  -1  -2  -3  457.80   13.77
  -1  -2  -3  425.71   14.47
  -1  -2  -3  450.74   13.89
  -1  -2  -3  460.65   13.84
  -1  -2  -3  464.47   13.92
  -1  -2  -3  454.85   13.70
   1   2   3  460.94   13.91
   1   2   3  460.64   13.78
   1   2   3  455.32   13.76
   1   2   3  454.59   13.81
   1   2   3  440.89   13.87
   1   2   3  457.20   13.83
   1   2   3  478.79   14.53
   1   2   3  473.88   13.63
   1   2   3  464.54   13.84
   1   2   3  450.72   13.67
   1   2   3  475.07   13.73
   1   2   3  455.52   13.81
   1   2   3  469.83   13.89
   1   2   3  479.09   13.89
   1   2   3  461.74   13.84
   1   2   3  468.57   13.91
   1   2   3  455.77   13.64
   1   2   3  476.04   13.80
   1   2   3  457.42   13.80
  -2  -2  -3  240.64    7.40
  -2  -2  -3  240.04    7.47
  -2  -2  -3  243.17    7.49
  -2  -2  -3  232.50    7.43
  -2  -2  -3  244.89    7.42
  -2  -2  -3  248.36    7.50
  -2  -2  -3  244.50    7.22
  -2  -2  -3  242.96    7.35
  -2  -2  -3  227.68    7.33
  -2  -2  -3  240.91    7.25
  -2  -2  -3  240.48    7.35
  -2  -2  -3  228.12    8.09
  -2  -2  -3  230.77    7.44
  -2  -2  -3  235.74    7.41
  -2  -2  -3  244.85    7.49
  -2  -2  -3  220.51    7.17
  -2  -2  -3  235.49    7.49
  -2  -2  -3  237.31    7.41
   2   2   3  240.10    7.49
   2   2   3  238.16    7.31
   2   2   3  238.43    7.36
   2   2   3  240.56    7.46
   2   2   3  226.35    7.57
   2   2   3  245.76    7.45
   2   2   3  241.31    7.38
   2   2   3  234.90    7.19
   2   2   3  242.04    7.44
   2   2   3  243.28    7.41
   2   2   3  241.86    8.14
   2   2   3  227.76    7.41
   2   2   3  242.15    7.46
   2   2   3  232.12    7.45
   2   2   3  235.31    7.32
   2   2   3  242.98    7.19
   2   2   3  233.08    7.18
   2   2   3  242.85    7.39
  -3  -2  -3    5.28    0.46
  -3  -2  -3    4.84    0.70
  -3  -2  -3    5.81    0.67
  -3  -2  -3    4.30    0.53
  -3  -2  -3    3.79    0.46
  -3  -2  -3    4.44    0.51
  -3  -2  -3    5.39    0.41
  -3  -2  -3    4.23    0.53
  -3  -2  -3    5.38    0.55
  -3  -2  -3    4.93    0.56
  -3  -2  -3    5.80    0.60
  -3  -2  -3    4.67    0.49
  -3  -2  -3    6.35    0.93
  -3  -2  -3    5.48    0.60
   3   2   3    5.31    0.55
   3   2   3    5.12    0.50
   3   2   3    5.43    0.84
   3   2   3    5.46    0.43
   3   2   3    5.52    0.60
   3   2   3    4.83    0.59
   3   2   3    5.48    0.59
   3   2   3    4.65    0.56
   3   2   3    5.83    0.63
   3   2   3    5.36    0.58
   3   2   3    5.64    0.61
   3   2   3    6.24    0.63
   3   2   3    4.82    0.56
  -4  -2  -3   30.51    1.43
  -4  -2  -3   28.69    1.49
  -4  -2  -3   26.13    1.15
  -4  -2  -3   26.03    1.58
  -4  -2  -3   25.12    1.46
  -4  -2  -3   26.14    1.38
  -4  -2  -3   25.77    1.53
  -4  -2  -3   29.03    1.37
  -4  -2  -3   26.41    1.29
  -4  -2  -3   25.03    1.42
  -4  -2  -3   27.50    1.49
  -4  -2  -3   25.66    2.03
  -4  -2  -3   25.87    1.43
   4   2   3   25.64    1.45
   4   2   3   29.51    1.52
   4   2   3   22.47    1.26
   4   2   3   26.52    1.49
   4   2   3   27.98    2.08
   4   2   3   26.25    1.48
   4   2   3   25.98    1.42
   4   2   3   27.89    1.51
   4   2   3   24.30    1.44
   4   2   3   24.89    1.29
   4   2   3   26.37    1.44
   4   2   3   28.03    1.50
   4   2   3   25.55    1.32
  -5  -2  -3    2.61    0.62
  -5  -2  -3    2.13    0.73
  -5  -2  -3    0.49    0.41
  -5  -2  -3    1.85    0.52
  -5  -2  -3    1.59    0.47
  -5  -2  -3    1.41    0.35
  -5  -2  -3    1.31    0.42
  -5  -2  -3    2.21    0.53
  -5  -2  -3    1.39    0.51
  -5  -2  -3    1.16    0.48
  -5  -2  -3    1.35    0.60
   5   2   3    0.71    0.53
   5   2   3    1.19    0.46
   5   2   3    1.23    0.29
   5   2   3    1.12    0.51
   5   2   3    0.94    0.46
   5   2   3    1.03    0.52
   5   2   3    1.91    0.50
   5   2   3    2.45    0.96
   5   2   3    1.91    0.66
   5   2   3    1.18    0.46
   5   2   3    1.65    0.47
  -6  -2  -3    1.83    0.64
  -6  -2  -3    1.32    0.55
  -6  -2  -3    1.00    0.44
  -6  -2  -3    1.47    0.43
  -6  -2  -3    1.63    0.64
  -6  -2  -3    1.34    0.74
  -6  -2  -3    1.74    0.77
  -6  -2  -3    1.72    0.53
   6   2   3    1.06    0.56
   6   2   3    1.51    0.34
   6   2   3    0.95    0.63
   6   2   3    2.60    0.74
   6   2   3    1.17    0.51
   6   2   3    1.96    0.59
   6   2   3    2.30    0.63
  -7  -2  -3   25.08    1.91
  -7  -2  -3   24.66    2.19
  -7  -2  -3   26.05    1.43
  -7  -2  -3   26.44    1.78
  -7  -2  -3   25.08    1.75
  -7  -2  -3   25.86    1.76
  -7  -2  -3   24.39    2.05
  -7  -2  -3   20.79    1.71
   7   2   3   24.45    1.19
   7   2   3   22.63    1.98
   7   2   3   25.70    1.56
   7   2   3   25.12    1.64
   7   2   3   22.28    1.82
   6  -3  -3    8.60    1.63
   6  -3  -3    7.83    1.74
  -6   3   3    7.51    1.33
  -6   3   3    7.11    1.10
  -6   3   3    7.18    0.97
   5  -3  -3   13.23    1.14
   5  -3  -3   16.91    2.89
   5  -3  -3   14.35    1.59
   5  -3  -3   13.60    1.27
   5  -3  -3   11.30    1.26
   5  -3  -3   12.27    2.00
  -5   3   3   14.57    1.53
  -5   3   3   13.46    1.37
  -5   3   3   13.14    1.47
  -5   3   3   14.80    1.24
  -5   3   3   14.18    1.10
  -5   3   3   15.18    1.46
  -5   3   3   13.64    1.48
   4  -3  -3    3.00    0.79
   4  -3  -3    2.34    0.68
   4  -3  -3    1.91    0.53
   4  -3  -3    1.32    1.46
   4  -3  -3    2.36    0.97
   4  -3  -3    1.90    0.58
   4  -3  -3    1.72    0.58
   4  -3  -3    2.01    0.76
   4  -3  -3    1.72    0.63
   4  -3  -3    1.44    0.58
  -4   3   3    2.52    0.72
  -4   3   3    1.12    0.50
  -4   3   3    1.81    0.51
  -4   3   3    2.14    0.65
  -4   3   3    2.06    0.62
  -4   3   3    1.89    0.55
  -4   3   3    2.61    0.68
  -4   3   3    1.39    0.44
   3  -3  -3   30.36    1.65
   3  -3  -3   34.11    1.60
   3  -3  -3   31.62    2.45
   3  -3  -3   26.21    1.70
   3  -3  -3   32.81    1.53
   3  -3  -3   33.48    1.85
   3  -3  -3   35.07    1.89
   3  -3  -3   31.72    1.27
   3  -3  -3   30.92    1.70
   3  -3  -3   31.16    1.20
   3  -3  -3   35.56    1.88
   3  -3  -3   31.85    1.55
   3  -3  -3   31.04    1.73
   3  -3  -3   33.61    1.78
   3  -3  -3   31.66    1.79
   3  -3  -3   34.25    1.72
   3  -3  -3   36.69    2.82
  -3   3   3   32.05    1.59
  -3   3   3   33.73    1.50
  -3   3   3   33.93    1.82
  -3   3   3   32.95    1.69
  -3   3   3   33.61    1.70
  -3   3   3   30.91    1.71
  -3   3   3   32.68    1.82
  -3   3   3   33.68    1.86
  -3   3   3   32.23    1.63
  -3   3   3   31.81    1.61
   2  -3  -3   98.77    3.20
   2  -3  -3  100.93    3.45
   2  -3  -3   97.01    3.59
   2  -3  -3   97.20    3.29
   2  -3  -3  107.20    4.61
   2  -3  -3  100.01    3.46
   2  -3  -3  100.56    3.14
   2  -3  -3  102.82    4.50
   2  -3  -3   96.45    3.62
   2  -3  -3  103.59    3.71
   2  -3  -3   97.59    3.63
   2  -3  -3   97.20    3.65
   2  -3  -3  101.06    3.80
   2  -3  -3  100.14    3.44
   2  -3  -3   97.59    3.71
   2  -3  -3  106.33    3.77
   2  -3  -3   98.97    3.54
  -2   3   3  100.22    3.70
  -2   3   3  100.94    3.59
  -2   3   3  100.88    3.68
  -2   3   3   99.60    3.57
  -2   3   3  102.76    3.38
  -2   3   3   98.57    3.67
  -2   3   3   95.93    3.48
  -2   3   3  100.91    3.51
  -2   3   3  100.37    3.73
  -2   3   3  100.78    3.55
  -2   3   3  101.10    3.65
  -2   3   3  100.92    3.75
   1  -3  -3  236.23    7.29
   1  -3  -3  246.52    7.73
   1  -3  -3  234.75    7.66
   1  -3  -3  239.69    7.67
   1  -3  -3  234.29    7.63
   1  -3  -3  238.74    8.13
   1  -3  -3  234.31    7.48
   1  -3  -3  243.16    7.63
   1  -3  -3  241.40    7.38
   1  -3  -3  241.00    7.74
   1  -3  -3  247.40    7.65
   1  -3  -3  246.73    7.74
   1  -3  -3  262.81    8.65
   1  -3  -3  241.03    7.49
   1  -3  -3  242.52    7.24
   1  -3  -3  245.47    7.59
  -1   3   3  242.21    7.59
  -1   3   3  234.54    8.43
  -1   3   3  237.81    7.76
  -1   3   3  243.54    7.55
  -1   3   3  235.70    7.49
  -1   3   3  245.58    7.66
  -1   3   3  248.11    7.69
  -1   3   3  244.88    7.74
  -1   3   3  241.83    7.66
  -1   3   3  240.50    7.51
  -1   3   3  244.10    7.68
  -1   3   3  241.22    7.56
  -1   3   3  253.74    7.73
  -1   3   3  240.92    7.43
  -1   3   3  246.50    7.65
  -1   3   3  238.90    7.60
  -1   3   3  235.75    7.51
   0  -3  -3   35.17    1.45
   0  -3  -3   32.61    1.42
   0  -3  -3   34.82    1.50
   0  -3  -3   36.30    1.21
   0  -3  -3   38.07    1.43
   0  -3  -3   33.40    1.51
   0  -3  -3   33.66    1.36
   0  -3  -3   34.98    1.95
   0  -3  -3   34.62    1.44
   0  -3  -3   33.28    1.49
   0  -3  -3   35.00    1.45
   0  -3  -3   31.85    1.22
   0  -3  -3   34.82    1.48
   0  -3  -3   35.47    1.51
   0  -3  -3   33.88    1.31
   0  -3  -3   33.57    1.46
   0  -3  -3   34.80    1.48
   0   3   3   35.48    1.52
   0   3   3   36.09    2.01
   0   3   3   34.36    1.48
   0   3   3   34.07    1.36
   0   3   3   36.01    1.49
   0   3   3   36.70    1.51
   0   3   3   33.70    1.37
   0   3   3   34.36    1.45
   0   3   3   35.85    1.49
   0   3   3   32.93    1.28
   0   3   3   34.08    1.39
   0   3   3   34.62    1.25
   0   3   3   35.32    1.45
   0   3   3   35.89    1.35
   0   3   3   32.74    1.39
   0   3   3   34.63    1.42
   0   3   3   34.95    1.44
  -1  -3  -3  505.66   14.92
  -1  -3  -3  502.29   14.59
  -1  -3  -3  488.07   14.84
  -1  -3  -3  483.12   14.89
  -1  -3  -3  496.02   14.88
  -1  -3  -3  481.23   14.72
  -1  -3  -3  476.43   14.87
  -1  -3  -3  498.43   15.57
  -1  -3  -3  495.38   14.83
  -1  -3  -3  499.33   14.71
  -1  -3  -3  495.14   14.81
  -1  -3  -3  519.03   14.87
  -1  -3  -3  482.61   14.60
  -1  -3  -3  484.38   14.81
  -1  -3  -3  493.53   14.62
   1   3   3  501.57   14.74
   1   3   3  495.87   14.76
   1   3   3  502.97   14.69
   1   3   3  489.22   14.62
   1   3   3  487.69   14.81
   1   3   3  497.13   14.81
   1   3   3  500.95   14.90
   1   3   3  495.78   14.92
   1   3   3  492.21   14.84
   1   3   3  484.96   14.81
   1   3   3  499.11   14.89
   1   3   3  498.47   14.86
   1   3   3  503.69   14.82
   1   3   3  493.12   14.75
   1   3   3  482.47   14.62
   1   3   3  478.07   14.89
   1   3   3  494.41   15.55
   1   3   3  489.40   14.83
  -2  -3  -3    2.96    0.54
  -2  -3  -3    2.83    0.46
  -2  -3  -3    2.48    0.35
  -2  -3  -3    2.07    0.39
  -2  -3  -3    2.95    0.43
  -2  -3  -3    2.74    0.45
  -2  -3  -3    1.77    0.38
  -2  -3  -3    2.86    0.40
  -2  -3  -3    2.40    0.37
  -2  -3  -3    2.65    0.48
  -2  -3  -3    2.38    0.48
  -2  -3  -3    2.46    0.39
  -2  -3  -3    2.53    0.63
  -2  -3  -3    2.58    0.32
  -2  -3  -3    2.30    0.39
  -2  -3  -3    2.63    0.29
   2   3   3    2.43    0.31
   2   3   3    2.98    0.44
   2   3   3    2.40    0.41
   2   3   3    3.32    0.46
   2   3   3    2.64    0.43
   2   3   3    3.26    0.68
   2   3   3    2.57    0.38
   2   3   3    3.02    0.49
   2   3   3    2.52    0.40
   2   3   3    2.27    0.45
   2   3   3    2.13    0.39
   2   3   3    2.42    0.43
   2   3   3    2.37    0.38
   2   3   3    2.89    0.39
   2   3   3    2.16    0.42
  -3  -3  -3   30.11    1.49
  -3  -3  -3   30.29    1.46
  -3  -3  -3   30.27    1.42
  -3  -3  -3   31.85    1.31
  -3  -3  -3   32.38    1.21
  -3  -3  -3   29.85    1.97
  -3  -3  -3   30.78    2.06
  -3  -3  -3   30.67    1.56
  -3  -3  -3   31.80    1.52
  -3  -3  -3   32.10    1.44
  -3  -3  -3   29.91    1.22
  -3  -3  -3   28.36    1.47
  -3  -3  -3   31.78    1.52
  -3  -3  -3   30.45    1.58
  -3  -3  -3   31.80    1.39
   3   3   3   33.56    1.55
   3   3   3   27.59    1.98
   3   3   3   29.80    1.50
   3   3   3   30.05    1.43
   3   3   3   29.98    1.53
   3   3   3   32.22    1.41
   3   3   3   31.78    1.55
   3   3   3   31.68    1.52
   3   3   3   29.46    1.51
   3   3   3   31.28    1.24
   3   3   3   29.69    1.51
   3   3   3   28.67    1.46
   3   3   3   30.44    1.48
  -4  -3  -3   58.70    2.21
  -4  -3  -3   67.14    2.66
  -4  -3  -3   61.14    2.65
  -4  -3  -3   65.57    2.66
  -4  -3  -3   64.93    2.21
  -4  -3  -3   66.43    2.62
  -4  -3  -3   61.97    2.51
  -4  -3  -3   63.01    2.36
  -4  -3  -3   58.20    3.36
  -4  -3  -3   60.80    2.42
  -4  -3  -3   57.43    2.70
  -4  -3  -3   60.37    2.71
  -4  -3  -3   63.86    2.53
  -4  -3  -3   61.32    2.62
   4   3   3   61.94    2.65
   4   3   3   61.38    2.65
   4   3   3   63.50    2.60
   4   3   3   61.33    2.50
   4   3   3   63.40    2.69
   4   3   3   63.19    2.63
   4   3   3   59.76    2.45
   4   3   3   59.91    2.58
   4   3   3   63.85    2.68
   4   3   3   58.15    3.33
  -5  -3  -3   16.58    1.25
  -5  -3  -3   16.82    1.11
  -5  -3  -3   15.43    1.24
  -5  -3  -3   16.07    1.24
  -5  -3  -3   17.90    1.18
  -5  -3  -3   14.29    1.15
  -5  -3  -3   17.37    1.48
  -5  -3  -3   14.35    0.87
  -5  -3  -3   15.30    1.24
  -5  -3  -3   15.43    1.09
  -5  -3  -3   15.66    1.36
   5   3   3   16.19    1.25
   5   3   3   13.95    1.11
   5   3   3   14.77    1.25
   5   3   3   15.44    1.28
   5   3   3   14.65    1.82
   5   3   3   16.42    1.37
   5   3   3   16.79    1.29
   5   3   3   16.80    1.28
  -6  -3  -3   48.74    2.47
  -6  -3  -3   45.72    2.36
  -6  -3  -3   45.20    2.27
  -6  -3  -3   42.57    1.88
  -6  -3  -3   44.28    2.59
  -6  -3  -3   45.23    2.21
  -6  -3  -3   43.37    2.12
  -6  -3  -3   45.04    2.67
   6   3   3   45.75    1.89
   6   3   3   44.02    2.48
   6   3   3   43.49    2.41
   6   3   3   46.97    2.29
   6   3   3   48.74    2.53
   6   3   3   45.70    2.32
   6   3   3   50.27    2.61
  -7  -3  -3   10.21    1.51
  -7  -3  -3    9.46    1.31
  -7  -3  -3   10.28    0.89
  -7  -3  -3    9.35    1.27
  -7  -3  -3   10.85    1.15
  -7  -3  -3   10.71    1.63
   7   3   3    6.97    0.99
   7   3   3   11.21    1.35
   7   3   3    9.46    0.78
   7   3   3    9.70    1.29
   7   3   3    9.46    1.48
   7   3   3   10.71    1.38
   5  -4  -3    5.41    0.99
   5  -4  -3    5.96    1.23
   5  -4  -3    5.35    0.81
   5  -4  -3    5.99    2.03
   5  -4  -3    4.99    1.53
  -5   4   3    5.83    0.92
  -5   4   3    5.14    0.91
  -5   4   3    7.01    1.14
  -5   4   3    5.66    0.85
   4  -4  -3    6.84    1.90
   4  -4  -3    6.39    0.74
   4  -4  -3    7.26    0.90
   4  -4  -3    6.27    1.09
   4  -4  -3    5.89    1.35
   4  -4  -3    8.17    1.11
  -4   4   3    7.25    0.96
  -4   4   3    6.82    0.96
  -4   4   3    7.15    1.08
  -4   4   3    6.44    0.73
  -4   4   3    5.96    0.97
  -4   4   3    7.46    1.06
  -4   4   3    4.62    0.73
   3  -4  -3   32.03    1.53
   3  -4  -3   37.75    1.96
   3  -4  -3   35.67    1.79
   3  -4  -3   37.15    1.96
   3  -4  -3   40.19    2.73
   3  -4  -3   35.20    1.78
   3  -4  -3   35.98    2.00
   3  -4  -3   36.49    2.82
   3  -4  -3   38.24    2.00
   3  -4  -3   34.27    1.79
   3  -4  -3   36.36    1.80
   3  -4  -3   35.95    1.80
  -3   4   3   35.12    1.91
  -3   4   3   33.39    1.78
  -3   4   3   34.04    1.72
  -3   4   3   31.99    1.87
  -3   4   3   35.34    1.59
  -3   4   3   34.89    1.71
  -3   4   3   35.18    1.95
  -3   4   3   34.11    1.70
  -3   4   3   34.91    1.90
   2  -4  -3   17.48    1.14
   2  -4  -3   15.56    0.99
   2  -4  -3   16.00    1.16
   2  -4  -3   15.31    0.88
   2  -4  -3   16.28    1.14
   2  -4  -3   16.64    1.04
   2  -4  -3   17.48    1.14
   2  -4  -3   16.55    0.88
   2  -4  -3   14.67    1.00
   2  -4  -3   15.33    1.02
   2  -4  -3   18.06    1.71
   2  -4  -3   16.73    1.59
   2  -4  -3   15.92    1.04
   2  -4  -3   15.12    1.02
  -2   4   3   18.39    1.17
  -2   4   3   18.16    0.93
  -2   4   3   15.33    1.00
  -2   4   3   15.10    1.02
  -2   4   3   15.22    0.93
  -2   4   3   16.64    1.01
  -2   4   3   17.41    1.03
  -2   4   3   15.25    1.02
  -2   4   3   17.26    1.11
  -2   4   3   15.47    1.07
  -2   4   3   16.99    1.11
  -2   4   3   14.29    0.95
   1  -4  -3   52.71    2.70
   1  -4  -3   50.79    2.03
   1  -4  -3   51.00    2.06
   1  -4  -3   51.58    2.46
   1  -4  -3   50.58    1.98
   1  -4  -3   50.68    2.10
   1  -4  -3   48.04    1.82
   1  -4  -3   48.27    2.09
   1  -4  -3   49.20    2.01
   1  -4  -3   51.58    2.09
   1  -4  -3   50.77    2.04
   1  -4  -3   50.96    1.87
   1  -4  -3   51.19    1.99
   1  -4  -3   49.35    1.95
  -1   4   3   52.30    2.00
  -1   4   3   51.12    1.95
  -1   4   3   48.08    2.04
  -1   4   3   51.62    2.07
  -1   4   3   47.81    1.95
  -1   4   3   49.15    2.04
  -1   4   3   48.86    1.95
  -1   4   3   47.49    2.07
  -1   4   3   51.08    2.09
  -1   4   3   50.62    2.00
  -1   4   3   51.73    1.92
  -1   4   3   51.61    2.11
  -1   4   3   47.67    1.87
  -1   4   3   51.89    1.86
  -1   4   3   51.27    2.68
  -1   4   3   52.51    2.06
   0  -4  -3   28.87    1.32
   0  -4  -3   29.85    1.19
   0  -4  -3   26.72    1.34
   0  -4  -3   26.63    1.30
   0  -4  -3   28.60    1.31
   0  -4  -3   28.80    1.28
   0  -4  -3   29.57    1.37
   0  -4  -3   31.41    1.28
   0  -4  -3   31.25    1.35
   0  -4  -3   29.04    1.38
   0  -4  -3   29.38    1.31
   0  -4  -3   28.65    1.34
   0  -4  -3   31.42    1.85
   0  -4  -3   31.18    1.38
   0   4   3   29.59    1.32
   0   4   3   30.98    1.31
   0   4   3   30.03    1.33
   0   4   3   30.89    1.25
   0   4   3   31.41    1.32
   0   4   3   30.92    1.39
   0   4   3   32.60    1.42
   0   4   3   31.88    1.92
   0   4   3   29.98    1.39
   0   4   3   29.75    1.28
   0   4   3   31.60    1.35
   0   4   3   30.60    1.39
   0   4   3   30.79    1.27
   0   4   3   29.46    1.29
   0   4   3   29.93    1.22
  -1  -4  -3  138.44    4.71
  -1  -4  -3  147.46    4.71
  -1  -4  -3  148.60    4.64
  -1  -4  -3  147.94    5.36
  -1  -4  -3  143.02    4.65
  -1  -4  -3  137.98    4.55
  -1  -4  -3  139.28    4.66
  -1  -4  -3  140.89    4.62
  -1  -4  -3  138.01    4.60
  -1  -4  -3  136.62    4.46
  -1  -4  -3  148.99    4.74
  -1  -4  -3  137.39    4.67
   1   4   3  145.85    4.57
   1   4   3  141.21    4.65
   1   4   3  142.79    4.61
   1   4   3  143.17    4.72
   1   4   3  142.78    4.55
   1   4   3  144.93    5.35
   1   4   3  144.96    4.71
   1   4   3  139.09    4.64
   1   4   3  146.04    4.77
   1   4   3  146.03    4.63
   1   4   3  141.46    4.48
   1   4   3  130.85    4.44
   1   4   3  143.98    4.69
   1   4   3  143.23    4.64
   1   4   3  138.32    4.57
   1   4   3  144.69    4.71
  -2  -4  -3   41.58    2.37
  -2  -4  -3   46.46    1.90
  -2  -4  -3   45.10    1.88
  -2  -4  -3   45.59    1.77
  -2  -4  -3   45.85    1.82
  -2  -4  -3   42.88    1.67
  -2  -4  -3   44.41    1.89
  -2  -4  -3   45.62    1.65
  -2  -4  -3   43.91    1.90
  -2  -4  -3   46.58    1.88
  -2  -4  -3   42.91    1.86
  -2  -4  -3   43.79    1.81
  -2  -4  -3   46.36    1.54
  -2  -4  -3   43.22    1.86
   2   4   3   45.35    1.84
   2   4   3   43.59    1.90
   2   4   3   45.58    1.92
   2   4   3   43.24    1.76
   2   4   3   44.38    1.86
   2   4   3   49.87    2.55
   2   4   3   46.70    1.83
   2   4   3   44.04    1.85
   2   4   3   45.64    1.91
   2   4   3   44.28    1.81
   2   4   3   44.82    1.89
   2   4   3   44.82    1.66
   2   4   3   44.99    1.82
   2   4   3   43.59    1.76
   2   4   3   46.55    1.90
  -3  -4  -3   23.41    1.38
  -3  -4  -3   22.74    1.22
  -3  -4  -3   23.10    1.29
  -3  -4  -3   22.90    1.30
  -3  -4  -3   24.53    1.27
  -3  -4  -3   22.90    1.35
  -3  -4  -3   23.72    1.32
  -3  -4  -3   23.79    1.20
  -3  -4  -3   23.66    1.69
  -3  -4  -3   24.79    1.14
  -3  -4  -3   21.55    1.34
  -3  -4  -3   25.03    1.90
  -3  -4  -3   21.62    1.11
  -3  -4  -3   22.96    1.29
  -3  -4  -3   24.92    0.97
  -3  -4  -3   23.98    1.16
   3   4   3   24.58    1.32
   3   4   3   22.48    1.80
   3   4   3   24.53    1.35
   3   4   3   20.30    1.21
   3   4   3   21.24    1.31
   3   4   3   22.98    1.25
   3   4   3   24.13    1.06
   3   4   3   23.47    1.31
   3   4   3   23.93    1.34
   3   4   3   21.82    1.42
   3   4   3   22.08    1.19
   3   4   3   21.73    1.27
   3   4   3   23.17    1.28
  -4  -4  -3  103.15    4.00
  -4  -4  -3  102.92    4.01
  -4  -4  -3  101.97    3.78
  -4  -4  -3  101.02    4.87
  -4  -4  -3  103.23    3.40
  -4  -4  -3  104.11    3.40
  -4  -4  -3   98.24    3.93
  -4  -4  -3  102.94    3.93
  -4  -4  -3  105.76    3.76
  -4  -4  -3  105.02    3.34
  -4  -4  -3  101.08    3.92
  -4  -4  -3  106.10    3.88
  -4  -4  -3  105.96    3.67
  -4  -4  -3  107.70    3.94
   4   4   3  106.02    3.84
   4   4   3   99.15    3.84
   4   4   3  106.95    3.94
   4   4   3   99.94    3.97
   4   4   3  100.32    3.75
   4   4   3  107.68    3.95
   4   4   3  106.26    3.99
   4   4   3  104.63    5.45
  -5  -4  -3   39.46    2.13
  -5  -4  -3   44.17    2.07
  -5  -4  -3   39.13    2.30
  -5  -4  -3   44.32    2.13
  -5  -4  -3   39.95    2.20
  -5  -4  -3   42.53    2.33
  -5  -4  -3   42.99    2.25
  -5  -4  -3   42.07    1.68
  -5  -4  -3   42.83    1.74
  -5  -4  -3   45.33    2.05
  -5  -4  -3   42.88    2.22
   5   4   3   38.92    2.18
   5   4   3   42.01    2.30
   5   4   3   45.76    2.19
   5   4   3   47.81    2.16
   5   4   3   42.51    2.27
   5   4   3   43.42    2.26
  -6  -4  -3   11.14    0.79
  -6  -4  -3   10.19    1.39
  -6  -4  -3   10.42    1.33
  -6  -4  -3   11.56    0.91
  -6  -4  -3   11.25    1.22
  -6  -4  -3   10.26    1.14
   6   4   3   11.33    1.20
   6   4   3    9.91    0.80
   6   4   3    9.84    1.36
   6   4   3   10.12    1.27
   6   4   3   13.61    1.35
   6   4   3   10.27    1.25
   6   4   3    9.68    1.23
  -7  -4  -3    4.08    0.63
  -7  -4  -3    4.83    0.83
  -7  -4  -3    3.18    0.92
   7   4   3    4.18    1.10
   7   4   3    4.75    0.67
   7   4   3    3.40    0.95
   7   4   3    6.56    1.29
   5  -5  -3    8.90    1.42
   5  -5  -3    8.43    1.77
   5  -5  -3    7.98    1.32
  -5   5   3    8.48    1.10
  -5   5   3    5.84    1.15
  -5   5   3    7.31    0.95
   4  -5  -3    2.65    0.68
   4  -5  -3    1.50    0.68
   4  -5  -3    1.00    0.80
   4  -5  -3    1.06    0.61
  -4   5   3    1.34    0.44
  -4   5   3    1.64    0.65
  -4   5   3    0.95    0.48
  -4   5   3    1.15    0.44
   3  -5  -3   23.38    1.56
   3  -5  -3   21.99    1.36
   3  -5  -3   22.36    2.06
   3  -5  -3   22.78    1.60
   3  -5  -3   24.11    1.57
  -3   5   3   21.68    1.45
  -3   5   3   22.72    1.35
  -3   5   3   22.84    1.32
  -3   5   3   23.35    1.56
  -3   5   3   21.51    1.19
  -3   5   3   21.27    1.47
  -3   5   3   22.13    1.34
  -3   5   3   22.72    1.42
   2  -5  -3   15.88    1.05
   2  -5  -3   17.74    1.15
   2  -5  -3   16.04    1.59
   2  -5  -3   15.71    1.00
   2  -5  -3   16.61    1.01
   2  -5  -3   14.98    1.14
   2  -5  -3   12.62    0.97
   2  -5  -3   14.74    0.90
   2  -5  -3   14.85    1.12
  -2   5   3   14.28    1.07
  -2   5   3   15.24    0.96
  -2   5   3   17.72    1.00
  -2   5   3   15.12    1.03
  -2   5   3   13.95    0.96
  -2   5   3   16.10    1.16
  -2   5   3   14.49    1.01
  -2   5   3   17.22    0.93
  -2   5   3   15.97    1.12
  -2   5   3   14.38    0.97
  -2   5   3   13.30    1.03
   1  -5  -3   32.55    1.44
   1  -5  -3   28.63    1.48
   1  -5  -3   31.57    1.52
   1  -5  -3   28.81    1.42
   1  -5  -3   28.27    1.41
   1  -5  -3   28.08    1.39
   1  -5  -3   28.45    1.36
   1  -5  -3   32.96    2.04
  -1   5   3   30.26    1.41
  -1   5   3   29.36    1.31
  -1   5   3   32.01    1.53
  -1   5   3   29.40    1.44
  -1   5   3   29.50    1.44
  -1   5   3   28.82    1.34
  -1   5   3   28.87    1.45
  -1   5   3   28.79    1.24
  -1   5   3   29.75    1.36
  -1   5   3   29.12    1.27
  -1   5   3   29.73    1.44
   0  -5  -3  103.31    4.28
   0  -5  -3  102.20    3.64
   0  -5  -3  101.81    3.58
   0  -5  -3  105.61    3.59
   0  -5  -3  105.21    3.56
   0  -5  -3  104.68    3.54
   0  -5  -3  104.11    3.63
   0  -5  -3  103.11    3.58
   0   5   3  107.28    3.64
   0   5   3  109.94    3.69
   0   5   3   99.66    3.55
   0   5   3  106.77    3.36
   0   5   3  107.41    3.45
   0   5   3  105.43    3.46
   0   5   3   98.64    3.48
   0   5   3  106.72    3.85
   0   5   3  109.75    4.24
   0   5   3  101.03    3.56
   0   5   3   97.34    3.51
   0   5   3  103.49    3.66
   0   5   3  100.92    3.57
  -1  -5  -3   12.17    0.79
  -1  -5  -3   10.70    1.12
  -1  -5  -3    9.32    0.69
  -1  -5  -3   11.22    0.65
  -1  -5  -3   10.82    0.80
  -1  -5  -3   10.88    0.76
  -1  -5  -3   11.38    0.73
  -1  -5  -3   12.54    0.77
  -1  -5  -3   11.15    0.72
  -1  -5  -3   11.03    0.76
   1   5   3   11.96    0.81
   1   5   3   10.69    0.79
   1   5   3   12.53    0.90
   1   5   3   10.40    0.75
   1   5   3    9.66    0.73
   1   5   3   10.79    0.79
   1   5   3   11.01    0.70
   1   5   3   11.69    0.77
   1   5   3   11.73    0.76
   1   5   3   10.74    0.63
   1   5   3   11.77    0.73
   1   5   3   11.52    0.81
  -2  -5  -3   99.06    3.50
  -2  -5  -3   98.84    3.52
  -2  -5  -3   96.56    4.20
  -2  -5  -3  101.46    3.41
  -2  -5  -3   95.56    3.48
  -2  -5  -3   95.90    3.48
  -2  -5  -3   84.99    3.38
  -2  -5  -3   97.33    3.36
  -2  -5  -3   97.92    3.31
  -2  -5  -3   93.93    3.46
  -2  -5  -3   94.31    3.37
   2   5   3   95.83    3.35
   2   5   3   96.85    3.41
   2   5   3  100.94    3.55
   2   5   3  100.46    3.52
   2   5   3   96.78    3.21
   2   5   3   90.83    3.34
   2   5   3  100.02    3.41
   2   5   3   95.37    3.36
   2   5   3   97.84    3.49
   2   5   3  101.29    3.48
  -3  -5  -3  127.86    4.55
  -3  -5  -3  122.65    5.40
  -3  -5  -3  124.26    4.54
  -3  -5  -3  133.60    4.51
  -3  -5  -3  130.52    4.56
  -3  -5  -3  125.13    4.15
  -3  -5  -3  133.54    4.45
  -3  -5  -3  135.45    4.46
  -3  -5  -3  134.24    4.57
  -3  -5  -3  126.99    4.40
  -3  -5  -3  134.28    4.62
  -3  -5  -3  121.63    4.26
  -3  -5  -3  123.09    4.39
   3   5   3  133.34    4.43
   3   5   3  124.43    4.56
   3   5   3  125.97    4.54
   3   5   3  126.60    4.43
   3   5   3  129.38    4.54
   3   5   3  127.22    4.18
   3   5   3  118.91    4.34
   3   5   3  130.65    4.47
   3   5   3  124.94    4.42
   3   5   3  128.20    4.55
  -4  -5  -3  142.93    5.09
  -4  -5  -3  142.38    5.12
  -4  -5  -3  143.84    5.16
  -4  -5  -3  138.73    5.03
  -4  -5  -3  148.82    5.11
  -4  -5  -3  152.27    4.96
  -4  -5  -3  148.21    5.26
  -4  -5  -3  129.80    5.19
  -4  -5  -3  149.86    5.25
   4   5   3  146.35    4.75
   4   5   3  142.05    5.21
   4   5   3  146.78    5.26
   4   5   3  147.84    5.06
   4   5   3  142.51    5.12
   4   5   3  153.42    5.28
   4   5   3  140.67    5.27
  -5  -5  -3   34.42    1.90
  -5  -5  -3   37.23    2.09
  -5  -5  -3   38.72    2.03
  -5  -5  -3   39.96    2.17
  -5  -5  -3   38.61    2.12
  -5  -5  -3   37.12    2.19
   5   5   3   35.69    2.08
   5   5   3   32.75    2.01
   5   5   3   36.31    2.12
   5   5   3   38.53    2.00
   5   5   3   39.17    2.19
   5   5   3   35.38    2.15
  -6  -5  -3    4.64    1.06
  -6  -5  -3    4.06    0.51
  -6  -5  -3    5.19    1.11
  -6  -5  -3    5.01    1.16
  -6  -5  -3    4.50    0.93
   6   5   3    5.80    1.16
   6   5   3    5.23    1.22
   6   5   3    4.18    0.98
   6   5   3    4.38    1.00
   6   5   3    4.77    1.10
   5  -6  -3   12.97    1.62
   5  -6  -3   12.89    1.50
   5  -6  -3   12.16    2.13
  -5   6   3   12.63    1.18
  -5   6   3   12.94    1.45
  -5   6   3   12.72    1.32
   4  -6  -3    8.41    1.15
   4  -6  -3   10.56    1.70
   4  -6  -3    8.94    1.30
   4  -6  -3    9.89    0.98
  -4   6   3    8.82    1.01
  -4   6   3    8.84    0.91
  -4   6   3    9.24    1.14
  -4   6   3    8.88    1.02
   3  -6  -3    7.42    1.00
   3  -6  -3    5.14    0.71
   3  -6  -3    5.00    1.20
   3  -6  -3    5.86    0.93
  -3   6   3    5.38    0.84
  -3   6   3    5.95    0.72
  -3   6   3    5.58    0.74
  -3   6   3    5.88    0.75
   2  -6  -3   61.60    2.65
   2  -6  -3   59.05    2.60
   2  -6  -3   56.70    2.46
   2  -6  -3   64.32    2.50
   2  -6  -3   57.63    2.39
   2  -6  -3   63.32    3.31
   2  -6  -3   59.47    2.33
   2  -6  -3   57.89    2.41
  -2   6   3   61.91    2.54
  -2   6   3   57.52    2.53
  -2   6   3   55.31    2.26
  -2   6   3   63.12    2.94
  -2   6   3   58.60    2.41
  -2   6   3   59.69    2.27
  -2   6   3   61.09    2.38
   1  -6  -3    5.14    0.64
   1  -6  -3    5.39    0.59
   1  -6  -3    4.56    0.67
   1  -6  -3    5.29    0.67
   1  -6  -3    4.60    0.58
   1  -6  -3    5.19    0.63
   1  -6  -3    5.74    0.56
   1  -6  -3    5.75    0.93
  -1   6   3    4.74    0.65
  -1   6   3    4.97    0.66
  -1   6   3    4.47    0.57
  -1   6   3    4.40    0.52
  -1   6   3    5.40    0.60
  -1   6   3    4.53    0.58
  -1   6   3    5.69    0.64
  -1   6   3    4.88    0.62
  -1   6   3    4.38    0.58
  -1   6   3    5.60    0.68
  -1   6   3    5.18    0.52
   0  -6  -3   46.46    1.98
   0  -6  -3   45.09    1.84
   0  -6  -3   49.00    1.98
   0  -6  -3   46.97    1.83
   0  -6  -3   49.42    2.54
   0  -6  -3   47.44    1.93
   0  -6  -3   46.25    1.84
   0  -6  -3   43.28    1.79
   0   6   3   48.66    1.91
   0   6   3   45.07    1.83
   0   6   3   47.77    2.02
   0   6   3   41.85    1.87
   0   6   3   44.96    1.93
   0   6   3   47.48    1.81
   0   6   3   42.67    1.89
   0   6   3   48.03    2.01
   0   6   3   48.48    1.84
  -1  -6  -3   18.06    1.51
  -1  -6  -3   20.54    1.05
  -1  -6  -3   19.69    1.17
  -1  -6  -3   19.53    1.05
  -1  -6  -3   20.43    1.16
  -1  -6  -3   20.90    1.14
  -1  -6  -3   21.16    1.11
  -1  -6  -3   20.45    1.05
  -1  -6  -3   21.19    1.18
  -1  -6  -3   20.07    1.06
   1   6   3   21.05    1.08
   1   6   3   21.43    1.17
   1   6   3   19.77    1.13
   1   6   3   19.22    1.21
   1   6   3   19.60    1.15
   1   6   3   20.50    1.05
   1   6   3   21.18    1.10
   1   6   3   17.85    1.06
   1   6   3   21.07    1.13
  -2  -6  -3    5.43    0.60
  -2  -6  -3    7.12    0.72
  -2  -6  -3    5.62    0.59
  -2  -6  -3    5.22    0.98
  -2  -6  -3    6.42    0.73
  -2  -6  -3    6.11    0.67
  -2  -6  -3    4.56    0.66
  -2  -6  -3    6.35    0.68
  -2  -6  -3    6.45    0.61
  -2  -6  -3    6.08    0.71
   2   6   3    4.59    0.66
   2   6   3    6.59    0.77
   2   6   3    5.61    0.63
   2   6   3    4.93    0.58
   2   6   3    4.85    0.66
   2   6   3    4.86    0.61
   2   6   3    4.75    0.63
   2   6   3    6.09    0.70
   2   6   3    5.11    0.51
  -3  -6  -3    7.29    0.73
  -3  -6  -3    6.21    1.17
  -3  -6  -3    6.54    0.75
  -3  -6  -3    8.06    0.85
  -3  -6  -3    7.26    0.86
  -3  -6  -3    6.08    0.82
  -3  -6  -3    7.23    0.73
  -3  -6  -3    6.41    0.76
   3   6   3    6.45    0.60
   3   6   3    5.37    0.80
   3   6   3    7.65    0.95
   3   6   3    8.01    0.81
   3   6   3    5.10    0.79
   3   6   3    6.17    0.77
   3   6   3    6.95    0.81
  -4  -6  -3    1.55    0.49
  -4  -6  -3    0.65    0.51
  -4  -6  -3    2.11    0.57
  -4  -6  -3    1.40    0.56
  -4  -6  -3    1.61    0.53
  -4  -6  -3    1.08    0.49
   4   6   3    1.15    0.49
   4   6   3    1.73    0.61
   4   6   3    1.75    0.62
   4   6   3    1.18    0.56
   4   6   3    1.50    0.37
  -5  -6  -3    7.74    0.98
  -5  -6  -3    9.03    1.16
  -5  -6  -3    7.97    1.07
  -5  -6  -3    7.40    0.94
  -5  -6  -3    9.39    1.08
  -5  -6  -3    7.18    1.06
   5   6   3    6.52    1.01
   5   6   3    6.77    1.16
   5   6   3    6.14    1.10
  -6  -6  -3    4.26    0.98
  -6  -6  -3    5.69    1.16
   6   6   3    4.79    1.10
   6   6   3    5.45    1.28
   6   6   3    6.37    1.24
   4  -7  -3    9.38    1.69
   4  -7  -3    9.97    1.36
   4  -7  -3    9.14    1.18
  -4   7   3    9.20    1.06
  -4   7   3    9.65    1.00
  -4   7   3    7.62    0.98
   3  -7  -3   17.13    1.84
   3  -7  -3   18.08    1.26
   3  -7  -3   19.19    1.49
  -3   7   3   18.37    1.27
  -3   7   3   17.98    1.17
  -3   7   3   16.25    1.19
   2  -7  -3    1.36    0.69
   2  -7  -3    1.46    0.49
   2  -7  -3    2.00    0.53
   2  -7  -3    1.23    0.53
  -2   7   3    1.89    0.47
  -2   7   3    1.89    0.50
  -2   7   3    1.66    0.47
   1  -7  -3   38.56    1.80
   1  -7  -3   38.21    2.38
   1  -7  -3   40.62    1.92
  -1   7   3   40.30    1.70
  -1   7   3   37.33    1.74
   0  -7  -3    1.18    0.45
   0  -7  -3    1.94    0.50
   0  -7  -3    1.69    0.45
   0  -7  -3    1.64    0.51
   0  -7  -3    1.31    0.59
   0   7   3    1.00    0.38
   0   7   3    1.69    0.42
  -1  -7  -3    7.21    1.06
  -1  -7  -3    6.26    0.75
  -1  -7  -3    6.60    0.64
  -1  -7  -3    5.94    0.65
  -1  -7  -3    7.53    0.75
  -1  -7  -3    7.88    0.80
  -1  -7  -3    6.94    0.84
   1   7   3    5.81    0.71
   1   7   3    5.75    0.68
   1   7   3    6.69    0.67
   1   7   3    5.24    0.72
  -2  -7  -3    1.52    0.50
  -2  -7  -3    2.07    0.59
  -2  -7  -3    1.58    0.54
  -2  -7  -3    1.97    0.45
  -2  -7  -3    1.70    0.45
  -2  -7  -3    1.44    0.43
  -2  -7  -3    1.59    0.44
  -2  -7  -3    1.60    0.73
   2   7   3    1.35    0.44
   2   7   3    1.19    0.46
   2   7   3    1.84    0.54
  -3  -7  -3   40.28    1.76
  -3  -7  -3   36.29    1.95
  -3  -7  -3   37.23    1.71
  -3  -7  -3   32.94    1.75
  -3  -7  -3   37.32    1.97
   3   7   3   34.35    1.90
   3   7   3   34.89    1.79
   3   7   3   34.47    1.65
   3   7   3   37.32    1.94
  -4  -7  -3    5.16    0.89
  -4  -7  -3    5.63    0.89
  -4  -7  -3    6.61    0.95
  -4  -7  -3    6.63    0.81
  -4  -7  -3    4.46    0.79
   4   7   3    4.04    0.84
   4   7   3    6.04    1.11
   4   7   3    4.61    0.93
   4   7   3    5.90    0.68
  -5  -7  -3    7.22    1.16
  -5  -7  -3    7.38    0.99
  -5  -7  -3    8.56    1.20
   5   7   3    7.73    1.25
   5   7   3    7.08    1.29
   5   7   3    7.59    1.11
   3  -8  -3    0.60    0.56
  -3   8   3   -0.04    0.38
  -3   8   3   -0.18    0.39
   2  -8  -3    1.72    0.62
   2  -8  -3    2.13    0.79
  -2   8   3    2.73    0.63
  -2   8   3    1.54    0.47
   1  -8  -3  108.51    3.88
   1  -8  -3  111.14    4.02
   1  -8  -3   97.83    4.38
  -1   8   3  109.93    3.86
  -1   8   3  103.69    3.74
   0  -8  -3   48.87    2.14
   0  -8  -3   50.07    2.21
   0  -8  -3   46.99    2.54
   0   8   3   45.80    2.06
   0   8   3   47.93    2.00
  -1  -8  -3    8.01    1.17
  -1  -8  -3   11.03    1.11
  -1  -8  -3   11.50    1.03
  -1  -8  -3   10.39    0.98
   1   8   3   10.81    0.86
   1   8   3    8.20    0.88
  -2  -8  -3    9.92    1.36
  -2  -8  -3   11.79    1.17
  -2  -8  -3   10.61    1.06
  -2  -8  -3   12.64    1.25
   2   8   3   11.22    1.04
   2   8   3   12.51    0.99
  -3  -8  -3   13.77    1.30
  -3  -8  -3   12.38    1.20
  -3  -8  -3   12.12    0.94
  -3  -8  -3   11.98    0.90
   3   8   3   11.48    1.27
   3   8   3   11.48    1.18
   3   8   3   13.39    1.14
  -4  -8  -3    1.66    0.59
  -4  -8  -3    1.05    0.70
  -4  -8  -3    1.80    0.72
   4   8   3    2.13    0.77
   4   8   3    1.36    0.58
   4   8   3    2.00    0.81
   2  -9  -3   22.58    1.64
  -2   9   3   24.51    1.44
  -2   9   3   23.47    1.48
   1  -9  -3   26.11    1.63
  -1   9   3   25.58    1.43
  -1   9   3   26.91    1.53
   0  -9  -3   23.70    1.49
   0  -9  -3   23.97    1.47
   0   9   3   22.05    1.32
   0   9   3   24.41    1.41
  -1  -9  -3    3.45    0.79
   1   9   3    2.88    0.62
   1   9   3    2.93    0.72
  -2  -9  -3    9.18    1.22
  -2  -9  -3    8.26    1.08
   2   9   3    7.86    1.02
   2   9   3    9.16    0.97
  -3  -9  -3    1.60    0.65
  -3  -9  -3    0.37    0.63
   3   9   3    0.77    0.61
   3   9   3    0.86    0.54
   0   6  -4   12.94    1.87
   0  -6   4   14.41    1.86
  -1   6  -4    1.31    0.83
   1  -6   4    2.94    1.01
  -2   6  -4    3.55    0.99
   2  -6   4    3.94    1.18
  -3   6  -4    2.99    0.99
   2   5  -4    7.45    1.05
   2   5  -4    8.09    1.16
   2   5  -4    8.64    2.19
  -2  -5   4   10.40    1.14
  -2  -5   4    6.28    1.53
   1   5  -4    4.18    0.70
   1   5  -4    3.59    0.80
   1   5  -4    3.76    1.35
  -1  -5   4    3.96    0.77
  -1  -5   4    4.59    1.21
  -1  -5   4    4.95    0.93
   0   5  -4   52.61    3.16
   0  -5   4   55.52    3.13
  -1   5  -4   34.18    2.33
   1  -5   4   35.98    2.43
  -2   5  -4    1.14    0.68
   2  -5   4    1.87    0.87
  -3   5  -4   13.54    1.56
  -3   5  -4   13.48    1.57
  -5   5  -4    0.91    0.44
  -5   5  -4    1.91    0.55
   5  -5   4    1.45    0.54
   5  -5   4    1.15    0.70
   3   4  -4    5.72    1.89
   3   4  -4    5.33    1.16
   3   4  -4    6.73    1.06
   3   4  -4    4.52    1.11
  -3  -4   4    6.56    0.84
  -3  -4   4    5.73    1.47
  -3  -4   4    7.07    1.11
   2   4  -4    1.94    0.66
   2   4  -4    2.45    1.25
   2   4  -4    2.50    0.61
  -2  -4   4    3.24    0.79
  -2  -4   4    4.25    1.25
   1   4  -4    1.62    0.93
   1   4  -4    1.37    0.51
   1   4  -4    1.12    0.43
  -1  -4   4    2.12    0.54
  -1  -4   4    1.23    0.44
  -1  -4   4    1.99    0.85
  -1  -4   4    1.02    0.52
   0   4  -4    0.12    0.52
   0   4  -4    0.28    0.29
   0  -4   4    0.26    0.33
   0  -4   4    0.45    0.54
   0  -4   4    0.10    0.28
  -1   4  -4   17.97    1.56
   1  -4   4   14.78    1.48
  -2   4  -4   20.97    1.73
   2  -4   4   24.06    1.78
  -3   4  -4   24.64    1.90
  -4   4  -4    9.24    0.75
   4  -4   4   10.15    0.87
   4  -4   4   10.40    0.96
  -5   4  -4   39.34    1.81
  -5   4  -4   36.44    1.80
   5  -4   4   37.49    1.94
   5  -4   4   40.27    2.01
  -6   4  -4    3.57    0.77
  -6   4  -4    2.48    0.67
   6  -4   4    2.45    0.74
   4   3  -4    0.92    1.50
   4   3  -4    0.43    0.66
   4   3  -4    0.08    0.36
   4   3  -4   -0.18    0.60
   4   3  -4    0.06    0.55
   4   3  -4    0.03    0.53
  -4  -3   4   -0.04    0.52
  -4  -3   4   -0.05    0.86
  -4  -3   4    0.14    0.54
   3   3  -4   11.26    1.33
   3   3  -4    9.60    1.19
   3   3  -4   10.71    1.05
   3   3  -4    9.01    0.92
   3   3  -4    9.07    2.18
   3   3  -4   10.51    1.19
  -3  -3   4    9.57    1.00
  -3  -3   4   10.98    1.05
  -3  -3   4   11.42    1.10
  -3  -3   4   12.02    1.21
  -3  -3   4    9.49    1.45
   2   3  -4    3.66    0.65
   2   3  -4    2.88    1.22
   2   3  -4    1.98    0.65
   2   3  -4    5.27    0.77
   2   3  -4    4.27    0.76
  -2  -3   4    4.00    0.65
  -2  -3   4    3.97    0.76
  -2  -3   4    4.28    0.67
  -2  -3   4    3.59    0.73
  -2  -3   4    4.27    0.64
  -2  -3   4    5.60    1.16
   1   3  -4   59.69    3.28
   1   3  -4   59.43    2.15
   1   3  -4   58.17    2.35
   1   3  -4   60.46    2.52
   1   3  -4   61.60    2.28
  -1  -3   4   57.79    2.38
  -1  -3   4   57.38    2.53
  -1  -3   4   61.80    2.16
  -1  -3   4   58.50    2.43
  -1  -3   4   60.28    3.00
  -1  -3   4   57.45    2.14
  -1  -3   4   60.37    2.11
   0   3  -4   49.66    1.87
   0   3  -4   53.50    1.95
   0   3  -4   50.40    2.71
   0   3  -4   54.75    2.09
   0   3  -4   50.34    2.03
   0   3  -4   50.19    1.86
   0   3  -4   53.91    2.56
   0  -3   4   52.17    2.61
   0  -3   4   51.45    2.00
   0  -3   4   52.52    1.96
   0  -3   4   42.09    1.86
   0  -3   4   49.86    2.07
  -1   3  -4    5.97    0.93
  -1   3  -4    7.64    0.61
  -1   3  -4    7.05    0.59
   1  -3   4    6.92    0.96
  -2   3  -4   11.46    1.21
  -2   3  -4   11.02    0.66
   2  -3   4   10.32    1.09
  -3   3  -4    4.13    0.84
   3  -3   4    4.75    0.57
   3  -3   4    4.78    0.60
  -4   3  -4   13.50    0.89
  -4   3  -4   14.36    0.89
  -4   3  -4   14.73    0.92
   4  -3   4   14.08    1.03
   4  -3   4   14.11    0.89
   4  -3   4   13.90    1.29
   4  -3   4   14.44    1.02
  -5   3  -4    1.45    0.44
  -5   3  -4    2.38    0.56
   5  -3   4    2.67    0.62
   5  -3   4    2.05    0.59
   5  -3   4    2.55    0.65
   5  -3   4    1.83    0.74
  -6   3  -4   11.53    1.05
  -6   3  -4   10.15    1.03
   6  -3   4   10.32    1.23
   4   2  -4   10.37    2.45
   4   2  -4    9.08    1.06
   4   2  -4    8.48    1.21
   4   2  -4    9.00    1.31
   4   2  -4    7.57    0.81
   4   2  -4    8.45    1.34
  -4  -2   4    6.80    1.03
  -4  -2   4    8.34    1.20
   3   2  -4    8.80    0.72
   3   2  -4    8.97    1.11
   3   2  -4    8.65    0.94
   3   2  -4   10.10    2.05
   3   2  -4   10.38    1.21
   3   2  -4    7.94    1.03
  -3  -2   4    9.02    1.37
  -3  -2   4    9.07    1.08
  -3  -2   4   10.58    1.04
  -3  -2   4    9.60    1.02
  -3  -2   4    9.40    1.06
   2   2  -4   38.30    1.99
   2   2  -4   36.39    1.49
   2   2  -4   33.88    1.86
   2   2  -4   37.64    1.77
   2   2  -4   40.28    1.89
   2   2  -4   39.19    2.81
   2   2  -4   32.89    2.45
   2   2  -4   37.91    2.01
   2   2  -4   34.93    1.72
  -2  -2   4   37.74    1.85
  -2  -2   4   36.73    1.86
  -2  -2   4   35.81    1.96
  -2  -2   4   38.77    2.29
  -2  -2   4   38.81    1.90
  -2  -2   4   38.84    1.97
  -2  -2   4   37.17    1.81
  -2  -2   4   41.32    1.82
   1   2  -4   22.69    1.13
   1   2  -4   23.04    1.80
   1   2  -4   21.15    1.30
   1   2  -4   22.44    1.15
   1   2  -4   19.72    1.13
   1   2  -4   24.05    1.07
   1   2  -4   21.57    1.19
   1   2  -4   22.93    1.32
   1   2  -4   19.98    1.75
   1   2  -4   22.44    1.29
  -1  -2   4   21.02    1.23
  -1  -2   4   21.15    1.09
  -1  -2   4   21.35    1.31
  -1  -2   4   22.55    1.22
  -1  -2   4   20.58    1.10
  -1  -2   4   22.18    1.23
  -1  -2   4   23.64    1.17
  -1  -2   4   26.74    1.69
  -1  -2   4   21.04    1.11
  -1  -2   4   21.77    1.13
  -1  -2   4   20.71    1.15
   0   2  -4   22.78    1.15
   0   2  -4   22.58    1.05
   0   2  -4   24.63    1.10
   0   2  -4   21.67    1.16
   0   2  -4   22.51    1.22
   0   2  -4   21.99    1.03
   0   2  -4   22.95    1.08
   0   2  -4   24.87    1.68
   0   2  -4   27.39    1.69
   0   2  -4   21.98    1.17
   0  -2   4   21.29    1.48
   0  -2   4   23.54    1.23
   0  -2   4   23.34    0.97
   0  -2   4   23.98    1.02
   0  -2   4   25.45    1.18
   0  -2   4   22.05    1.12
   0  -2   4   21.75    1.01
   0  -2   4   23.49    1.03
   0  -2   4   22.05    1.11
  -1   2  -4    7.28    0.58
  -1   2  -4    7.53    0.92
  -1   2  -4    6.69    0.82
  -1   2  -4    7.39    0.59
  -1   2  -4    7.36    0.58
  -1   2  -4    6.76    0.56
  -1   2  -4    7.72    0.51
  -1   2  -4    6.55    0.52
   1  -2   4    8.01    0.59
   1  -2   4    8.62    0.90
   1  -2   4    7.39    0.55
   1  -2   4    7.45    0.82
   1  -2   4    7.70    0.62
  -2   2  -4  140.12    5.67
  -2   2  -4  154.36    5.51
  -2   2  -4  161.92    4.96
  -2   2  -4  161.31    5.02
  -2   2  -4  155.27    5.00
  -2   2  -4  163.47    5.09
  -2   2  -4  159.82    5.04
   2  -2   4  162.78    5.00
   2  -2   4  162.03    5.06
   2  -2   4  140.66    5.46
   2  -2   4  163.74    5.09
   2  -2   4  161.34    5.05
   2  -2   4  166.54    5.63
  -3   2  -4   25.29    1.61
  -3   2  -4   25.13    1.11
  -3   2  -4   22.30    1.11
  -3   2  -4   23.13    1.04
  -3   2  -4   21.79    1.08
  -3   2  -4   21.17    1.01
  -3   2  -4   21.76    1.05
  -3   2  -4   23.61    1.21
  -3   2  -4   22.33    1.10
  -3   2  -4   21.80    1.11
   3  -2   4   23.40    1.19
   3  -2   4   21.47    1.08
   3  -2   4   24.83    1.19
   3  -2   4   23.29    1.51
  -4   2  -4    5.05    0.56
  -4   2  -4    4.40    0.65
  -4   2  -4    7.40    0.66
  -4   2  -4    4.72    0.74
  -4   2  -4    6.72    0.66
  -4   2  -4    4.97    0.72
   4  -2   4    6.79    1.02
   4  -2   4    6.06    0.73
   4  -2   4    5.77    0.72
   4  -2   4    5.49    0.64
  -5   2  -4   17.00    1.44
  -5   2  -4   19.66    1.03
  -5   2  -4   19.90    1.24
  -5   2  -4   20.75    1.20
   5  -2   4   19.11    1.13
   5  -2   4   22.16    1.42
   5  -2   4   18.51    1.14
   5  -2   4   19.29    1.27
   5  -2   4   20.99    1.18
   5  -2   4   19.10    1.84
   5  -2   4   19.34    1.33
   5  -2   4   21.59    1.14
  -6   2  -4    9.26    0.83
  -6   2  -4    8.14    0.92
  -6   2  -4    7.72    0.92
   6  -2   4    8.54    0.85
   6  -2   4    7.75    0.92
   6  -2   4    8.92    1.12
   6  -2   4   10.59    0.99
  -7   2  -4    0.35    0.40
  -7   2  -4    0.19    0.44
  -7   2  -4   -0.18    0.40
   7  -2   4   -0.47    0.51
   7  -2   4   -0.04    0.56
   5   1  -4    5.04    1.25
   5   1  -4    3.89    1.11
   5   1  -4    5.67    1.19
   5   1  -4    2.37    1.89
   5   1  -4    3.81    0.70
   5   1  -4    5.62    1.50
  -5  -1   4    5.12    1.11
   4   1  -4   14.15    1.44
   4   1  -4   15.31    2.59
   4   1  -4   11.86    1.49
   4   1  -4   13.01    1.34
   4   1  -4   13.21    1.36
   4   1  -4   10.72    1.11
   4   1  -4   13.23    0.94
   4   1  -4   12.26    1.98
  -4  -1   4    9.98    1.26
  -4  -1   4   12.64    1.33
  -4  -1   4   15.34    1.41
  -4  -1   4   11.77    1.25
   3   1  -4   19.92    1.50
   3   1  -4   19.93    1.31
   3   1  -4   22.66    1.64
   3   1  -4   22.22    1.49
   3   1  -4   25.52    1.58
   3   1  -4   22.23    1.14
   3   1  -4   16.97    1.38
   3   1  -4   22.33    1.69
   3   1  -4   22.51    2.50
  -3  -1   4   23.56    1.46
  -3  -1   4   20.94    1.51
  -3  -1   4   22.14    1.54
  -3  -1   4   20.43    1.53
  -3  -1   4   23.36    1.53
  -3  -1   4   22.58    1.51
   2   1  -4   44.92    2.98
   2   1  -4   50.63    2.30
   2   1  -4   50.80    2.35
   2   1  -4   49.61    2.13
   2   1  -4   51.01    2.20
   2   1  -4   50.54    2.29
   2   1  -4   48.03    2.05
   2   1  -4   48.69    2.34
   2   1  -4   49.48    1.83
   2   1  -4   48.49    3.06
  -2  -1   4   47.18    2.24
  -2  -1   4   51.79    2.24
  -2  -1   4   51.19    2.33
  -2  -1   4   46.88    2.14
  -2  -1   4   50.29    2.19
  -2  -1   4   46.36    2.29
  -2  -1   4   45.33    2.31
  -2  -1   4   50.22    2.24
  -2  -1   4   46.79    2.16
  -2  -1   4   49.57    1.97
  -2  -1   4   49.86    2.22
   1   1  -4   12.11    0.97
   1   1  -4   13.35    0.82
   1   1  -4   12.13    0.90
   1   1  -4   10.89    0.79
   1   1  -4   12.21    0.78
   1   1  -4   11.71    0.75
   1   1  -4   11.59    0.85
   1   1  -4   14.09    0.98
   1   1  -4   12.25    0.97
   1   1  -4   13.83    1.37
   1   1  -4   11.52    1.26
   1   1  -4   11.30    0.60
  -1  -1   4   11.24    0.85
  -1  -1   4   11.94    0.89
  -1  -1   4   11.44    1.06
  -1  -1   4   12.97    0.93
  -1  -1   4   11.96    0.93
  -1  -1   4   13.07    0.90
  -1  -1   4   11.45    0.80
  -1  -1   4   12.87    0.84
  -1  -1   4   12.33    0.90
  -1  -1   4   11.29    0.67
  -1  -1   4   11.80    0.83
   0   1  -4   75.76    2.67
   0   1  -4   72.05    3.29
   0   1  -4   75.55    2.71
   0   1  -4   72.31    2.53
   0   1  -4   70.50    2.37
   0   1  -4   74.49    3.17
   0   1  -4   76.63    2.53
   0   1  -4   69.31    2.65
   0   1  -4   76.97    2.78
   0   1  -4   70.75    2.55
   0   1  -4   71.55    2.65
   0   1  -4   69.14    2.72
   0   1  -4   74.93    2.74
   0   1  -4   71.18    2.57
   0  -1   4   74.58    2.56
   0  -1   4   74.67    2.69
   0  -1   4   72.42    2.58
   0  -1   4   75.74    3.00
   0  -1   4   70.51    2.70
   0  -1   4   72.75    2.65
   0  -1   4   69.80    2.52
   0  -1   4   75.72    2.65
   0  -1   4   69.36    2.58
   0  -1   4   70.56    2.59
  -1   1  -4   99.43    3.46
  -1   1  -4   99.84    3.34
  -1   1  -4  106.64    3.53
  -1   1  -4  105.02    3.52
  -1   1  -4   99.83    3.52
  -1   1  -4  101.50    3.37
  -1   1  -4  102.69    3.39
  -1   1  -4  103.69    3.52
  -1   1  -4  107.48    4.09
  -1   1  -4   99.97    3.46
  -1   1  -4  103.17    3.43
  -1   1  -4  109.13    3.35
   1  -1   4  103.37    3.38
   1  -1   4  104.92    3.35
   1  -1   4  107.89    3.40
   1  -1   4  109.90    4.11
   1  -1   4  105.31    3.36
   1  -1   4  100.02    3.36
   1  -1   4  102.24    3.80
   1  -1   4  104.65    3.48
   1  -1   4  103.81    3.49
   1  -1   4   98.76    3.32
   1  -1   4  101.73    3.51
  -2   1  -4   46.79    1.86
  -2   1  -4   45.26    1.77
  -2   1  -4   46.97    1.76
  -2   1  -4   47.66    1.73
  -2   1  -4   47.90    1.79
  -2   1  -4   46.92    1.70
  -2   1  -4   44.80    1.84
  -2   1  -4   45.08    1.69
  -2   1  -4   48.89    1.84
  -2   1  -4   47.39    1.74
  -2   1  -4   47.22    1.88
  -2   1  -4   47.28    2.32
   2  -1   4   47.71    1.69
   2  -1   4   48.14    1.70
   2  -1   4   47.68    1.71
   2  -1   4   45.38    1.84
   2  -1   4   44.99    1.68
   2  -1   4   46.99    1.82
   2  -1   4   47.58    1.69
   2  -1   4   48.09    2.31
   2  -1   4   47.16    1.82
   2  -1   4   46.76    1.70
   2  -1   4   49.62    2.10
  -3   1  -4    4.55    0.81
  -3   1  -4    4.37    0.56
  -3   1  -4    4.53    0.50
  -3   1  -4    6.15    0.55
  -3   1  -4    5.13    0.53
  -3   1  -4    5.23    0.54
  -3   1  -4    4.85    0.47
  -3   1  -4    3.61    0.47
  -3   1  -4    4.80    0.49
  -3   1  -4    4.92    0.53
   3  -1   4    4.92    0.58
   3  -1   4    3.72    0.44
   3  -1   4    4.44    0.48
   3  -1   4    4.71    0.47
   3  -1   4    3.50    0.48
   3  -1   4    4.86    0.48
   3  -1   4    4.77    0.46
   3  -1   4    5.31    0.50
   3  -1   4    4.60    0.80
   3  -1   4    4.07    0.54
  -4   1  -4   34.17    1.60
  -4   1  -4   32.42    1.29
  -4   1  -4   31.89    1.51
  -4   1  -4   31.99    1.48
  -4   1  -4   33.31    1.53
  -4   1  -4   30.38    1.23
  -4   1  -4   28.79    1.53
  -4   1  -4   31.76    1.63
  -4   1  -4   36.87    2.29
  -4   1  -4   33.70    1.49
  -4   1  -4   31.87    1.66
  -4   1  -4   31.85    1.57
   4  -1   4   31.77    1.48
   4  -1   4   31.43    1.43
   4  -1   4   33.45    1.58
   4  -1   4   32.13    1.61
   4  -1   4   32.13    1.49
   4  -1   4   34.80    2.18
   4  -1   4   31.60    1.50
   4  -1   4   32.38    1.51
   4  -1   4   31.73    1.45
   4  -1   4   33.30    1.50
   4  -1   4   30.01    1.58
  -5   1  -4  150.01    5.04
  -5   1  -4  134.54    5.21
  -5   1  -4  146.24    5.48
  -5   1  -4  135.90    4.73
  -5   1  -4  144.24    5.08
  -5   1  -4  143.21    4.67
  -5   1  -4  149.31    4.96
   5  -1   4  140.37    6.07
   5  -1   4  147.82    5.14
   5  -1   4  141.33    5.06
   5  -1   4  141.89    4.95
   5  -1   4  145.46    5.15
   5  -1   4  141.43    4.97
  -6   1  -4   10.85    1.39
  -6   1  -4    7.29    0.77
  -6   1  -4   10.19    1.00
  -6   1  -4    9.44    0.96
  -6   1  -4    8.87    0.95
   6  -1   4    9.66    1.03
   6  -1   4   10.36    1.01
   6  -1   4   10.53    1.20
  -7   1  -4    0.31    0.47
  -7   1  -4    0.76    0.43
  -7   1  -4    0.08    0.57
  -7   1  -4    0.89    0.51
  -7   1  -4    1.68    1.11
   7  -1   4    0.44    0.60
   7  -1   4    0.12    0.51
   5   0  -4    6.93    1.52
   5   0  -4    6.02    1.33
   5   0  -4    6.55    1.21
   5   0  -4    6.27    1.04
   5   0  -4    5.46    0.74
   5   0  -4    7.27    2.39
   5   0  -4    6.17    1.35
  -5   0   4    4.97    0.68
  -5   0   4    4.14    0.99
   4   0  -4   21.93    1.46
   4   0  -4   19.30    1.58
   4   0  -4   23.32    1.64
   4   0  -4   21.06    1.16
   4   0  -4   19.04    1.60
   4   0  -4   21.04    1.84
   4   0  -4   21.68    1.68
   4   0  -4   26.23    3.02
   4   0  -4   25.41    1.91
  -4   0   4   21.68    1.69
  -4   0   4   20.62    1.10
  -4   0   4   22.07    1.59
  -4   0   4   19.53    1.66
   3   0  -4   35.27    1.88
   3   0  -4   31.45    1.83
   3   0  -4   32.64    1.79
   3   0  -4   29.46    1.38
   3   0  -4   31.39    1.94
   3   0  -4   30.35    1.83
   3   0  -4   36.42    2.04
   3   0  -4   32.71    1.66
   3   0  -4   29.98    2.59
   3   0  -4   33.09    2.88
  -3   0   4   31.75    1.77
  -3   0   4   31.39    1.81
  -3   0   4   26.30    1.78
  -3   0   4   33.93    1.86
  -3   0   4   32.09    1.88
  -3   0   4   30.51    1.86
  -3   0   4   31.87    1.80
  -3   0   4   33.02    1.83
  -3   0   4   29.45    1.76
  -3   0   4   31.49    1.32
   2   0  -4   48.67    2.27
   2   0  -4   47.30    2.22
   2   0  -4   45.92    2.09
   2   0  -4   47.71    2.96
   2   0  -4   48.03    1.79
   2   0  -4   43.69    2.28
   2   0  -4   49.75    2.28
   2   0  -4   44.97    2.17
   2   0  -4   41.06    2.12
   2   0  -4   47.33    2.07
   2   0  -4   51.17    3.06
   2   0  -4   50.51    2.03
  -2   0   4   46.26    1.89
  -2   0   4   37.12    2.08
  -2   0   4   45.97    1.67
  -2   0   4   47.57    2.22
  -2   0   4   50.17    2.25
  -2   0   4   45.64    2.13
  -2   0   4   49.62    2.27
  -2   0   4   50.05    1.70
  -2   0   4   49.08    2.20
  -2   0   4   52.15    2.22
  -2   0   4   48.29    2.13
  -2   0   4   47.44    2.14
  -2   0   4   48.99    2.12
   1   0  -4  106.58    3.87
   1   0  -4  115.27    4.02
   1   0  -4  110.91    3.93
   1   0  -4  106.42    4.01
   1   0  -4  110.84    3.94
   1   0  -4  111.89    3.95
   1   0  -4  109.45    3.81
   1   0  -4  113.74    3.53
   1   0  -4  115.98    3.96
   1   0  -4  115.83    3.70
   1   0  -4  106.61    3.72
   1   0  -4  102.64    4.43
   1   0  -4  100.76    4.64
   1   0  -4  106.66    3.77
   1   0  -4  111.67    3.74
  -1   0   4  112.52    3.89
  -1   0   4  117.18    3.94
  -1   0   4  114.58    3.88
  -1   0   4  106.18    3.82
  -1   0   4  107.67    3.80
  -1   0   4  109.43    3.90
  -1   0   4  102.26    3.90
  -1   0   4  111.02    3.95
  -1   0   4  106.90    3.88
  -1   0   4  111.01    3.82
   0   0  -4   17.96    0.95
   0   0  -4   20.13    1.09
   0   0  -4   18.30    1.04
   0   0  -4   18.28    1.01
   0   0  -4   18.35    0.92
   0   0  -4   17.67    0.75
   0   0  -4   20.15    0.84
   0   0  -4   17.79    1.00
   0   0  -4   17.92    1.44
   0   0  -4   18.45    0.94
   0   0  -4   15.90    1.21
   0   0  -4   18.85    0.93
   0   0  -4   20.52    1.10
   0   0  -4   18.47    1.02
   0   0  -4   17.16    1.02
   0   0  -4   18.95    1.04
   0   0   4   19.52    0.98
   0   0   4   19.22    1.02
   0   0   4   18.53    1.05
   0   0   4   19.69    1.14
   0   0   4   19.04    1.02
   0   0   4   18.28    0.79
   0   0   4   19.20    1.00
   0   0   4   19.13    1.03
   0   0   4   18.60    0.96
   0   0   4   17.64    1.42
   0   0   4   18.43    0.99
   0   0   4   17.08    1.02
   0   0   4   18.77    0.97
   0   0   4   18.79    0.82
   0   0   4   19.39    0.83
  -1   0  -4   32.87    1.38
  -1   0  -4   31.78    1.13
  -1   0  -4   34.13    1.33
  -1   0  -4   30.63    1.41
  -1   0  -4   32.79    1.29
  -1   0  -4   31.50    1.10
  -1   0  -4   32.96    1.42
  -1   0  -4   34.45    1.40
  -1   0  -4   31.08    1.68
  -1   0  -4   32.06    1.32
  -1   0  -4   35.38    1.23
  -1   0  -4   31.05    1.84
  -1   0  -4   33.46    1.37
  -1   0  -4   31.09    1.29
  -1   0  -4   33.04    1.43
  -1   0  -4   30.53    1.37
  -1   0  -4   33.66    1.17
  -1   0  -4   35.32    1.45
   1   0   4   33.40    1.33
   1   0   4   32.55    1.34
   1   0   4   31.13    1.88
   1   0   4   31.84    1.42
   1   0   4   32.45    1.38
   1   0   4   33.16    1.33
   1   0   4   31.35    1.34
   1   0   4   31.89    1.40
   1   0   4   30.55    1.20
   1   0   4   32.43    1.47
   1   0   4   31.28    1.37
  -2   0  -4   71.74    2.48
  -2   0  -4   72.82    2.49
  -2   0  -4   67.99    2.58
  -2   0  -4   76.09    2.62
  -2   0  -4   71.38    2.50
  -2   0  -4   72.84    2.31
  -2   0  -4   63.24    2.55
  -2   0  -4   69.42    2.52
  -2   0  -4   70.55    2.36
  -2   0  -4   70.43    2.25
  -2   0  -4   71.32    2.53
  -2   0  -4   68.53    2.43
  -2   0  -4   74.36    2.56
  -2   0  -4   71.13    2.54
  -2   0  -4   72.70    3.16
   2   0   4   72.51    2.58
   2   0   4   71.05    2.60
   2   0   4   74.75    2.61
   2   0   4   71.66    2.55
   2   0   4   67.16    3.08
   2   0   4   71.20    2.53
   2   0   4   71.12    2.50
   2   0   4   72.65    2.35
   2   0   4   71.40    2.64
   2   0   4   70.33    2.50
  -3   0  -4   40.89    1.46
  -3   0  -4   41.16    1.73
  -3   0  -4   39.98    1.69
  -3   0  -4   39.21    1.42
  -3   0  -4   37.46    1.71
  -3   0  -4   40.04    1.70
  -3   0  -4   42.06    1.80
  -3   0  -4   42.51    1.70
  -3   0  -4   42.82    1.63
  -3   0  -4   39.82    2.28
  -3   0  -4   40.84    1.76
  -3   0  -4   41.50    1.64
  -3   0  -4   44.13    1.70
  -3   0  -4   42.12    1.72
   3   0   4   42.95    1.71
   3   0   4   38.75    1.67
   3   0   4   39.62    1.75
   3   0   4   40.16    1.63
   3   0   4   36.27    1.48
   3   0   4   39.91    1.70
   3   0   4   40.84    1.75
   3   0   4   40.65    1.70
   3   0   4   38.63    1.71
   3   0   4   38.75    1.67
   3   0   4   35.83    2.20
  -4   0  -4    0.98    0.39
  -4   0  -4    0.72    0.37
  -4   0  -4    0.64    0.30
  -4   0  -4    0.39    0.32
  -4   0  -4    0.47    0.31
  -4   0  -4    0.92    0.59
  -4   0  -4    0.63    0.38
  -4   0  -4    0.13    0.28
  -4   0  -4    0.66    0.26
  -4   0  -4    0.16    0.21
  -4   0  -4    0.71    0.30
  -4   0  -4    0.91    0.45
  -4   0  -4    0.21    0.19
   4   0   4    0.23    0.28
   4   0   4    0.45    0.21
   4   0   4    0.18    0.28
   4   0   4    0.72    0.36
   4   0   4    0.56    0.33
   4   0   4    0.97    0.28
   4   0   4    0.20    0.25
   4   0   4    0.58    0.32
   4   0   4    0.63    0.31
   4   0   4    0.58    0.49
   4   0   4    0.95    0.27
   4   0   4    0.67    0.34
  -5   0  -4    0.35    0.32
  -5   0  -4    0.70    0.38
  -5   0  -4    0.71    0.49
  -5   0  -4    0.13    0.34
  -5   0  -4    0.63    0.27
  -5   0  -4    0.31    0.38
  -5   0  -4    0.58    0.53
  -5   0  -4    0.43    0.33
   5   0   4    0.62    0.43
   5   0   4   -0.17    0.39
   5   0   4    0.25    0.33
   5   0   4    0.24    0.27
   5   0   4    0.54    0.25
   5   0   4    0.54    0.43
   5   0   4    0.67    0.44
   5   0   4    0.24    0.36
   5   0   4    0.42    0.36
   5   0   4    0.45    0.30
   5   0   4    0.30    0.36
  -6   0  -4   23.65    1.24
  -6   0  -4   21.69    1.61
  -6   0  -4   24.03    1.63
  -6   0  -4   21.25    1.42
  -6   0  -4   20.59    1.80
  -6   0  -4   20.96    1.44
  -6   0  -4   22.27    1.47
   6   0   4   22.47    1.53
   6   0   4   19.07    1.44
   6   0   4   21.59    1.13
   6   0   4   19.17    1.55
  -7   0  -4    7.00    1.51
  -7   0  -4    7.41    0.82
  -7   0  -4    6.82    1.11
  -7   0  -4    8.73    1.12
  -7   0  -4    5.74    0.94
   7   0   4    8.35    1.17
   7   0   4    7.45    0.76
   7   0   4    5.11    1.85
   5  -1  -4    1.26    0.88
   5  -1  -4    2.04    0.54
   5  -1  -4    0.45    0.85
   5  -1  -4    2.11    0.92
   5  -1  -4    0.98    1.63
   5  -1  -4    0.89    0.71
   5  -1  -4    2.11    0.67
  -5   1   4    1.50    0.80
  -5   1   4    1.99    0.58
  -5   1   4    1.86    0.79
  -5   1   4    0.60    0.70
  -5   1   4    1.13    0.48
   4  -1  -4    6.32    1.18
   4  -1  -4    5.59    0.62
   4  -1  -4    5.14    0.99
   4  -1  -4    6.91    1.15
   4  -1  -4    5.74    0.97
   4  -1  -4    4.12    0.78
   4  -1  -4    7.58    2.07
   4  -1  -4    5.60    1.20
   4  -1  -4    4.78    0.90
  -4   1   4    6.36    1.08
  -4   1   4    3.63    0.62
  -4   1   4    3.34    0.84
  -4   1   4    5.83    0.76
  -4   1   4    8.14    1.10
   3  -1  -4    2.13    0.59
   3  -1  -4    1.96    0.49
   3  -1  -4    2.24    0.72
   3  -1  -4    1.59    0.58
   3  -1  -4    1.31    0.56
   3  -1  -4    2.25    0.45
   3  -1  -4    2.92    0.75
   3  -1  -4    1.99    0.69
   3  -1  -4    1.83    1.16
   3  -1  -4    1.51    0.75
  -3   1   4    2.84    0.70
  -3   1   4    2.66    0.68
  -3   1   4    2.00    0.58
  -3   1   4    1.77    0.61
  -3   1   4    1.33    0.36
  -3   1   4    3.48    0.77
  -3   1   4    2.11    0.47
  -3   1   4    1.76    0.56
  -3   1   4    1.41    0.41
  -3   1   4    2.83    0.71
  -3   1   4    1.22    0.55
   2  -1  -4   20.68    1.30
   2  -1  -4   18.31    1.31
   2  -1  -4   19.94    1.35
   2  -1  -4   18.72    1.20
   2  -1  -4   22.25    1.44
   2  -1  -4   21.05    1.24
   2  -1  -4   20.85    1.38
   2  -1  -4   20.66    1.89
   2  -1  -4   19.33    1.13
   2  -1  -4   21.34    1.38
   2  -1  -4   19.37    1.41
   2  -1  -4   21.82    1.93
   2  -1  -4   19.76    0.96
  -2   1   4   19.36    0.97
  -2   1   4   22.07    1.14
  -2   1   4   18.51    0.98
  -2   1   4   21.17    1.32
  -2   1   4   19.01    1.31
  -2   1   4   20.98    1.28
  -2   1   4   19.06    1.20
  -2   1   4   20.04    1.27
  -2   1   4   18.20    1.29
  -2   1   4   22.21    1.10
  -2   1   4   18.68    1.24
  -2   1   4   19.61    1.25
  -2   1   4   20.41    1.11
  -2   1   4   18.10    1.26
   1  -1  -4  115.22    4.53
   1  -1  -4  106.80    3.99
   1  -1  -4  107.32    3.95
   1  -1  -4  115.53    4.13
   1  -1  -4  118.12    4.91
   1  -1  -4  114.58    3.89
   1  -1  -4  113.31    3.80
   1  -1  -4  116.10    4.08
   1  -1  -4  114.10    3.83
   1  -1  -4  111.97    4.01
   1  -1  -4  114.94    3.62
   1  -1  -4  107.29    4.00
   1  -1  -4  113.65    4.02
  -1   1   4  112.74    3.50
  -1   1   4  109.28    3.99
  -1   1   4  118.89    4.07
  -1   1   4  114.96    4.03
  -1   1   4  106.94    3.95
  -1   1   4  109.36    3.90
  -1   1   4  104.58    3.98
  -1   1   4  114.02    3.63
  -1   1   4  112.54    3.98
  -1   1   4  111.95    3.95
  -1   1   4  111.69    3.59
  -1   1   4  112.47    3.91
  -1   1   4  111.81    3.73
  -1   1   4  113.01    3.98
  -1   1   4  113.36    3.82
  -1   1   4  114.95    3.77
  -1   1   4  113.82    3.60
  -1   1   4  114.37    3.96
   0  -1  -4   38.85    1.65
   0  -1  -4   42.33    1.76
   0  -1  -4   41.24    1.80
   0  -1  -4   41.41    1.46
   0  -1  -4   39.96    1.60
   0  -1  -4   41.17    1.75
   0  -1  -4   41.43    1.77
   0  -1  -4   40.81    1.53
   0  -1  -4   39.81    1.72
   0  -1  -4   38.83    2.25
   0  -1  -4   44.70    2.03
   0  -1  -4   43.94    1.67
   0  -1  -4   39.77    1.77
   0  -1  -4   40.32    1.64
   0  -1  -4   45.49    1.80
   0  -1  -4   40.70    1.72
   0   1   4   41.40    1.42
   0   1   4   40.21    1.75
   0   1   4   41.39    1.55
   0   1   4   41.33    1.46
   0   1   4   40.34    1.76
   0   1   4   38.34    1.71
   0   1   4   41.20    1.72
   0   1   4   40.29    1.67
   0   1   4   39.50    1.56
   0   1   4   41.23    1.35
   0   1   4   42.93    2.35
   0   1   4   39.80    1.61
   0   1   4   39.34    1.38
   0   1   4   42.48    1.72
   0   1   4   42.67    1.70
   0   1   4   40.53    1.67
  -1  -1  -4   80.54    2.91
  -1  -1  -4   82.36    2.84
  -1  -1  -4   79.46    3.10
  -1  -1  -4   83.97    2.86
  -1  -1  -4   79.50    2.62
  -1  -1  -4   80.40    2.79
  -1  -1  -4   78.04    2.71
  -1  -1  -4   80.63    2.74
  -1  -1  -4   81.23    2.92
  -1  -1  -4   82.32    2.80
  -1  -1  -4   80.01    2.89
  -1  -1  -4   81.45    2.60
  -1  -1  -4   81.37    2.91
  -1  -1  -4   84.72    3.53
  -1  -1  -4   81.76    2.79
  -1  -1  -4   76.81    2.86
  -1  -1  -4   77.05    2.82
   1   1   4   79.57    2.89
   1   1   4   80.87    2.86
   1   1   4   84.16    2.86
   1   1   4   79.89    2.88
   1   1   4   76.79    2.69
   1   1   4   80.71    2.58
   1   1   4   81.36    2.82
   1   1   4   82.12    3.51
   1   1   4   82.39    2.81
   1   1   4   78.61    2.54
   1   1   4   82.59    2.77
   1   1   4   83.39    2.88
   1   1   4   82.50    2.69
   1   1   4   79.76    2.81
   1   1   4   83.26    2.75
   1   1   4   77.88    2.87
  -2  -1  -4   96.44    3.06
  -2  -1  -4  102.48    3.23
  -2  -1  -4   96.72    3.29
  -2  -1  -4   96.39    3.33
  -2  -1  -4   96.58    3.20
  -2  -1  -4   89.33    3.24
  -2  -1  -4   98.64    3.25
  -2  -1  -4   98.02    3.38
  -2  -1  -4   91.90    3.95
  -2  -1  -4   98.86    3.29
  -2  -1  -4   95.12    3.06
  -2  -1  -4  100.04    3.30
  -2  -1  -4   99.45    3.37
  -2  -1  -4  100.93    3.38
  -2  -1  -4   91.77    3.28
   2   1   4   95.52    3.28
   2   1   4   97.03    3.35
   2   1   4  100.38    3.37
   2   1   4   94.28    3.01
   2   1   4   93.14    3.15
   2   1   4   88.58    3.11
   2   1   4   95.68    3.28
   2   1   4   94.50    3.35
   2   1   4   91.92    3.31
   2   1   4   94.55    3.34
   2   1   4   99.97    3.35
   2   1   4   93.89    2.97
   2   1   4   89.95    3.91
   2   1   4   93.28    3.23
   2   1   4   95.67    3.20
   2   1   4   97.16    3.14
  -3  -1  -4   10.86    0.72
  -3  -1  -4   11.47    0.64
  -3  -1  -4   10.00    0.74
  -3  -1  -4   12.55    0.90
  -3  -1  -4   10.57    0.86
  -3  -1  -4    9.31    1.11
  -3  -1  -4   11.63    0.84
  -3  -1  -4   10.32    0.60
  -3  -1  -4   10.62    0.79
  -3  -1  -4    9.77    0.76
  -3  -1  -4   10.23    0.77
  -3  -1  -4   11.14    0.78
  -3  -1  -4   10.82    0.73
  -3  -1  -4   10.02    0.77
   3   1   4    9.90    0.77
   3   1   4   11.10    0.58
   3   1   4    9.94    0.81
   3   1   4   10.95    0.80
   3   1   4    8.97    0.77
   3   1   4   10.68    0.68
   3   1   4   11.46    0.67
   3   1   4   11.27    0.81
   3   1   4   10.52    0.53
   3   1   4   12.22    0.73
   3   1   4   10.00    0.76
   3   1   4   12.70    1.24
   3   1   4   11.01    0.81
   3   1   4   12.87    0.79
   3   1   4   10.55    0.82
  -4  -1  -4   50.13    2.20
  -4  -1  -4   52.07    2.17
  -4  -1  -4   53.73    2.18
  -4  -1  -4   55.29    2.15
  -4  -1  -4   52.31    2.35
  -4  -1  -4   52.68    2.02
  -4  -1  -4   51.48    1.91
  -4  -1  -4   53.04    2.36
  -4  -1  -4   56.17    3.07
  -4  -1  -4   52.56    2.27
  -4  -1  -4   50.39    2.20
   4   1   4   51.83    2.23
   4   1   4   50.51    2.24
   4   1   4   49.22    1.79
   4   1   4   51.10    2.13
   4   1   4   49.81    2.04
   4   1   4   51.08    2.23
   4   1   4   55.48    2.30
   4   1   4   52.24    2.98
   4   1   4   53.72    2.26
   4   1   4   51.34    2.25
   4   1   4   50.38    1.99
   4   1   4   50.42    2.07
  -5  -1  -4    6.41    0.76
  -5  -1  -4    7.96    0.86
  -5  -1  -4    7.39    0.78
  -5  -1  -4    8.05    0.64
  -5  -1  -4    8.72    1.37
  -5  -1  -4    6.42    0.85
  -5  -1  -4    9.35    0.84
  -5  -1  -4    7.51    1.09
  -5  -1  -4    7.04    0.94
   5   1   4    7.78    0.66
   5   1   4    7.16    0.96
   5   1   4    6.19    0.85
   5   1   4    6.14    0.80
   5   1   4    6.81    0.79
   5   1   4    7.26    0.77
   5   1   4    6.93    0.90
   5   1   4    7.41    0.88
   5   1   4    6.37    1.22
   5   1   4    6.57    0.84
   5   1   4    7.94    0.72
  -6  -1  -4   14.24    1.25
  -6  -1  -4   14.05    1.18
  -6  -1  -4   12.83    1.11
  -6  -1  -4   11.55    1.13
  -6  -1  -4   12.96    1.55
  -6  -1  -4   13.72    0.93
  -6  -1  -4   13.56    1.41
  -6  -1  -4   14.86    1.30
   6   1   4   12.05    0.94
   6   1   4   12.76    1.30
   6   1   4   13.70    1.25
   6   1   4   15.55    1.37
  -7  -1  -4   21.87    1.30
  -7  -1  -4   19.43    1.55
  -7  -1  -4   15.48    1.62
  -7  -1  -4   21.16    1.55
  -7  -1  -4   20.82    1.76
  -7  -1  -4   20.93    1.60
  -7  -1  -4   21.86    2.08
   7   1   4   23.55    1.83
   7   1   4   22.64    1.71
   7   1   4   19.36    1.28
   5  -2  -4   11.61    1.48
   5  -2  -4   13.65    1.47
   5  -2  -4   14.45    0.94
   5  -2  -4   12.53    1.70
   5  -2  -4   12.14    1.21
   5  -2  -4    9.85    2.83
  -5   2   4   12.12    1.57
  -5   2   4   13.06    1.62
  -5   2   4   11.52    1.02
  -5   2   4   11.77    1.42
  -5   2   4   14.63    1.29
   4  -2  -4   22.94    2.92
   4  -2  -4   19.50    1.35
   4  -2  -4   16.98    2.19
   4  -2  -4   19.86    1.47
   4  -2  -4   20.86    1.77
   4  -2  -4   21.25    1.59
   4  -2  -4   17.60    1.04
   4  -2  -4   18.82    1.55
   4  -2  -4   21.46    1.61
   4  -2  -4   20.06    1.67
  -4   2   4   22.27    1.71
  -4   2   4   20.54    1.20
  -4   2   4   19.90    1.33
  -4   2   4   19.11    1.33
  -4   2   4   15.67    1.52
  -4   2   4   23.05    1.75
  -4   2   4   22.67    1.58
   3  -2  -4  110.27    3.93
   3  -2  -4  103.38    4.22
   3  -2  -4   97.93    4.09
   3  -2  -4  100.75    5.19
   3  -2  -4  108.48    4.21
   3  -2  -4  102.64    4.07
   3  -2  -4  106.19    3.93
   3  -2  -4  100.93    3.79
   3  -2  -4  101.68    4.13
   3  -2  -4  108.33    3.50
   3  -2  -4   92.51    5.17
   3  -2  -4  106.09    4.30
   3  -2  -4  105.02    4.11
  -3   2   4  104.13    3.97
  -3   2   4   98.76    4.12
  -3   2   4  106.18    3.82
  -3   2   4  100.49    3.60
  -3   2   4  100.94    4.13
  -3   2   4  104.23    4.13
  -3   2   4  103.23    4.07
  -3   2   4  106.72    3.75
  -3   2   4   99.97    3.95
  -3   2   4  100.29    4.03
  -3   2   4  104.38    3.82
   2  -2  -4   24.85    2.11
   2  -2  -4   25.82    1.53
   2  -2  -4   22.24    1.46
   2  -2  -4   24.35    2.07
   2  -2  -4   24.63    1.58
   2  -2  -4   25.15    1.40
   2  -2  -4   23.84    1.31
   2  -2  -4   26.47    1.51
   2  -2  -4   25.02    1.45
   2  -2  -4   22.71    1.37
   2  -2  -4   26.95    1.14
   2  -2  -4   28.02    1.61
   2  -2  -4   26.55    1.43
   2  -2  -4   25.68    1.54
  -2   2   4   26.73    1.45
  -2   2   4   25.63    1.54
  -2   2   4   23.94    1.42
  -2   2   4   25.33    1.46
  -2   2   4   26.37    1.22
  -2   2   4   27.23    1.38
  -2   2   4   26.38    1.57
  -2   2   4   27.64    1.35
  -2   2   4   26.87    1.53
  -2   2   4   25.74    1.47
  -2   2   4   28.29    1.33
  -2   2   4   28.83    1.56
  -2   2   4   28.62    1.54
   1  -2  -4   18.47    1.11
   1  -2  -4   18.52    1.02
   1  -2  -4   17.62    1.15
   1  -2  -4   18.66    0.86
   1  -2  -4   20.51    1.18
   1  -2  -4   20.69    1.11
   1  -2  -4   18.84    1.14
   1  -2  -4   18.70    1.08
   1  -2  -4   19.42    1.18
   1  -2  -4   18.10    1.19
   1  -2  -4   18.70    1.66
   1  -2  -4   17.91    1.47
   1  -2  -4   18.92    1.15
   1  -2  -4   18.40    1.02
  -1   2   4   19.14    1.01
  -1   2   4   19.69    1.13
  -1   2   4   18.00    0.91
  -1   2   4   19.28    1.16
  -1   2   4   17.98    1.06
  -1   2   4   18.65    1.63
  -1   2   4   18.23    0.82
  -1   2   4   19.47    1.13
  -1   2   4   19.98    1.06
  -1   2   4   19.17    1.13
  -1   2   4   19.66    1.11
  -1   2   4   17.38    0.95
  -1   2   4   16.81    0.94
  -1   2   4   17.96    1.10
  -1   2   4   18.09    1.13
  -1   2   4   19.62    1.17
   0  -2  -4  128.48    4.56
   0  -2  -4  128.95    4.42
   0  -2  -4  120.71    4.35
   0  -2  -4  124.95    5.08
   0  -2  -4  127.84    4.04
   0  -2  -4  130.78    4.26
   0  -2  -4  126.78    4.37
   0  -2  -4  134.02    4.39
   0  -2  -4  123.44    4.27
   0  -2  -4  117.54    4.32
   0  -2  -4  130.12    4.34
   0  -2  -4  135.23    4.80
   0  -2  -4  130.34    4.35
   0  -2  -4  126.33    4.13
   0  -2  -4  129.64    4.24
   0   2   4  126.48    4.28
   0   2   4  122.10    5.10
   0   2   4  126.03    4.36
   0   2   4  127.45    4.29
   0   2   4  131.20    4.24
   0   2   4  127.97    4.39
   0   2   4  126.15    4.29
   0   2   4  124.05    3.97
   0   2   4  129.16    4.46
   0   2   4  128.09    4.19
   0   2   4  131.17    4.11
   0   2   4  147.47    4.44
   0   2   4  124.39    4.04
   0   2   4  129.09    4.18
   0   2   4  134.82    4.40
   0   2   4  127.88    4.09
   0   2   4  129.48    4.48
   0   2   4  129.69    4.34
  -1  -2  -4   19.85    0.87
  -1  -2  -4   19.12    1.04
  -1  -2  -4   20.20    1.04
  -1  -2  -4   19.74    1.14
  -1  -2  -4   21.32    1.10
  -1  -2  -4   21.30    1.06
  -1  -2  -4   19.93    1.09
  -1  -2  -4   20.34    0.89
  -1  -2  -4   20.02    1.00
  -1  -2  -4   19.98    1.01
  -1  -2  -4   19.51    1.50
  -1  -2  -4   19.28    1.10
  -1  -2  -4   21.31    1.06
  -1  -2  -4   20.81    1.09
  -1  -2  -4   22.23    1.05
  -1  -2  -4   21.20    0.98
  -1  -2  -4   22.05    1.12
  -1  -2  -4   21.74    1.07
  -1  -2  -4   23.06    1.13
   1   2   4   20.45    0.82
   1   2   4   19.13    0.90
   1   2   4   19.94    1.03
   1   2   4   21.68    1.54
   1   2   4   19.71    0.96
   1   2   4   21.82    0.86
   1   2   4   18.57    0.81
   1   2   4   21.35    1.10
   1   2   4   19.83    1.08
   1   2   4   22.53    1.03
   1   2   4   21.67    1.07
   1   2   4   21.54    1.11
   1   2   4   20.13    0.96
   1   2   4   20.60    1.09
   1   2   4   20.22    0.87
   1   2   4   20.44    1.05
   1   2   4   19.82    1.08
   1   2   4   19.19    1.02
  -2  -2  -4   67.41    2.51
  -2  -2  -4   68.17    2.54
  -2  -2  -4   68.40    2.34
  -2  -2  -4   69.01    2.49
  -2  -2  -4   68.02    2.52
  -2  -2  -4   67.72    2.52
  -2  -2  -4   70.89    2.62
  -2  -2  -4   66.91    2.55
  -2  -2  -4   70.81    2.32
  -2  -2  -4   69.48    2.60
  -2  -2  -4   71.64    3.26
  -2  -2  -4   69.82    2.61
  -2  -2  -4   70.11    2.59
  -2  -2  -4   69.87    2.62
   2   2   4   63.47    2.41
   2   2   4   72.88    2.59
   2   2   4   68.85    2.61
   2   2   4   68.40    2.54
   2   2   4   70.18    2.50
   2   2   4   72.14    2.58
   2   2   4   68.72    2.58
   2   2   4   65.62    2.57
   2   2   4   70.30    2.47
   2   2   4   66.34    2.60
   2   2   4   67.35    3.22
   2   2   4   69.15    2.48
   2   2   4   67.82    2.56
   2   2   4   70.63    2.61
   2   2   4   68.16    2.28
   2   2   4   69.90    2.25
   2   2   4   67.86    2.26
   2   2   4   70.00    2.38
  -3  -2  -4  148.86    5.04
  -3  -2  -4  142.29    5.05
  -3  -2  -4  153.15    5.10
  -3  -2  -4  141.48    5.02
  -3  -2  -4  150.54    4.95
  -3  -2  -4  149.36    4.67
  -3  -2  -4  142.96    4.66
  -3  -2  -4  148.69    4.97
  -3  -2  -4  148.17    4.89
  -3  -2  -4  155.84    5.06
  -3  -2  -4  153.28    4.96
  -3  -2  -4  141.53    4.99
  -3  -2  -4  152.65    5.87
  -3  -2  -4  152.20    4.77
   3   2   4  145.60    5.01
   3   2   4  145.98    4.76
   3   2   4  152.76    5.02
   3   2   4  148.51    5.01
   3   2   4  143.18    4.80
   3   2   4  147.81    4.90
   3   2   4  144.30    5.79
   3   2   4  151.18    4.99
   3   2   4  149.87    4.64
   3   2   4  147.63    4.88
   3   2   4  151.08    5.04
   3   2   4  148.12    4.60
   3   2   4  141.87    5.01
   3   2   4  149.59    4.99
  -4  -2  -4   49.38    2.09
  -4  -2  -4   49.79    2.20
  -4  -2  -4   49.74    2.04
  -4  -2  -4   46.55    1.93
  -4  -2  -4   46.10    2.13
  -4  -2  -4   46.10    2.14
  -4  -2  -4   48.07    1.80
  -4  -2  -4   44.39    2.21
  -4  -2  -4   49.47    2.08
  -4  -2  -4   48.12    2.91
  -4  -2  -4   47.85    2.12
  -4  -2  -4   45.42    2.25
   4   2   4   45.29    2.11
   4   2   4   49.82    2.17
   4   2   4   45.62    1.70
   4   2   4   47.81    2.15
   4   2   4   49.00    2.06
   4   2   4   43.21    2.12
   4   2   4   46.47    2.86
   4   2   4   48.54    2.15
   4   2   4   47.21    1.68
   4   2   4   47.96    1.96
   4   2   4   45.23    2.14
   4   2   4   48.67    2.07
   4   2   4   47.84    1.91
   4   2   4   47.42    2.15
  -5  -2  -4   16.74    1.39
  -5  -2  -4   19.15    1.35
  -5  -2  -4   19.29    1.22
  -5  -2  -4   19.80    1.25
  -5  -2  -4   17.90    1.32
  -5  -2  -4   19.74    1.27
  -5  -2  -4   20.10    1.30
  -5  -2  -4   18.54    1.96
  -5  -2  -4   19.29    1.36
  -5  -2  -4   20.52    1.04
  -5  -2  -4   16.86    1.47
   5   2   4   16.92    1.29
   5   2   4   18.46    1.16
   5   2   4   20.14    1.42
   5   2   4   20.92    1.32
   5   2   4   19.22    1.93
   5   2   4   19.29    0.88
   5   2   4   17.04    1.30
   5   2   4   19.17    1.37
   5   2   4   18.06    1.36
   5   2   4   20.30    1.18
   5   2   4   22.08    1.45
   5   2   4   18.19    0.91
  -6  -2  -4   11.13    1.48
  -6  -2  -4    7.13    0.92
  -6  -2  -4    8.00    0.99
  -6  -2  -4    8.62    1.06
  -6  -2  -4   10.12    1.00
  -6  -2  -4    9.16    1.12
  -6  -2  -4    8.16    1.19
  -6  -2  -4   10.32    0.82
   6   2   4   11.17    0.99
   6   2   4    7.97    1.03
   6   2   4   10.30    0.64
   6   2   4    8.75    1.32
   6   2   4    8.65    1.03
   6   2   4    8.74    1.20
  -7  -2  -4   40.44    2.29
  -7  -2  -4   38.22    2.68
  -7  -2  -4   35.47    2.13
  -7  -2  -4   33.67    2.43
  -7  -2  -4   29.64    1.99
  -7  -2  -4   34.03    2.05
  -7  -2  -4   38.50    2.35
  -7  -2  -4   37.37    1.79
   7   2   4   37.10    1.92
   7   2   4   38.57    2.36
   7   2   4   36.09    2.38
   7   2   4   40.66    1.98
   7   2   4   39.32    1.46
   5  -3  -4    1.19    0.71
   5  -3  -4    1.00    0.82
   5  -3  -4    1.74    0.66
   5  -3  -4    1.61    2.02
   5  -3  -4    3.37    0.92
   5  -3  -4    2.03    0.43
  -5   3   4    1.79    0.62
  -5   3   4    1.14    0.72
  -5   3   4    2.90    0.81
  -5   3   4    1.51    0.81
  -5   3   4    1.32    0.54
  -5   3   4    3.22    0.97
   4  -3  -4    6.21    2.04
   4  -3  -4    4.37    1.36
   4  -3  -4    5.97    0.94
   4  -3  -4    5.07    1.15
   4  -3  -4    5.45    0.54
   4  -3  -4    7.39    1.07
   4  -3  -4    4.54    1.03
   4  -3  -4    4.68    0.77
  -4   3   4    4.82    0.95
  -4   3   4    4.74    0.80
  -4   3   4    3.80    0.68
  -4   3   4    4.98    0.80
  -4   3   4    6.28    1.04
  -4   3   4    5.12    1.06
  -4   3   4    4.95    1.04
  -4   3   4    4.63    0.92
   3  -3  -4    8.33    1.12
   3  -3  -4    9.25    0.85
   3  -3  -4    7.72    1.89
   3  -3  -4   10.53    1.04
   3  -3  -4   10.53    0.67
   3  -3  -4   12.09    1.23
   3  -3  -4    9.97    1.16
   3  -3  -4    9.46    0.89
   3  -3  -4    9.47    1.03
   3  -3  -4    9.42    1.06
   3  -3  -4   10.86    1.03
   3  -3  -4    7.85    1.42
   3  -3  -4    9.60    0.94
   3  -3  -4   10.15    1.15
  -3   3   4   10.32    1.11
  -3   3   4   12.38    1.18
  -3   3   4   10.00    0.82
  -3   3   4    9.97    0.90
  -3   3   4    9.53    1.06
  -3   3   4    9.19    0.95
  -3   3   4   10.76    1.04
   2  -3  -4   32.49    1.63
   2  -3  -4   35.10    1.70
   2  -3  -4   34.39    1.80
   2  -3  -4   35.68    2.52
   2  -3  -4   33.88    1.32
   2  -3  -4   35.02    1.84
   2  -3  -4   29.95    1.69
   2  -3  -4   35.86    1.88
   2  -3  -4   34.78    1.64
   2  -3  -4   35.55    1.86
   2  -3  -4   31.96    2.42
   2  -3  -4   34.00    1.48
   2  -3  -4   36.64    1.77
   2  -3  -4   34.60    1.89
   2  -3  -4   33.34    1.80
   2  -3  -4   33.89    1.58
  -2   3   4   33.24    1.73
  -2   3   4   34.97    1.81
  -2   3   4   33.05    1.61
  -2   3   4   35.51    1.79
  -2   3   4   33.68    1.75
  -2   3   4   31.57    1.67
  -2   3   4   32.51    1.59
  -2   3   4   34.17    1.71
  -2   3   4   35.52    1.86
  -2   3   4   31.00    1.45
  -2   3   4   34.57    1.66
  -2   3   4   33.35    1.79
  -2   3   4   32.99    1.99
   1  -3  -4    3.66    0.49
   1  -3  -4    3.55    0.53
   1  -3  -4    3.49    0.58
   1  -3  -4    3.69    0.55
   1  -3  -4    3.71    0.53
   1  -3  -4    3.30    0.84
   1  -3  -4    4.12    0.54
   1  -3  -4    4.05    0.59
   1  -3  -4    4.04    0.62
   1  -3  -4    4.07    0.60
   1  -3  -4    4.44    0.39
   1  -3  -4    3.34    0.58
   1  -3  -4    4.31    0.53
   1  -3  -4    4.07    0.88
   1  -3  -4    3.82    0.62
  -1   3   4    4.27    0.88
  -1   3   4    3.14    0.44
  -1   3   4    3.38    0.51
  -1   3   4    3.38    0.57
  -1   3   4    3.99    0.56
  -1   3   4    3.71    0.44
  -1   3   4    3.57    0.56
  -1   3   4    4.08    0.56
  -1   3   4    4.00    0.57
  -1   3   4    3.81    0.50
  -1   3   4    4.19    0.55
  -1   3   4    4.05    0.59
   0  -3  -4  144.70    4.87
   0  -3  -4  146.51    5.67
   0  -3  -4  147.93    4.92
   0  -3  -4  145.64    4.84
   0  -3  -4  145.42    4.63
   0  -3  -4  147.25    4.72
   0  -3  -4  147.82    4.64
   0  -3  -4  144.62    4.90
   0  -3  -4  141.84    4.63
   0  -3  -4  142.45    4.74
   0  -3  -4  148.58    4.51
   0  -3  -4  151.72    4.94
   0  -3  -4  142.06    4.86
   0  -3  -4  146.22    4.82
   0  -3  -4  144.07    4.82
   0  -3  -4  142.15    4.97
   0  -3  -4  138.35    4.83
   0  -3  -4  143.23    4.78
   0   3   4  146.03    4.70
   0   3   4  156.80    4.91
   0   3   4  138.50    4.68
   0   3   4  146.92    4.86
   0   3   4  144.74    5.67
   0   3   4  144.82    4.85
   0   3   4  132.88    5.35
   0   3   4  131.30    4.84
   0   3   4  142.31    4.81
   0   3   4  148.55    4.63
   0   3   4  143.78    4.65
   0   3   4  140.48    4.77
   0   3   4  145.73    4.80
   0   3   4  149.24    4.76
   0   3   4  134.16    4.76
   0   3   4  148.16    4.92
  -1  -3  -4  478.28   14.41
  -1  -3  -4  498.98   14.73
  -1  -3  -4  470.19   14.67
  -1  -3  -4  484.94   15.55
  -1  -3  -4  454.45   14.58
  -1  -3  -4  474.93   14.60
  -1  -3  -4  481.05   14.62
  -1  -3  -4  481.85   14.47
  -1  -3  -4  488.55   14.61
  -1  -3  -4  470.11   14.69
  -1  -3  -4  469.16   14.61
  -1  -3  -4  482.95   14.51
  -1  -3  -4  485.74   14.37
  -1  -3  -4  493.97   14.71
  -1  -3  -4  479.33   14.68
  -1  -3  -4  487.90   14.62
  -1  -3  -4  488.88   14.60
  -1  -3  -4  480.11   14.58
  -1  -3  -4  479.35   14.60
  -1  -3  -4  486.15   14.35
   1   3   4  495.80   15.56
   1   3   4  475.36   14.59
   1   3   4  491.14   14.62
   1   3   4  494.39   14.68
   1   3   4  485.87   14.59
   1   3   4  478.24   14.68
   1   3   4  499.04   14.71
   1   3   4  471.22   14.63
   1   3   4  485.21   14.55
   1   3   4  468.04   14.75
   1   3   4  495.86   14.70
   1   3   4  475.79   14.44
   1   3   4  468.29   14.59
   1   3   4  490.12   14.54
   1   3   4  480.38   14.41
   1   3   4  474.69   14.50
  -2  -3  -4  231.19    7.10
  -2  -3  -4  225.03    7.41
  -2  -3  -4  234.41    7.12
  -2  -3  -4  235.30    7.42
  -2  -3  -4  230.44    7.41
  -2  -3  -4  230.80    7.33
  -2  -3  -4  227.84    8.23
  -2  -3  -4  220.71    7.39
  -2  -3  -4  225.16    7.29
  -2  -3  -4  234.16    7.07
  -2  -3  -4  241.01    7.46
  -2  -3  -4  233.76    7.32
  -2  -3  -4  237.63    7.27
  -2  -3  -4  215.81    7.34
   2   3   4  239.57    7.22
   2   3   4  227.36    7.34
   2   3   4  236.12    7.38
   2   3   4  238.53    7.32
   2   3   4  226.91    7.41
   2   3   4  232.82    8.26
   2   3   4  228.62    7.09
   2   3   4  228.19    7.40
   2   3   4  234.93    7.47
   2   3   4  230.21    7.23
   2   3   4  224.23    7.30
   2   3   4  233.46    7.39
   2   3   4  234.99    7.38
   2   3   4  232.87    7.34
   2   3   4  227.57    7.29
  -3  -3  -4  127.38    4.09
  -3  -3  -4  119.89    4.33
  -3  -3  -4  121.65    4.06
  -3  -3  -4  123.99    4.27
  -3  -3  -4  130.85    4.33
  -3  -3  -4  123.89    4.40
  -3  -3  -4  122.02    4.19
  -3  -3  -4  125.96    4.36
  -3  -3  -4  121.72    3.98
  -3  -3  -4  127.12    5.23
  -3  -3  -4  124.22    4.42
  -3  -3  -4  121.49    4.36
  -3  -3  -4  124.88    4.26
  -3  -3  -4  123.28    4.37
   3   3   4  129.75    3.99
   3   3   4  117.94    4.15
   3   3   4  121.99    4.27
   3   3   4  125.93    4.31
   3   3   4  119.06    4.30
   3   3   4  130.71    5.26
   3   3   4  118.39    4.31
   3   3   4  117.46    4.29
   3   3   4  119.99    4.15
   3   3   4  129.32    4.40
   3   3   4  127.86    4.36
   3   3   4  124.48    4.38
   3   3   4  124.90    4.40
  -4  -3  -4    4.36    0.64
  -4  -3  -4    3.22    0.52
  -4  -3  -4    3.93    0.98
  -4  -3  -4    3.17    0.65
  -4  -3  -4    3.07    0.54
  -4  -3  -4    2.62    0.54
  -4  -3  -4    3.99    0.42
  -4  -3  -4    4.16    0.68
  -4  -3  -4    3.47    0.57
  -4  -3  -4    3.40    0.62
  -4  -3  -4    3.72    0.80
  -4  -3  -4    2.68    0.66
  -4  -3  -4    3.82    0.62
   4   3   4    3.47    0.61
   4   3   4    4.02    0.97
   4   3   4    2.95    0.59
   4   3   4    3.28    0.66
   4   3   4    3.65    0.66
   4   3   4    4.47    0.70
   4   3   4    2.34    0.59
   4   3   4    3.62    0.63
   4   3   4    4.96    0.69
   4   3   4    4.06    0.57
   4   3   4    4.22    0.67
  -5  -3  -4    9.55    1.00
  -5  -3  -4    8.56    1.45
  -5  -3  -4    7.59    0.84
  -5  -3  -4    7.81    0.87
  -5  -3  -4    7.32    1.12
  -5  -3  -4    7.67    0.92
  -5  -3  -4    7.22    1.01
  -5  -3  -4    8.12    0.88
  -5  -3  -4    7.98    0.94
  -5  -3  -4    6.36    0.87
  -5  -3  -4    6.88    0.61
  -5  -3  -4    6.64    0.76
   5   3   4    9.09    1.43
   5   3   4    6.22    0.87
   5   3   4    9.40    1.03
   5   3   4    7.85    0.88
   5   3   4    7.32    0.81
   5   3   4    8.48    0.95
   5   3   4    8.42    1.01
   5   3   4    7.95    1.01
   5   3   4    8.45    0.95
  -6  -3  -4    2.82    0.74
  -6  -3  -4    1.87    0.56
  -6  -3  -4    3.26    0.56
  -6  -3  -4    3.07    0.80
  -6  -3  -4    2.34    0.59
  -6  -3  -4    4.30    0.87
  -6  -3  -4    2.51    0.91
  -6  -3  -4    2.12    0.74
   6   3   4    3.96    0.92
   6   3   4    3.56    0.85
   6   3   4    3.65    0.49
   6   3   4    3.54    0.80
   6   3   4    1.94    0.75
   6   3   4    2.84    0.70
   6   3   4    3.59    0.75
  -7  -3  -4   15.12    1.57
  -7  -3  -4   15.88    1.41
  -7  -3  -4   12.76    1.62
  -7  -3  -4   16.66    1.42
  -7  -3  -4   16.31    1.51
  -7  -3  -4   14.56    1.08
  -7  -3  -4   15.82    1.87
   7   3   4   15.26    1.58
   7   3   4   17.26    0.98
   7   3   4   14.44    1.37
   7   3   4   17.44    1.71
   5  -4  -4    5.25    2.17
   5  -4  -4    4.19    0.89
   5  -4  -4    4.05    1.59
   5  -4  -4    3.49    1.07
  -5   4   4    3.65    0.87
  -5   4   4    3.75    0.82
  -5   4   4    5.71    1.21
   4  -4  -4   10.72    1.81
   4  -4  -4   12.92    1.47
   4  -4  -4   11.16    1.36
   4  -4  -4    9.54    1.12
   4  -4  -4   10.83    0.99
   4  -4  -4   11.08    2.40
  -4   4   4   10.78    1.08
  -4   4   4   10.25    1.25
  -4   4   4   10.21    1.18
  -4   4   4   12.28    1.36
  -4   4   4    9.87    0.95
  -4   4   4   10.31    1.32
  -4   4   4   10.57    1.21
   3  -4  -4   11.81    1.22
   3  -4  -4    9.08    1.13
   3  -4  -4   11.49    1.23
   3  -4  -4    9.51    0.94
   3  -4  -4    9.70    1.00
   3  -4  -4   11.23    1.13
   3  -4  -4   10.83    1.61
   3  -4  -4   11.75    1.08
   3  -4  -4    8.52    1.12
   3  -4  -4    9.79    0.89
   3  -4  -4    9.53    1.17
   3  -4  -4   12.89    2.09
  -3   4   4    9.70    0.94
  -3   4   4   11.53    0.87
  -3   4   4   10.16    1.09
  -3   4   4    9.75    1.06
  -3   4   4   11.08    1.18
  -3   4   4   10.92    1.13
  -3   4   4    9.07    0.93
   2  -4  -4   72.92    3.85
   2  -4  -4   73.89    2.76
   2  -4  -4   78.04    3.14
   2  -4  -4   76.58    3.17
   2  -4  -4   75.41    2.71
   2  -4  -4   73.86    3.97
   2  -4  -4   69.13    2.92
   2  -4  -4   69.30    3.34
   2  -4  -4   69.47    2.92
   2  -4  -4   70.83    2.95
   2  -4  -4   72.81    3.07
   2  -4  -4   75.17    3.05
   2  -4  -4   73.29    2.74
   2  -4  -4   69.13    2.55
   2  -4  -4   71.25    2.96
  -2   4   4   74.43    3.05
  -2   4   4   72.33    2.68
  -2   4   4   73.13    3.01
  -2   4   4   72.60    2.92
  -2   4   4   75.34    2.89
  -2   4   4   72.39    2.81
  -2   4   4   67.87    2.92
  -2   4   4   73.10    2.92
  -2   4   4   73.74    2.82
  -2   4   4   73.19    3.09
   1  -4  -4  108.97    3.95
   1  -4  -4  108.57    3.92
   1  -4  -4  108.28    3.92
   1  -4  -4  102.84    3.80
   1  -4  -4  104.21    4.34
   1  -4  -4  105.02    3.57
   1  -4  -4  106.87    3.75
   1  -4  -4  105.13    3.85
   1  -4  -4  103.80    3.81
   1  -4  -4   99.27    3.46
   1  -4  -4  105.02    3.78
   1  -4  -4  106.35    4.72
   1  -4  -4  109.37    3.64
   1  -4  -4  103.87    3.64
   1  -4  -4  107.76    3.81
  -1   4   4  107.71    4.74
  -1   4   4  102.68    3.71
  -1   4   4   99.28    3.80
  -1   4   4  102.24    3.84
  -1   4   4   97.43    3.80
  -1   4   4  104.41    3.74
  -1   4   4  109.55    3.79
  -1   4   4  111.96    3.69
  -1   4   4  110.43    3.60
  -1   4   4  110.69    3.86
  -1   4   4  102.64    3.88
  -1   4   4  106.57    3.68
  -1   4   4  107.63    3.90
  -1   4   4  111.74    3.89
   0  -4  -4   40.19    1.77
   0  -4  -4   40.93    1.68
   0  -4  -4   44.60    1.88
   0  -4  -4   38.58    2.36
   0  -4  -4   42.91    1.74
   0  -4  -4   41.87    1.80
   0  -4  -4   42.16    1.87
   0  -4  -4   39.67    1.83
   0  -4  -4   40.87    1.78
   0  -4  -4   43.71    1.89
   0  -4  -4   42.00    1.82
   0  -4  -4   39.32    1.90
   0  -4  -4   42.47    1.60
   0  -4  -4   40.64    1.77
   0  -4  -4   38.02    1.79
   0   4   4   41.26    1.75
   0   4   4   43.51    1.70
   0   4   4   39.80    1.76
   0   4   4   41.09    1.79
   0   4   4   40.11    1.74
   0   4   4   41.75    1.79
   0   4   4   47.12    2.58
   0   4   4   41.07    1.85
   0   4   4   41.80    1.68
   0   4   4   41.88    1.70
   0   4   4   43.93    1.90
   0   4   4   41.86    1.65
   0   4   4   40.66    1.81
   0   4   4   42.22    1.85
  -1  -4  -4    9.77    0.71
  -1  -4  -4    8.75    0.72
  -1  -4  -4    8.73    0.75
  -1  -4  -4    8.14    0.68
  -1  -4  -4    7.21    1.00
  -1  -4  -4    8.65    0.71
  -1  -4  -4    9.38    0.66
  -1  -4  -4    7.18    0.65
  -1  -4  -4    5.24    0.58
  -1  -4  -4    9.18    0.74
  -1  -4  -4    8.44    0.65
  -1  -4  -4    8.72    0.73
  -1  -4  -4    8.23    0.51
  -1  -4  -4    8.46    0.73
  -1  -4  -4    8.76    0.56
  -1  -4  -4    7.71    0.48
   1   4   4   10.44    0.78
   1   4   4    8.88    0.69
   1   4   4    8.23    0.72
   1   4   4    8.06    0.65
   1   4   4    9.52    1.10
   1   4   4    7.94    0.60
   1   4   4   10.42    0.80
   1   4   4    9.19    0.73
   1   4   4    8.30    0.68
   1   4   4    8.31    0.68
   1   4   4    7.75    0.69
   1   4   4    8.17    0.65
   1   4   4    8.24    0.68
   1   4   4    8.27    0.65
   1   4   4    9.48    0.69
  -2  -4  -4   88.91    3.36
  -2  -4  -4   88.50    3.31
  -2  -4  -4   88.93    3.34
  -2  -4  -4   90.32    3.22
  -2  -4  -4   94.24    3.38
  -2  -4  -4   95.47    3.19
  -2  -4  -4   92.23    2.99
  -2  -4  -4   92.21    3.29
  -2  -4  -4   96.19    3.39
  -2  -4  -4   97.03    4.20
  -2  -4  -4   91.93    3.17
  -2  -4  -4   92.07    3.27
  -2  -4  -4   91.12    3.35
  -2  -4  -4   92.77    2.98
  -2  -4  -4   92.19    2.98
   2   4   4   91.51    3.29
   2   4   4   90.09    3.27
   2   4   4   88.00    3.36
   2   4   4   95.26    3.45
   2   4   4   84.28    3.23
   2   4   4   94.69    3.22
   2   4   4   92.01    3.37
   2   4   4   90.43    3.08
   2   4   4   92.92    3.34
   2   4   4   90.63    3.32
   2   4   4   91.43    4.13
   2   4   4   88.90    3.35
   2   4   4   90.19    3.20
   2   4   4   85.91    3.28
  -3  -4  -4   12.99    0.91
  -3  -4  -4   11.07    0.64
  -3  -4  -4   11.44    1.35
  -3  -4  -4   12.63    0.94
  -3  -4  -4   11.43    0.73
  -3  -4  -4   12.75    0.96
  -3  -4  -4   11.71    0.80
  -3  -4  -4   11.46    0.94
  -3  -4  -4   12.91    1.01
  -3  -4  -4   12.06    0.68
  -3  -4  -4    9.99    0.99
  -3  -4  -4   12.37    0.70
  -3  -4  -4   12.75    1.37
  -3  -4  -4   12.93    0.95
  -3  -4  -4   12.20    0.87
  -3  -4  -4   12.88    0.91
   3   4   4   11.23    0.92
   3   4   4   11.99    0.72
   3   4   4   14.74    1.50
   3   4   4   13.59    1.00
   3   4   4   13.80    1.01
   3   4   4   12.83    0.93
   3   4   4   12.56    0.97
   3   4   4   11.61    0.84
   3   4   4   11.28    0.91
   3   4   4   11.23    0.87
   3   4   4   11.94    0.90
  -4  -4  -4   69.75    3.07
  -4  -4  -4   79.09    2.65
  -4  -4  -4   75.64    3.13
  -4  -4  -4   76.35    3.04
  -4  -4  -4   70.89    3.16
  -4  -4  -4   74.78    2.87
  -4  -4  -4   77.97    3.01
  -4  -4  -4   77.51    2.74
  -4  -4  -4   74.14    2.63
  -4  -4  -4   78.02    3.00
  -4  -4  -4   70.10    3.16
  -4  -4  -4   71.26    3.95
  -4  -4  -4   77.49    3.13
  -4  -4  -4   75.37    3.10
   4   4   4   74.48    3.14
   4   4   4   81.14    3.16
   4   4   4   73.16    3.04
   4   4   4   72.77    3.02
   4   4   4   71.36    3.07
   4   4   4   80.77    4.10
   4   4   4   79.36    2.99
   4   4   4   77.88    2.93
  -5  -4  -4    6.08    0.75
  -5  -4  -4    6.67    0.99
  -5  -4  -4    5.08    0.71
  -5  -4  -4    4.89    0.75
  -5  -4  -4    5.77    1.09
  -5  -4  -4    4.33    1.23
  -5  -4  -4    5.09    0.81
  -5  -4  -4    5.48    0.83
  -5  -4  -4    6.07    0.80
  -5  -4  -4    7.18    0.96
  -5  -4  -4    6.11    0.90
  -5  -4  -4    5.91    0.55
   5   4   4    5.19    0.85
   5   4   4    4.68    0.85
   5   4   4    5.49    0.85
   5   4   4    5.13    0.89
   5   4   4    7.20    0.84
   5   4   4    5.30    0.96
  -6  -4  -4    3.59    0.86
  -6  -4  -4    3.06    0.95
  -6  -4  -4    3.71    0.84
  -6  -4  -4    4.60    1.02
  -6  -4  -4    2.56    0.60
  -6  -4  -4    3.45    0.75
  -6  -4  -4    3.84    0.55
   6   4   4    2.52    0.73
   6   4   4    5.42    1.14
   6   4   4    3.35    0.88
   6   4   4    3.52    0.84
   6   4   4    2.97    0.50
   6   4   4    3.31    0.81
   6   4   4    2.67    0.78
  -7  -4  -4    1.79    0.61
  -7  -4  -4    1.22    0.40
  -7  -4  -4    1.89    0.83
  -7  -4  -4    1.31    0.71
   7   4   4    2.50    0.94
   7   4   4    0.38    0.75
   7   4   4    0.88    0.71
   7   4   4    1.59    0.43
   7   4   4    2.60    0.79
   5  -5  -4    7.54    0.95
   5  -5  -4    7.97    1.43
   5  -5  -4    8.23    1.97
  -5   5   4    7.95    1.17
  -5   5   4    7.87    1.32
  -5   5   4    6.56    0.99
  -5   5   4    8.22    1.12
   4  -5  -4   21.65    1.82
   4  -5  -4   21.36    1.33
   4  -5  -4   21.62    2.43
   4  -5  -4   26.53    3.03
   4  -5  -4   24.97    1.65
   4  -5  -4   25.91    1.90
  -4   5   4   21.64    1.51
  -4   5   4   21.57    1.39
  -4   5   4   21.83    1.64
   3  -5  -4   23.72    1.31
   3  -5  -4   28.04    1.84
   3  -5  -4   25.53    2.63
   3  -5  -4   26.91    1.75
   3  -5  -4   24.22    1.57
   3  -5  -4   24.37    1.72
   3  -5  -4   25.10    2.40
  -3   5   4   29.18    1.76
  -3   5   4   25.49    1.51
  -3   5   4   25.43    1.58
  -3   5   4   24.96    1.54
  -3   5   4   23.70    1.57
  -3   5   4   24.29    1.36
  -3   5   4   24.03    1.68
  -3   5   4   26.87    1.79
   2  -5  -4   19.82    1.30
   2  -5  -4   20.33    1.29
   2  -5  -4   20.29    1.29
   2  -5  -4   22.83    2.12
   2  -5  -4   19.93    1.95
   2  -5  -4   21.56    1.48
   2  -5  -4   20.77    1.15
   2  -5  -4   23.41    1.46
   2  -5  -4   22.97    1.39
   2  -5  -4   23.92    1.48
   2  -5  -4   22.63    1.49
   2  -5  -4   20.07    1.32
  -2   5   4   24.77    1.49
  -2   5   4   21.43    1.17
  -2   5   4   21.73    1.41
  -2   5   4   19.55    1.30
  -2   5   4   19.66    1.40
  -2   5   4   19.94    1.29
  -2   5   4   22.08    1.29
  -2   5   4   23.28    1.27
   1  -5  -4   62.75    2.65
   1  -5  -4   62.60    2.56
   1  -5  -4   58.18    2.50
   1  -5  -4   62.85    3.00
   1  -5  -4   64.53    2.54
   1  -5  -4   62.19    2.45
   1  -5  -4   58.54    2.48
   1  -5  -4   63.02    2.46
   1  -5  -4   64.95    2.66
   1  -5  -4   63.27    3.36
   1  -5  -4   59.02    2.40
   1  -5  -4   61.81    2.59
   1  -5  -4   63.91    2.34
   1  -5  -4   62.51    2.26
  -1   5   4   58.14    2.55
  -1   5   4   62.44    2.56
  -1   5   4   64.03    2.47
  -1   5   4   61.12    2.39
  -1   5   4   61.69    2.56
  -1   5   4   63.06    2.34
  -1   5   4   63.69    2.51
  -1   5   4   57.95    2.43
  -1   5   4   63.47    2.56
  -1   5   4   62.64    2.41
  -1   5   4   61.89    2.46
  -1   5   4   60.00    2.45
  -1   5   4   61.11    2.61
   0  -5  -4   -0.01    0.23
   0  -5  -4    0.32    0.28
   0  -5  -4   -0.14    0.26
   0  -5  -4   -0.04    0.24
   0  -5  -4   -0.08    0.22
   0  -5  -4    0.35    0.26
   0  -5  -4    0.18    0.38
   0  -5  -4   -0.07    0.24
   0  -5  -4    0.12    0.23
   0  -5  -4    0.06    0.24
   0  -5  -4    0.65    0.29
   0  -5  -4   -0.05    0.31
   0  -5  -4    0.09    0.24
   0   5   4    0.23    0.27
   0   5   4    0.57    0.28
   0   5   4    0.22    0.25
   0   5   4    0.38    0.29
   0   5   4    0.22    0.26
   0   5   4    0.30    0.27
   0   5   4    0.07    0.26
   0   5   4    0.28    0.22
   0   5   4    0.05    0.21
   0   5   4    0.02    0.24
   0   5   4   -0.18    0.23
  -1  -5  -4   81.30    2.96
  -1  -5  -4   86.35    2.98
  -1  -5  -4   78.73    2.99
  -1  -5  -4   81.48    3.03
  -1  -5  -4   79.60    3.74
  -1  -5  -4   78.80    2.89
  -1  -5  -4   78.05    2.94
  -1  -5  -4   76.08    2.86
  -1  -5  -4   76.66    2.97
  -1  -5  -4   83.26    3.07
  -1  -5  -4   80.68    3.00
  -1  -5  -4   80.17    2.75
   1   5   4   82.12    3.00
   1   5   4   73.47    3.87
   1   5   4   79.58    2.90
   1   5   4   81.50    2.80
   1   5   4   79.94    2.94
   1   5   4   78.85    2.93
   1   5   4   79.56    3.04
   1   5   4   80.40    2.87
   1   5   4   76.69    2.88
   1   5   4   88.60    3.55
   1   5   4   81.45    3.04
   1   5   4   75.76    2.68
   1   5   4   78.79    3.06
   1   5   4   79.42    2.86
  -2  -5  -4   80.30    2.98
  -2  -5  -4   83.35    3.01
  -2  -5  -4   82.20    2.94
  -2  -5  -4   84.40    3.14
  -2  -5  -4   85.81    3.11
  -2  -5  -4   78.06    2.66
  -2  -5  -4   79.32    3.83
  -2  -5  -4   80.36    3.09
  -2  -5  -4   75.06    3.02
  -2  -5  -4   78.72    3.01
  -2  -5  -4   81.40    3.10
  -2  -5  -4   82.02    3.10
   2   5   4   86.08    2.85
   2   5   4   79.33    3.01
   2   5   4   79.73    3.07
   2   5   4   82.02    3.14
   2   5   4   78.19    2.92
   2   5   4   86.36    3.23
   2   5   4   79.70    3.00
   2   5   4   80.32    2.96
   2   5   4   78.64    3.08
   2   5   4   80.10    3.03
   2   5   4   76.94    2.93
   2   5   4   82.89    3.08
  -3  -5  -4   39.61    1.99
  -3  -5  -4   40.74    1.98
  -3  -5  -4   42.49    1.89
  -3  -5  -4   44.36    2.03
  -3  -5  -4   41.09    1.97
  -3  -5  -4   39.05    1.97
  -3  -5  -4   38.72    1.84
  -3  -5  -4   40.56    1.50
  -3  -5  -4   39.96    1.61
  -3  -5  -4   38.51    1.89
  -3  -5  -4   41.33    1.80
  -3  -5  -4   38.72    2.62
  -3  -5  -4   39.69    1.93
  -3  -5  -4   40.96    1.71
   3   5   4   40.23    1.96
   3   5   4   43.26    1.93
   3   5   4   46.07    1.71
   3   5   4   40.58    1.99
   3   5   4   40.14    1.81
   3   5   4   41.48    1.97
   3   5   4   40.26    1.88
   3   5   4   39.30    1.93
   3   5   4   39.74    1.88
  -4  -5  -4  150.79    5.03
  -4  -5  -4  152.70    4.74
  -4  -5  -4  144.48    5.38
  -4  -5  -4  151.58    5.25
  -4  -5  -4  148.31    5.34
  -4  -5  -4  154.55    5.29
  -4  -5  -4  147.74    5.40
  -4  -5  -4  146.03    6.49
  -4  -5  -4  150.96    5.15
  -4  -5  -4  149.49    5.38
  -4  -5  -4  148.69    5.02
  -4  -5  -4  138.49    5.39
   4   5   4  147.89    5.36
   4   5   4  156.87    5.37
   4   5   4  147.34    4.90
   4   5   4  151.67    5.39
   4   5   4  145.78    5.43
   4   5   4  149.62    5.25
   4   5   4  153.16    5.19
  -5  -5  -4   20.36    1.39
  -5  -5  -4   13.18    1.37
  -5  -5  -4   18.82    0.95
  -5  -5  -4   15.79    1.48
  -5  -5  -4   17.41    1.31
  -5  -5  -4   17.74    1.40
  -5  -5  -4   17.40    1.34
  -5  -5  -4   16.77    1.39
   5   5   4   16.83    1.31
   5   5   4   17.66    1.44
   5   5   4   20.31    1.53
   5   5   4   18.48    1.46
   5   5   4   15.90    1.37
   5   5   4   15.76    1.36
  -6  -5  -4   10.37    1.19
  -6  -5  -4   10.56    0.75
  -6  -5  -4    8.76    1.09
  -6  -5  -4   12.18    1.47
  -6  -5  -4    8.50    1.27
   6   5   4   10.58    1.29
   6   5   4   10.48    1.29
   6   5   4   12.46    1.38
   6   5   4   11.14    1.46
   6   5   4    9.00    1.23
   6   5   4   12.25    1.24
  -7  -5  -4    6.19    0.67
  -7  -5  -4    6.61    1.13
   7   5   4    6.91    0.78
   7   5   4    7.01    1.49
   7   5   4    6.38    1.36
   7   5   4    5.06    1.20
   7   5   4    6.37    1.31
   4  -6  -4    2.36    0.83
   4  -6  -4    2.94    1.02
   4  -6  -4    1.84    1.13
  -4   6   4    3.55    0.79
  -4   6   4    3.27    0.85
  -4   6   4    1.74    0.57
  -4   6   4    2.14    0.68
   3  -6  -4    3.20    1.17
   3  -6  -4    2.44    0.79
   3  -6  -4    3.86    0.95
   3  -6  -4    3.68    0.71
  -3   6   4    3.16    0.68
  -3   6   4    1.90    0.64
  -3   6   4    3.79    0.67
  -3   6   4    2.93    0.68
   2  -6  -4   39.95    2.76
   2  -6  -4   36.96    1.87
   2  -6  -4   37.98    2.00
   2  -6  -4   39.88    2.11
   2  -6  -4   41.18    2.15
  -2   6   4   41.54    1.79
  -2   6   4   41.23    2.06
  -2   6   4   38.79    1.91
  -2   6   4   41.04    2.07
  -2   6   4   34.61    1.81
  -2   6   4   39.50    1.86
   1  -6  -4   51.82    2.20
   1  -6  -4   50.01    2.91
   1  -6  -4   44.76    2.05
   1  -6  -4   48.13    2.25
   1  -6  -4   44.48    2.08
   1  -6  -4   49.54    2.15
   1  -6  -4   49.94    2.26
  -1   6   4   47.47    2.19
  -1   6   4   47.05    1.95
  -1   6   4   47.60    2.00
  -1   6   4   47.45    2.19
  -1   6   4   46.09    2.05
  -1   6   4   48.59    2.02
  -1   6   4   49.44    2.14
  -1   6   4   44.46    2.20
  -1   6   4   50.40    2.24
   0  -6  -4    0.77    0.36
   0  -6  -4    1.15    0.63
   0  -6  -4    0.98    0.43
   0  -6  -4    0.92    0.40
   0  -6  -4    1.31    0.38
   0  -6  -4    0.91    0.36
   0  -6  -4    0.77    0.36
   0  -6  -4    0.74    0.35
   0   6   4    1.02    0.42
   0   6   4    1.12    0.41
   0   6   4    0.41    0.31
   0   6   4    1.03    0.39
   0   6   4    1.04    0.42
   0   6   4    0.79    0.35
   0   6   4    0.90    0.33
   0   6   4    0.53    0.31
   0   6   4    0.77    0.37
   0   6   4    0.84    0.31
  -1  -6  -4    1.05    0.39
  -1  -6  -4    0.58    0.32
  -1  -6  -4    1.63    0.46
  -1  -6  -4    0.63    0.35
  -1  -6  -4    1.40    0.41
  -1  -6  -4    1.27    0.42
  -1  -6  -4    0.65    0.31
  -1  -6  -4    1.31    0.38
  -1  -6  -4    1.40    0.62
   1   6   4    0.83    0.35
   1   6   4    1.50    0.43
   1   6   4    1.18    0.43
   1   6   4    1.19    0.35
   1   6   4    1.37    0.43
   1   6   4    1.71    0.47
   1   6   4    0.91    0.34
   1   6   4    0.63    0.39
   1   6   4    1.12    0.36
   1   6   4    0.60    0.30
  -2  -6  -4   15.87    0.98
  -2  -6  -4   18.73    1.22
  -2  -6  -4   17.05    1.15
  -2  -6  -4   20.11    1.75
  -2  -6  -4   17.82    1.14
  -2  -6  -4   18.72    1.00
  -2  -6  -4   18.98    1.21
  -2  -6  -4   17.95    1.21
  -2  -6  -4   16.12    1.14
  -2  -6  -4   16.95    1.08
  -2  -6  -4   19.10    1.07
  -2  -6  -4   17.55    1.09
   2   6   4   18.05    1.28
   2   6   4   19.06    1.19
   2   6   4   17.77    1.18
   2   6   4   17.20    1.18
   2   6   4   19.93    1.25
   2   6   4   19.08    1.20
   2   6   4   19.13    1.17
   2   6   4   19.24    1.01
   2   6   4   18.17    1.14
   2   6   4   19.54    1.11
   2   6   4   17.54    1.08
  -3  -6  -4  136.30    4.72
  -3  -6  -4  134.62    4.81
  -3  -6  -4  132.95    4.55
  -3  -6  -4  128.55    4.76
  -3  -6  -4  137.93    4.90
  -3  -6  -4  139.86    4.94
  -3  -6  -4  130.55    4.86
  -3  -6  -4  134.64    4.86
  -3  -6  -4  125.92    5.78
  -3  -6  -4  138.15    4.74
  -3  -6  -4  140.26    4.69
   3   6   4  131.05    4.84
   3   6   4  143.44    4.73
   3   6   4  125.47    4.87
   3   6   4  133.61    4.86
   3   6   4  136.79    4.87
   3   6   4  137.50    4.50
   3   6   4  143.62    4.81
  -4  -6  -4   28.32    1.67
  -4  -6  -4   26.06    1.64
  -4  -6  -4   27.74    2.41
  -4  -6  -4   28.41    1.48
  -4  -6  -4   26.67    1.71
  -4  -6  -4   25.30    1.54
  -4  -6  -4   27.11    1.57
  -4  -6  -4   30.30    1.79
   4   6   4   26.64    1.57
   4   6   4   29.50    1.76
   4   6   4   26.24    1.67
   4   6   4   26.72    1.35
   4   6   4   28.44    1.69
   4   6   4   23.95    1.66
   4   6   4   27.45    1.70
  -5  -6  -4   15.62    1.23
  -5  -6  -4   15.13    1.28
  -5  -6  -4   13.86    1.22
  -5  -6  -4   15.69    1.38
  -5  -6  -4   15.15    1.40
  -5  -6  -4   17.81    1.47
   5   6   4   13.93    1.36
   5   6   4   14.84    1.27
   5   6   4   10.91    1.47
   5   6   4   13.62    1.37
   5   6   4   15.54    1.41
  -6  -6  -4    0.38    0.70
  -6  -6  -4    0.87    0.60
  -6  -6  -4    1.18    0.73
   6   6   4    1.00    0.74
   6   6   4    0.24    0.55
   6   6   4    1.82    0.76
   4  -7  -4    1.49    0.83
   4  -7  -4    1.92    1.41
   4  -7  -4    1.09    0.74
  -4   7   4    0.30    0.49
  -4   7   4    0.76    0.54
  -4   7   4    1.23    0.64
   3  -7  -4    7.72    1.50
   3  -7  -4    8.16    0.89
   3  -7  -4    9.38    1.19
   3  -7  -4    8.67    1.24
  -3   7   4    7.35    0.92
  -3   7   4    7.49    0.88
  -3   7   4    6.68    0.90
   2  -7  -4    6.46    0.96
   2  -7  -4    9.25    1.43
   2  -7  -4    7.56    0.80
   2  -7  -4    8.84    1.08
  -2   7   4    7.55    0.83
  -2   7   4    7.01    0.83
  -2   7   4    9.26    0.91
   1  -7  -4   41.81    1.98
   1  -7  -4   36.62    1.80
   1  -7  -4   43.36    2.13
   1  -7  -4   43.72    2.76
   1  -7  -4   45.48    1.99
  -1   7   4   40.77    1.92
  -1   7   4   37.14    1.99
  -1   7   4   41.60    1.83
  -1   7   4   43.99    1.91
   0  -7  -4   23.97    1.27
   0  -7  -4   22.53    1.34
   0  -7  -4   23.90    1.42
   0  -7  -4   23.19    1.31
   0  -7  -4   21.68    1.86
   0  -7  -4   24.00    1.30
   0  -7  -4   24.05    1.46
   0   7   4   23.61    1.38
   0   7   4   23.26    1.27
   0   7   4   23.25    1.46
   0   7   4   21.34    1.18
   0   7   4   23.33    1.32
   0   7   4   24.82    1.30
  -1  -7  -4   26.97    1.45
  -1  -7  -4   24.10    1.41
  -1  -7  -4   24.60    1.46
  -1  -7  -4   23.46    1.32
  -1  -7  -4   25.37    1.98
  -1  -7  -4   22.57    1.29
  -1  -7  -4   26.08    1.33
  -1  -7  -4   25.97    1.35
   1   7   4   25.22    1.52
   1   7   4   25.77    1.33
   1   7   4   23.26    1.38
   1   7   4   23.36    1.20
   1   7   4   25.89    1.37
   1   7   4   24.08    1.37
  -2  -7  -4    7.77    0.85
  -2  -7  -4    8.80    0.79
  -2  -7  -4    8.10    0.81
  -2  -7  -4    8.50    0.79
  -2  -7  -4    9.60    1.33
  -2  -7  -4    9.04    0.92
  -2  -7  -4    8.60    0.93
  -2  -7  -4    7.53    0.83
   2   7   4    7.59    0.79
   2   7   4    8.40    0.99
   2   7   4    8.74    0.88
   2   7   4    7.07    0.83
   2   7   4    9.60    0.95
   2   7   4    8.02    0.72
  -3  -7  -4   14.07    1.13
  -3  -7  -4   13.30    1.00
  -3  -7  -4   13.57    1.03
  -3  -7  -4   14.25    1.22
  -3  -7  -4   13.25    1.67
  -3  -7  -4   11.58    0.98
   3   7   4   11.99    1.14
   3   7   4   13.04    1.05
   3   7   4   14.91    1.22
   3   7   4   12.68    0.90
  -4  -7  -4    5.93    1.38
  -4  -7  -4    5.97    1.00
  -4  -7  -4    5.28    0.78
  -4  -7  -4    5.37    0.89
  -4  -7  -4    5.70    0.80
  -4  -7  -4    5.52    0.81
   4   7   4    5.86    1.04
   4   7   4    4.83    0.92
   4   7   4    6.88    0.93
   4   7   4    5.77    0.69
  -5  -7  -4   17.46    1.59
  -5  -7  -4   18.65    1.43
   5   7   4   14.06    1.49
   5   7   4   17.53    1.58
   5   7   4   18.01    1.18
   5   7   4   17.28    1.45
  -6  -7  -4    9.58    1.22
   6   7   4    6.08    1.38
   6   7   4    6.12    1.42
   6   7   4    7.79    1.25
   3  -8  -4    1.57    0.74
   3  -8  -4    1.12    0.63
  -3   8   4    0.64    0.49
  -3   8   4    1.79    0.64
   2  -8  -4   10.56    1.55
   2  -8  -4   11.65    1.27
   2  -8  -4   11.65    1.08
  -2   8   4   10.24    1.25
  -2   8   4   10.78    1.02
  -2   8   4    9.21    0.96
   1  -8  -4   20.65    1.21
   1  -8  -4   18.23    1.79
   1  -8  -4   16.49    1.36
  -1   8   4   17.08    1.15
  -1   8   4   18.04    1.21
  -1   8   4   15.59    1.17
   0  -8  -4   10.55    1.05
   0  -8  -4   11.89    1.07
   0  -8  -4   11.24    1.11
   0  -8  -4   13.68    1.53
   0   8   4   12.35    1.03
   0   8   4    9.23    0.92
   0   8   4   11.78    0.94
  -1  -8  -4   15.83    1.23
  -1  -8  -4   14.52    1.21
  -1  -8  -4   14.80    1.01
  -1  -8  -4   17.95    1.70
   1   8   4   14.87    1.06
   1   8   4   14.05    1.13
   1   8   4   18.21    1.20
  -2  -8  -4    3.30    0.71
  -2  -8  -4    3.27    1.11
  -2  -8  -4    4.13    0.69
  -2  -8  -4    2.96    0.78
  -2  -8  -4    3.71    0.64
  -2  -8  -4    3.39    0.65
   2   8   4    3.98    0.76
   2   8   4    4.32    0.90
   2   8   4    4.17    0.72
  -3  -8  -4   15.00    1.19
  -3  -8  -4   17.65    1.15
  -3  -8  -4   16.19    1.89
  -3  -8  -4   15.54    1.39
  -3  -8  -4   15.98    1.15
  -3  -8  -4   14.49    1.19
   3   8   4   17.96    1.40
   3   8   4   15.35    1.21
   3   8   4   14.76    1.30
  -4  -8  -4   16.94    1.53
  -4  -8  -4   18.10    1.33
   4   8   4   21.14    1.60
   4   8   4   15.44    1.53
   4   8   4   19.77    1.46
  -5  -8  -4   39.28    2.44
  -5  -8  -4   37.64    2.11
   5   8   4   39.03    2.42
   5   8   4   39.56    2.27
   5   8   4   36.89    2.37
   5   8   4   34.84    1.84
   2  -9  -4    0.41    0.58
  -2   9   4    0.57    0.49
  -2   9   4   -0.20    0.42
   1  -9  -4    2.64    1.37
   1  -9  -4    3.60    0.91
  -1   9   4    1.53    0.54
  -1   9   4    1.99    0.57
   0  -9  -4   19.40    1.82
   0  -9  -4   21.58    1.48
   0   9   4   19.25    1.28
   0   9   4   16.91    1.27
  -1  -9  -4   14.57    1.27
  -1  -9  -4   11.02    1.51
   1   9   4   13.55    1.14
   1   9   4   13.79    1.10
  -2  -9  -4    2.73    0.75
  -2  -9  -4    3.34    1.17
   2   9   4    2.01    0.58
   2   9   4    2.89    0.71
  -3  -9  -4    2.99    0.69
  -3  -9  -4    2.04    0.71
  -3  -9  -4    3.72    0.76
   3   9   4    3.17    0.80
   3   9   4    2.80    0.71
  -1  -5   5    5.83    1.61
   0   5  -5    7.59    1.61
   0   5  -5    4.69    0.86
   0  -5   5    7.92    0.88
   0  -5   5    9.03    1.53
  -1   5  -5    6.53    1.39
   1  -5   5    8.38    1.48
  -2   5  -5    5.45    1.29
   2  -5   5    5.63    1.30
  -3   5  -5   15.71    1.82
  -4   5  -5    2.77    1.16
   2   4  -5    6.73    2.04
   2   4  -5    3.78    0.84
   2   4  -5    5.63    1.11
  -2  -4   5    6.33    1.53
  -2  -4   5    5.69    1.04
   1   4  -5    0.09    0.89
   1   4  -5    0.71    0.55
   1   4  -5    0.48    0.47
  -1  -4   5   -0.24    0.68
  -1  -4   5    0.53    0.43
   0   4  -5    1.87    0.92
   0   4  -5    0.89    0.41
   0   4  -5    1.49    0.49
   0  -4   5    1.24    0.46
   0  -4   5    1.65    0.57
   0  -4   5    1.58    0.86
  -1   4  -5    9.34    1.38
  -1   4  -5    9.41    0.80
   1  -4   5    9.10    1.36
  -2   4  -5    0.95    0.67
   2  -4   5    2.73    0.86
  -3   4  -5    3.65    1.09
   3  -4   5    4.87    1.10
  -4   4  -5    0.84    0.39
  -4   4  -5    1.34    0.77
   4  -4   5    1.89    0.59
  -5   4  -5    9.12    0.91
  -5   4  -5    7.77    0.89
   5  -4   5    7.74    0.99
   3   3  -5   12.43    2.71
   3   3  -5   13.00    1.57
   3   3  -5   13.93    1.46
   3   3  -5   12.24    1.46
  -3  -3   5   14.27    1.44
  -3  -3   5   13.46    1.22
  -3  -3   5   15.39    1.93
   2   3  -5    3.09    0.69
   2   3  -5    4.22    1.65
   2   3  -5    3.89    0.90
   2   3  -5    2.02    0.72
  -2  -3   5    3.87    0.69
  -2  -3   5    3.71    1.14
  -2  -3   5    5.55    0.92
  -2  -3   5    3.47    0.71
  -2  -3   5    3.61    0.74
   1   3  -5    1.67    1.04
   1   3  -5    2.24    0.64
   1   3  -5    1.70    0.45
   1   3  -5    3.13    0.68
  -1  -3   5    2.68    0.54
  -1  -3   5    2.14    0.60
  -1  -3   5    2.69    0.60
  -1  -3   5    1.34    0.59
  -1  -3   5    1.51    0.74
   0   3  -5    5.41    0.73
   0   3  -5    4.45    1.16
   0   3  -5    6.18    0.69
   0  -3   5    6.65    0.75
   0  -3   5    6.53    0.70
   0  -3   5    4.71    1.02
   0  -3   5    5.26    0.80
  -1   3  -5    3.81    0.97
  -1   3  -5    4.38    0.59
  -1   3  -5    5.37    0.57
   1  -3   5    5.14    0.97
   1  -3   5    3.55    0.55
   1  -3   5    5.39    0.70
  -2   3  -5    9.25    1.25
  -2   3  -5    8.33    0.69
   2  -3   5    9.48    0.75
   2  -3   5    9.73    1.16
   2  -3   5   10.48    0.83
  -3   3  -5   16.48    1.59
  -3   3  -5   15.41    0.93
   3  -3   5   14.66    0.97
   3  -3   5   15.39    1.43
   3  -3   5   12.69    0.94
   3  -3   5   17.43    1.07
  -4   3  -5   28.60    1.42
  -4   3  -5   28.00    1.40
   4  -3   5   28.63    1.49
   4  -3   5   25.12    1.27
   4  -3   5   28.71    1.54
  -5   3  -5    9.75    0.89
  -5   3  -5    7.70    0.85
   5  -3   5    8.21    0.97
  -6   3  -5    2.20    0.60
  -6   3  -5    2.47    0.61
   6  -3   5    1.67    0.64
   4   2  -5    6.05    0.83
   4   2  -5    3.99    2.00
   4   2  -5    5.31    1.07
  -4  -2   5    5.94    1.58
   3   2  -5    7.76    2.19
   3   2  -5    4.78    0.68
   3   2  -5    9.21    1.22
   3   2  -5    5.92    0.93
   3   2  -5    5.43    1.06
   3   2  -5    6.86    1.20
  -3  -2   5    5.92    1.09
  -3  -2   5    8.01    1.02
  -3  -2   5    4.67    1.30
   2   2  -5    6.79    1.04
   2   2  -5    6.59    0.84
   2   2  -5    6.27    1.70
   2   2  -5    6.39    0.61
   2   2  -5    8.37    0.97
   2   2  -5    6.10    0.93
  -2  -2   5    7.34    0.97
  -2  -2   5    7.95    1.24
  -2  -2   5    7.28    0.87
  -2  -2   5    7.81    0.93
  -2  -2   5    7.28    0.87
   1   2  -5   67.82    2.61
   1   2  -5   59.86    2.68
   1   2  -5   68.64    2.42
   1   2  -5   58.43    2.40
   1   2  -5   63.43    2.48
   1   2  -5   60.90    3.49
  -1  -2   5   56.94    2.57
  -1  -2   5   60.59    2.46
  -1  -2   5   61.16    2.70
  -1  -2   5   59.05    2.42
  -1  -2   5   60.87    2.40
  -1  -2   5   64.80    3.16
  -1  -2   5   61.79    2.61
   0   2  -5    2.59    0.49
   0   2  -5    2.36    0.56
   0   2  -5    3.15    0.62
   0   2  -5    2.81    0.83
   0   2  -5    2.88    0.89
   0   2  -5    2.15    0.39
   0   2  -5    2.14    0.87
   0   2  -5    2.98    0.55
   0  -2   5    2.62    0.48
   0  -2   5    2.40    0.54
   0  -2   5    2.79    0.49
   0  -2   5    2.36    0.47
   0  -2   5    2.83    0.51
   0  -2   5    1.87    0.51
   0  -2   5    2.80    0.54
   0  -2   5    2.44    0.41
   0  -2   5    1.76    0.66
  -1   2  -5   19.48    1.11
  -1   2  -5   17.47    1.00
  -1   2  -5   18.36    1.05
  -1   2  -5   19.55    0.97
  -1   2  -5   19.03    0.98
  -1   2  -5   17.28    0.98
  -1   2  -5   20.26    1.61
  -1   2  -5   17.71    1.10
  -1   2  -5   22.33    1.60
  -1   2  -5   18.32    1.11
   1  -2   5   22.96    1.20
   1  -2   5   20.00    1.10
   1  -2   5   17.33    1.41
   1  -2   5   17.26    0.99
   1  -2   5   20.73    1.07
  -2   2  -5   17.21    1.03
  -2   2  -5   16.90    0.97
  -2   2  -5   18.78    0.96
  -2   2  -5   17.34    1.40
  -2   2  -5   19.35    0.93
  -2   2  -5   14.98    0.95
  -2   2  -5   17.59    1.52
  -2   2  -5   17.71    1.00
  -2   2  -5   16.88    0.94
  -2   2  -5   17.57    0.90
   2  -2   5   18.24    0.96
   2  -2   5   17.56    1.36
   2  -2   5   16.89    1.36
   2  -2   5   19.05    1.04
   2  -2   5   17.28    1.06
  -3   2  -5    5.57    0.58
  -3   2  -5    6.96    0.65
  -3   2  -5    6.29    0.63
  -3   2  -5    5.41    0.58
  -3   2  -5    5.63    0.98
   3  -2   5    7.60    0.78
   3  -2   5    5.59    0.66
   3  -2   5    7.76    1.00
   3  -2   5    7.04    0.62
   3  -2   5    6.58    0.94
  -4   2  -5   23.19    1.81
  -4   2  -5   28.73    1.43
  -4   2  -5   26.27    1.35
   4  -2   5   26.86    1.48
   4  -2   5   26.65    1.49
   4  -2   5   28.18    1.42
   4  -2   5   29.47    1.98
  -5   2  -5   19.28    1.27
  -5   2  -5   19.32    1.25
  -5   2  -5   18.79    1.03
   5  -2   5   20.37    1.39
   5  -2   5   19.48    1.45
  -6   2  -5    3.41    0.66
  -6   2  -5    2.13    0.56
  -6   2  -5    2.24    0.63
   6  -2   5    2.47    0.77
   6  -2   5    2.65    0.59
   6  -2   5    3.15    0.68
   4   1  -5    6.62    0.81
   4   1  -5    6.66    2.20
   4   1  -5    8.99    1.31
   4   1  -5    8.62    1.47
   4   1  -5    7.51    1.35
   4   1  -5    7.94    1.10
  -4  -1   5    7.35    1.16
   3   1  -5   22.72    1.68
   3   1  -5   23.32    1.51
   3   1  -5   22.49    1.83
   3   1  -5   23.83    1.68
   3   1  -5   28.14    2.99
   3   1  -5   24.34    1.27
  -3  -1   5   22.28    1.65
  -3  -1   5   21.23    1.65
  -3  -1   5   25.48    1.61
  -3  -1   5   20.90    1.58
   2   1  -5   44.36    2.16
   2   1  -5   43.79    2.04
   2   1  -5   43.26    2.83
   2   1  -5   40.34    1.74
   2   1  -5   45.74    3.21
   2   1  -5   39.20    2.25
   2   1  -5   42.59    2.08
  -2  -1   5   48.93    2.27
  -2  -1   5   45.71    2.24
  -2  -1   5   44.57    2.54
  -2  -1   5   43.34    2.11
  -2  -1   5   42.73    2.26
  -2  -1   5   42.08    2.14
  -2  -1   5   46.35    2.20
   1   1  -5    1.51    0.33
   1   1  -5    0.76    0.34
   1   1  -5    1.44    0.48
   1   1  -5    1.62    0.80
   1   1  -5    1.58    0.48
   1   1  -5    2.17    0.53
   1   1  -5    1.41    0.53
   1   1  -5    1.12    0.52
   1   1  -5    3.23    0.99
  -1  -1   5    2.09    0.54
  -1  -1   5    1.69    0.50
  -1  -1   5    1.61    0.43
  -1  -1   5    1.25    0.48
  -1  -1   5    1.73    0.48
  -1  -1   5    0.97    0.41
  -1  -1   5    1.33    0.60
  -1  -1   5    1.80    0.48
  -1  -1   5    1.28    0.47
   0   1  -5    1.46    0.35
   0   1  -5    2.00    0.48
   0   1  -5    1.08    0.33
   0   1  -5    1.34    0.25
   0   1  -5    0.93    0.33
   0   1  -5    1.34    0.43
   0   1  -5    1.72    0.47
   0   1  -5    1.57    0.43
   0   1  -5    1.52    0.36
   0   1  -5    1.15    0.64
   0   1  -5    0.85    0.34
   0   1  -5    1.25    0.63
   0  -1   5    1.39    0.45
   0  -1   5    0.98    0.32
   0  -1   5    1.83    0.44
   0  -1   5    1.29    0.53
   0  -1   5    1.53    0.43
   0  -1   5    1.18    0.40
   0  -1   5    1.42    0.36
   0  -1   5    1.40    0.39
   0  -1   5    1.68    0.42
   0  -1   5    0.65    0.27
   0  -1   5    1.96    0.45
  -1   1  -5   -0.27    0.19
  -1   1  -5    0.90    0.50
  -1   1  -5    0.23    0.39
  -1   1  -5    0.05    0.25
  -1   1  -5    0.37    0.22
  -1   1  -5    0.30    0.26
  -1   1  -5    0.09    0.22
  -1   1  -5    0.64    0.30
  -1   1  -5    0.21    0.17
  -1   1  -5    0.26    0.25
  -1   1  -5    0.29    0.21
  -1   1  -5    0.27    0.25
   1  -1   5    0.30    0.25
   1  -1   5    0.32    0.30
   1  -1   5    0.57    0.29
   1  -1   5    0.38    0.27
   1  -1   5    0.23    0.21
   1  -1   5    0.28    0.40
   1  -1   5    0.44    0.25
   1  -1   5    0.75    0.44
   1  -1   5    0.31    0.23
   1  -1   5    0.23    0.26
   1  -1   5    0.02    0.20
   1  -1   5    0.54    0.26
  -2   1  -5   26.27    1.39
  -2   1  -5   32.67    1.45
  -2   1  -5   29.94    1.90
  -2   1  -5   27.07    1.30
  -2   1  -5   28.20    1.36
  -2   1  -5   29.61    1.29
  -2   1  -5   30.37    1.39
  -2   1  -5   30.49    1.39
  -2   1  -5   29.99    1.31
  -2   1  -5   30.76    1.92
  -2   1  -5   31.40    1.35
   2  -1   5   30.49    1.41
   2  -1   5   29.78    1.39
   2  -1   5   31.37    1.27
   2  -1   5   30.73    1.66
   2  -1   5   30.55    1.25
   2  -1   5   31.76    1.49
   2  -1   5   29.25    1.27
   2  -1   5   29.92    1.26
   2  -1   5   30.68    1.94
  -3   1  -5    2.01    0.44
  -3   1  -5    1.54    0.39
  -3   1  -5    3.23    0.48
  -3   1  -5    2.05    0.49
  -3   1  -5    2.15    0.45
  -3   1  -5    1.40    0.39
  -3   1  -5    1.92    0.44
  -3   1  -5    2.13    0.33
  -3   1  -5    2.68    0.56
  -3   1  -5    2.69    0.46
  -3   1  -5    2.36    0.77
   3  -1   5    2.58    0.72
   3  -1   5    2.58    0.50
   3  -1   5    1.84    0.39
   3  -1   5    1.98    0.47
   3  -1   5    2.16    0.57
   3  -1   5    2.11    0.43
   3  -1   5    2.12    0.42
   3  -1   5    2.11    0.42
   3  -1   5    2.22    0.39
  -4   1  -5    2.50    0.54
  -4   1  -5    1.43    0.31
  -4   1  -5    2.62    0.90
  -4   1  -5    1.92    0.54
  -4   1  -5    1.74    0.52
  -4   1  -5    1.60    0.41
  -4   1  -5    2.38    0.55
  -4   1  -5    1.92    0.38
  -4   1  -5    1.78    0.44
   4  -1   5    2.41    0.86
   4  -1   5    2.46    0.51
   4  -1   5    1.58    0.51
   4  -1   5    2.81    0.51
   4  -1   5    1.67    0.41
   4  -1   5    1.71    0.50
   4  -1   5    1.37    0.38
   4  -1   5    1.41    0.39
   4  -1   5    2.57    0.45
   4  -1   5    2.90    0.57
  -5   1  -5   51.13    2.17
  -5   1  -5   49.39    1.89
  -5   1  -5   44.12    1.87
  -5   1  -5   48.29    2.20
  -5   1  -5   45.03    2.36
   5  -1   5   49.36    2.10
   5  -1   5   49.98    2.12
   5  -1   5   46.96    2.29
   5  -1   5   43.74    2.18
   5  -1   5   45.91    2.08
  -6   1  -5    8.43    0.77
  -6   1  -5    6.81    0.92
  -6   1  -5    8.01    1.37
  -6   1  -5    7.42    0.95
  -6   1  -5    8.08    0.90
   6  -1   5    9.57    1.01
   6  -1   5    9.74    0.96
   6  -1   5    9.13    1.04
   6  -1   5    8.36    1.14
  -7   1  -5    0.41    0.98
  -7   1  -5    0.25    0.58
  -7   1  -5    0.43    0.39
  -7   1  -5    0.19    0.51
  -7   1  -5    0.43    0.46
   7  -1   5   -0.36    0.46
   7  -1   5    1.13    0.63
   4   0  -5   14.96    2.27
   4   0  -5   14.65    2.78
   4   0  -5   13.48    1.29
   4   0  -5   14.34    1.55
   4   0  -5   13.01    1.42
   4   0  -5   12.44    1.63
   4   0  -5   14.43    1.02
  -4   0   5   14.16    1.40
  -4   0   5   14.12    1.79
   3   0  -5    6.50    0.68
   3   0  -5    6.82    1.19
   3   0  -5    6.85    1.01
   3   0  -5    5.48    1.73
   3   0  -5    7.85    1.08
   3   0  -5    6.90    1.10
   3   0  -5    5.86    0.87
   3   0  -5    6.56    1.16
  -3   0   5    7.86    1.02
  -3   0   5    8.02    1.04
  -3   0   5    8.01    1.06
  -3   0   5    6.74    1.05
  -3   0   5    7.15    1.01
   2   0  -5    3.13    0.47
   2   0  -5    3.99    0.67
   2   0  -5    4.13    1.27
   2   0  -5    3.32    0.82
   2   0  -5    3.63    0.77
   2   0  -5    4.45    0.74
   2   0  -5    4.54    0.90
   2   0  -5    3.47    0.74
  -2   0   5    5.32    0.79
  -2   0   5    3.86    0.80
  -2   0   5    3.76    0.73
  -2   0   5    3.49    0.73
  -2   0   5    3.30    0.76
  -2   0   5    3.29    0.72
  -2   0   5    3.69    0.72
   1   0  -5   61.10    2.53
   1   0  -5   63.21    3.30
   1   0  -5   65.15    2.79
   1   0  -5   61.00    2.65
   1   0  -5   57.79    2.42
   1   0  -5   58.69    2.60
   1   0  -5   63.06    2.68
   1   0  -5   66.49    2.23
   1   0  -5   58.69    2.63
   1   0  -5   65.82    2.47
   1   0  -5   63.59    3.55
   1   0  -5   61.57    2.39
  -1   0   5   61.49    2.51
  -1   0   5   67.75    2.89
  -1   0   5   58.84    2.59
  -1   0   5   59.04    2.62
  -1   0   5   61.20    2.51
  -1   0   5   63.27    2.52
  -1   0   5   62.91    2.68
  -1   0   5   64.00    2.60
  -1   0   5   59.90    2.24
  -1   0   5   61.98    2.60
  -1   0   5   61.67    2.60
  -1   0   5   65.23    2.60
   0   0  -5   12.14    0.63
   0   0  -5   12.40    0.92
   0   0  -5   10.46    0.76
   0   0  -5   10.41    0.78
   0   0  -5   11.95    0.92
   0   0  -5   11.15    0.88
   0   0  -5   12.30    0.95
   0   0  -5   11.79    0.70
   0   0  -5   10.63    0.89
   0   0  -5   11.17    0.90
   0   0  -5    9.60    1.22
   0   0  -5   12.86    1.23
   0   0  -5   12.19    0.82
   0   0  -5   12.11    0.85
   0   0   5   11.34    1.28
   0   0   5   10.89    0.85
   0   0   5   11.65    0.86
   0   0   5   12.61    1.02
   0   0   5   12.16    0.83
   0   0   5   12.83    0.89
   0   0   5   12.72    0.87
   0   0   5   10.62    0.84
   0   0   5   12.03    0.83
   0   0   5   12.14    0.90
   0   0   5   10.96    0.85
   0   0   5   11.94    0.93
   0   0   5   13.54    0.85
  -1   0  -5    0.42    0.40
  -1   0  -5    0.53    0.27
  -1   0  -5    0.24    0.27
  -1   0  -5    0.48    0.23
  -1   0  -5    0.00    0.19
  -1   0  -5    0.06    0.12
  -1   0  -5    0.00    0.37
  -1   0  -5    0.09    0.20
  -1   0  -5    0.30    0.23
  -1   0  -5    0.14    0.15
  -1   0  -5    0.19    0.33
  -1   0  -5    0.28    0.22
  -1   0  -5    0.14    0.22
  -1   0  -5    0.09    0.24
   1   0   5    0.41    0.23
   1   0   5    0.40    0.23
   1   0   5    0.43    0.28
   1   0   5   -0.12    0.30
   1   0   5    0.69    0.28
   1   0   5    0.42    0.26
   1   0   5    0.36    0.25
   1   0   5   -0.01    0.22
   1   0   5    0.08    0.27
   1   0   5    0.03    0.13
   1   0   5    0.42    0.26
  -2   0  -5   11.32    0.55
  -2   0  -5   11.17    0.76
  -2   0  -5   11.53    0.85
  -2   0  -5   11.81    0.60
  -2   0  -5   11.95    0.80
  -2   0  -5   10.46    1.04
  -2   0  -5   11.42    0.75
  -2   0  -5   12.15    0.75
  -2   0  -5   11.77    0.77
  -2   0  -5   12.03    0.82
  -2   0  -5   11.83    0.79
  -2   0  -5   10.55    0.78
  -2   0  -5   12.40    1.22
   2   0   5   10.40    0.85
   2   0   5   11.14    0.81
   2   0   5   10.08    0.82
   2   0   5    9.57    0.77
   2   0   5    9.57    0.71
   2   0   5   11.48    0.76
   2   0   5   11.53    0.75
   2   0   5    9.95    0.72
   2   0   5   11.33    0.78
   2   0   5   11.69    0.60
   2   0   5   14.32    1.29
  -3   0  -5    3.73    0.52
  -3   0  -5    4.73    0.58
  -3   0  -5    6.02    0.61
  -3   0  -5    5.38    0.41
  -3   0  -5    6.37    0.62
  -3   0  -5    5.99    0.58
  -3   0  -5    5.76    0.62
  -3   0  -5    4.85    0.91
  -3   0  -5    5.56    0.45
  -3   0  -5    4.24    0.63
  -3   0  -5    5.36    0.57
  -3   0  -5    4.93    0.62
   3   0   5    5.45    0.93
   3   0   5    2.95    0.45
   3   0   5    5.46    0.63
   3   0   5    4.77    0.59
   3   0   5    5.79    0.70
   3   0   5    4.84    0.55
   3   0   5    5.04    0.56
   3   0   5    5.50    0.60
   3   0   5    4.82    0.59
  -4   0  -5   68.67    2.52
  -4   0  -5   58.54    2.53
  -4   0  -5   58.91    2.43
  -4   0  -5   59.70    2.64
  -4   0  -5   61.48    2.55
  -4   0  -5   62.15    3.36
  -4   0  -5   58.44    2.56
  -4   0  -5   63.13    2.51
  -4   0  -5   62.37    2.22
  -4   0  -5   63.67    2.23
  -4   0  -5   67.50    2.55
  -4   0  -5   58.51    2.59
   4   0   5   64.66    2.63
   4   0   5   58.55    2.47
   4   0   5   62.15    2.56
   4   0   5   59.21    2.40
   4   0   5   60.69    2.47
   4   0   5   67.19    2.67
   4   0   5   61.71    2.50
   4   0   5   63.89    3.41
   4   0   5   61.85    2.20
   4   0   5   65.59    2.54
  -5   0  -5   63.02    2.90
  -5   0  -5   64.60    2.70
  -5   0  -5   66.25    2.77
  -5   0  -5   60.11    2.85
  -5   0  -5   62.66    2.37
  -5   0  -5   61.24    2.65
  -5   0  -5   60.03    2.46
  -5   0  -5   66.55    2.65
   5   0   5   63.90    2.81
   5   0   5   62.89    2.68
   5   0   5   61.62    2.70
   5   0   5   66.95    2.78
   5   0   5   63.80    2.67
  -6   0  -5   24.68    1.31
  -6   0  -5   23.50    1.52
  -6   0  -5   23.87    1.92
  -6   0  -5   22.67    1.44
  -6   0  -5   26.42    1.62
   6   0   5   25.39    1.74
   6   0   5   22.91    1.55
   6   0   5   23.51    1.56
  -7   0  -5    6.80    1.11
  -7   0  -5    4.81    0.95
  -7   0  -5    6.29    1.43
  -7   0  -5    4.99    0.75
  -7   0  -5    6.30    0.99
   7   0   5    4.00    1.01
   7   0   5    5.61    1.19
   5  -1  -5   15.39    1.20
   5  -1  -5   18.66    2.16
   5  -1  -5   22.27    3.65
   5  -1  -5   17.20    1.97
   5  -1  -5   21.29    1.96
  -5   1   5   20.97    1.84
  -5   1   5   17.11    1.17
  -5   1   5   18.92    1.11
   4  -1  -5   12.42    0.94
   4  -1  -5    9.57    2.57
   4  -1  -5   11.88    1.32
   4  -1  -5   12.10    1.37
   4  -1  -5   11.42    1.54
   4  -1  -5   11.72    1.39
   4  -1  -5    9.50    1.12
   4  -1  -5   13.43    1.69
  -4   1   5   13.30    0.88
  -4   1   5   11.92    1.46
  -4   1   5   10.63    0.88
  -4   1   5   11.38    1.37
  -4   1   5   12.65    1.45
   3  -1  -5   23.73    2.71
   3  -1  -5   23.12    1.47
   3  -1  -5   24.41    1.66
   3  -1  -5   25.10    1.26
   3  -1  -5   23.94    1.68
   3  -1  -5   21.54    1.78
   3  -1  -5   29.36    1.74
   3  -1  -5   23.48    1.80
  -3   1   5   25.06    1.65
  -3   1   5   24.98    1.22
  -3   1   5   26.73    1.81
  -3   1   5   22.75    1.61
  -3   1   5   22.22    1.69
  -3   1   5   23.42    1.14
  -3   1   5   22.34    1.62
   2  -1  -5   41.52    1.92
   2  -1  -5   42.04    2.19
   2  -1  -5   37.45    2.83
   2  -1  -5   38.49    2.06
   2  -1  -5   40.18    2.02
   2  -1  -5   44.84    3.05
   2  -1  -5   36.65    1.62
   2  -1  -5   35.66    1.91
   2  -1  -5   40.09    2.15
  -2   1   5   39.60    1.78
  -2   1   5   39.84    2.03
  -2   1   5   38.84    2.03
  -2   1   5   38.30    2.01
  -2   1   5   44.13    2.10
  -2   1   5   40.26    2.11
  -2   1   5   40.41    1.99
  -2   1   5   37.98    2.06
  -2   1   5   41.84    1.61
  -2   1   5   40.43    2.10
  -2   1   5   40.00    1.51
   1  -1  -5   28.07    1.45
   1  -1  -5   22.30    1.45
   1  -1  -5   29.51    1.56
   1  -1  -5   21.85    1.44
   1  -1  -5   26.25    1.33
   1  -1  -5   25.00    2.15
   1  -1  -5   26.12    1.35
   1  -1  -5   27.90    1.16
   1  -1  -5   26.73    1.58
   1  -1  -5   26.09    1.52
   1  -1  -5   26.41    1.96
  -1   1   5   27.01    1.47
  -1   1   5   25.67    1.47
  -1   1   5   26.34    1.10
  -1   1   5   24.70    1.39
  -1   1   5   25.97    1.44
  -1   1   5   28.15    1.53
  -1   1   5   22.56    1.21
  -1   1   5   24.42    1.56
  -1   1   5   27.47    1.47
  -1   1   5   25.89    1.21
  -1   1   5   24.78    1.38
  -1   1   5   24.66    1.04
  -1   1   5   28.30    1.54
  -1   1   5   22.57    1.39
   0  -1  -5   15.08    0.93
   0  -1  -5   18.75    0.91
   0  -1  -5   15.94    1.09
   0  -1  -5   16.18    1.09
   0  -1  -5   17.62    1.11
   0  -1  -5   16.45    1.55
   0  -1  -5   16.29    0.99
   0  -1  -5   16.10    1.10
   0  -1  -5   18.40    1.05
   0  -1  -5   16.73    1.10
   0  -1  -5   16.78    1.07
   0  -1  -5   15.86    1.33
   0  -1  -5   17.24    1.13
   0  -1  -5   16.46    0.99
   0  -1  -5   15.75    0.80
   0  -1  -5   17.14    1.13
   0   1   5   15.89    1.00
   0   1   5   15.45    1.08
   0   1   5   17.72    1.59
   0   1   5   16.98    1.02
   0   1   5   17.59    1.10
   0   1   5   19.02    1.12
   0   1   5   17.89    1.08
   0   1   5   18.29    0.92
   0   1   5   16.52    1.04
   0   1   5   18.08    0.96
   0   1   5   16.57    0.87
   0   1   5   15.82    1.06
   0   1   5   16.60    0.71
   0   1   5   18.25    1.04
   0   1   5   18.06    0.78
   0   1   5   19.19    1.13
   0   1   5   15.24    1.04
  -1  -1  -5   23.23    1.02
  -1  -1  -5   21.63    1.16
  -1  -1  -5   24.74    1.15
  -1  -1  -5   23.59    1.17
  -1  -1  -5   23.75    1.24
  -1  -1  -5   22.98    1.25
  -1  -1  -5   23.10    1.28
  -1  -1  -5   21.76    1.26
  -1  -1  -5   23.08    1.27
  -1  -1  -5   24.05    1.25
  -1  -1  -5   24.77    1.78
  -1  -1  -5   26.21    1.31
  -1  -1  -5   25.03    1.20
  -1  -1  -5   22.78    1.47
  -1  -1  -5   23.62    1.24
  -1  -1  -5   23.35    0.98
   1   1   5   23.07    1.03
   1   1   5   22.15    1.23
   1   1   5   24.17    1.06
   1   1   5   23.92    1.24
   1   1   5   23.82    1.26
   1   1   5   25.22    1.24
   1   1   5   23.08    1.19
   1   1   5   25.03    1.13
   1   1   5   24.65    1.22
   1   1   5   23.60    1.19
   1   1   5   24.16    1.28
   1   1   5   23.41    1.23
   1   1   5   23.40    1.19
  -2  -1  -5   99.60    3.66
  -2  -1  -5  104.17    3.63
  -2  -1  -5  105.64    3.98
  -2  -1  -5  103.90    3.59
  -2  -1  -5  103.89    3.56
  -2  -1  -5  104.55    3.54
  -2  -1  -5  102.14    3.29
  -2  -1  -5  110.14    3.70
  -2  -1  -5  100.67    3.59
  -2  -1  -5   94.48    3.65
  -2  -1  -5   94.36    3.63
  -2  -1  -5  103.23    3.48
  -2  -1  -5  104.91    3.60
  -2  -1  -5  101.63    3.54
  -2  -1  -5  102.34    4.38
  -2  -1  -5  105.84    3.32
   2   1   5  101.78    3.56
   2   1   5   99.21    3.33
   2   1   5  104.33    3.43
   2   1   5  101.06    3.64
   2   1   5   98.40    3.47
   2   1   5   99.68    3.54
   2   1   5  102.48    3.61
   2   1   5  104.34    3.61
   2   1   5   99.62    3.63
   2   1   5  106.30    3.65
   2   1   5  101.44    3.50
   2   1   5   99.43    3.60
  -3  -1  -5   40.26    1.81
  -3  -1  -5   45.35    2.54
  -3  -1  -5   40.58    1.81
  -3  -1  -5   40.50    1.72
  -3  -1  -5   38.78    1.73
  -3  -1  -5   39.95    1.52
  -3  -1  -5   38.28    1.85
  -3  -1  -5   37.48    1.79
  -3  -1  -5   39.98    1.76
  -3  -1  -5   41.27    1.78
  -3  -1  -5   39.32    1.67
  -3  -1  -5   38.79    1.50
  -3  -1  -5   38.04    1.74
   3   1   5   37.74    1.77
   3   1   5   40.05    1.75
   3   1   5   39.59    1.62
   3   1   5   37.21    1.75
   3   1   5   39.29    1.80
   3   1   5   37.13    1.72
   3   1   5   42.28    1.83
   3   1   5   42.33    1.81
   3   1   5   36.91    1.80
   3   1   5   37.72    1.68
   3   1   5   35.72    1.50
  -4  -1  -5    4.90    0.64
  -4  -1  -5    4.59    0.65
  -4  -1  -5    5.20    1.04
  -4  -1  -5    5.86    0.85
  -4  -1  -5    4.05    0.64
  -4  -1  -5    5.09    0.64
  -4  -1  -5    4.54    0.55
  -4  -1  -5    5.13    0.73
  -4  -1  -5    5.16    0.50
  -4  -1  -5    4.98    0.66
  -4  -1  -5    4.16    0.67
   4   1   5    4.93    0.71
   4   1   5    4.68    0.52
   4   1   5    5.35    0.68
   4   1   5    5.40    0.70
   4   1   5    4.47    0.71
   4   1   5    4.71    0.74
   4   1   5    4.91    0.66
   4   1   5    2.12    0.76
   4   1   5    5.42    0.68
   4   1   5    3.94    0.54
   4   1   5    4.60    0.69
   4   1   5    3.72    0.63
   4   1   5    4.16    0.65
  -5  -1  -5    8.26    1.03
  -5  -1  -5    8.51    0.85
  -5  -1  -5    8.55    0.70
  -5  -1  -5    7.67    0.85
  -5  -1  -5    7.67    1.12
  -5  -1  -5    9.54    0.89
  -5  -1  -5    7.50    0.79
  -5  -1  -5    8.14    0.93
   5   1   5    7.06    1.62
   5   1   5    7.86    0.89
   5   1   5    8.13    0.77
   5   1   5    6.35    0.85
   5   1   5    6.75    0.84
   5   1   5    8.32    0.96
   5   1   5    8.66    0.92
   5   1   5    8.66    0.98
   5   1   5    8.66    0.77
  -6  -1  -5    1.33    0.53
  -6  -1  -5    1.18    0.59
  -6  -1  -5    1.58    0.78
  -6  -1  -5    0.00    0.44
  -6  -1  -5    1.28    0.56
  -6  -1  -5    1.02    0.46
  -6  -1  -5    1.95    0.46
  -6  -1  -5    1.89    0.85
   6   1   5    2.33    0.79
   6   1   5    1.62    0.60
   6   1   5    1.37    0.56
   6   1   5    1.30    0.41
  -7  -1  -5   16.38    1.84
  -7  -1  -5   15.25    1.12
  -7  -1  -5   16.45    1.36
  -7  -1  -5   10.59    1.22
  -7  -1  -5   15.33    1.37
   7   1   5   14.02    1.04
   7   1   5   15.54    1.52
   5  -2  -5   12.90    1.62
   5  -2  -5   11.88    3.35
   5  -2  -5   16.22    1.10
   5  -2  -5   13.72    1.76
   5  -2  -5   18.45    2.10
  -5   2   5   15.20    1.18
  -5   2   5   15.04    1.25
  -5   2   5   15.24    1.63
   4  -2  -5    5.23    2.07
   4  -2  -5    4.33    0.99
   4  -2  -5    3.61    0.61
   4  -2  -5    5.23    1.23
   4  -2  -5    4.55    0.88
   4  -2  -5    3.92    0.96
   4  -2  -5    3.89    1.02
   4  -2  -5    3.83    0.97
  -4   2   5    5.09    0.80
  -4   2   5    4.24    0.99
  -4   2   5    4.52    1.03
  -4   2   5    5.04    1.09
  -4   2   5    3.05    0.60
   3  -2  -5  115.53    4.49
   3  -2  -5  121.47    4.16
   3  -2  -5  107.97    5.97
   3  -2  -5  115.48    6.14
   3  -2  -5  130.17    4.70
   3  -2  -5  127.49    4.97
   3  -2  -5  123.56    4.67
   3  -2  -5  131.43    4.96
  -3   2   5  124.90    4.89
  -3   2   5  127.89    4.74
  -3   2   5  127.52    4.96
  -3   2   5  124.00    4.24
  -3   2   5  124.88    4.48
  -3   2   5  124.18    4.92
  -3   2   5  120.95    4.47
  -3   2   5  128.20    4.31
  -3   2   5  123.43    4.94
   2  -2  -5   48.26    2.49
   2  -2  -5   46.44    2.14
   2  -2  -5   46.78    2.30
   2  -2  -5   43.92    1.82
   2  -2  -5   49.65    3.17
   2  -2  -5   44.98    2.15
   2  -2  -5   49.33    2.22
   2  -2  -5   46.36    3.16
   2  -2  -5   45.30    2.35
   2  -2  -5   45.49    2.36
   2  -2  -5   49.93    2.41
  -2   2   5   46.05    2.26
  -2   2   5   46.45    2.25
  -2   2   5   46.47    1.93
  -2   2   5   48.51    2.32
  -2   2   5   46.72    1.90
  -2   2   5   49.58    2.37
  -2   2   5   47.77    2.36
  -2   2   5   52.79    2.30
  -2   2   5   48.29    2.07
  -2   2   5   41.23    2.18
  -2   2   5   48.52    2.36
   1  -2  -5   15.41    1.00
   1  -2  -5   13.15    1.55
   1  -2  -5   13.31    1.09
   1  -2  -5   14.43    0.96
   1  -2  -5   15.79    1.05
   1  -2  -5   13.69    0.78
   1  -2  -5   13.30    1.09
   1  -2  -5   12.95    1.05
   1  -2  -5   12.87    1.11
   1  -2  -5   12.80    1.39
   1  -2  -5   15.34    1.14
   1  -2  -5   13.68    1.06
   1  -2  -5   15.39    1.18
  -1   2   5   14.07    1.08
  -1   2   5   14.68    1.06
  -1   2   5   14.13    0.82
  -1   2   5   15.12    1.05
  -1   2   5   14.33    0.90
  -1   2   5   15.45    1.59
  -1   2   5   14.12    0.70
  -1   2   5   14.64    0.84
  -1   2   5   15.00    0.94
  -1   2   5   14.26    1.08
  -1   2   5   13.55    1.06
  -1   2   5   12.79    0.93
  -1   2   5   13.37    1.07
  -1   2   5   14.35    1.05
  -1   2   5   14.27    1.03
   0  -2  -5   54.86    2.11
   0  -2  -5   54.50    2.24
   0  -2  -5   48.90    2.96
   0  -2  -5   58.85    2.25
   0  -2  -5   54.96    2.40
   0  -2  -5   55.65    2.42
   0  -2  -5   59.57    2.03
   0  -2  -5   56.96    2.35
   0  -2  -5   58.67    2.40
   0  -2  -5   54.29    2.35
   0  -2  -5   58.01    2.40
   0  -2  -5   54.07    2.36
   0  -2  -5   55.14    2.62
   0  -2  -5   59.76    2.38
   0   2   5   58.46    1.91
   0   2   5   52.87    2.35
   0   2   5   56.08    2.21
   0   2   5   56.26    3.09
   0   2   5   57.40    2.04
   0   2   5   54.69    2.26
   0   2   5   59.66    2.36
   0   2   5   55.07    2.36
   0   2   5   55.08    2.12
   0   2   5   58.65    2.18
   0   2   5   56.25    2.29
   0   2   5   55.76    2.28
   0   2   5   58.78    2.37
   0   2   5   55.61    1.99
   0   2   5   55.30    2.37
  -1  -2  -5   73.48    2.85
  -1  -2  -5   75.73    2.78
  -1  -2  -5   76.36    2.57
  -1  -2  -5   74.47    2.90
  -1  -2  -5   81.26    3.10
  -1  -2  -5   77.11    2.60
  -1  -2  -5   76.15    2.87
  -1  -2  -5   74.68    2.92
  -1  -2  -5   77.40    2.87
  -1  -2  -5   73.96    2.91
  -1  -2  -5   73.93    2.90
  -1  -2  -5   76.52    2.80
  -1  -2  -5   76.90    3.65
  -1  -2  -5   70.46    2.88
   1   2   5   74.07    2.49
   1   2   5   79.19    3.70
   1   2   5   75.26    2.69
   1   2   5   78.84    2.90
   1   2   5   76.61    2.57
   1   2   5   78.54    2.86
   1   2   5   70.81    2.87
   1   2   5   80.34    2.93
   1   2   5   73.72    2.86
   1   2   5   76.17    2.82
   1   2   5   76.69    2.75
   1   2   5   76.46    2.83
   1   2   5   72.55    2.89
   1   2   5   73.95    2.43
   1   2   5   78.02    2.70
   1   2   5   77.54    2.62
   1   2   5   75.02    2.50
  -2  -2  -5   24.39    1.06
  -2  -2  -5   22.58    1.17
  -2  -2  -5   23.78    1.24
  -2  -2  -5   24.31    1.81
  -2  -2  -5   24.19    1.02
  -2  -2  -5   23.47    1.28
  -2  -2  -5   24.22    1.25
  -2  -2  -5   21.36    1.22
  -2  -2  -5   21.80    1.27
  -2  -2  -5   25.14    1.33
  -2  -2  -5   23.75    1.31
  -2  -2  -5   23.40    1.24
  -2  -2  -5   26.54    1.47
   2   2   5   22.61    1.29
   2   2   5   22.47    1.25
   2   2   5   24.32    1.13
   2   2   5   24.94    1.19
   2   2   5   23.59    1.30
   2   2   5   23.88    0.90
   2   2   5   21.94    1.26
   2   2   5   25.42    1.14
   2   2   5   25.56    1.84
   2   2   5   22.58    0.97
   2   2   5   21.04    1.19
   2   2   5   23.11    1.25
   2   2   5   23.22    1.20
   2   2   5   23.83    1.03
   2   2   5   21.24    1.24
   2   2   5   23.25    1.23
  -3  -2  -5   34.15    1.43
  -3  -2  -5   34.35    1.69
  -3  -2  -5   35.23    1.64
  -3  -2  -5   34.24    1.36
  -3  -2  -5   38.07    2.39
  -3  -2  -5   33.55    1.60
  -3  -2  -5   36.16    1.59
  -3  -2  -5   35.37    1.70
  -3  -2  -5   33.89    1.71
  -3  -2  -5   33.64    1.66
  -3  -2  -5   32.80    1.36
  -3  -2  -5   33.91    1.61
  -3  -2  -5   31.86    1.69
   3   2   5   33.59    2.29
   3   2   5   34.98    1.66
   3   2   5   32.87    1.59
   3   2   5   35.01    1.67
   3   2   5   31.21    1.28
   3   2   5   33.49    1.65
   3   2   5   36.35    1.71
   3   2   5   32.54    1.20
   3   2   5   35.19    1.68
   3   2   5   34.38    1.47
   3   2   5   33.90    1.37
   3   2   5   32.73    1.52
   3   2   5   33.00    1.68
   3   2   5   31.98    1.60
   3   2   5   32.84    1.49
   3   2   5   34.75    1.65
  -4  -2  -5   14.50    1.06
  -4  -2  -5   13.31    1.11
  -4  -2  -5   12.72    0.89
  -4  -2  -5   13.83    1.57
  -4  -2  -5   14.23    1.03
  -4  -2  -5   12.61    0.78
  -4  -2  -5   13.03    1.03
  -4  -2  -5   13.79    1.19
  -4  -2  -5   14.10    0.99
  -4  -2  -5   12.67    0.98
  -4  -2  -5   13.38    1.06
   4   2   5   14.21    1.14
   4   2   5   14.03    0.84
   4   2   5   14.09    1.07
   4   2   5   12.15    1.01
   4   2   5   13.16    0.93
   4   2   5   13.09    1.03
   4   2   5   13.08    0.62
   4   2   5   13.80    0.89
   4   2   5   13.66    1.08
   4   2   5   15.05    1.10
   4   2   5   14.02    0.63
   4   2   5   15.11    0.98
   4   2   5   13.53    1.54
   4   2   5   14.00    1.08
   4   2   5   13.83    1.05
  -5  -2  -5   19.28    1.30
  -5  -2  -5   16.80    0.98
  -5  -2  -5   18.01    1.18
  -5  -2  -5   16.06    1.28
  -5  -2  -5   13.91    1.76
  -5  -2  -5   14.33    1.43
  -5  -2  -5   16.84    1.39
  -5  -2  -5   19.89    1.26
  -5  -2  -5   19.71    1.28
   5   2   5   18.16    1.37
   5   2   5   18.12    1.36
   5   2   5   17.79    1.19
   5   2   5   17.55    1.02
   5   2   5   17.81    1.98
   5   2   5   18.06    1.37
   5   2   5   16.36    1.19
   5   2   5   18.15    1.31
   5   2   5   17.53    1.32
   5   2   5   17.70    1.12
   5   2   5   17.68    0.75
   5   2   5   16.74    1.31
  -6  -2  -5   42.04    2.11
  -6  -2  -5   45.75    1.89
  -6  -2  -5   40.33    2.47
  -6  -2  -5   48.80    2.41
  -6  -2  -5   42.49    2.22
  -6  -2  -5   44.38    2.27
  -6  -2  -5   43.25    2.18
  -6  -2  -5   40.39    2.53
   6   2   5   43.07    2.35
   6   2   5   40.60    1.85
   6   2   5   40.24    2.31
   6   2   5   44.44    2.42
  -7  -2  -5   72.04    2.88
  -7  -2  -5   73.90    3.30
  -7  -2  -5   70.84    3.83
  -7  -2  -5   74.31    3.23
  -7  -2  -5   77.68    3.43
  -7  -2  -5   77.42    3.40
  -7  -2  -5   75.01    3.51
   7   2   5   67.98    3.46
   7   2   5   75.14    2.85
   7   2   5   70.47    2.98
   7   2   5   76.00    3.53
   5  -3  -5   -0.10    0.35
   5  -3  -5   -0.22    0.77
   5  -3  -5   -0.87    0.76
   5  -3  -5    0.59    2.09
   5  -3  -5   -0.41    0.78
  -5   3   5   -0.33    0.56
  -5   3   5   -0.29    0.62
  -5   3   5    0.39    0.72
  -5   3   5   -0.08    0.39
   4  -3  -5    7.30    0.74
   4  -3  -5    7.83    1.44
   4  -3  -5    6.46    0.95
   4  -3  -5    6.98    1.08
   4  -3  -5    8.51    1.25
   4  -3  -5    9.02    1.37
   4  -3  -5    9.15    2.56
  -4   3   5    6.92    1.13
  -4   3   5    7.67    0.85
  -4   3   5    6.77    0.92
  -4   3   5    7.12    1.23
  -4   3   5    7.53    0.97
  -4   3   5    6.56    1.21
  -4   3   5    8.86    1.06
   3  -3  -5   22.80    2.75
   3  -3  -5   23.62    1.62
   3  -3  -5   25.79    1.25
   3  -3  -5   28.52    2.28
   3  -3  -5   24.84    1.71
   3  -3  -5   23.88    1.77
   3  -3  -5   26.46    1.88
   3  -3  -5   27.40    2.60
   3  -3  -5   24.82    1.60
   3  -3  -5   26.03    1.53
  -3   3   5   27.07    1.54
  -3   3   5   24.18    1.37
  -3   3   5   25.74    1.70
  -3   3   5   26.03    1.80
  -3   3   5   26.84    1.56
  -3   3   5   25.11    1.78
  -3   3   5   27.30    1.87
   2  -3  -5   43.59    2.25
   2  -3  -5   48.00    2.19
   2  -3  -5   46.64    2.36
   2  -3  -5   45.61    1.81
   2  -3  -5   49.10    3.29
   2  -3  -5   47.67    2.40
   2  -3  -5   41.14    2.20
   2  -3  -5   46.58    2.17
   2  -3  -5   46.06    2.09
   2  -3  -5   52.81    2.52
   2  -3  -5   45.69    3.10
   2  -3  -5   50.54    2.40
  -2   3   5   41.85    2.27
  -2   3   5   44.87    2.12
  -2   3   5   44.95    2.31
  -2   3   5   47.03    2.30
  -2   3   5   48.77    1.97
  -2   3   5   49.00    2.14
  -2   3   5   49.36    2.35
  -2   3   5   47.81    2.26
  -2   3   5   45.92    2.27
  -2   3   5   50.87    2.27
  -2   3   5   42.76    2.00
  -2   3   5   50.39    2.40
   1  -3  -5   43.27    2.02
   1  -3  -5   40.24    1.85
   1  -3  -5   41.18    1.81
   1  -3  -5   39.99    1.97
   1  -3  -5   39.58    2.03
   1  -3  -5   40.16    2.03
   1  -3  -5   39.31    1.88
   1  -3  -5   40.65    2.74
   1  -3  -5   41.43    2.01
   1  -3  -5   39.49    2.42
   1  -3  -5   41.56    1.83
   1  -3  -5   37.84    1.54
   1  -3  -5   38.25    1.93
   1  -3  -5   40.07    2.01
  -1   3   5   39.72    1.71
  -1   3   5   40.27    1.99
  -1   3   5   39.21    1.89
  -1   3   5   39.28    1.99
  -1   3   5   38.93    1.87
  -1   3   5   38.14    1.87
  -1   3   5   36.89    1.79
  -1   3   5   40.01    1.96
  -1   3   5   37.98    2.65
  -1   3   5   42.39    1.99
  -1   3   5   40.49    1.67
  -1   3   5   39.57    1.93
  -1   3   5   37.81    1.94
  -1   3   5   42.07    1.80
   0  -3  -5   17.69    1.07
   0  -3  -5   16.59    1.10
   0  -3  -5   18.36    1.17
   0  -3  -5   17.20    1.17
   0  -3  -5   17.67    0.86
   0  -3  -5   17.50    1.09
   0  -3  -5   14.99    1.54
   0  -3  -5   18.50    1.16
   0  -3  -5   18.21    1.18
   0  -3  -5   17.10    1.14
   0  -3  -5   18.65    0.99
   0  -3  -5   17.65    1.05
   0  -3  -5   19.30    1.34
   0  -3  -5   17.46    1.13
   0  -3  -5   21.50    1.26
   0   3   5   17.33    1.15
   0   3   5   17.26    1.15
   0   3   5   17.03    1.07
   0   3   5   16.14    1.12
   0   3   5   18.19    1.11
   0   3   5   18.92    1.07
   0   3   5   16.64    0.92
   0   3   5   18.27    1.01
   0   3   5   16.67    1.11
   0   3   5   16.32    1.10
   0   3   5   18.20    1.05
   0   3   5   16.93    0.94
   0   3   5   17.69    1.09
   0   3   5   16.30    1.62
  -1  -3  -5   37.07    1.72
  -1  -3  -5   37.83    1.72
  -1  -3  -5   37.86    1.72
  -1  -3  -5   34.11    1.67
  -1  -3  -5   40.43    1.79
  -1  -3  -5   35.84    1.75
  -1  -3  -5   39.56    1.76
  -1  -3  -5   37.78    1.78
  -1  -3  -5   35.14    1.76
  -1  -3  -5   37.95    1.65
  -1  -3  -5   36.56    1.76
  -1  -3  -5   36.62    2.37
  -1  -3  -5   38.89    1.79
  -1  -3  -5   36.59    1.69
  -1  -3  -5   35.70    1.45
  -1  -3  -5   37.03    1.50
   1   3   5   36.59    1.75
   1   3   5   36.78    1.76
   1   3   5   35.00    1.50
   1   3   5   40.76    1.63
   1   3   5   39.10    1.79
   1   3   5   39.96    1.73
   1   3   5   35.90    1.74
   1   3   5   36.62    1.58
   1   3   5   38.52    1.65
   1   3   5   37.09    1.70
   1   3   5   38.17    1.49
   1   3   5   38.53    1.70
   1   3   5   39.18    1.78
  -2  -3  -5    9.98    0.81
  -2  -3  -5    7.81    0.68
  -2  -3  -5    8.34    0.73
  -2  -3  -5    7.05    0.73
  -2  -3  -5    8.67    0.79
  -2  -3  -5    7.40    0.69
  -2  -3  -5    7.76    1.08
  -2  -3  -5    8.49    0.80
  -2  -3  -5    9.24    0.83
  -2  -3  -5    8.47    0.62
  -2  -3  -5    8.79    0.78
  -2  -3  -5    7.74    0.73
  -2  -3  -5    8.78    0.74
  -2  -3  -5    8.05    0.56
   2   3   5    7.85    0.67
   2   3   5    7.28    1.04
   2   3   5    8.62    0.56
   2   3   5    8.16    0.77
   2   3   5    8.36    0.76
   2   3   5    7.21    0.63
   2   3   5    7.59    0.75
   2   3   5    7.04    0.59
   2   3   5    8.42    0.77
   2   3   5    7.56    0.76
   2   3   5    7.97    0.68
   2   3   5    7.76    0.73
   2   3   5    8.50    0.80
   2   3   5    8.60    0.73
   2   3   5    8.52    0.52
  -3  -3  -5    8.18    0.75
  -3  -3  -5    6.34    0.85
  -3  -3  -5    8.67    0.76
  -3  -3  -5    7.63    0.79
  -3  -3  -5    7.20    0.77
  -3  -3  -5    8.44    0.72
  -3  -3  -5    7.47    0.65
  -3  -3  -5    7.66    0.79
  -3  -3  -5    6.48    0.72
  -3  -3  -5    7.98    0.83
  -3  -3  -5    8.61    0.58
  -3  -3  -5    7.97    0.75
  -3  -3  -5    6.19    1.06
   3   3   5    7.71    0.54
   3   3   5    7.71    0.78
   3   3   5    7.77    0.78
   3   3   5    8.35    0.75
   3   3   5    7.77    0.57
   3   3   5    8.74    0.79
   3   3   5    7.68    0.77
   3   3   5    7.70    0.78
   3   3   5   10.00    0.72
   3   3   5    9.29    1.24
   3   3   5    8.03    0.81
   3   3   5    7.55    0.79
   3   3   5    7.83    0.78
   3   3   5    7.08    0.65
   3   3   5    8.20    0.74
   3   3   5    8.10    0.86
  -4  -3  -5   43.58    2.23
  -4  -3  -5   49.54    1.97
  -4  -3  -5   47.43    2.33
  -4  -3  -5   49.08    2.22
  -4  -3  -5   48.56    1.82
  -4  -3  -5   48.76    2.25
  -4  -3  -5   46.09    2.11
  -4  -3  -5   46.49    2.12
  -4  -3  -5   43.45    2.18
  -4  -3  -5   45.37    2.03
  -4  -3  -5   46.70    2.99
  -4  -3  -5   42.50    2.09
   4   3   5   47.80    2.21
   4   3   5   42.22    2.86
   4   3   5   41.34    2.11
   4   3   5   47.51    2.18
   4   3   5   44.42    2.15
   4   3   5   46.27    1.95
   4   3   5   46.94    2.20
   4   3   5   46.19    1.98
   4   3   5   42.48    2.17
   4   3   5   47.32    2.09
   4   3   5   46.64    2.20
  -5  -3  -5   20.72    1.37
  -5  -3  -5   21.49    1.57
  -5  -3  -5   18.82    2.07
  -5  -3  -5   21.66    1.08
  -5  -3  -5   19.42    1.59
  -5  -3  -5   20.18    1.29
  -5  -3  -5   18.27    1.36
  -5  -3  -5   21.03    1.32
  -5  -3  -5   18.37    1.32
   5   3   5   20.11    1.25
   5   3   5   20.03    1.36
   5   3   5   19.13    1.23
   5   3   5   19.54    1.47
   5   3   5   20.49    0.97
   5   3   5   20.22    1.48
   5   3   5   22.80    1.53
   5   3   5   20.40    1.47
   5   3   5   19.51    2.09
   5   3   5   19.02    1.47
   5   3   5   19.02    1.43
  -6  -3  -5   51.08    2.38
  -6  -3  -5   50.55    2.44
  -6  -3  -5   55.05    2.18
  -6  -3  -5   52.88    2.56
  -6  -3  -5   48.02    2.79
  -6  -3  -5   52.54    2.66
  -6  -3  -5   54.33    2.58
  -6  -3  -5   52.29    2.91
   6   3   5   52.97    2.35
   6   3   5   51.17    2.68
   6   3   5   54.41    1.99
   6   3   5   50.41    2.49
   6   3   5   53.50    2.72
  -7  -3  -5   10.40    1.47
  -7  -3  -5    9.91    1.20
  -7  -3  -5    9.01    1.21
  -7  -3  -5    9.02    1.20
  -7  -3  -5    7.79    1.68
  -7  -3  -5   11.00    1.25
  -7  -3  -5    9.38    0.89
  -7  -3  -5   10.12    1.32
   7   3   5    8.80    0.69
   7   3   5    8.35    1.27
   7   3   5   12.17    1.17
   7   3   5   12.12    1.44
   5  -4  -5   10.72    3.19
   5  -4  -5    6.90    1.61
  -5   4   5    8.38    1.25
  -5   4   5    6.83    0.99
   4  -4  -5    1.64    0.62
   4  -4  -5    1.54    1.15
   4  -4  -5    0.98    0.81
   4  -4  -5    2.33    1.83
   4  -4  -5    2.43    0.82
   4  -4  -5    1.01    0.67
  -4   4   5    2.70    0.91
  -4   4   5    1.54    0.55
  -4   4   5    1.85    0.61
  -4   4   5    2.25    0.73
  -4   4   5    3.12    0.95
  -4   4   5    1.91    0.74
   3  -4  -5   30.23    1.25
   3  -4  -5   32.63    3.14
   3  -4  -5   30.22    2.00
   3  -4  -5   28.79    1.70
   3  -4  -5   25.70    1.58
   3  -4  -5   30.06    2.02
   3  -4  -5   28.71    1.82
   3  -4  -5   30.17    2.75
   3  -4  -5   30.01    1.92
  -3   4   5   29.76    1.95
  -3   4   5   31.94    1.74
  -3   4   5   25.74    1.48
  -3   4   5   31.23    1.88
  -3   4   5   30.15    1.74
  -3   4   5   28.22    1.94
  -3   4   5   25.09    1.82
  -3   4   5   29.05    1.69
   2  -4  -5   10.14    1.12
   2  -4  -5   13.39    1.88
   2  -4  -5    9.67    1.11
   2  -4  -5    9.35    1.15
   2  -4  -5   12.00    1.01
   2  -4  -5   11.49    1.09
   2  -4  -5    9.79    1.00
   2  -4  -5   11.29    0.96
   2  -4  -5   11.45    0.69
   2  -4  -5   11.75    1.16
   2  -4  -5   11.03    1.14
   2  -4  -5   10.08    1.60
   2  -4  -5   10.95    1.07
  -2   4   5   11.69    0.98
  -2   4   5    9.95    1.05
  -2   4   5   11.75    1.15
  -2   4   5   11.07    0.99
  -2   4   5   12.52    1.16
  -2   4   5   11.62    0.96
  -2   4   5   11.21    0.86
  -2   4   5   12.33    1.09
   1  -4  -5   71.04    2.76
   1  -4  -5   75.36    3.12
   1  -4  -5   75.06    3.01
   1  -4  -5   74.75    2.49
   1  -4  -5   73.99    3.91
   1  -4  -5   76.40    2.85
   1  -4  -5   72.50    3.01
   1  -4  -5   69.49    2.78
   1  -4  -5   78.00    3.12
   1  -4  -5   70.77    2.90
   1  -4  -5   72.27    2.99
   1  -4  -5   71.49    3.04
   1  -4  -5   68.54    3.48
   1  -4  -5   73.32    2.61
   1  -4  -5   72.06    2.98
  -1   4   5   72.99    2.91
  -1   4   5   71.92    2.98
  -1   4   5   71.54    2.98
  -1   4   5   72.80    3.04
  -1   4   5   73.65    3.93
  -1   4   5   65.18    2.72
  -1   4   5   71.17    2.68
  -1   4   5   71.88    2.86
  -1   4   5   72.65    3.05
  -1   4   5   70.68    2.91
  -1   4   5   72.50    2.80
  -1   4   5   77.41    3.68
   0  -4  -5   90.75    3.58
   0  -4  -5   92.03    3.54
   0  -4  -5   91.76    3.55
   0  -4  -5   90.87    3.50
   0  -4  -5   93.49    3.62
   0  -4  -5   93.31    3.60
   0  -4  -5   94.17    3.38
   0  -4  -5  100.97    3.14
   0  -4  -5   88.54    3.18
   0  -4  -5   95.90    3.73
   0  -4  -5   90.80    3.55
   0  -4  -5   93.72    3.49
   0  -4  -5   93.67    3.29
   0  -4  -5   94.49    4.44
   0  -4  -5   94.52    3.52
   0  -4  -5   91.03    3.40
   0   4   5   98.08    3.39
   0   4   5   94.42    3.28
   0   4   5   98.20    3.57
   0   4   5   95.29    3.50
   0   4   5   96.47    3.44
   0   4   5   96.06    3.48
   0   4   5   93.59    3.45
   0   4   5   98.82    3.51
   0   4   5   96.86    3.62
   0   4   5   92.43    3.30
   0   4   5   96.19    3.61
   0   4   5   87.81    4.40
   0   4   5   96.07    3.58
  -1  -4  -5   14.84    1.05
  -1  -4  -5   12.37    0.94
  -1  -4  -5   13.39    1.05
  -1  -4  -5   14.43    0.98
  -1  -4  -5   14.36    0.83
  -1  -4  -5   14.34    0.97
  -1  -4  -5   14.09    0.97
  -1  -4  -5   14.75    1.03
  -1  -4  -5   13.13    0.77
  -1  -4  -5   14.30    0.81
  -1  -4  -5   13.65    1.01
  -1  -4  -5   13.97    1.01
  -1  -4  -5   12.93    0.94
  -1  -4  -5   14.36    0.97
  -1  -4  -5   14.53    0.92
  -1  -4  -5   12.80    1.43
  -1  -4  -5   14.52    0.99
   1   4   5   12.18    0.95
   1   4   5   14.25    0.97
   1   4   5   15.57    0.99
   1   4   5   12.41    0.82
   1   4   5   16.75    1.05
   1   4   5   12.87    0.98
   1   4   5   15.17    1.50
   1   4   5   14.61    0.89
   1   4   5   13.91    1.03
   1   4   5   14.25    0.94
   1   4   5   13.56    0.85
   1   4   5   13.97    1.02
  -2  -4  -5    0.16    0.22
  -2  -4  -5    0.28    0.28
  -2  -4  -5    0.12    0.27
  -2  -4  -5    0.37    0.28
  -2  -4  -5    0.45    0.25
  -2  -4  -5    0.62    0.40
  -2  -4  -5    0.54    0.22
  -2  -4  -5    0.52    0.41
  -2  -4  -5    0.48    0.50
  -2  -4  -5    0.11    0.25
  -2  -4  -5    0.68    0.32
  -2  -4  -5    0.72    0.39
  -2  -4  -5    0.51    0.28
  -2  -4  -5    0.42    0.28
  -2  -4  -5    0.92    0.32
   2   4   5    0.45    0.29
   2   4   5    0.47    0.31
   2   4   5    0.71    0.32
   2   4   5    0.26    0.33
   2   4   5    0.49    0.24
   2   4   5   -0.05    0.27
   2   4   5    0.33    0.47
   2   4   5    0.60    0.32
   2   4   5    0.23    0.25
   2   4   5    0.32    0.33
   2   4   5    0.33    0.33
   2   4   5    0.63    0.34
  -3  -4  -5    6.94    0.74
  -3  -4  -5    7.92    0.80
  -3  -4  -5    8.01    0.77
  -3  -4  -5    7.78    0.83
  -3  -4  -5    7.95    0.58
  -3  -4  -5    8.55    0.87
  -3  -4  -5    6.95    0.65
  -3  -4  -5    6.75    0.90
  -3  -4  -5    7.21    0.71
  -3  -4  -5    7.97    0.76
  -3  -4  -5    6.66    0.78
  -3  -4  -5    6.93    0.77
  -3  -4  -5    6.40    1.12
   3   4   5    8.69    0.79
   3   4   5    7.53    1.22
   3   4   5    7.87    0.74
   3   4   5    6.63    0.68
   3   4   5    7.19    0.78
   3   4   5    8.03    0.80
   3   4   5    8.21    0.84
   3   4   5    8.40    0.83
   3   4   5    7.05    0.78
   3   4   5    9.61    0.89
   3   4   5    7.89    0.83
   3   4   5    8.75    0.85
   3   4   5    7.65    0.91
   3   4   5    7.94    0.61
  -4  -4  -5   17.51    1.19
  -4  -4  -5   16.07    1.26
  -4  -4  -5   19.00    1.16
  -4  -4  -5   15.26    1.02
  -4  -4  -5   16.96    1.38
  -4  -4  -5   17.19    1.19
  -4  -4  -5   18.70    0.93
  -4  -4  -5   19.22    1.33
  -4  -4  -5   18.06    1.28
  -4  -4  -5   17.20    1.35
  -4  -4  -5   17.78    1.87
  -4  -4  -5   13.07    1.13
  -4  -4  -5   18.04    1.23
   4   4   5   16.92    1.26
   4   4   5   16.24    1.20
   4   4   5   17.68    1.26
   4   4   5   14.53    1.21
   4   4   5   13.63    1.18
   4   4   5   16.64    1.21
   4   4   5   17.40    1.86
   4   4   5   17.18    1.15
   4   4   5   17.41    1.12
  -5  -4  -5    7.48    1.15
  -5  -4  -5    9.52    1.01
  -5  -4  -5    9.84    1.15
  -5  -4  -5    8.11    0.88
  -5  -4  -5    7.93    0.94
  -5  -4  -5    8.95    1.05
  -5  -4  -5    8.38    1.15
  -5  -4  -5    8.14    1.53
  -5  -4  -5    9.41    0.92
  -5  -4  -5   10.22    1.24
  -5  -4  -5    9.19    0.70
  -5  -4  -5   10.31    0.99
   5   4   5    8.86    0.99
   5   4   5    9.28    1.09
   5   4   5   10.13    1.08
   5   4   5    9.08    1.05
   5   4   5   10.94    1.03
   5   4   5   10.78    1.75
   5   4   5    7.63    0.88
  -6  -4  -5    3.95    0.58
  -6  -4  -5    3.55    0.81
  -6  -4  -5    4.36    0.98
  -6  -4  -5    4.06    0.93
  -6  -4  -5    5.94    1.07
  -6  -4  -5    5.18    1.26
  -6  -4  -5    5.04    0.87
  -6  -4  -5    3.61    0.84
   6   4   5    5.80    0.97
   6   4   5    4.23    0.92
   6   4   5    4.39    0.91
   6   4   5    4.82    1.05
   6   4   5    4.66    0.87
   6   4   5    4.44    0.55
  -7  -4  -5    8.67    0.85
  -7  -4  -5    9.88    1.24
  -7  -4  -5    9.55    1.43
  -7  -4  -5    8.91    1.33
  -7  -4  -5   10.46    1.19
   7   4   5    9.05    0.78
   7   4   5    8.52    1.19
   7   4   5   10.36    1.46
   7   4   5    8.59    1.27
   4  -5  -5    5.70    1.31
   4  -5  -5    5.24    2.12
   4  -5  -5    4.86    0.88
   4  -5  -5    4.49    1.57
  -4   5   5    1.85    0.58
  -4   5   5    5.50    0.93
  -4   5   5    5.07    1.09
   3  -5  -5   11.37    1.19
   3  -5  -5   10.89    1.33
   3  -5  -5   12.18    2.27
   3  -5  -5    9.50    1.29
   3  -5  -5   10.41    1.33
   3  -5  -5   10.92    1.83
   3  -5  -5   10.82    1.01
  -3   5   5   13.54    1.38
  -3   5   5   10.27    0.94
  -3   5   5   11.23    1.29
  -3   5   5    8.34    1.14
  -3   5   5    9.73    1.14
  -3   5   5    9.97    1.05
  -3   5   5    9.95    1.05
  -3   5   5   11.19    1.22
   2  -5  -5   95.61    4.71
   2  -5  -5   86.70    3.34
   2  -5  -5   91.82    3.80
   2  -5  -5   92.60    3.87
   2  -5  -5   84.35    3.73
   2  -5  -5   96.14    3.65
   2  -5  -5   94.52    3.75
   2  -5  -5   83.64    4.69
   2  -5  -5   91.09    3.80
   2  -5  -5   84.62    3.58
  -2   5   5   84.75    3.67
  -2   5   5   86.14    3.45
  -2   5   5   92.66    3.57
  -2   5   5   93.00    3.72
  -2   5   5   88.57    3.74
  -2   5   5   89.30    3.31
  -2   5   5   93.49    3.50
  -2   5   5   92.85    3.62
   1  -5  -5  342.34   11.94
   1  -5  -5  367.61   11.57
   1  -5  -5  341.73   11.31
   1  -5  -5  350.72   11.56
   1  -5  -5  350.78   11.17
   1  -5  -5  363.97   11.15
   1  -5  -5  378.20   11.42
   1  -5  -5  356.07   11.42
   1  -5  -5  383.98   11.54
   1  -5  -5  348.59   10.91
   1  -5  -5  369.05   12.12
   1  -5  -5  350.81   12.70
   1  -5  -5  362.54   11.56
   1  -5  -5  343.83   11.41
  -1   5   5  348.69   11.44
  -1   5   5  355.69   11.10
  -1   5   5  358.98   11.20
  -1   5   5  365.94   11.33
  -1   5   5  361.34   11.55
  -1   5   5  371.68   11.27
  -1   5   5  348.93   11.48
  -1   5   5  368.36   11.47
  -1   5   5  371.21   11.40
   0  -5  -5   41.19    1.96
   0  -5  -5   42.44    2.03
   0  -5  -5   44.28    2.08
   0  -5  -5   41.89    1.68
   0  -5  -5   41.61    1.96
   0  -5  -5   38.53    1.97
   0  -5  -5   42.42    2.16
   0  -5  -5   34.33    1.85
   0  -5  -5   40.04    1.85
   0  -5  -5   45.33    2.01
   0  -5  -5   40.75    2.00
   0  -5  -5   42.86    1.93
   0  -5  -5   41.17    2.03
   0  -5  -5   44.47    2.74
   0  -5  -5   43.00    1.80
   0  -5  -5   39.98    1.92
   0   5   5   41.46    1.82
   0   5   5   42.47    1.89
   0   5   5   41.61    1.90
   0   5   5   41.15    1.81
   0   5   5   41.67    2.04
   0   5   5   44.52    1.97
   0   5   5   41.50    2.01
   0   5   5   39.21    1.77
   0   5   5   44.32    1.80
   0   5   5   39.86    1.98
  -1  -5  -5   39.14    1.71
  -1  -5  -5   37.59    2.59
  -1  -5  -5   37.37    1.87
  -1  -5  -5   41.56    1.61
  -1  -5  -5   43.27    1.87
  -1  -5  -5   38.61    1.64
  -1  -5  -5   43.19    1.95
  -1  -5  -5   42.02    1.87
  -1  -5  -5   40.13    1.86
  -1  -5  -5   43.35    1.92
  -1  -5  -5   40.68    1.95
  -1  -5  -5   38.98    1.91
  -1  -5  -5   39.27    1.86
   1   5   5   39.73    1.87
   1   5   5   39.88    1.73
   1   5   5   38.44    1.91
   1   5   5   40.38    1.77
   1   5   5   39.85    2.60
   1   5   5   40.01    1.83
   1   5   5   39.77    1.81
   1   5   5   38.96    1.69
   1   5   5   40.95    1.97
   1   5   5   39.39    1.91
  -2  -5  -5   10.27    0.86
  -2  -5  -5   10.66    0.62
  -2  -5  -5   12.37    0.91
  -2  -5  -5   11.45    0.97
  -2  -5  -5   12.26    0.72
  -2  -5  -5   13.65    1.02
  -2  -5  -5   12.72    0.94
  -2  -5  -5   11.46    0.94
  -2  -5  -5   11.01    0.83
  -2  -5  -5   11.58    1.00
  -2  -5  -5   11.18    1.39
  -2  -5  -5    9.65    1.10
  -2  -5  -5    9.83    0.87
  -2  -5  -5   11.91    1.00
   2   5   5   11.21    1.01
   2   5   5   10.66    0.93
   2   5   5    9.21    0.84
   2   5   5   11.47    0.88
   2   5   5   11.43    0.90
   2   5   5   11.87    0.99
   2   5   5   10.95    0.78
   2   5   5    9.50    1.29
   2   5   5   11.92    0.87
   2   5   5   12.07    0.97
  -3  -5  -5   10.29    0.67
  -3  -5  -5   11.11    0.97
  -3  -5  -5   10.75    0.84
  -3  -5  -5    9.72    0.88
  -3  -5  -5   11.62    0.98
  -3  -5  -5   10.31    0.89
  -3  -5  -5    9.54    1.04
  -3  -5  -5   10.89    0.99
  -3  -5  -5    9.23    0.95
  -3  -5  -5   10.74    0.66
  -3  -5  -5   11.79    1.04
  -3  -5  -5   10.16    0.69
  -3  -5  -5    9.43    1.38
  -3  -5  -5    9.77    0.88
   3   5   5   11.13    1.74
   3   5   5   12.17    1.03
   3   5   5   11.38    0.78
   3   5   5   11.20    0.97
   3   5   5   11.34    0.94
   3   5   5    9.57    0.97
   3   5   5    9.39    0.85
   3   5   5   11.67    0.94
   3   5   5   11.44    0.96
   3   5   5   10.37    1.00
   3   5   5   11.26    1.09
  -4  -5  -5   28.05    1.57
  -4  -5  -5   23.44    1.13
  -4  -5  -5   26.66    1.67
  -4  -5  -5   26.20    1.19
  -4  -5  -5   23.16    1.49
  -4  -5  -5   25.10    1.59
  -4  -5  -5   26.33    1.40
  -4  -5  -5   28.64    1.66
  -4  -5  -5   25.50    1.49
  -4  -5  -5   20.65    1.60
  -4  -5  -5   28.22    1.72
  -4  -5  -5   26.06    1.26
  -4  -5  -5   24.56    2.28
   4   5   5   24.19    1.54
   4   5   5   26.80    1.54
   4   5   5   26.18    1.63
   4   5   5   25.82    1.63
   4   5   5   24.25    1.44
   4   5   5   32.20    1.73
   4   5   5   25.95    1.27
  -5  -5  -5    5.94    0.99
  -5  -5  -5    5.73    0.86
  -5  -5  -5    6.70    1.45
  -5  -5  -5    5.97    0.89
  -5  -5  -5    5.85    0.59
  -5  -5  -5    6.53    0.92
  -5  -5  -5    6.69    1.01
  -5  -5  -5    6.49    0.75
  -5  -5  -5    5.12    0.83
  -5  -5  -5    7.95    1.23
   5   5   5    5.76    0.93
   5   5   5    6.39    0.95
   5   5   5    5.69    0.93
   5   5   5    5.81    1.00
   5   5   5    6.85    0.89
   5   5   5    5.68    0.91
  -6  -5  -5   10.21    1.21
  -6  -5  -5   11.31    1.53
  -6  -5  -5   10.68    0.80
  -6  -5  -5    9.49    1.32
  -6  -5  -5    9.68    0.95
  -6  -5  -5   11.58    1.21
   6   5   5   11.94    1.39
   6   5   5   11.31    1.30
   6   5   5   10.33    1.21
   6   5   5   12.53    1.22
   6   5   5   10.53    1.30
  -7  -5  -5    1.07    0.69
  -7  -5  -5    1.66    0.44
  -7  -5  -5    1.64    0.58
   7   5   5    1.84    0.50
   7   5   5    2.23    0.81
   7   5   5    1.41    0.74
   7   5   5    0.98    0.78
   4  -6  -5    3.68    1.59
   4  -6  -5    2.01    0.89
   4  -6  -5    2.80    0.68
  -4   6   5    2.29    0.69
  -4   6   5    1.99    0.65
  -4   6   5    1.62    0.66
  -4   6   5    2.91    0.90
   3  -6  -5    4.48    0.77
   3  -6  -5    3.39    0.83
   3  -6  -5    5.18    1.09
   3  -6  -5    5.51    1.08
   3  -6  -5    2.57    1.66
   3  -6  -5    4.30    1.37
  -3   6   5    3.16    0.73
  -3   6   5    4.73    0.84
  -3   6   5    4.66    1.01
  -3   6   5    4.18    0.82
   2  -6  -5    7.56    1.07
   2  -6  -5    6.15    0.77
   2  -6  -5    6.23    0.99
   2  -6  -5    7.80    1.69
   2  -6  -5    4.73    1.26
   2  -6  -5    4.97    0.82
   2  -6  -5    4.26    0.90
  -2   6   5    5.48    0.74
  -2   6   5    6.79    0.83
  -2   6   5    5.76    0.98
  -2   6   5    6.01    0.92
  -2   6   5    4.82    0.88
  -2   6   5    4.99    0.90
  -2   6   5    6.66    0.81
   1  -6  -5   36.87    1.85
   1  -6  -5   39.14    2.75
   1  -6  -5   36.60    1.95
   1  -6  -5   36.43    2.00
   1  -6  -5   34.27    1.97
   1  -6  -5   35.50    1.67
  -1   6   5   35.47    1.75
  -1   6   5   37.44    2.02
  -1   6   5   34.40    1.85
  -1   6   5   37.76    1.71
  -1   6   5   34.77    1.92
  -1   6   5   33.69    1.78
  -1   6   5   33.75    1.76
  -1   6   5   38.94    1.97
   0  -6  -5   22.02    1.29
   0  -6  -5   21.93    1.36
   0  -6  -5   20.97    1.23
   0  -6  -5   23.20    1.37
   0  -6  -5   24.87    1.50
   0  -6  -5   23.73    2.06
   0  -6  -5   21.19    1.41
   0  -6  -5   22.12    1.35
   0  -6  -5   21.85    1.40
   0   6   5   21.08    1.24
   0   6   5   22.49    1.40
   0   6   5   22.85    1.47
   0   6   5   23.55    1.29
   0   6   5   21.31    1.35
   0   6   5   22.72    1.44
   0   6   5   25.29    1.29
   0   6   5   21.08    1.30
  -1  -6  -5   24.42    1.44
  -1  -6  -5   25.50    1.48
  -1  -6  -5   23.24    1.43
  -1  -6  -5   24.70    1.39
  -1  -6  -5   25.38    1.42
  -1  -6  -5   25.39    1.35
  -1  -6  -5   25.80    1.46
  -1  -6  -5   25.36    1.37
  -1  -6  -5   22.34    1.97
  -1  -6  -5   23.41    1.47
  -1  -6  -5   24.82    1.22
  -1  -6  -5   23.68    1.43
   1   6   5   24.09    1.56
   1   6   5   23.82    1.37
   1   6   5   26.18    1.31
   1   6   5   28.63    1.57
   1   6   5   20.35    1.40
   1   6   5   25.64    1.35
   1   6   5   27.65    1.52
   1   6   5   21.65    1.38
   1   6   5   24.55    1.33
   1   6   5   25.07    1.49
  -2  -6  -5    6.34    0.82
  -2  -6  -5    6.04    0.75
  -2  -6  -5    6.00    0.79
  -2  -6  -5    6.90    0.69
  -2  -6  -5    5.88    1.15
  -2  -6  -5    6.11    0.73
  -2  -6  -5    7.03    0.75
  -2  -6  -5    4.93    0.68
  -2  -6  -5    5.69    0.77
  -2  -6  -5    7.99    0.87
  -2  -6  -5    5.84    0.76
   2   6   5    7.60    0.93
   2   6   5    5.11    0.76
   2   6   5    7.69    0.72
   2   6   5    5.69    0.70
   2   6   5    5.74    0.75
   2   6   5    7.06    0.81
   2   6   5    6.22    0.81
   2   6   5    6.31    0.75
  -3  -6  -5   65.82    2.93
  -3  -6  -5   72.38    2.90
  -3  -6  -5   75.32    4.00
  -3  -6  -5   73.78    3.06
  -3  -6  -5   65.71    2.99
  -3  -6  -5   72.25    2.81
  -3  -6  -5   68.16    2.92
  -3  -6  -5   70.21    3.00
  -3  -6  -5   63.74    2.81
   3   6   5   77.64    3.05
   3   6   5   68.21    2.85
   3   6   5   71.03    2.66
   3   6   5   72.14    3.03
   3   6   5   67.21    2.97
   3   6   5   73.02    2.96
   3   6   5   74.59    3.18
   3   6   5   69.90    2.82
   3   6   5   67.22    3.02
  -4  -6  -5   13.86    1.18
  -4  -6  -5   13.49    1.30
  -4  -6  -5   13.68    1.26
  -4  -6  -5   11.87    1.09
  -4  -6  -5   15.08    1.16
  -4  -6  -5   12.48    1.23
  -4  -6  -5   13.01    1.17
  -4  -6  -5   11.38    1.69
   4   6   5   12.44    1.14
   4   6   5   13.30    1.22
   4   6   5   13.09    0.93
   4   6   5   15.15    1.23
   4   6   5   12.34    1.17
   4   6   5   13.03    1.21
   4   6   5   12.13    1.08
  -5  -6  -5   17.63    1.46
  -5  -6  -5   18.98    2.27
  -5  -6  -5   17.67    1.60
  -5  -6  -5   15.30    1.47
  -5  -6  -5   17.88    1.57
  -5  -6  -5   18.79    1.41
  -5  -6  -5   20.49    1.46
   5   6   5   17.22    1.45
   5   6   5   20.80    1.58
   5   6   5   18.52    1.50
   5   6   5   21.60    1.63
   5   6   5   19.64    1.41
   5   6   5   17.52    1.53
  -6  -6  -5   10.33    1.22
  -6  -6  -5   10.25    0.77
  -6  -6  -5    8.25    1.48
   6   6   5   10.19    1.31
   6   6   5   10.98    1.48
   6   6   5    9.78    1.35
   6   6   5   10.90    1.23
   3  -7  -5    5.03    1.16
   3  -7  -5    4.93    1.48
   3  -7  -5    4.87    1.23
  -3   7   5    3.98    0.89
  -3   7   5    4.97    0.87
  -3   7   5    3.64    0.80
  -3   7   5    3.87    0.91
   2  -7  -5   10.75    1.70
   2  -7  -5   15.33    1.36
   2  -7  -5   11.46    1.06
   2  -7  -5   12.66    1.37
  -2   7   5   12.82    1.04
  -2   7   5   13.25    1.14
  -2   7   5    9.99    1.04
  -2   7   5   11.19    1.17
   1  -7  -5   36.44    2.03
   1  -7  -5   33.14    2.60
   1  -7  -5   36.36    1.92
   1  -7  -5   32.39    1.75
  -1   7   5   31.66    1.73
  -1   7   5   33.17    1.68
  -1   7   5   33.39    1.79
  -1   7   5   34.89    1.76
   0  -7  -5   80.98    4.26
   0  -7  -5   80.96    3.35
   0  -7  -5   79.62    3.17
   0  -7  -5   85.21    3.22
   0  -7  -5   75.81    3.29
   0   7   5   80.90    3.10
   0   7   5   78.51    3.27
   0   7   5   83.47    3.07
   0   7   5   76.01    3.01
   0   7   5   77.09    3.29
   0   7   5   82.11    3.20
  -1  -7  -5   50.32    2.36
  -1  -7  -5   45.67    2.16
  -1  -7  -5   48.34    3.06
  -1  -7  -5   50.23    2.24
  -1  -7  -5   51.50    2.25
  -1  -7  -5   48.07    2.82
  -1  -7  -5   50.94    2.32
   1   7   5   49.29    2.17
   1   7   5   50.48    2.32
   1   7   5   48.05    2.22
   1   7   5   49.29    2.37
   1   7   5   48.68    2.50
   1   7   5   46.67    2.44
   1   7   5   52.01    2.18
   1   7   5   48.29    2.06
  -2  -7  -5   41.13    2.81
  -2  -7  -5   45.42    2.04
  -2  -7  -5   44.49    2.19
  -2  -7  -5   37.06    1.98
  -2  -7  -5   43.37    1.98
  -2  -7  -5   40.59    2.08
   2   7   5   39.29    1.92
   2   7   5   44.55    2.22
   2   7   5   43.11    2.15
   2   7   5   35.82    2.29
   2   7   5   41.09    2.07
   2   7   5   41.29    1.98
   2   7   5   40.23    2.01
   2   7   5   39.25    1.80
  -3  -7  -5   10.04    1.05
  -3  -7  -5   10.50    1.11
  -3  -7  -5   11.20    1.64
  -3  -7  -5   11.43    1.01
  -3  -7  -5   13.03    1.06
  -3  -7  -5   10.18    1.04
  -3  -7  -5   10.76    0.97
   3   7   5    8.64    0.94
   3   7   5   11.03    1.09
   3   7   5   10.08    1.21
   3   7   5    9.63    1.02
   3   7   5    9.36    0.85
   3   7   5   11.56    1.08
  -4  -7  -5    2.18    0.74
  -4  -7  -5    1.13    0.61
  -4  -7  -5    1.03    0.85
  -4  -7  -5    0.76    0.43
  -4  -7  -5    1.53    0.52
  -4  -7  -5    1.56    0.64
   4   7   5    1.94    0.62
   4   7   5    1.10    0.50
   4   7   5    1.17    0.44
   4   7   5    0.58    0.51
  -5  -7  -5    8.62    1.82
  -5  -7  -5   12.21    2.04
  -5  -7  -5   11.92    1.20
  -5  -7  -5   10.23    1.28
  -5  -7  -5   12.13    1.33
   5   7   5   10.72    1.17
   5   7   5    7.52    1.17
   5   7   5    9.98    1.26
   5   7   5    9.22    0.91
  -6  -7  -5    4.48    1.01
  -6  -7  -5    8.42    1.44
   6   7   5    4.74    1.14
   6   7   5    6.39    1.31
   6   7   5    4.82    1.08
   3  -8  -5    0.99    0.72
   3  -8  -5    3.19    0.91
  -3   8   5    1.10    0.58
  -3   8   5    1.14    0.66
  -3   8   5    0.85    0.56
   2  -8  -5    8.88    1.27
   2  -8  -5    6.19    1.44
   2  -8  -5    7.75    1.11
  -2   8   5    5.27    0.91
  -2   8   5    8.08    0.98
  -2   8   5    4.30    0.85
   1  -8  -5    9.72    0.94
   1  -8  -5    8.77    1.55
   1  -8  -5    9.70    1.09
   1  -8  -5   10.17    1.19
  -1   8   5    9.32    0.96
  -1   8   5    8.82    0.97
  -1   8   5    9.91    0.98
   0  -8  -5   36.21    1.82
   0  -8  -5   31.06    2.47
   0  -8  -5   37.24    2.03
   0  -8  -5   32.05    1.69
   0   8   5   34.71    1.76
   0   8   5   32.74    1.72
   0   8   5   33.46    1.82
  -1  -8  -5   46.45    2.29
  -1  -8  -5   44.73    2.05
  -1  -8  -5   43.99    2.95
  -1  -8  -5   45.56    2.12
  -1  -8  -5   38.69    1.97
   1   8   5   41.84    2.02
   1   8   5   44.28    2.12
   1   8   5   42.04    2.05
  -2  -8  -5    1.16    0.77
  -2  -8  -5    1.78    0.57
  -2  -8  -5    1.21    0.48
  -2  -8  -5    1.15    0.51
  -2  -8  -5    0.83    0.55
   2   8   5    0.76    0.53
   2   8   5    0.84    0.43
   2   8   5    1.10    0.49
   2   8   5    1.10    0.48
  -3  -8  -5    1.82    0.60
  -3  -8  -5    1.31    0.49
  -3  -8  -5    1.52    0.63
  -3  -8  -5    1.34    0.86
  -3  -8  -5    1.09    0.52
   3   8   5    1.33    0.55
   3   8   5    0.69    0.50
   3   8   5    1.44    0.46
   3   8   5    2.03    0.68
  -4  -8  -5    0.41    0.56
  -4  -8  -5    1.52    0.94
  -4  -8  -5    0.27    0.44
   4   8   5    0.64    0.38
   4   8   5   -0.39    0.42
   4   8   5    1.11    0.60
   4   8   5   -0.02    0.55
  -5  -8  -5    2.21    0.84
  -5  -8  -5    1.07    0.62
   5   8   5    1.79    0.51
   5   8   5    1.91    0.82
   5   8   5    2.40    0.78
   5   8   5    1.75    0.77
   2  -9  -5    9.02    1.37
   2  -9  -5   10.64    1.19
  -2   9   5   10.02    1.14
  -2   9   5    7.37    1.01
   1  -9  -5    2.96    0.70
   1  -9  -5    3.12    0.86
  -1   9   5    3.50    0.79
  -1   9   5    3.51    0.79
   0  -9  -5    2.41    0.99
   0  -9  -5    2.51    0.75
   0   9   5    2.60    0.63
   0   9   5    1.43    0.58
  -1  -9  -5   15.61    1.37
  -1  -9  -5   12.12    1.08
  -1  -9  -5   13.71    1.75
   1   9   5   10.54    1.10
   1   9   5   12.82    1.14
   1   9   5   12.58    1.23
  -2  -9  -5    9.29    0.97
  -2  -9  -5    9.71    0.97
  -2  -9  -5    8.76    1.56
  -2  -9  -5    9.10    0.94
  -2  -9  -5    8.38    1.17
   2   9   5    7.95    1.02
   2   9   5   10.31    1.22
   2   9   5    8.23    1.00
  -3  -9  -5    5.80    0.92
  -3  -9  -5    7.25    1.16
  -3  -9  -5    7.21    1.56
   3   9   5    5.51    0.95
   3   9   5    5.52    0.98
   3   9   5    6.10    1.13
  -4  -9  -5   -0.39    0.59
  -4  -9  -5    0.07    0.52
   4   9   5    0.67    0.63
   4   9   5    0.65    0.62
   4   9   5    1.38    0.76
   0   4  -6    2.29    0.61
   0   4  -6    2.34    0.66
   0   4  -6    2.83    1.20
   0  -4   6    1.75    0.60
   0  -4   6    1.93    1.03
  -1   4  -6   10.17    0.98
  -1   4  -6    8.59    1.56
  -1   4  -6    7.15    0.82
   1  -4   6    6.94    1.38
   1  -4   6    7.98    1.05
   1  -4   6    6.44    0.84
  -2   4  -6    0.74    0.39
  -2   4  -6    0.66    0.76
   2  -4   6    0.05    0.60
  -3   4  -6    6.11    1.41
  -3   4  -6    7.50    0.81
   3  -4   6    8.73    1.45
  -4   4  -6    1.24    0.88
  -4   4  -6    1.75    0.51
  -4   4  -6    0.94    0.44
   4  -4   6    1.66    0.49
   2   3  -6    1.07    1.47
   2   3  -6    1.29    0.72
   2   3  -6    1.27    0.69
  -2  -3   6    2.01    0.74
  -2  -3   6    2.16    0.62
  -2  -3   6    2.62    1.20
   1   3  -6   13.42    1.33
   1   3  -6   16.13    2.19
   1   3  -6   14.58    1.29
  -1  -3   6   16.67    1.86
  -1  -3   6   12.58    1.23
   0   3  -6    1.73    0.54
   0   3  -6    2.55    1.06
   0   3  -6    1.02    0.53
   0  -3   6    1.05    0.51
   0  -3   6    1.66    0.85
  -1   3  -6   34.57    1.79
  -1   3  -6   36.45    1.71
  -1   3  -6   34.41    2.50
   1  -3   6   41.45    1.91
   1  -3   6   32.83    2.32
   1  -3   6   36.13    1.74
   1  -3   6   35.78    1.61
  -2   3  -6    0.86    0.67
  -2   3  -6    0.70    0.38
  -2   3  -6    0.36    0.34
   2  -3   6   -0.03    0.58
   2  -3   6    0.76    0.44
   2  -3   6    0.57    0.36
  -3   3  -6    2.77    0.59
  -3   3  -6    2.44    0.61
  -3   3  -6    2.12    0.89
   3  -3   6    3.13    0.82
   3  -3   6    2.94    0.65
   3  -3   6    3.92    1.02
  -4   3  -6    1.71    0.49
  -4   3  -6    1.07    0.45
  -4   3  -6    2.39    0.99
   4  -3   6    3.54    0.85
   4  -3   6    2.20    0.60
   4  -3   6    1.85    0.53
  -5   3  -6   10.83    1.04
  -5   3  -6   12.09    1.03
   5  -3   6   12.75    1.16
   2   2  -6    4.94    1.16
   2   2  -6    3.38    0.85
   2   2  -6    6.55    1.18
   2   2  -6    5.99    1.78
   2   2  -6    5.87    1.05
  -2  -2   6    5.20    1.36
  -2  -2   6    4.92    0.89
  -2  -2   6    4.19    1.01
   1   2  -6    1.61    0.58
   1   2  -6    0.44    0.93
   1   2  -6    1.62    0.49
   1   2  -6    1.27    0.62
  -1  -2   6    1.16    0.59
  -1  -2   6    1.14    0.47
  -1  -2   6    0.60    0.43
  -1  -2   6    1.99    0.87
   0   2  -6   23.66    2.18
   0   2  -6   27.59    1.30
   0   2  -6   27.30    1.63
   0   2  -6   29.08    1.56
   0  -2   6   29.66    1.70
   0  -2   6   27.45    1.58
   0  -2   6   27.57    1.57
   0  -2   6   28.85    1.35
   0  -2   6   29.03    1.36
   0  -2   6   25.19    1.93
  -1   2  -6   28.88    1.58
  -1   2  -6   30.42    2.21
  -1   2  -6   31.01    1.52
  -1   2  -6   27.74    1.31
   1  -2   6   32.25    1.67
   1  -2   6   32.06    1.58
   1  -2   6   31.79    1.54
   1  -2   6   33.77    2.11
  -2   2  -6    4.89    1.08
  -2   2  -6    6.25    0.67
  -2   2  -6    6.17    0.69
   2  -2   6    5.77    0.78
   2  -2   6    5.35    0.71
   2  -2   6    5.38    0.98
   2  -2   6    5.90    0.99
   2  -2   6    5.78    0.67
  -3   2  -6    9.21    0.83
  -3   2  -6    9.46    1.36
  -3   2  -6   11.09    0.85
   3  -2   6   11.25    1.25
   3  -2   6   10.47    0.82
   3  -2   6   10.03    1.24
   3  -2   6   10.32    0.92
   3  -2   6   11.31    1.00
  -4   2  -6    5.73    0.72
  -4   2  -6    4.76    0.70
   4  -2   6    4.94    0.68
   4  -2   6    5.29    1.08
   4  -2   6    4.84    0.77
   4  -2   6    5.75    0.84
  -5   2  -6    4.06    0.73
  -5   2  -6    5.63    0.78
   5  -2   6    5.63    0.89
  -6   2  -6    5.11    0.87
  -6   2  -6    4.60    0.86
   6  -2   6    4.44    1.04
   3   1  -6    1.57    0.49
   3   1  -6    2.34    1.00
   3   1  -6    1.71    0.65
   3   1  -6    2.38    0.79
   3   1  -6    1.24    1.53
   3   1  -6    1.76    0.79
  -3  -1   6    1.51    0.68
  -3  -1   6    2.85    0.81
  -3  -1   6    1.53    0.91
   2   1  -6    8.41    1.18
   2   1  -6    8.39    0.76
   2   1  -6    6.53    1.04
   2   1  -6    7.41    0.94
   2   1  -6    7.93    1.99
   2   1  -6    5.81    0.97
  -2  -1   6    5.78    1.26
  -2  -1   6    8.55    1.10
  -2  -1   6    5.89    1.01
  -2  -1   6    7.28    0.99
  -2  -1   6    5.59    0.93
   1   1  -6   15.22    1.13
   1   1  -6   17.98    1.41
   1   1  -6   16.53    1.19
   1   1  -6   19.02    0.98
   1   1  -6   16.17    1.26
   1   1  -6   20.52    2.12
  -1  -1   6   19.08    1.38
  -1  -1   6   18.18    1.64
  -1  -1   6   19.10    1.25
  -1  -1   6   17.34    1.26
  -1  -1   6   18.15    1.31
   0   1  -6   46.14    2.79
   0   1  -6   42.44    2.11
   0   1  -6   41.03    1.98
   0   1  -6   42.30    1.93
   0   1  -6   46.18    1.79
   0   1  -6   42.97    1.64
   0  -1   6   44.38    2.07
   0  -1   6   42.33    2.37
   0  -1   6   45.47    1.98
   0  -1   6   40.17    1.99
   0  -1   6   43.24    1.91
   0  -1   6   45.85    2.15
   0  -1   6   42.30    1.93
  -1   1  -6   82.87    2.79
  -1   1  -6   88.99    2.93
  -1   1  -6   86.99    3.16
  -1   1  -6   88.92    3.20
  -1   1  -6   88.67    3.31
  -1   1  -6   82.24    3.89
  -1   1  -6   88.61    3.33
   1  -1   6   80.47    3.06
   1  -1   6   84.31    3.02
   1  -1   6   86.77    3.08
   1  -1   6   85.64    3.65
   1  -1   6   89.98    3.28
   1  -1   6   88.75    3.24
   1  -1   6   85.30    3.26
   1  -1   6   83.93    4.02
   1  -1   6   86.39    3.07
   1  -1   6   84.12    3.32
   1  -1   6   89.13    3.08
  -2   1  -6   30.07    1.43
  -2   1  -6   28.32    1.18
  -2   1  -6   24.28    2.02
  -2   1  -6   28.18    1.40
  -2   1  -6   29.78    1.49
  -2   1  -6   28.49    1.98
  -2   1  -6   28.88    1.49
  -2   1  -6   29.70    1.52
  -2   1  -6   28.32    2.02
   2  -1   6   28.69    2.09
   2  -1   6   29.56    1.31
   2  -1   6   31.59    1.82
   2  -1   6   27.36    1.26
   2  -1   6   28.26    1.31
   2  -1   6   30.07    1.57
   2  -1   6   28.62    1.49
   2  -1   6   31.34    1.50
   2  -1   6   29.73    1.32
  -3   1  -6   22.20    1.29
  -3   1  -6   23.29    1.03
  -3   1  -6   22.73    1.29
  -3   1  -6   23.03    1.27
  -3   1  -6   21.72    1.79
   3  -1   6   23.39    1.16
   3  -1   6   24.11    1.36
   3  -1   6   25.59    1.93
   3  -1   6   23.85    1.35
   3  -1   6   22.92    1.39
   3  -1   6   24.70    1.33
   3  -1   6   25.72    1.14
   3  -1   6   23.17    1.55
   3  -1   6   22.58    1.13
  -4   1  -6    4.31    0.77
  -4   1  -6    2.38    0.44
  -4   1  -6    3.73    0.63
  -4   1  -6    2.55    0.61
   4  -1   6    3.15    0.64
   4  -1   6    3.31    0.53
   4  -1   6    3.89    1.01
   4  -1   6    3.81    0.58
   4  -1   6    4.08    0.70
   4  -1   6    3.46    0.55
   4  -1   6    3.77    0.76
  -5   1  -6    5.86    1.15
  -5   1  -6    4.91    0.61
  -5   1  -6    4.91    0.74
  -5   1  -6    4.59    0.75
   5  -1   6    5.76    0.70
   5  -1   6    5.08    0.73
   5  -1   6    5.26    0.88
   5  -1   6    5.25    0.70
  -6   1  -6    2.88    0.57
  -6   1  -6    2.05    0.62
  -6   1  -6    2.72    0.65
   6  -1   6    3.82    0.97
   6  -1   6    3.47    0.79
   6  -1   6    2.49    0.61
   6  -1   6    2.99    0.67
   3   0  -6   19.97    1.19
   3   0  -6   21.11    1.71
   3   0  -6   21.48    2.93
   3   0  -6   18.26    1.47
   3   0  -6   20.81    1.90
   3   0  -6   19.29    1.67
  -3   0   6   17.43    1.55
   2   0  -6    3.97    0.95
   2   0  -6    2.16    1.20
   2   0  -6    3.81    0.80
   2   0  -6    3.49    0.76
   2   0  -6    3.78    0.80
   2   0  -6    3.50    0.55
  -2   0   6    3.62    0.95
  -2   0   6    3.44    0.78
  -2   0   6    2.83    0.75
  -2   0   6    4.34    0.87
  -2   0   6    4.03    0.94
   1   0  -6   37.18    1.74
   1   0  -6   34.65    2.01
   1   0  -6   32.75    1.92
   1   0  -6   36.89    1.88
   1   0  -6   33.48    2.57
   1   0  -6   33.21    1.96
   1   0  -6   33.50    1.75
   1   0  -6   35.28    1.49
  -1   0   6   35.31    1.88
  -1   0   6   35.47    1.87
  -1   0   6   34.67    1.90
  -1   0   6   35.81    2.15
  -1   0   6   33.88    1.87
  -1   0   6   37.25    1.84
  -1   0   6   36.42    1.95
   0   0  -6   18.35    1.00
   0   0  -6   18.85    1.84
   0   0  -6   16.15    1.21
   0   0  -6   16.71    0.85
   0   0  -6   17.55    1.23
   0   0  -6   15.03    1.57
   0   0  -6   20.20    1.17
   0   0  -6   15.39    1.13
   0   0  -6   17.61    1.30
   0   0  -6   14.84    1.19
   0   0   6   16.02    1.18
   0   0   6   16.52    1.16
   0   0   6   15.79    1.14
   0   0   6   16.04    1.07
   0   0   6   15.26    1.11
   0   0   6   17.34    1.13
   0   0   6   18.05    1.28
   0   0   6   18.91    1.42
   0   0   6   16.67    1.18
   0   0   6   18.36    1.17
  -1   0  -6   37.21    1.71
  -1   0  -6   37.39    1.82
  -1   0  -6   35.63    1.76
  -1   0  -6   34.50    1.81
  -1   0  -6   38.68    2.26
  -1   0  -6   38.00    2.48
  -1   0  -6   34.97    1.40
  -1   0  -6   35.35    1.71
  -1   0  -6   34.39    1.65
  -1   0  -6   37.29    1.80
  -1   0  -6   37.74    1.50
  -1   0  -6   36.72    1.81
  -1   0  -6   38.91    1.74
   1   0   6   36.86    1.79
   1   0   6   41.28    1.83
   1   0   6   34.89    1.88
   1   0   6   37.09    1.66
   1   0   6   38.00    1.68
   1   0   6   39.53    1.83
   1   0   6   37.40    1.85
   1   0   6   35.38    1.72
   1   0   6   43.54    2.62
   1   0   6   36.95    1.72
   1   0   6   34.47    1.62
  -2   0  -6   19.99    0.92
  -2   0  -6   19.38    1.12
  -2   0  -6   20.05    1.18
  -2   0  -6   19.83    1.17
  -2   0  -6   18.53    1.17
  -2   0  -6   20.28    1.24
  -2   0  -6   20.07    1.18
  -2   0  -6   19.59    1.72
  -2   0  -6   19.91    0.88
  -2   0  -6   17.34    1.52
  -2   0  -6   18.30    1.11
  -2   0  -6   18.02    1.06
  -2   0  -6   18.07    1.10
   2   0   6   19.13    1.10
   2   0   6   20.33    1.21
   2   0   6   20.47    1.11
   2   0   6   19.81    1.15
   2   0   6   16.21    1.64
   2   0   6   18.30    1.22
   2   0   6   20.61    1.32
   2   0   6   19.18    1.09
   2   0   6   19.41    1.19
  -3   0  -6   16.49    1.08
  -3   0  -6   17.83    1.14
  -3   0  -6   15.26    1.44
  -3   0  -6   15.26    1.03
  -3   0  -6   16.56    1.64
  -3   0  -6   15.72    1.10
  -3   0  -6   16.88    1.10
  -3   0  -6   19.03    0.89
  -3   0  -6   15.18    1.06
  -3   0  -6   15.33    1.14
   3   0   6   16.16    1.02
   3   0   6   17.01    1.04
   3   0   6   17.80    1.13
   3   0   6   15.43    1.14
   3   0   6   17.04    1.13
   3   0   6   18.70    1.23
   3   0   6   16.61    1.06
   3   0   6   18.48    1.05
   3   0   6   12.80    1.48
   3   0   6   17.18    1.16
   3   0   6   18.85    1.23
  -4   0  -6   44.22    2.04
  -4   0  -6   38.60    2.03
  -4   0  -6   43.73    1.70
  -4   0  -6   41.08    2.15
  -4   0  -6   44.18    1.72
  -4   0  -6   46.56    2.00
  -4   0  -6   43.39    2.02
   4   0   6   41.50    2.18
   4   0   6   42.05    2.04
   4   0   6   45.38    1.98
   4   0   6   46.10    2.14
   4   0   6   44.51    1.94
   4   0   6   41.75    2.02
   4   0   6   40.77    2.73
   4   0   6   41.84    1.94
  -5   0  -6   29.61    1.63
  -5   0  -6   28.08    1.64
  -5   0  -6   26.16    1.39
  -5   0  -6   31.37    1.40
  -5   0  -6   26.49    1.81
   5   0   6   28.08    1.61
   5   0   6   30.25    1.78
   5   0   6   28.70    1.60
   5   0   6   29.86    1.64
  -6   0  -6    5.59    0.85
  -6   0  -6    4.06    0.66
  -6   0  -6    4.77    1.14
  -6   0  -6    5.78    0.87
  -6   0  -6    6.18    0.92
   6   0   6    5.46    0.87
   6   0   6    4.17    0.90
   6   0   6    5.34    0.91
   6   0   6    3.77    0.90
   6   0   6    4.16    0.94
  -7   0  -6    1.19    0.46
  -7   0  -6    4.48    1.31
  -7   0  -6    2.54    0.72
  -7   0  -6    1.33    0.58
  -7   0  -6    1.29    0.64
   7   0   6    1.76    0.67
   7   0   6    1.39    0.76
   4  -1  -6    4.22    1.01
   4  -1  -6    4.95    2.09
   4  -1  -6    4.27    1.10
   4  -1  -6    4.68    1.30
   4  -1  -6    4.90    0.80
  -4   1   6    5.25    1.21
  -4   1   6    4.35    0.66
   3  -1  -6   12.00    2.35
   3  -1  -6   11.08    1.18
   3  -1  -6   11.15    0.92
   3  -1  -6   13.03    1.57
   3  -1  -6   11.66    1.90
   3  -1  -6   12.53    1.39
   3  -1  -6   11.77    1.32
   3  -1  -6   10.87    1.53
  -3   1   6   11.41    1.42
  -3   1   6   11.16    1.30
  -3   1   6   11.84    1.29
   2  -1  -6   23.47    1.27
   2  -1  -6   26.79    1.77
   2  -1  -6   28.45    1.90
   2  -1  -6   30.35    2.75
   2  -1  -6   25.99    1.59
   2  -1  -6   26.45    1.67
   2  -1  -6   25.94    1.69
  -2   1   6   26.00    1.17
  -2   1   6   24.22    1.63
  -2   1   6   24.38    1.67
  -2   1   6   25.35    1.75
  -2   1   6   28.18    1.76
  -2   1   6   28.54    1.79
   1  -1  -6   27.44    1.70
   1  -1  -6   25.52    1.49
   1  -1  -6   27.13    1.45
   1  -1  -6   25.84    1.55
   1  -1  -6   24.20    1.20
   1  -1  -6   27.45    2.44
   1  -1  -6   26.71    1.68
   1  -1  -6   25.59    1.63
   1  -1  -6   23.31    2.10
  -1   1   6   25.10    1.60
  -1   1   6   27.06    1.56
  -1   1   6   23.84    1.53
  -1   1   6   25.14    1.59
  -1   1   6   27.35    1.61
  -1   1   6   26.35    1.58
  -1   1   6   26.60    1.28
  -1   1   6   24.18    1.48
  -1   1   6   27.17    1.64
   0  -1  -6   37.70    1.90
   0  -1  -6   38.57    1.65
   0  -1  -6   38.85    2.00
   0  -1  -6   36.57    2.61
   0  -1  -6   37.38    1.95
   0  -1  -6   38.02    1.97
   0  -1  -6   36.49    1.91
   0  -1  -6   37.60    1.53
   0  -1  -6   39.12    1.84
   0  -1  -6   38.60    2.35
   0  -1  -6   37.91    1.94
   0  -1  -6   41.44    1.81
   0   1   6   37.78    1.87
   0   1   6   35.87    1.77
   0   1   6   37.89    1.65
   0   1   6   40.47    1.97
   0   1   6   43.61    2.01
   0   1   6   37.38    1.85
   0   1   6   39.48    1.88
   0   1   6   36.87    1.55
   0   1   6   41.29    1.95
   0   1   6   38.67    1.80
   0   1   6   37.74    1.80
   0   1   6   37.31    1.89
   0   1   6   37.07    1.93
   0   1   6   28.96    2.37
  -1  -1  -6    3.68    0.43
  -1  -1  -6    4.12    0.64
  -1  -1  -6    4.33    0.58
  -1  -1  -6    2.99    0.77
  -1  -1  -6    3.89    0.48
  -1  -1  -6    3.19    0.57
  -1  -1  -6    4.29    0.64
  -1  -1  -6    4.04    0.65
  -1  -1  -6    3.42    0.58
  -1  -1  -6    4.81    0.72
  -1  -1  -6    4.85    0.63
  -1  -1  -6    4.29    0.67
  -1  -1  -6    3.00    0.87
  -1  -1  -6    4.96    0.62
   1   1   6    4.07    0.45
   1   1   6    3.63    0.58
   1   1   6    3.49    0.88
   1   1   6    4.63    0.63
   1   1   6    5.00    0.63
   1   1   6    3.55    0.64
   1   1   6    3.21    0.44
   1   1   6    4.56    0.62
   1   1   6    4.72    0.67
   1   1   6    4.86    0.64
   1   1   6    4.18    0.49
   1   1   6    4.13    0.59
   1   1   6    3.85    0.57
   1   1   6    3.84    0.62
  -2  -1  -6   80.38    2.72
  -2  -1  -6   77.78    3.11
  -2  -1  -6   76.67    2.97
  -2  -1  -6   80.22    2.69
  -2  -1  -6   77.90    3.05
  -2  -1  -6   83.12    3.05
  -2  -1  -6   78.06    3.89
  -2  -1  -6   75.04    2.95
  -2  -1  -6   74.63    3.42
  -2  -1  -6   77.92    2.97
  -2  -1  -6   84.29    3.06
  -2  -1  -6   81.54    3.04
  -2  -1  -6   77.50    2.90
  -2  -1  -6   80.01    3.13
   2   1   6   77.78    2.99
   2   1   6   77.27    2.79
   2   1   6   76.02    2.91
   2   1   6   77.91    3.10
   2   1   6   76.63    3.03
   2   1   6   80.89    2.97
   2   1   6   80.66    3.09
   2   1   6   85.44    4.01
   2   1   6   77.58    2.95
   2   1   6   81.26    3.07
   2   1   6   81.28    2.97
   2   1   6   78.71    2.67
   2   1   6   80.31    3.03
   2   1   6   78.53    2.71
  -3  -1  -6  199.40    6.74
  -3  -1  -6  211.72    6.40
  -3  -1  -6  207.95    7.88
  -3  -1  -6  200.90    6.60
  -3  -1  -6  207.62    6.69
  -3  -1  -6  198.47    6.72
  -3  -1  -6  202.52    6.85
  -3  -1  -6  199.26    6.70
  -3  -1  -6  205.61    6.75
  -3  -1  -6  198.35    6.84
  -3  -1  -6  205.11    6.73
  -3  -1  -6  211.66    6.76
  -3  -1  -6  214.24    6.39
   3   1   6  207.07    6.78
   3   1   6  201.97    6.33
   3   1   6  195.47    6.72
   3   1   6  212.46    6.87
   3   1   6  201.32    6.62
   3   1   6  216.94    6.79
   3   1   6  212.91    6.83
   3   1   6  215.73    6.86
   3   1   6  203.01    6.69
   3   1   6  199.99    6.36
   3   1   6  194.18    6.66
   3   1   6  204.35    6.73
   3   1   6  203.66    6.46
   3   1   6  180.09    7.63
  -4  -1  -6  144.10    5.27
  -4  -1  -6  148.94    4.78
  -4  -1  -6  145.93    5.22
  -4  -1  -6  145.22    5.08
  -4  -1  -6  147.69    4.74
  -4  -1  -6  150.49    5.06
  -4  -1  -6  141.98    5.09
  -4  -1  -6  144.29    5.11
  -4  -1  -6  146.66    6.23
   4   1   6  154.42    5.09
   4   1   6  147.77    5.13
   4   1   6  147.35    6.27
   4   1   6  138.57    5.07
   4   1   6  144.20    5.19
   4   1   6  142.61    5.11
   4   1   6  139.32    5.14
   4   1   6  140.63    4.66
   4   1   6  140.42    5.06
   4   1   6  143.65    4.81
   4   1   6  154.97    5.20
  -5  -1  -6   12.13    1.33
  -5  -1  -6   12.55    1.24
  -5  -1  -6   15.06    1.16
  -5  -1  -6   14.68    0.90
  -5  -1  -6   11.88    1.00
  -5  -1  -6   11.98    1.06
  -5  -1  -6   14.99    1.18
  -5  -1  -6   13.00    1.15
   5   1   6   14.78    1.20
   5   1   6   13.77    1.20
   5   1   6   13.90    1.19
   5   1   6   14.00    1.16
   5   1   6   13.03    1.20
   5   1   6   13.54    1.19
  -6  -1  -6    0.30    0.43
  -6  -1  -6    0.62    0.43
  -6  -1  -6    0.41    0.75
  -6  -1  -6   -0.47    0.23
  -6  -1  -6    0.00    0.39
   6   1   6   -0.07    0.35
   6   1   6   -0.50    0.41
   6   1   6    0.31    0.50
   6   1   6    0.24    0.31
   6   1   6   -0.13    0.43
  -7  -1  -6    5.01    0.78
  -7  -1  -6    6.43    1.58
  -7  -1  -6    6.68    1.06
  -7  -1  -6    6.38    1.10
  -7  -1  -6    6.38    1.05
   7   1   6    4.57    1.08
   7   1   6    6.97    0.73
   4  -2  -6   20.72    2.03
   4  -2  -6   20.70    2.10
   4  -2  -6   21.48    1.87
   4  -2  -6   17.13    3.24
   4  -2  -6   18.23    1.76
   4  -2  -6   19.43    1.23
  -4   2   6   18.11    1.23
  -4   2   6   19.70    1.20
  -4   2   6   19.27    1.75
   3  -2  -6    0.49    0.53
   3  -2  -6   -0.27    0.52
   3  -2  -6    0.69    0.64
   3  -2  -6    0.50    0.53
   3  -2  -6    1.03    0.67
   3  -2  -6   -0.10    1.19
   3  -2  -6    0.21    0.34
   3  -2  -6    0.37    0.59
  -3   2   6    0.68    0.64
  -3   2   6    0.11    0.51
  -3   2   6    0.73    0.66
  -3   2   6    0.32    0.33
  -3   2   6    0.08    0.32
   2  -2  -6    3.65    0.83
   2  -2  -6    4.11    0.78
   2  -2  -6    4.36    1.41
   2  -2  -6    5.00    0.92
   2  -2  -6    4.21    0.84
   2  -2  -6    2.92    0.82
   2  -2  -6    3.27    0.56
   2  -2  -6    5.18    1.00
  -2   2   6    5.54    0.94
  -2   2   6    4.24    0.86
  -2   2   6    3.92    0.57
  -2   2   6    3.28    0.82
  -2   2   6    3.09    0.55
  -2   2   6    3.38    0.89
  -2   2   6    4.73    0.88
  -2   2   6    3.67    0.77
  -2   2   6    3.88    0.85
  -2   2   6    3.93    0.88
   1  -2  -6    1.56    0.51
   1  -2  -6    1.69    0.69
   1  -2  -6    1.89    0.84
   1  -2  -6    1.48    0.48
   1  -2  -6    1.54    0.48
   1  -2  -6    2.08    0.64
   1  -2  -6    1.75    0.61
   1  -2  -6    0.32    0.63
   1  -2  -6    0.97    0.45
  -1   2   6    1.76    0.54
  -1   2   6    1.28    0.47
  -1   2   6    1.08    0.45
  -1   2   6    2.09    0.65
  -1   2   6    1.64    0.31
  -1   2   6    2.33    0.56
  -1   2   6    1.34    0.43
  -1   2   6    1.46    0.38
  -1   2   6    1.64    0.47
  -1   2   6    1.78    0.39
  -1   2   6    1.69    0.58
  -1   2   6    1.72    0.56
  -1   2   6    1.63    0.51
  -1   2   6    2.06    0.62
   0  -2  -6   17.14    1.25
   0  -2  -6   15.13    1.46
   0  -2  -6   16.30    1.21
   0  -2  -6   16.16    0.89
   0  -2  -6   14.77    1.69
   0  -2  -6   17.13    1.22
   0  -2  -6   18.65    1.27
   0  -2  -6   17.12    1.28
   0  -2  -6   17.67    1.02
   0  -2  -6   18.26    1.18
   0  -2  -6   16.47    1.10
   0  -2  -6   15.16    1.16
   0   2   6   15.71    0.86
   0   2   6   15.11    1.16
   0   2   6   16.88    1.74
   0   2   6   16.46    0.96
   0   2   6   17.10    1.18
   0   2   6   15.82    1.13
   0   2   6   14.02    1.14
   0   2   6   15.16    0.97
   0   2   6   15.79    1.02
   0   2   6   16.00    1.20
   0   2   6   16.93    0.72
   0   2   6   17.12    0.78
   0   2   6   15.59    1.09
   0   2   6   16.40    1.13
   0   2   6   17.42    1.15
   0   2   6   18.81    1.25
   0   2   6   15.65    1.16
  -1  -2  -6   11.52    0.90
  -1  -2  -6   12.16    0.97
  -1  -2  -6   10.38    0.91
  -1  -2  -6   12.60    0.76
  -1  -2  -6    9.74    0.93
  -1  -2  -6    9.81    0.91
  -1  -2  -6   12.99    0.99
  -1  -2  -6   10.78    1.10
  -1  -2  -6   11.07    0.92
  -1  -2  -6   10.10    1.31
  -1  -2  -6   11.76    0.71
  -1  -2  -6   12.23    0.91
   1   2   6   12.21    0.82
   1   2   6    9.56    0.93
   1   2   6   11.00    0.89
   1   2   6   11.42    0.75
   1   2   6   12.59    0.98
   1   2   6   11.09    0.51
   1   2   6   10.56    0.66
   1   2   6   10.25    0.89
   1   2   6   11.81    0.79
   1   2   6   11.71    0.93
   1   2   6   10.91    0.62
   1   2   6   10.78    0.91
   1   2   6   12.05    0.90
   1   2   6   10.86    0.94
   1   2   6   11.33    1.41
   1   2   6   12.11    0.83
   1   2   6   11.79    0.54
  -2  -2  -6   14.72    1.05
  -2  -2  -6   16.82    0.89
  -2  -2  -6   17.12    0.89
  -2  -2  -6   16.65    1.65
  -2  -2  -6   15.72    1.08
  -2  -2  -6   17.94    1.13
  -2  -2  -6   19.26    1.39
  -2  -2  -6   15.51    1.11
  -2  -2  -6   17.72    1.16
  -2  -2  -6   18.23    1.10
  -2  -2  -6   16.98    1.13
  -2  -2  -6   16.84    1.17
   2   2   6   17.18    1.15
   2   2   6   16.72    0.82
   2   2   6   17.01    0.94
   2   2   6   17.17    1.15
   2   2   6   15.69    0.87
   2   2   6   16.53    1.12
   2   2   6   15.69    0.97
   2   2   6   16.58    1.08
   2   2   6   16.13    1.10
   2   2   6   14.71    1.55
   2   2   6   15.69    1.08
   2   2   6   16.63    0.77
   2   2   6   17.08    0.95
   2   2   6   16.27    1.07
   2   2   6   15.47    1.06
  -3  -2  -6  106.00    3.88
  -3  -2  -6  104.02    4.02
  -3  -2  -6  106.62    3.55
  -3  -2  -6  103.15    3.85
  -3  -2  -6  104.53    3.87
  -3  -2  -6  112.40    3.86
  -3  -2  -6  108.18    3.96
  -3  -2  -6  108.38    4.01
  -3  -2  -6  105.21    4.92
  -3  -2  -6  100.49    3.91
  -3  -2  -6  106.36    3.59
   3   2   6  105.91    3.88
   3   2   6  103.75    4.84
   3   2   6  114.40    3.99
   3   2   6  105.74    3.63
   3   2   6  107.07    3.94
   3   2   6  101.62    3.86
   3   2   6  105.41    3.80
   3   2   6  105.17    3.96
   3   2   6  106.74    3.45
   3   2   6  103.87    3.39
   3   2   6  107.83    3.89
   3   2   6  105.40    3.73
   3   2   6  106.36    3.91
   3   2   6  102.40    3.62
   3   2   6  105.99    3.96
  -4  -2  -6   53.43    2.62
  -4  -2  -6   59.45    2.49
  -4  -2  -6   59.11    2.53
  -4  -2  -6   56.12    2.28
  -4  -2  -6   51.35    2.61
  -4  -2  -6   61.34    3.51
  -4  -2  -6   61.81    2.21
  -4  -2  -6   56.45    2.53
  -4  -2  -6   57.84    2.53
  -4  -2  -6   64.62    2.85
   4   2   6   59.85    2.64
   4   2   6   55.47    3.43
   4   2   6   61.12    2.63
   4   2   6   59.69    2.29
   4   2   6   56.47    2.53
   4   2   6   57.12    2.55
   4   2   6   60.14    2.10
   4   2   6   55.76    2.53
   4   2   6   57.48    2.31
   4   2   6   61.65    2.61
   4   2   6   60.41    2.62
   4   2   6   57.45    2.36
  -5  -2  -6   10.25    1.27
  -5  -2  -6   11.90    0.83
  -5  -2  -6   12.14    1.25
  -5  -2  -6   11.11    1.09
  -5  -2  -6   12.50    1.06
  -5  -2  -6   12.86    1.00
  -5  -2  -6   11.05    1.06
  -5  -2  -6   10.65    1.06
   5   2   6   11.71    1.20
   5   2   6   12.05    1.13
   5   2   6   12.79    1.15
   5   2   6   10.95    0.97
   5   2   6    9.67    1.10
   5   2   6   10.25    1.07
   5   2   6   12.07    1.17
  -6  -2  -6    4.50    0.88
  -6  -2  -6    4.92    0.64
  -6  -2  -6    4.74    0.84
  -6  -2  -6    3.96    0.93
  -6  -2  -6    6.41    1.31
  -6  -2  -6    5.21    0.87
  -6  -2  -6    5.97    1.13
  -6  -2  -6    3.48    0.78
   6   2   6    4.24    0.96
   6   2   6    4.75    0.89
   6   2   6    3.76    0.99
  -7  -2  -6    7.70    1.16
  -7  -2  -6    7.02    1.11
  -7  -2  -6    7.69    0.84
  -7  -2  -6    5.14    1.01
  -7  -2  -6    5.16    1.38
   7   2   6    7.57    1.23
   7   2   6    7.80    0.87
   4  -3  -6    3.46    0.72
   4  -3  -6    3.96    1.01
   4  -3  -6    4.47    1.09
   4  -3  -6    2.70    1.03
   4  -3  -6    8.98    2.67
  -4   3   6    4.96    0.91
  -4   3   6    6.57    1.57
  -4   3   6    5.08    0.81
  -4   3   6    6.81    1.31
  -4   3   6    5.15    1.17
   3  -3  -6   12.20    1.47
   3  -3  -6   15.77    2.57
   3  -3  -6   12.80    1.29
   3  -3  -6   12.27    1.17
   3  -3  -6   11.17    1.32
   3  -3  -6   11.35    0.89
   3  -3  -6   13.77    1.55
   3  -3  -6   13.83    1.40
  -3   3   6   13.27    1.09
  -3   3   6   15.30    1.51
  -3   3   6   13.65    1.39
  -3   3   6   13.91    1.47
  -3   3   6   13.71    1.05
   2  -3  -6    3.43    0.73
   2  -3  -6    3.03    0.81
   2  -3  -6    1.62    0.60
   2  -3  -6    3.34    0.55
   2  -3  -6    3.29    1.35
   2  -3  -6    3.50    0.84
   2  -3  -6    3.59    0.78
   2  -3  -6    2.69    0.80
   2  -3  -6    3.91    1.28
  -2   3   6    3.51    0.90
  -2   3   6    2.22    0.70
  -2   3   6    3.80    0.65
  -2   3   6    3.96    0.70
  -2   3   6    4.18    0.82
  -2   3   6    3.49    0.85
  -2   3   6    3.98    0.71
  -2   3   6    2.59    0.59
   1  -3  -6   15.15    1.33
   1  -3  -6   16.21    1.16
   1  -3  -6   14.94    1.30
   1  -3  -6   12.51    1.65
   1  -3  -6   16.05    0.93
   1  -3  -6   16.27    1.23
   1  -3  -6   13.90    1.77
   1  -3  -6   15.63    1.15
   1  -3  -6   16.13    1.53
   1  -3  -6   16.18    1.33
   1  -3  -6   16.24    1.32
   1  -3  -6   16.17    1.28
  -1   3   6   16.73    1.24
  -1   3   6   15.81    1.23
  -1   3   6   16.58    1.33
  -1   3   6   16.50    1.09
  -1   3   6   16.02    1.21
  -1   3   6   16.09    1.84
  -1   3   6   13.49    0.95
  -1   3   6   14.57    1.19
  -1   3   6   16.45    1.14
  -1   3   6   17.27    1.01
  -1   3   6   16.90    1.28
  -1   3   6   16.44    1.23
  -1   3   6   14.74    1.26
   0  -3  -6   11.65    1.01
   0  -3  -6   11.02    0.96
   0  -3  -6   11.57    1.05
   0  -3  -6   11.12    1.02
   0  -3  -6   10.49    1.01
   0  -3  -6   12.50    1.07
   0  -3  -6   13.32    1.58
   0  -3  -6   11.23    0.87
   0  -3  -6   11.49    0.95
   0  -3  -6   12.68    1.30
   0  -3  -6   12.00    0.76
   0  -3  -6   10.46    0.99
   0   3   6   12.75    1.05
   0   3   6   13.01    0.91
   0   3   6   10.16    0.99
   0   3   6   11.12    0.97
   0   3   6   12.53    0.81
   0   3   6   10.95    0.97
   0   3   6   12.27    1.00
   0   3   6   13.09    1.10
   0   3   6   11.92    1.01
   0   3   6   11.42    0.77
   0   3   6   11.96    1.02
   0   3   6   14.29    0.98
   0   3   6   12.30    1.56
  -1  -3  -6   29.25    2.26
  -1  -3  -6   29.38    1.61
  -1  -3  -6   29.33    1.31
  -1  -3  -6   32.35    1.57
  -1  -3  -6   29.37    1.35
  -1  -3  -6   29.10    1.67
  -1  -3  -6   31.47    1.78
  -1  -3  -6   31.85    1.69
  -1  -3  -6   29.24    1.60
  -1  -3  -6   30.07    1.65
  -1  -3  -6   31.32    1.61
  -1  -3  -6   30.04    1.67
  -1  -3  -6   29.19    1.53
  -1  -3  -6   34.93    1.72
   1   3   6   29.41    1.63
   1   3   6   30.07    1.58
   1   3   6   30.54    1.28
   1   3   6   30.14    1.62
   1   3   6   28.24    1.32
   1   3   6   28.79    1.43
   1   3   6   30.78    1.74
   1   3   6   29.10    1.49
   1   3   6   32.95    1.68
   1   3   6   30.52    1.29
   1   3   6   30.52    1.63
   1   3   6   30.35    1.58
   1   3   6   29.15    1.18
   1   3   6   30.11    1.56
  -2  -3  -6    2.62    0.63
  -2  -3  -6    2.07    0.50
  -2  -3  -6    2.82    0.55
  -2  -3  -6    2.95    0.86
  -2  -3  -6    1.60    0.47
  -2  -3  -6    1.73    0.58
  -2  -3  -6    1.39    0.43
  -2  -3  -6    1.38    0.45
  -2  -3  -6    1.83    0.42
  -2  -3  -6    2.31    0.54
  -2  -3  -6    2.35    0.41
  -2  -3  -6    2.16    0.53
  -2  -3  -6    1.42    0.44
   2   3   6    1.69    0.41
   2   3   6    2.21    0.54
   2   3   6    2.50    0.60
   2   3   6    2.70    0.33
   2   3   6    2.46    0.61
   2   3   6    1.55    0.44
   2   3   6    2.19    0.54
   2   3   6    1.33    0.35
   2   3   6    2.20    0.48
   2   3   6    1.29    0.41
   2   3   6    2.48    0.44
   2   3   6    2.09    0.35
   2   3   6    2.28    0.53
   2   3   6    1.62    0.48
   2   3   6    2.04    0.84
  -3  -3  -6   99.98    3.44
  -3  -3  -6   98.53    3.70
  -3  -3  -6   88.05    4.61
  -3  -3  -6   92.35    3.56
  -3  -3  -6   95.54    3.79
  -3  -3  -6   96.06    3.82
  -3  -3  -6  101.62    3.35
  -3  -3  -6   98.32    3.79
  -3  -3  -6   99.94    3.80
  -3  -3  -6  100.52    3.69
  -3  -3  -6   99.87    3.81
  -3  -3  -6  101.14    3.70
   3   3   6   98.32    3.68
   3   3   6   96.49    3.68
   3   3   6  101.03    3.83
   3   3   6   96.47    3.57
   3   3   6   97.48    3.77
   3   3   6   97.24    3.69
   3   3   6   99.33    3.76
   3   3   6   99.16    3.19
   3   3   6  102.63    3.66
   3   3   6  101.01    3.40
   3   3   6  101.63    4.73
   3   3   6   93.92    3.76
   3   3   6   99.51    3.51
  -4  -3  -6    6.26    0.87
  -4  -3  -6    4.28    0.52
  -4  -3  -6    5.60    1.23
  -4  -3  -6    5.91    0.89
  -4  -3  -6    7.14    1.01
  -4  -3  -6    7.11    0.85
  -4  -3  -6    6.64    0.74
  -4  -3  -6    6.28    0.79
  -4  -3  -6    7.09    0.82
  -4  -3  -6    6.11    0.79
  -4  -3  -6    6.54    0.75
   4   3   6    7.03    0.78
   4   3   6    6.05    1.26
   4   3   6    5.80    0.84
   4   3   6    5.58    0.84
   4   3   6    5.36    0.82
   4   3   6    5.61    0.81
   4   3   6    6.44    0.69
   4   3   6    5.34    0.80
   4   3   6    6.68    0.68
   4   3   6    6.57    0.92
   4   3   6    5.95    0.48
   4   3   6    6.78    0.82
   4   3   6    5.80    0.86
  -5  -3  -6   16.47    2.08
  -5  -3  -6   15.91    1.17
  -5  -3  -6   16.56    1.46
  -5  -3  -6   16.84    1.57
  -5  -3  -6   15.24    0.97
  -5  -3  -6   16.07    1.27
  -5  -3  -6   18.40    1.36
  -5  -3  -6   16.80    1.30
  -5  -3  -6   15.22    1.21
   5   3   6   19.25    1.45
   5   3   6   17.71    0.83
   5   3   6   17.26    1.46
   5   3   6   14.96    1.32
   5   3   6   19.27    1.52
   5   3   6   15.54    1.11
   5   3   6   16.76    1.08
   5   3   6   15.59    1.19
   5   3   6   13.50    1.26
   5   3   6   16.00    1.35
   5   3   6   17.45    1.36
  -6  -3  -6   49.15    2.30
  -6  -3  -6   47.03    2.48
  -6  -3  -6   45.28    2.74
  -6  -3  -6   45.10    1.97
  -6  -3  -6   44.65    2.38
  -6  -3  -6   43.35    2.28
  -6  -3  -6   46.67    2.42
  -6  -3  -6   43.95    2.65
   6   3   6   44.87    2.48
   6   3   6   49.46    2.57
   6   3   6   47.97    1.71
   6   3   6   45.97    2.05
  -7  -3  -6   12.17    1.84
  -7  -3  -6   14.94    1.35
  -7  -3  -6   13.03    1.40
  -7  -3  -6   14.76    1.56
  -7  -3  -6   15.00    1.40
  -7  -3  -6   13.68    1.05
  -7  -3  -6   15.65    1.45
   7   3   6   13.91    1.60
   7   3   6   13.68    1.17
   7   3   6   14.80    1.77
   4  -4  -6   12.87    1.53
   4  -4  -6   14.51    1.83
   4  -4  -6   18.19    3.35
   4  -4  -6   15.20    0.98
  -4   4   6   14.66    1.37
  -4   4   6   14.43    1.20
  -4   4   6   14.78    1.57
  -4   4   6   13.06    1.66
  -4   4   6   13.14    1.71
   3  -4  -6    6.14    1.02
   3  -4  -6    7.66    1.90
   3  -4  -6    6.73    1.39
   3  -4  -6    6.04    1.14
   3  -4  -6    7.06    0.70
   3  -4  -6    7.61    0.98
   3  -4  -6    6.83    2.17
   3  -4  -6    5.63    1.23
  -3   4   6    6.51    1.12
  -3   4   6    7.41    1.00
  -3   4   6    7.15    1.21
  -3   4   6    7.23    1.19
  -3   4   6    6.05    0.91
  -3   4   6    6.73    0.85
   2  -4  -6   18.87    2.38
   2  -4  -6   13.55    1.94
   2  -4  -6   16.54    1.24
   2  -4  -6   16.95    1.50
   2  -4  -6   16.54    1.47
   2  -4  -6   18.85    1.47
   2  -4  -6   15.14    2.23
   2  -4  -6   18.00    1.34
   2  -4  -6   15.40    1.30
   2  -4  -6   16.15    0.95
  -2   4   6   19.73    1.53
  -2   4   6   13.99    1.06
  -2   4   6   17.06    1.47
  -2   4   6   16.39    1.42
  -2   4   6   17.86    1.30
  -2   4   6   17.78    1.27
  -2   4   6   17.53    1.39
  -2   4   6   15.76    1.17
   1  -4  -6   11.69    1.10
   1  -4  -6   10.48    1.14
   1  -4  -6   11.44    1.13
   1  -4  -6   10.59    0.99
   1  -4  -6   10.02    0.94
   1  -4  -6   11.68    1.16
   1  -4  -6    9.97    1.09
   1  -4  -6   12.93    1.72
   1  -4  -6   10.46    1.54
   1  -4  -6   10.16    1.16
   1  -4  -6   10.20    0.74
   1  -4  -6   12.00    1.02
   1  -4  -6    8.84    1.06
  -1   4   6   10.54    1.03
  -1   4   6   11.72    1.16
  -1   4   6   10.52    0.93
  -1   4   6    8.64    1.01
  -1   4   6    9.66    1.17
  -1   4   6   11.66    1.00
  -1   4   6   11.32    1.04
  -1   4   6   11.53    1.67
  -1   4   6   11.01    1.11
  -1   4   6   10.29    0.84
  -1   4   6   10.06    0.91
   0  -4  -6    5.82    0.57
   0  -4  -6    7.31    0.91
   0  -4  -6    6.46    0.83
   0  -4  -6    6.12    1.04
   0  -4  -6    5.84    0.81
   0  -4  -6    5.35    0.73
   0  -4  -6    6.44    0.72
   0  -4  -6    7.60    0.89
   0  -4  -6    6.88    0.85
   0  -4  -6    6.87    0.84
   0  -4  -6    6.30    0.80
   0  -4  -6    4.25    1.07
   0  -4  -6    6.15    0.86
   0  -4  -6    7.22    0.85
   0  -4  -6    7.41    0.81
   0   4   6    7.63    0.89
   0   4   6    5.60    0.63
   0   4   6    6.21    0.79
   0   4   6    5.82    0.68
   0   4   6    6.37    0.68
   0   4   6    5.46    0.79
   0   4   6    5.70    0.78
   0   4   6    5.78    0.79
   0   4   6    6.81    0.75
   0   4   6    6.23    0.77
   0   4   6    6.59    1.24
  -1  -4  -6   34.90    1.76
  -1  -4  -6   35.74    1.83
  -1  -4  -6   37.35    1.90
  -1  -4  -6   34.88    1.46
  -1  -4  -6   33.61    1.79
  -1  -4  -6   34.84    1.83
  -1  -4  -6   30.58    1.68
  -1  -4  -6   34.01    2.51
  -1  -4  -6   32.53    1.74
  -1  -4  -6   34.37    1.67
  -1  -4  -6   33.18    1.84
  -1  -4  -6   36.39    1.84
  -1  -4  -6   32.37    1.50
  -1  -4  -6   33.08    1.71
  -1  -4  -6   37.05    1.80
  -1  -4  -6   32.22    1.75
   1   4   6   35.92    1.68
   1   4   6   32.92    1.78
   1   4   6   33.45    1.80
   1   4   6   34.72    1.62
   1   4   6   32.18    1.70
   1   4   6   31.02    1.48
   1   4   6   39.52    2.69
   1   4   6   35.22    1.82
   1   4   6   32.54    1.51
   1   4   6   34.50    1.74
   1   4   6   34.08    1.77
  -2  -4  -6    8.03    0.81
  -2  -4  -6    7.20    0.76
  -2  -4  -6    6.53    1.16
  -2  -4  -6    6.87    0.67
  -2  -4  -6    9.49    0.91
  -2  -4  -6    7.99    0.88
  -2  -4  -6    8.42    0.88
  -2  -4  -6    7.04    0.61
  -2  -4  -6    6.90    0.79
  -2  -4  -6    7.33    0.84
  -2  -4  -6    7.39    0.75
  -2  -4  -6    8.01    0.85
  -2  -4  -6    8.86    0.90
  -2  -4  -6    7.47    0.89
   2   4   6    7.50    0.81
   2   4   6    7.59    0.80
   2   4   6    6.57    0.60
   2   4   6    7.05    0.71
   2   4   6    8.21    0.84
   2   4   6    7.00    0.98
   2   4   6    8.44    0.88
   2   4   6    7.44    0.68
   2   4   6    7.23    0.76
   2   4   6    9.79    0.93
   2   4   6    8.46    0.85
   2   4   6    7.61    1.23
   2   4   6    8.51    0.87
  -3  -4  -6   98.22    3.76
  -3  -4  -6  105.52    4.97
  -3  -4  -6   99.01    3.91
  -3  -4  -6   94.94    3.88
  -3  -4  -6  103.25    3.46
  -3  -4  -6   93.75    3.88
  -3  -4  -6  101.47    3.52
  -3  -4  -6   97.38    3.93
  -3  -4  -6  105.79    3.86
  -3  -4  -6  101.21    3.92
  -3  -4  -6  102.74    3.73
  -3  -4  -6   94.46    3.82
  -3  -4  -6  102.62    3.81
   3   4   6  101.10    3.94
   3   4   6  104.30    3.77
   3   4   6  106.64    3.69
   3   4   6  102.67    3.92
   3   4   6   97.60    3.80
   3   4   6  104.05    3.43
   3   4   6   96.04    3.56
   3   4   6   99.28    3.78
   3   4   6  103.91    3.93
   3   4   6  100.27    3.82
   3   4   6   95.59    4.79
   3   4   6  109.86    4.02
  -4  -4  -6    8.89    0.92
  -4  -4  -6    8.76    1.00
  -4  -4  -6    9.47    1.01
  -4  -4  -6    8.46    0.67
  -4  -4  -6    6.73    0.78
  -4  -4  -6    8.45    0.89
  -4  -4  -6    6.97    0.88
  -4  -4  -6    7.59    1.09
  -4  -4  -6    6.25    0.92
  -4  -4  -6    7.76    1.37
  -4  -4  -6    8.27    0.83
  -4  -4  -6   10.26    0.95
   4   4   6    9.80    1.02
   4   4   6    8.47    0.84
   4   4   6    8.14    0.96
   4   4   6    8.41    0.97
   4   4   6    8.11    0.82
   4   4   6    7.81    0.87
   4   4   6    9.20    1.49
   4   4   6    6.59    0.92
   4   4   6    9.61    1.02
   4   4   6    9.41    1.01
   4   4   6    7.20    1.03
  -5  -4  -6   95.73    5.14
  -5  -4  -6   88.16    4.00
  -5  -4  -6   88.13    3.51
  -5  -4  -6   95.84    3.70
  -5  -4  -6   94.99    3.81
  -5  -4  -6   95.03    3.35
  -5  -4  -6   86.76    4.02
  -5  -4  -6   99.67    3.82
  -5  -4  -6   89.70    3.79
   5   4   6   99.90    3.96
   5   4   6   96.19    3.94
   5   4   6   91.85    3.55
   5   4   6   94.67    3.96
   5   4   6   98.31    3.66
   5   4   6   99.72    3.80
  -6  -4  -6   29.43    1.77
  -6  -4  -6   25.15    1.60
  -6  -4  -6   24.81    1.98
  -6  -4  -6   31.14    2.22
  -6  -4  -6   27.74    1.85
  -6  -4  -6   28.45    1.43
  -6  -4  -6   27.98    1.90
  -6  -4  -6   29.02    1.85
   6   4   6   29.29    1.85
   6   4   6   27.14    1.98
   6   4   6   27.39    1.92
   6   4   6   29.88    1.71
   6   4   6   29.32    1.32
  -7  -4  -6   13.40    1.65
  -7  -4  -6   11.12    1.32
  -7  -4  -6   10.12    0.93
  -7  -4  -6   11.60    1.46
  -7  -4  -6   11.29    1.25
  -7  -4  -6   14.06    1.44
   7   4   6   10.38    1.23
   7   4   6   13.56    1.54
   7   4   6   12.71    1.61
   7   4   6   12.24    0.84
   4  -5  -6    3.40    1.20
   4  -5  -6    4.91    2.36
  -4   5   6    5.34    0.91
  -4   5   6    4.18    0.97
  -4   5   6    4.05    0.92
   3  -5  -6    0.40    1.60
   3  -5  -6    2.58    0.81
   3  -5  -6    1.05    0.77
   3  -5  -6    1.35    1.03
   3  -5  -6    0.93    0.54
   3  -5  -6    1.29    0.66
  -3   5   6    1.94    0.74
  -3   5   6    0.54    0.61
  -3   5   6    1.55    0.60
  -3   5   6    1.37    0.73
  -3   5   6    1.01    0.53
  -3   5   6    0.53    0.59
  -3   5   6    1.23    0.53
  -3   5   6    1.83    0.73
   2  -5  -6   30.81    2.12
   2  -5  -6   34.36    2.12
   2  -5  -6   31.54    2.13
   2  -5  -6   39.53    2.97
   2  -5  -6   34.83    2.02
   2  -5  -6   33.58    1.82
   2  -5  -6   29.03    2.76
   2  -5  -6   35.04    1.79
   2  -5  -6   29.15    2.90
  -2   5   6   32.55    1.86
  -2   5   6   35.10    1.86
  -2   5   6   34.32    2.12
  -2   5   6   35.49    2.12
  -2   5   6   33.42    1.98
  -2   5   6   33.02    1.83
  -2   5   6   32.42    2.06
  -2   5   6   32.14    1.67
   1  -5  -6   27.06    2.32
   1  -5  -6   31.35    1.84
   1  -5  -6   28.75    1.59
   1  -5  -6   28.24    1.63
   1  -5  -6   28.93    2.55
   1  -5  -6   30.93    1.84
   1  -5  -6   31.02    1.91
   1  -5  -6   30.44    1.65
   1  -5  -6   30.49    1.27
   1  -5  -6   33.35    1.96
   1  -5  -6   25.83    1.71
   1  -5  -6   32.40    1.90
  -1   5   6   33.18    1.90
  -1   5   6   28.40    1.65
  -1   5   6   32.35    1.78
  -1   5   6   30.49    1.61
  -1   5   6   27.46    1.76
  -1   5   6   27.14    1.48
  -1   5   6   32.47    1.67
  -1   5   6   31.11    1.89
   0  -5  -6   49.49    2.41
   0  -5  -6   49.00    1.93
   0  -5  -6   48.68    2.41
   0  -5  -6   50.31    1.86
   0  -5  -6   44.24    3.08
   0  -5  -6   48.88    2.62
   0  -5  -6   48.10    2.43
   0  -5  -6   47.56    2.32
   0  -5  -6   53.89    2.47
   0  -5  -6   48.33    2.31
   0  -5  -6   53.80    2.50
   0  -5  -6   46.65    2.21
   0  -5  -6   51.84    2.38
   0  -5  -6   47.09    2.16
   0   5   6   53.45    2.23
   0   5   6   50.29    2.44
   0   5   6   50.55    2.34
   0   5   6   49.68    2.40
   0   5   6   49.02    2.25
   0   5   6   57.50    2.46
   0   5   6   51.86    2.15
   0   5   6   50.29    2.10
  -1  -5  -6   10.51    1.46
  -1  -5  -6    9.47    0.78
  -1  -5  -6   10.42    0.97
  -1  -5  -6    9.98    0.98
  -1  -5  -6   10.27    0.96
  -1  -5  -6   10.94    0.98
  -1  -5  -6    9.98    0.95
  -1  -5  -6    8.76    0.95
  -1  -5  -6    8.90    0.85
  -1  -5  -6    8.94    0.74
  -1  -5  -6   10.04    0.97
  -1  -5  -6    8.60    1.00
  -1  -5  -6   11.91    1.01
  -1  -5  -6   10.29    0.96
  -1  -5  -6    9.17    0.68
  -1  -5  -6    8.73    0.91
  -1  -5  -6   11.58    1.08
   1   5   6   11.00    1.02
   1   5   6    8.22    0.88
   1   5   6   10.45    1.03
   1   5   6    9.53    0.81
   1   5   6   10.26    0.98
   1   5   6    9.40    0.94
   1   5   6    8.94    0.87
   1   5   6   10.18    0.83
   1   5   6    9.00    1.44
   1   5   6    9.64    0.84
  -2  -5  -6   57.39    2.18
  -2  -5  -6   56.75    2.40
  -2  -5  -6   58.36    2.59
  -2  -5  -6   61.03    2.68
  -2  -5  -6   56.86    2.65
  -2  -5  -6   64.74    2.48
  -2  -5  -6   57.68    2.22
  -2  -5  -6   60.27    2.67
  -2  -5  -6   61.25    2.25
  -2  -5  -6   60.06    2.67
  -2  -5  -6   59.76    2.53
  -2  -5  -6   54.20    2.56
  -2  -5  -6   55.99    2.51
  -2  -5  -6   59.07    2.56
   2   5   6   60.82    2.32
   2   5   6   61.43    2.71
   2   5   6   64.37    2.56
   2   5   6   61.91    2.70
   2   5   6   57.89    2.38
   2   5   6   55.58    2.40
   2   5   6   58.50    2.57
   2   5   6   55.49    2.51
   2   5   6   58.17    2.63
   2   5   6   59.96    3.53
  -3  -5  -6    0.93    0.42
  -3  -5  -6    0.52    0.55
  -3  -5  -6    0.98    0.39
  -3  -5  -6    1.12    0.44
  -3  -5  -6    0.86    0.46
  -3  -5  -6    1.07    0.36
  -3  -5  -6    0.98    0.45
  -3  -5  -6    1.02    0.29
  -3  -5  -6    0.70    0.51
  -3  -5  -6    1.45    0.48
  -3  -5  -6    1.95    0.57
  -3  -5  -6    1.87    0.60
  -3  -5  -6    1.27    0.43
  -3  -5  -6    1.19    0.44
   3   5   6    0.62    0.31
   3   5   6    1.68    0.58
   3   5   6    1.20    0.78
   3   5   6    0.82    0.44
   3   5   6    0.83    0.43
   3   5   6    0.92    0.41
   3   5   6    1.26    0.41
   3   5   6    1.03    0.46
   3   5   6    0.95    0.45
   3   5   6    1.03    0.44
  -4  -5  -6   15.92    1.37
  -4  -5  -6   16.76    1.35
  -4  -5  -6   19.62    1.37
  -4  -5  -6   18.37    1.13
  -4  -5  -6   21.81    1.48
  -4  -5  -6   19.73    1.04
  -4  -5  -6   17.14    1.43
  -4  -5  -6   18.44    1.33
  -4  -5  -6   20.19    1.29
  -4  -5  -6   19.18    2.07
  -4  -5  -6   19.15    1.56
  -4  -5  -6   18.60    1.31
   4   5   6   19.88    1.46
   4   5   6   18.16    1.27
   4   5   6   19.94    1.45
   4   5   6   17.83    1.25
   4   5   6   17.26    1.49
   4   5   6   19.42    1.07
   4   5   6   21.52    1.51
   4   5   6   20.53    1.50
   4   5   6   18.50    2.73
   4   5   6   19.84    1.37
  -5  -5  -6    2.45    0.67
  -5  -5  -6    3.16    1.26
  -5  -5  -6    2.18    0.80
  -5  -5  -6    3.90    0.75
  -5  -5  -6    4.33    0.81
  -5  -5  -6    2.75    0.85
  -5  -5  -6    3.42    0.53
  -5  -5  -6    4.33    0.80
   5   5   6    3.51    0.86
   5   5   6    3.24    0.86
   5   5   6    3.56    0.75
   5   5   6    3.59    0.85
   5   5   6    2.89    0.79
   5   5   6    3.57    0.75
  -6  -5  -6    4.15    0.85
  -6  -5  -6    3.11    0.98
  -6  -5  -6    5.63    1.03
  -6  -5  -6    3.73    0.90
  -6  -5  -6    5.34    1.13
  -6  -5  -6    4.16    0.60
  -6  -5  -6    5.38    1.31
   6   5   6    2.79    0.77
   6   5   6    2.53    0.88
   6   5   6    4.48    0.96
   6   5   6    2.48    0.79
   6   5   6    4.73    0.89
  -7  -5  -6    0.55    0.71
  -7  -5  -6    1.05    0.39
  -7  -5  -6    0.44    0.58
   7   5   6    1.51    0.74
   7   5   6    1.95    0.89
   7   5   6    0.69    0.38
   7   5   6    1.76    0.73
   3  -6  -6   17.27    1.37
   3  -6  -6   20.53    2.57
   3  -6  -6   23.89    1.94
   3  -6  -6   20.38    2.92
  -3   6   6   21.33    1.59
  -3   6   6   20.04    1.38
  -3   6   6   17.07    1.53
  -3   6   6   24.45    1.67
   2  -6  -6    8.96    1.66
   2  -6  -6    7.35    0.94
   2  -6  -6    9.22    1.26
   2  -6  -6    6.60    1.16
   2  -6  -6    6.45    1.01
   2  -6  -6    8.92    2.00
   2  -6  -6    9.40    1.32
  -2   6   6    7.21    1.04
  -2   6   6    7.14    1.09
  -2   6   6    7.92    0.89
  -2   6   6    8.20    1.06
  -2   6   6    7.69    1.15
  -2   6   6    8.57    1.03
  -2   6   6    8.90    1.03
   1  -6  -6   23.25    2.16
   1  -6  -6   21.44    1.62
   1  -6  -6   21.03    1.39
   1  -6  -6   23.84    1.71
   1  -6  -6   22.79    2.30
   1  -6  -6   25.35    1.68
   1  -6  -6   21.70    1.52
  -1   6   6   23.40    1.46
  -1   6   6   26.86    1.52
  -1   6   6   21.91    1.34
  -1   6   6   22.64    1.48
  -1   6   6   20.11    1.48
  -1   6   6   25.29    1.66
  -1   6   6   23.22    1.59
  -1   6   6   20.85    1.62
   0  -6  -6    9.72    1.01
   0  -6  -6    7.87    1.04
   0  -6  -6    9.99    1.10
   0  -6  -6    9.57    1.52
   0  -6  -6    8.10    0.97
   0  -6  -6   11.12    1.02
   0  -6  -6    8.89    0.97
   0  -6  -6    8.53    0.99
   0  -6  -6    7.72    0.99
   0   6   6   10.52    1.08
   0   6   6    9.17    1.02
   0   6   6    9.58    0.90
   0   6   6   10.92    0.96
   0   6   6    9.24    1.05
   0   6   6    8.56    0.90
   0   6   6    9.23    0.87
   0   6   6   10.15    1.02
  -1  -6  -6   23.89    1.50
  -1  -6  -6   21.66    1.42
  -1  -6  -6   20.66    1.39
  -1  -6  -6   19.24    1.36
  -1  -6  -6   19.91    1.32
  -1  -6  -6   19.63    1.40
  -1  -6  -6   20.22    1.46
  -1  -6  -6   23.29    1.41
  -1  -6  -6   20.59    2.07
   1   6   6   18.85    1.40
   1   6   6   23.87    1.55
   1   6   6   22.21    1.37
   1   6   6   22.04    1.44
   1   6   6   17.90    1.19
   1   6   6   21.96    1.31
   1   6   6   20.30    1.38
   1   6   6   18.45    1.21
  -2  -6  -6   22.26    1.40
  -2  -6  -6   22.91    1.51
  -2  -6  -6   21.90    1.36
  -2  -6  -6   19.34    1.34
  -2  -6  -6   22.87    1.46
  -2  -6  -6   18.95    1.70
  -2  -6  -6   19.26    1.40
  -2  -6  -6   22.25    2.09
  -2  -6  -6   22.04    1.44
  -2  -6  -6   21.99    1.47
   2   6   6   21.02    1.48
   2   6   6   20.00    1.40
   2   6   6   22.44    1.24
   2   6   6   20.34    1.28
   2   6   6   22.48    1.33
   2   6   6   19.89    1.34
   2   6   6   20.50    1.49
   2   6   6   18.63    1.36
  -3  -6  -6   23.51    1.14
  -3  -6  -6   26.19    2.33
  -3  -6  -6   19.55    1.49
  -3  -6  -6   26.57    1.50
  -3  -6  -6   22.92    1.57
  -3  -6  -6   22.36    1.55
  -3  -6  -6   21.82    1.43
  -3  -6  -6   21.17    1.42
  -3  -6  -6   22.76    1.59
   3   6   6   21.45    1.39
   3   6   6   20.20    1.52
   3   6   6   23.14    1.54
   3   6   6   23.62    1.54
   3   6   6   22.91    1.41
   3   6   6   25.69    1.29
   3   6   6   23.07    1.48
   3   6   6   24.46    1.69
  -4  -6  -6   10.66    1.10
  -4  -6  -6   11.62    1.10
  -4  -6  -6   11.08    1.24
  -4  -6  -6   11.56    1.10
  -4  -6  -6   10.16    0.75
  -4  -6  -6   11.71    1.28
  -4  -6  -6   12.22    1.23
  -4  -6  -6   13.29    1.84
  -4  -6  -6   12.06    1.09
   4   6   6   10.84    1.11
   4   6   6   10.91    1.05
   4   6   6   12.32    1.36
   4   6   6   11.56    1.21
   4   6   6    9.45    1.11
   4   6   6   10.25    1.16
   4   6   6   12.81    1.27
   4   6   6   10.37    1.09
   4   6   6   11.60    0.89
  -5  -6  -6   14.70    1.31
  -5  -6  -6   12.18    1.21
  -5  -6  -6   11.48    1.88
  -5  -6  -6   12.87    1.40
  -5  -6  -6   14.37    1.52
  -5  -6  -6   13.28    0.87
   5   6   6   13.69    1.40
   5   6   6   13.82    1.28
   5   6   6   13.18    1.36
   5   6   6   15.26    1.39
   5   6   6   13.05    1.39
   5   6   6   13.84    1.20
  -6  -6  -6   -0.36    0.62
  -6  -6  -6    0.51    0.80
  -6  -6  -6    1.24    0.58
  -6  -6  -6    0.65    0.32
   6   6   6    0.61    0.56
   6   6   6    1.01    0.83
   6   6   6    0.49    0.60
   6   6   6    0.72    0.61
   3  -7  -6    3.62    1.04
   3  -7  -6    4.95    1.68
  -3   7   6    6.63    1.22
  -3   7   6    2.63    0.70
  -3   7   6    6.20    1.04
  -3   7   6    4.66    0.99
   2  -7  -6    6.87    1.61
   2  -7  -6    7.53    1.16
   2  -7  -6    5.48    0.95
   2  -7  -6    7.84    1.26
  -2   7   6    6.61    0.98
  -2   7   6    7.46    1.07
  -2   7   6    6.18    0.90
  -2   7   6    4.88    0.92
   1  -7  -6   11.13    1.25
   1  -7  -6    9.68    1.06
   1  -7  -6    9.00    1.60
   1  -7  -6   12.39    1.29
  -1   7   6   11.12    1.08
  -1   7   6   10.62    1.01
  -1   7   6    8.06    0.98
  -1   7   6    8.89    1.04
   0  -7  -6    1.51    0.61
   0  -7  -6    2.69    1.11
   0  -7  -6    1.15    0.51
   0  -7  -6    1.48    0.54
   0  -7  -6    2.05    0.68
   0  -7  -6    1.23    0.54
   0   7   6    1.63    0.50
   0   7   6    1.84    0.66
   0   7   6    2.65    0.60
   0   7   6    1.79    0.64
   0   7   6    1.81    0.56
   0   7   6    2.37    0.61
  -1  -7  -6   16.05    1.34
  -1  -7  -6   13.20    1.72
  -1  -7  -6   14.14    1.19
  -1  -7  -6   13.64    1.15
  -1  -7  -6   13.34    1.10
  -1  -7  -6   13.44    1.17
  -1  -7  -6   10.66    1.10
   1   7   6   12.70    1.24
   1   7   6   15.79    1.13
   1   7   6   11.28    0.99
   1   7   6   12.51    1.17
   1   7   6   13.11    1.11
   1   7   6   13.65    1.08
   1   7   6   13.55    1.26
   1   7   6   13.01    1.16
  -2  -7  -6    5.43    0.84
  -2  -7  -6    4.19    0.84
  -2  -7  -6    5.70    0.91
  -2  -7  -6    6.35    1.31
  -2  -7  -6    7.06    0.87
  -2  -7  -6    5.61    0.83
  -2  -7  -6    5.65    0.88
   2   7   6    4.79    0.73
   2   7   6    4.74    0.82
   2   7   6    6.78    1.02
   2   7   6    5.10    0.87
   2   7   6    6.14    0.83
   2   7   6    5.37    0.83
   2   7   6    6.43    0.88
   2   7   6    4.25    0.85
  -3  -7  -6    1.82    0.63
  -3  -7  -6    1.56    0.91
  -3  -7  -6    2.97    0.68
  -3  -7  -6    2.01    0.67
  -3  -7  -6    1.97    0.66
  -3  -7  -6    2.02    0.59
  -3  -7  -6    2.19    0.65
   3   7   6    2.49    0.53
   3   7   6    1.64    0.58
   3   7   6    2.35    0.71
   3   7   6    2.07    0.59
   3   7   6    2.02    0.57
   3   7   6    2.70    0.97
   3   7   6    2.63    0.69
   3   7   6    3.64    0.96
  -4  -7  -6    8.46    1.00
  -4  -7  -6    9.14    1.17
  -4  -7  -6    9.51    1.17
  -4  -7  -6    7.73    1.19
  -4  -7  -6    8.52    1.67
  -4  -7  -6    8.08    1.04
   4   7   6    9.67    1.23
   4   7   6   11.86    1.16
   4   7   6    9.36    1.11
   4   7   6    8.66    1.01
   4   7   6    8.41    1.10
   4   7   6   10.74    1.35
   4   7   6   10.57    0.90
   4   7   6   10.06    1.38
  -5  -7  -6   40.62    3.44
  -5  -7  -6   38.03    2.40
  -5  -7  -6   42.75    2.32
  -5  -7  -6   42.08    2.94
   5   7   6   47.20    2.35
   5   7   6   42.32    2.44
   5   7   6   40.30    2.32
   5   7   6   45.08    2.01
  -6  -7  -6    1.60    0.69
  -6  -7  -6    0.34    0.85
   6   7   6    0.63    0.64
   6   7   6    0.79    0.72
   6   7   6    0.51    0.62
   2  -8  -6    5.08    1.14
   2  -8  -6    4.27    1.47
   2  -8  -6    4.90    1.17
  -2   8   6    6.59    1.14
  -2   8   6    4.20    0.88
  -2   8   6    4.81    0.95
  -2   8   6    5.33    0.92
   1  -8  -6    3.21    0.85
   1  -8  -6    2.28    0.78
   1  -8  -6    2.49    1.10
   1  -8  -6    2.09    0.73
  -1   8   6    2.38    0.70
  -1   8   6    1.25    0.65
  -1   8   6    2.93    0.68
  -1   8   6    1.84    0.64
   0  -8  -6   14.39    1.22
   0  -8  -6   16.94    1.49
   0  -8  -6   16.77    1.39
   0  -8  -6   15.75    1.98
   0   8   6   13.70    1.20
   0   8   6   18.10    1.31
   0   8   6   15.74    1.23
   0   8   6   14.29    1.23
  -1  -8  -6   11.25    1.16
  -1  -8  -6   11.99    1.28
  -1  -8  -6   10.02    1.09
  -1  -8  -6    9.93    1.04
  -1  -8  -6   10.07    1.59
   1   8   6   10.05    1.03
   1   8   6    9.67    1.06
   1   8   6   10.59    1.05
   1   8   6   10.16    1.04
  -2  -8  -6    7.71    1.11
  -2  -8  -6    6.31    0.92
  -2  -8  -6    6.09    0.93
  -2  -8  -6    7.32    1.50
  -2  -8  -6    8.27    0.97
   2   8   6    7.64    0.99
   2   8   6    6.79    0.85
   2   8   6    6.00    0.89
   2   8   6    5.86    0.87
  -3  -8  -6   12.68    1.16
  -3  -8  -6   16.32    2.04
  -3  -8  -6   13.81    1.30
  -3  -8  -6   13.84    1.22
  -3  -8  -6   12.97    1.35
   3   8   6   12.70    1.18
   3   8   6   15.37    1.13
   3   8   6   13.65    1.27
   3   8   6   12.26    1.25
  -4  -8  -6   25.09    1.65
  -4  -8  -6   25.95    1.88
  -4  -8  -6   20.82    2.44
   4   8   6   26.11    1.69
   4   8   6   21.14    1.67
   4   8   6   22.88    1.39
   4   8   6   20.96    1.68
  -5  -8  -6   22.16    2.69
  -5  -8  -6   22.26    1.68
  -5  -8  -6   24.57    1.74
   5   8   6   20.99    1.37
   5   8   6   22.62    1.71
   5   8   6   19.47    1.75
   5   8   6   20.62    1.81
   1  -9  -6    5.71    1.11
   1  -9  -6    5.61    1.18
  -1   9   6    4.64    0.99
  -1   9   6    5.65    0.97
  -1   9   6    4.00    0.91
   0  -9  -6    0.93    0.71
   0  -9  -6    1.08    0.93
   0  -9  -6    0.56    0.55
   0   9   6    0.35    0.47
   0   9   6    1.02    0.54
   0   9   6    0.47    0.56
  -1  -9  -6    0.06    0.53
  -1  -9  -6    0.45    0.51
  -1  -9  -6    0.87    0.81
   1   9   6    0.72    0.58
   1   9   6    0.58    0.54
   1   9   6    0.45    0.50
  -2  -9  -6    2.96    0.75
  -2  -9  -6    2.58    1.10
  -2  -9  -6    2.19    0.76
   2   9   6    2.20    0.72
   2   9   6    2.55    0.72
   2   9   6    2.07    0.72
  -3  -9  -6    8.56    1.27
  -3  -9  -6    7.46    1.70
  -3  -9  -6    5.23    0.95
   3   9   6    5.14    1.09
   3   9   6    6.60    1.07
   3   9   6    5.18    0.98
   3   9   6    4.99    1.01
  -4  -9  -6    0.13    0.64
  -4  -9  -6   -0.25    0.51
   4   9   6    0.38    0.47
   4   9   6    0.43    0.57
   4   9   6    0.37    0.58
   4   9   6    0.10    0.65
   0   3  -7    1.91    1.19
   0   3  -7    4.38    0.94
   0   3  -7    3.23    0.85
   0  -3   7    3.39    0.80
   0  -3   7    3.46    1.26
  -1   3  -7    3.69    1.29
  -1   3  -7    2.67    0.64
  -1   3  -7    2.35    0.64
   1  -3   7    3.12    1.08
   1  -3   7    3.50    0.82
  -2   3  -7    1.71    0.95
  -2   3  -7    3.88    0.82
  -2   3  -7    3.27    0.74
   2  -3   7    4.48    0.78
   2  -3   7    3.33    1.01
  -3   3  -7    3.59    0.76
  -3   3  -7    3.74    0.77
  -3   3  -7    1.78    0.96
   3  -3   7    3.42    1.02
   3  -3   7    3.02    0.76
  -4   3  -7    0.82    0.85
  -4   3  -7    1.97    0.59
  -4   3  -7    1.77    0.56
   4  -3   7    1.85    0.57
   1   2  -7    4.12    1.45
   1   2  -7    4.14    1.02
   1   2  -7    3.14    0.74
   1   2  -7    4.08    0.90
  -1  -2   7    4.64    1.05
  -1  -2   7    4.48    0.85
  -1  -2   7    5.07    1.26
   0   2  -7   10.76    1.13
   0   2  -7   10.15    1.17
   0   2  -7   10.72    1.83
   0  -2   7   11.84    1.55
   0  -2   7    9.97    1.11
   0  -2   7   10.31    0.90
  -1   2  -7   13.53    1.18
  -1   2  -7   12.92    1.76
  -1   2  -7   11.63    1.07
   1  -2   7   13.03    1.13
   1  -2   7   15.07    1.58
  -2   2  -7    4.26    0.73
  -2   2  -7    3.45    0.73
  -2   2  -7    4.62    1.22
   2  -2   7    5.74    0.84
   2  -2   7    3.91    1.04
  -3   2  -7    0.77    0.45
  -3   2  -7    1.02    0.79
  -3   2  -7    0.32    0.38
   3  -2   7    0.50    0.43
   3  -2   7    1.42    0.74
  -4   2  -7   19.88    2.03
  -4   2  -7   17.15    1.27
  -4   2  -7   17.76    1.30
   4  -2   7   21.24    1.41
  -5   2  -7    8.63    1.02
  -5   2  -7    7.72    0.97
   5  -2   7    7.27    1.08
   2   1  -7   14.06    2.61
   2   1  -7   10.27    1.32
   2   1  -7    8.96    0.89
   2   1  -7   11.72    1.41
   2   1  -7   11.32    1.52
   2   1  -7    9.75    1.20
  -2  -1   7   11.46    1.23
  -2  -1   7   11.72    1.64
  -2  -1   7   12.87    1.40
   1   1  -7    3.11    0.75
   1   1  -7    1.72    1.15
   1   1  -7    5.21    0.91
   1   1  -7    3.23    0.86
   1   1  -7    2.02    0.61
  -1  -1   7    3.72    1.04
  -1  -1   7    4.35    0.92
  -1  -1   7    3.79    0.92
  -1  -1   7    2.16    0.60
  -1  -1   7    3.77    0.82
   0   1  -7   21.97    1.27
   0   1  -7   18.58    2.08
   0   1  -7   21.93    1.57
   0   1  -7   23.04    1.44
   0   1  -7   21.28    1.48
   0  -1   7   20.24    1.75
   0  -1   7   20.15    1.30
   0  -1   7   19.24    1.35
   0  -1   7   24.01    1.38
   0  -1   7   20.44    1.47
  -1   1  -7   69.47    3.73
  -1   1  -7   70.09    2.86
  -1   1  -7   71.60    3.04
  -1   1  -7   70.40    2.62
  -1   1  -7   73.99    2.93
   1  -1   7   71.97    2.73
   1  -1   7   68.77    2.72
   1  -1   7   76.19    3.43
   1  -1   7   72.06    2.76
   1  -1   7   70.49    2.95
  -2   1  -7   26.89    2.11
  -2   1  -7   23.42    1.59
  -2   1  -7   25.42    1.19
  -2   1  -7   25.38    1.50
  -2   1  -7   22.03    1.39
   2  -1   7   27.02    1.30
   2  -1   7   26.79    1.83
   2  -1   7   24.80    1.27
   2  -1   7   25.25    1.47
   2  -1   7   26.21    1.52
   2  -1   7   27.61    1.82
  -3   1  -7    3.60    0.69
  -3   1  -7    3.47    0.51
  -3   1  -7    4.28    0.73
  -3   1  -7    4.28    1.13
   3  -1   7    5.45    0.93
   3  -1   7    4.06    0.76
   3  -1   7    3.83    0.53
   3  -1   7    4.14    0.73
   3  -1   7    4.37    0.60
  -4   1  -7   20.38    1.33
  -4   1  -7   19.35    1.31
  -4   1  -7   16.14    1.78
  -4   1  -7   17.40    1.01
   4  -1   7   19.04    1.36
   4  -1   7   18.63    1.11
   4  -1   7   18.00    1.00
  -5   1  -7    1.41    0.51
  -5   1  -7    1.11    0.50
  -5   1  -7    0.79    0.49
   5  -1   7    0.83    0.55
   5  -1   7    1.64    0.43
   5  -1   7    0.91    0.44
  -6   1  -7   14.31    1.31
  -6   1  -7   13.89    1.30
   6  -1   7   14.15    1.22
   6  -1   7   12.34    1.39
   6  -1   7   15.93    1.21
   2   0  -7    3.54    0.82
   2   0  -7    2.61    0.75
   2   0  -7    0.69    1.28
   2   0  -7    2.28    0.53
   2   0  -7    1.64    0.83
   2   0  -7    3.49    0.87
  -2   0   7    5.97    1.35
  -2   0   7    4.30    1.15
  -2   0   7    2.06    0.74
   1   0  -7   35.60    1.97
   1   0  -7   35.28    1.64
   1   0  -7   36.60    2.95
   1   0  -7   35.16    2.18
   1   0  -7   36.18    1.92
   1   0  -7   42.94    2.14
  -1   0   7   38.20    2.15
  -1   0   7   37.33    2.08
  -1   0   7   37.27    2.35
  -1   0   7   36.04    2.03
  -1   0   7   37.37    1.99
   0   0  -7   53.07    2.20
   0   0  -7   52.88    3.23
   0   0  -7   51.56    2.42
   0   0  -7   51.50    2.03
   0   0  -7   51.61    2.56
   0   0  -7   52.31    2.38
   0   0   7   54.80    2.48
   0   0   7   53.05    2.42
   0   0   7   47.40    2.32
   0   0   7   53.09    2.35
   0   0   7   53.05    2.72
  -1   0  -7    1.48    0.34
  -1   0  -7    2.03    0.61
  -1   0  -7    1.68    0.40
  -1   0  -7    1.34    0.76
  -1   0  -7    0.84    0.42
  -1   0  -7    1.78    0.53
   1   0   7    1.51    0.47
   1   0   7    1.76    0.52
   1   0   7    1.67    0.64
   1   0   7    1.66    0.51
   1   0   7    1.15    0.44
   1   0   7    1.41    0.53
  -2   0  -7   36.77    1.88
  -2   0  -7   39.21    1.86
  -2   0  -7   38.29    1.53
  -2   0  -7   33.90    2.37
  -2   0  -7   34.14    1.80
  -2   0  -7   39.46    1.58
   2   0   7   38.27    1.77
   2   0   7   38.17    2.06
   2   0   7   40.32    1.94
   2   0   7   38.55    1.91
   2   0   7   39.07    2.10
   2   0   7   39.13    1.80
   2   0   7   36.66    1.81
   2   0   7   39.00    2.93
  -3   0  -7   32.01    1.74
  -3   0  -7   34.69    1.43
  -3   0  -7   31.41    1.36
  -3   0  -7   36.23    2.35
  -3   0  -7   29.89    1.65
  -3   0  -7   30.26    1.68
   3   0   7   32.23    1.58
   3   0   7   33.17    1.76
   3   0   7   32.19    1.61
   3   0   7   32.41    1.62
   3   0   7   35.91    1.82
   3   0   7   28.69    1.77
  -4   0  -7    7.66    0.68
  -4   0  -7   10.03    0.96
  -4   0  -7   10.19    0.99
  -4   0  -7    7.61    1.25
  -4   0  -7    7.59    1.02
  -4   0  -7    9.60    0.74
   4   0   7   11.28    1.09
   4   0   7    9.08    1.01
   4   0   7   10.16    0.90
   4   0   7   10.29    0.91
   4   0   7    9.65    0.90
  -5   0  -7    0.38    0.42
  -5   0  -7   -0.12    0.57
  -5   0  -7    0.53    0.43
  -5   0  -7    0.08    0.38
  -5   0  -7    0.14    0.26
   5   0   7    0.87    0.46
   5   0   7    0.40    0.41
   5   0   7    1.12    0.49
   5   0   7    1.20    0.52
  -6   0  -7    3.46    0.84
  -6   0  -7    1.90    0.64
  -6   0  -7    1.98    0.49
  -6   0  -7    1.78    0.89
   6   0   7    2.53    0.71
   6   0   7    3.87    0.97
   3  -1  -7    3.04    1.07
   3  -1  -7    0.40    1.46
   3  -1  -7    1.99    0.80
   3  -1  -7    2.88    0.97
   3  -1  -7    0.95    0.67
   3  -1  -7    2.44    0.60
  -3   1   7    1.67    0.74
   2  -1  -7   19.05    2.58
   2  -1  -7   23.10    1.74
   2  -1  -7   18.93    1.78
   2  -1  -7   20.38    1.57
   2  -1  -7   19.74    1.24
   2  -1  -7   18.64    1.58
  -2   1   7   20.81    1.72
  -2   1   7   22.32    1.62
  -2   1   7   20.82    1.67
   1  -1  -7   70.55    3.36
   1  -1  -7   73.33    3.19
   1  -1  -7   71.31    3.12
   1  -1  -7   74.55    4.20
   1  -1  -7   78.30    2.82
   1  -1  -7   75.44    3.07
   1  -1  -7   79.63    3.45
  -1   1   7   76.17    3.31
  -1   1   7   74.90    3.27
  -1   1   7   79.61    3.23
  -1   1   7   73.26    3.44
  -1   1   7   74.15    3.28
  -1   1   7   69.37    3.23
   0  -1  -7    8.68    1.39
   0  -1  -7    7.46    0.68
   0  -1  -7    8.39    1.01
   0  -1  -7    7.63    0.79
   0  -1  -7    7.05    1.00
   0  -1  -7    7.10    0.99
   0  -1  -7    8.14    0.90
   0  -1  -7    7.44    0.96
   0   1   7    7.60    0.93
   0   1   7    8.64    0.97
   0   1   7    9.02    1.06
   0   1   7    7.34    0.90
   0   1   7    7.99    0.93
   0   1   7    8.17    0.97
   0   1   7    8.90    1.00
  -1  -1  -7   27.39    1.66
  -1  -1  -7   29.07    1.73
  -1  -1  -7   30.56    1.63
  -1  -1  -7   29.47    1.34
  -1  -1  -7   30.71    1.76
  -1  -1  -7   31.29    1.76
  -1  -1  -7   31.21    1.65
  -1  -1  -7   31.46    1.43
  -1  -1  -7   29.04    2.08
   1   1   7   30.03    1.69
   1   1   7   29.05    1.65
   1   1   7   32.93    1.74
   1   1   7   30.08    1.61
   1   1   7   30.82    1.73
   1   1   7   24.44    2.89
   1   1   7   32.21    1.69
  -2  -1  -7   23.06    1.41
  -2  -1  -7   26.40    1.57
  -2  -1  -7   25.71    1.49
  -2  -1  -7   26.69    1.46
  -2  -1  -7   20.84    1.77
  -2  -1  -7   26.26    1.19
  -2  -1  -7   24.12    1.20
  -2  -1  -7   26.20    1.51
  -2  -1  -7   23.26    1.49
   2   1   7   22.63    1.46
   2   1   7   28.72    1.57
   2   1   7   24.96    2.20
   2   1   7   29.81    1.81
   2   1   7   21.95    1.40
   2   1   7   24.07    1.40
   2   1   7   23.52    1.44
   2   1   7   26.19    1.45
   2   1   7   24.08    1.58
   2   1   7   23.61    1.48
  -3  -1  -7    4.53    0.73
  -3  -1  -7    5.44    0.84
  -3  -1  -7    5.25    0.80
  -3  -1  -7    5.93    0.76
  -3  -1  -7    5.48    0.77
  -3  -1  -7    5.38    0.57
  -3  -1  -7    3.92    0.98
  -3  -1  -7    5.63    0.75
  -3  -1  -7    3.94    0.53
   3   1   7    4.56    0.72
   3   1   7    5.17    0.78
   3   1   7    4.82    0.78
   3   1   7    5.48    0.73
   3   1   7    3.79    1.14
   3   1   7    4.93    0.71
   3   1   7    4.90    0.73
  -4  -1  -7   10.53    0.75
  -4  -1  -7    9.23    0.93
  -4  -1  -7    9.08    0.76
  -4  -1  -7    8.11    0.94
  -4  -1  -7    9.46    1.08
  -4  -1  -7    8.64    0.95
   4   1   7    8.85    0.97
   4   1   7    9.07    0.94
   4   1   7    9.22    1.03
   4   1   7   10.45    1.00
   4   1   7    9.70    0.97
   4   1   7   11.99    1.14
  -5  -1  -7   12.81    1.13
  -5  -1  -7   10.96    1.34
  -5  -1  -7   11.48    1.12
  -5  -1  -7   11.24    0.85
  -5  -1  -7   11.88    1.00
   5   1   7   11.41    1.12
   5   1   7   12.64    1.20
   5   1   7   11.95    1.10
   5   1   7   10.01    1.08
  -6  -1  -7   23.61    1.65
  -6  -1  -7   22.42    1.69
  -6  -1  -7   24.32    1.56
  -6  -1  -7   24.59    2.01
  -6  -1  -7   26.53    1.42
   6   1   7   24.26    2.15
   6   1   7   27.89    1.90
   6   1   7   29.10    1.78
   6   1   7   26.68    2.48
  -7  -1  -7    1.05    0.62
  -7  -1  -7    0.72    0.42
  -7  -1  -7    0.13    0.54
  -7  -1  -7    0.60    1.00
   7   1   7    1.12    0.76
   7   1   7    0.02    0.64
   3  -2  -7    5.35    1.07
   3  -2  -7    4.76    1.08
   3  -2  -7    6.63    1.27
   3  -2  -7    4.68    0.77
   3  -2  -7    3.16    1.77
   3  -2  -7    3.56    1.09
   3  -2  -7    5.95    1.41
  -3   2   7    5.02    0.71
  -3   2   7    4.06    1.01
   2  -2  -7    3.15    0.79
   2  -2  -7    2.54    0.82
   2  -2  -7    4.38    1.64
   2  -2  -7    2.75    0.81
   2  -2  -7    4.12    1.04
   2  -2  -7    3.97    0.88
   2  -2  -7    2.08    0.80
   2  -2  -7    1.90    0.50
  -2   2   7    3.83    0.60
  -2   2   7    4.12    1.01
  -2   2   7    2.45    0.79
  -2   2   7    2.79    0.77
   1  -2  -7    5.86    1.06
   1  -2  -7    2.48    0.70
   1  -2  -7    3.41    0.79
   1  -2  -7    4.00    1.28
   1  -2  -7    3.98    0.81
   1  -2  -7    4.51    0.61
   1  -2  -7    3.82    0.85
   1  -2  -7    2.68    0.83
  -1   2   7    3.78    0.54
  -1   2   7    2.83    0.71
  -1   2   7    3.79    0.79
  -1   2   7    3.80    0.88
  -1   2   7    5.14    0.89
  -1   2   7    3.87    0.84
   0  -2  -7    3.36    0.63
   0  -2  -7    3.22    0.76
   0  -2  -7    5.02    0.88
   0  -2  -7    3.24    0.72
   0  -2  -7    2.44    0.67
   0  -2  -7    3.03    0.98
   0  -2  -7    3.16    0.73
   0  -2  -7    3.81    0.78
   0  -2  -7    3.28    0.53
   0   2   7    3.49    0.62
   0   2   7    1.67    0.55
   0   2   7    3.37    0.74
   0   2   7    3.13    0.74
   0   2   7    2.82    0.69
   0   2   7    2.89    0.55
   0   2   7    3.54    0.48
   0   2   7    3.24    0.73
   0   2   7    2.76    0.68
   0   2   7    3.83    0.78
   0   2   7    1.53    0.56
  -1  -2  -7   10.12    0.98
  -1  -2  -7   12.69    1.06
  -1  -2  -7   10.67    1.26
  -1  -2  -7   11.92    1.11
  -1  -2  -7   13.75    1.14
  -1  -2  -7   13.15    1.08
  -1  -2  -7   11.20    1.57
  -1  -2  -7   11.53    0.84
  -1  -2  -7   11.38    1.08
  -1  -2  -7   11.11    0.79
   1   2   7   14.04    1.09
   1   2   7   10.53    0.80
   1   2   7   11.18    1.59
   1   2   7   12.81    1.11
   1   2   7   13.12    1.02
   1   2   7   11.17    1.06
   1   2   7   12.68    0.93
   1   2   7   12.44    1.09
   1   2   7   11.73    0.94
   1   2   7   11.70    1.04
   1   2   7   11.92    1.03
   1   2   7   12.31    0.91
  -2  -2  -7   15.93    1.30
  -2  -2  -7   20.54    1.33
  -2  -2  -7   16.40    1.50
  -2  -2  -7   18.43    1.01
  -2  -2  -7   22.31    1.36
  -2  -2  -7   18.94    1.94
  -2  -2  -7   18.68    1.22
  -2  -2  -7   18.99    1.04
  -2  -2  -7   18.87    1.28
  -2  -2  -7   16.93    1.26
   2   2   7   19.53    1.26
   2   2   7   17.13    1.27
   2   2   7   19.05    1.10
   2   2   7   19.36    1.26
   2   2   7   18.09    1.27
   2   2   7   18.68    1.32
   2   2   7   19.65    1.14
   2   2   7   18.94    1.27
   2   2   7   21.37    2.03
   2   2   7   17.68    1.29
   2   2   7   18.09    1.02
   2   2   7   19.26    1.07
  -3  -2  -7  142.76    4.84
  -3  -2  -7  143.94    5.27
  -3  -2  -7  150.17    5.27
  -3  -2  -7  150.81    5.75
  -3  -2  -7  149.80    4.90
  -3  -2  -7  145.15    6.44
  -3  -2  -7  156.45    5.28
  -3  -2  -7  160.09    5.32
  -3  -2  -7  144.01    5.36
  -3  -2  -7  154.16    5.19
   3   2   7  153.23    5.30
   3   2   7  139.47    5.16
   3   2   7  147.54    5.28
   3   2   7  153.85    6.54
   3   2   7  145.35    5.31
   3   2   7  142.63    4.87
   3   2   7  154.83    5.25
   3   2   7  147.51    5.00
   3   2   7  133.13    5.25
   3   2   7  151.92    5.30
  -4  -2  -7   35.67    1.93
  -4  -2  -7   38.99    1.65
  -4  -2  -7   37.45    1.97
  -4  -2  -7   40.39    1.96
  -4  -2  -7   36.68    1.96
  -4  -2  -7   36.20    2.10
  -4  -2  -7   35.77    2.09
  -4  -2  -7   38.69    1.72
   4   2   7   40.26    2.07
   4   2   7   38.89    2.05
   4   2   7   37.15    1.99
   4   2   7   37.64    1.95
   4   2   7   38.64    2.02
   4   2   7   36.88    2.01
  -5  -2  -7    2.25    0.50
  -5  -2  -7    1.53    0.53
  -5  -2  -7    2.80    0.67
  -5  -2  -7    3.13    0.91
  -5  -2  -7    2.35    0.62
  -5  -2  -7    3.27    0.75
  -5  -2  -7    1.82    0.59
  -5  -2  -7    2.00    0.75
   5   2   7    2.27    0.66
   5   2   7    1.58    0.55
   5   2   7    1.66    0.63
   5   2   7    2.87    0.72
  -6  -2  -7   14.28    1.23
  -6  -2  -7   16.06    1.34
  -6  -2  -7   12.88    1.29
  -6  -2  -7   13.99    1.68
  -6  -2  -7   14.32    1.02
   6   2   7   11.23    1.35
   6   2   7   14.02    1.38
   6   2   7   12.96    1.43
   6   2   7   13.14    1.32
   6   2   7   15.48    1.43
  -7  -2  -7    7.99    1.16
  -7  -2  -7    7.38    1.64
  -7  -2  -7    3.84    0.76
  -7  -2  -7    4.82    1.07
  -7  -2  -7    6.61    1.17
   7   2   7    5.99    1.18
   7   2   7    5.98    0.79
   7   2   7    4.73    1.21
   3  -3  -7   11.80    1.00
   3  -3  -7   11.36    1.66
   3  -3  -7   12.87    1.44
   3  -3  -7   10.03    1.26
   3  -3  -7   13.00    2.77
   3  -3  -7   10.52    1.61
   3  -3  -7   13.12    1.51
  -3   3   7    8.63    1.41
  -3   3   7   11.92    1.45
  -3   3   7   11.85    1.01
  -3   3   7   11.97    1.00
   2  -3  -7    1.67    0.78
   2  -3  -7    2.50    0.76
   2  -3  -7    1.64    1.38
   2  -3  -7    2.99    0.88
   2  -3  -7    2.53    0.80
   2  -3  -7    1.55    0.66
   2  -3  -7    1.99    0.70
   2  -3  -7    1.91    0.48
  -2   3   7    2.23    0.80
  -2   3   7    2.58    0.76
  -2   3   7    1.96    0.48
  -2   3   7    2.40    0.56
  -2   3   7    1.84    0.74
   1  -3  -7    3.23    0.76
   1  -3  -7    4.49    1.00
   1  -3  -7    3.84    0.98
   1  -3  -7    3.43    0.84
   1  -3  -7    3.23    0.60
   1  -3  -7    1.47    0.65
   1  -3  -7    3.42    0.80
   1  -3  -7    3.65    1.23
  -1   3   7    3.38    0.68
  -1   3   7    2.40    0.52
  -1   3   7    2.44    0.71
  -1   3   7    3.34    0.85
  -1   3   7    4.30    0.62
  -1   3   7    3.87    0.71
  -1   3   7    3.19    0.82
  -1   3   7    4.38    0.88
   0  -3  -7   67.96    3.08
   0  -3  -7   65.45    2.79
   0  -3  -7   71.84    3.59
   0  -3  -7   73.50    2.67
   0  -3  -7   71.62    2.98
   0  -3  -7   69.05    3.12
   0  -3  -7   76.43    3.02
   0  -3  -7   77.99    3.30
   0  -3  -7   71.87    3.16
   0  -3  -7   72.89    4.19
   0   3   7   71.31    3.12
   0   3   7   72.87    2.54
   0   3   7   66.38    3.11
   0   3   7   72.39    3.19
   0   3   7   69.52    3.01
   0   3   7   69.63    3.00
   0   3   7   74.02    3.14
   0   3   7   74.60    2.86
   0   3   7   72.49    2.92
   0   3   7   69.12    2.63
   0   3   7   71.38    2.89
   0   3   7   70.81    3.05
  -1  -3  -7   51.34    2.41
  -1  -3  -7   52.52    2.02
  -1  -3  -7   47.09    2.40
  -1  -3  -7   52.62    2.68
  -1  -3  -7   53.92    2.46
  -1  -3  -7   48.76    3.25
  -1  -3  -7   49.69    2.32
  -1  -3  -7   48.63    2.07
  -1  -3  -7   51.19    2.30
  -1  -3  -7   47.75    2.47
   1   3   7   52.43    2.05
   1   3   7   51.48    2.43
   1   3   7   49.55    2.36
   1   3   7   49.74    1.78
   1   3   7   46.41    2.36
   1   3   7   50.92    1.84
   1   3   7   49.18    1.96
   1   3   7   47.22    2.34
   1   3   7   50.45    3.29
   1   3   7   53.17    2.16
   1   3   7   48.93    2.19
   1   3   7   53.13    2.37
   1   3   7   49.10    2.29
   1   3   7   49.29    2.36
  -2  -3  -7   36.04    1.90
  -2  -3  -7   37.56    1.85
  -2  -3  -7   37.56    2.76
  -2  -3  -7   37.79    1.94
  -2  -3  -7   34.66    1.86
  -2  -3  -7   39.62    1.95
  -2  -3  -7   37.71    2.01
  -2  -3  -7   40.29    2.04
  -2  -3  -7   38.51    2.16
  -2  -3  -7   36.05    1.60
  -2  -3  -7   32.05    2.24
   2   3   7   36.86    1.91
   2   3   7   35.72    2.71
   2   3   7   36.70    1.86
   2   3   7   33.97    1.32
   2   3   7   36.95    1.39
   2   3   7   39.15    1.80
   2   3   7   38.14    1.44
   2   3   7   36.51    1.90
   2   3   7   36.39    1.93
   2   3   7   34.63    1.93
   2   3   7   36.99    1.88
   2   3   7   36.61    1.96
   2   3   7   36.44    1.69
   2   3   7   35.15    1.53
  -3  -3  -7   10.39    1.08
  -3  -3  -7   11.38    1.56
  -3  -3  -7   11.40    1.22
  -3  -3  -7   11.50    1.03
  -3  -3  -7   14.72    1.12
  -3  -3  -7   11.19    0.80
  -3  -3  -7   11.98    1.05
  -3  -3  -7   11.36    1.00
  -3  -3  -7   10.16    1.12
  -3  -3  -7   12.26    0.87
   3   3   7   11.41    0.87
   3   3   7   11.12    0.93
   3   3   7   14.80    1.28
   3   3   7   12.88    1.07
   3   3   7   11.30    1.11
   3   3   7   10.63    1.56
   3   3   7   10.88    0.78
   3   3   7   11.01    1.07
   3   3   7   12.27    1.05
   3   3   7   11.35    1.07
   3   3   7    9.21    0.99
   3   3   7   10.62    1.03
  -4  -3  -7    2.16    0.60
  -4  -3  -7    3.71    0.69
  -4  -3  -7    3.82    0.75
  -4  -3  -7    3.38    0.82
  -4  -3  -7    3.51    0.70
  -4  -3  -7    2.52    0.63
  -4  -3  -7    2.32    0.48
  -4  -3  -7    2.92    1.14
  -4  -3  -7    2.17    0.76
   4   3   7    2.87    0.72
   4   3   7    3.49    0.73
   4   3   7    3.16    0.55
   4   3   7    3.69    0.79
   4   3   7    2.17    0.63
   4   3   7    2.31    0.71
   4   3   7    2.75    0.71
   4   3   7    2.98    0.75
   4   3   7    2.11    0.60
   4   3   7    4.42    0.69
   4   3   7    3.44    0.80
  -5  -3  -7    1.96    0.80
  -5  -3  -7    2.81    0.68
  -5  -3  -7    1.51    0.54
  -5  -3  -7    2.40    0.80
  -5  -3  -7    2.98    0.71
  -5  -3  -7    2.78    0.61
  -5  -3  -7    2.50    0.73
  -5  -3  -7    1.45    0.38
   5   3   7    2.30    0.71
   5   3   7    1.65    0.44
   5   3   7    3.46    0.92
   5   3   7    2.85    0.75
   5   3   7    1.62    0.65
  -6  -3  -7    4.76    0.99
  -6  -3  -7    5.27    0.93
  -6  -3  -7    7.71    1.47
  -6  -3  -7    5.29    0.70
  -6  -3  -7    5.33    1.22
  -6  -3  -7    6.45    1.02
  -6  -3  -7    6.49    1.04
  -6  -3  -7    3.86    0.90
   6   3   7    4.03    1.04
   6   3   7    5.96    1.04
   6   3   7    4.10    1.03
   6   3   7    4.81    1.15
   6   3   7    5.88    0.75
  -7  -3  -7    0.76    0.40
  -7  -3  -7    1.58    1.60
  -7  -3  -7    1.41    0.69
  -7  -3  -7    1.34    0.69
  -7  -3  -7    2.91    0.80
   7   3   7    0.64    0.74
   3  -4  -7    9.01    1.36
   3  -4  -7   13.21    2.86
   3  -4  -7   10.44    1.37
   3  -4  -7   11.52    1.64
   3  -4  -7    9.17    0.87
   3  -4  -7    8.74    1.35
  -3   4   7    8.94    1.44
  -3   4   7    8.41    1.33
  -3   4   7    9.60    1.44
  -3   4   7    9.50    1.01
  -3   4   7    8.58    1.05
   2  -4  -7   15.09    1.58
   2  -4  -7   17.40    1.48
   2  -4  -7   16.76    1.04
   2  -4  -7   17.53    2.56
   2  -4  -7   16.10    1.52
   2  -4  -7   14.15    1.29
   2  -4  -7   16.94    1.64
  -2   4   7   15.46    1.17
  -2   4   7   13.38    1.46
  -2   4   7   13.67    1.23
  -2   4   7   14.90    1.45
  -2   4   7   15.95    1.33
  -2   4   7   14.67    1.13
  -2   4   7   19.85    1.68
   1  -4  -7    5.50    1.06
   1  -4  -7    5.46    1.49
   1  -4  -7    4.65    0.90
   1  -4  -7    5.62    0.65
   1  -4  -7    4.15    0.81
   1  -4  -7    3.98    0.86
   1  -4  -7    5.73    0.92
   1  -4  -7    4.82    1.37
   1  -4  -7    5.25    1.04
  -1   4   7    5.80    0.92
  -1   4   7    5.86    0.82
  -1   4   7    4.90    0.76
  -1   4   7    3.79    0.69
  -1   4   7    4.71    0.91
  -1   4   7    4.34    0.91
  -1   4   7    4.03    0.67
  -1   4   7    3.50    0.88
   0  -4  -7   93.85    3.54
   0  -4  -7   86.12    3.64
   0  -4  -7   92.71    4.86
   0  -4  -7   85.68    3.12
   0  -4  -7   78.77    3.44
   0  -4  -7   91.22    4.12
   0  -4  -7   91.16    3.67
   0  -4  -7   87.21    3.35
   0  -4  -7   80.77    3.61
   0  -4  -7   91.13    3.77
   0   4   7   86.16    3.61
   0   4   7   89.34    3.22
   0   4   7   85.81    3.44
   0   4   7   82.39    5.09
   0   4   7   90.75    3.74
   0   4   7   82.88    3.82
   0   4   7   91.71    3.60
   0   4   7   94.75    3.43
   0   4   7   87.66    3.19
   0   4   7   82.66    3.72
   0   4   7   90.77    3.77
  -1  -4  -7   14.11    1.22
  -1  -4  -7   16.61    1.25
  -1  -4  -7   15.61    1.17
  -1  -4  -7   15.63    1.31
  -1  -4  -7   15.65    1.22
  -1  -4  -7   14.94    1.50
  -1  -4  -7   15.54    1.25
  -1  -4  -7   13.88    0.93
  -1  -4  -7   15.83    1.41
  -1  -4  -7   14.25    1.24
  -1  -4  -7   15.35    1.26
  -1  -4  -7   13.42    0.99
   1   4   7   13.97    1.18
   1   4   7   13.78    0.96
   1   4   7   16.02    1.26
   1   4   7   16.41    1.15
   1   4   7   15.23    1.24
   1   4   7   16.94    1.94
   1   4   7   15.66    0.85
   1   4   7   16.90    1.31
   1   4   7   15.06    1.07
   1   4   7   14.35    1.21
   1   4   7   17.19    1.26
   1   4   7   14.30    0.92
  -2  -4  -7   11.70    1.14
  -2  -4  -7   11.17    0.99
  -2  -4  -7   13.14    1.12
  -2  -4  -7   10.64    1.08
  -2  -4  -7   10.45    0.83
  -2  -4  -7    8.96    1.05
  -2  -4  -7   11.40    1.09
  -2  -4  -7   11.12    1.04
  -2  -4  -7   11.18    0.82
  -2  -4  -7   12.06    1.07
  -2  -4  -7   11.23    1.57
  -2  -4  -7   12.20    1.16
   2   4   7   13.48    1.02
   2   4   7   10.50    1.03
   2   4   7   10.22    0.84
   2   4   7   10.57    1.52
   2   4   7   11.60    1.11
   2   4   7   12.33    1.12
   2   4   7   11.31    0.91
   2   4   7   11.42    1.09
   2   4   7   10.55    0.75
   2   4   7   11.97    1.10
   2   4   7   11.22    1.04
   2   4   7   10.88    1.03
  -3  -4  -7   17.50    1.36
  -3  -4  -7   15.21    1.20
  -3  -4  -7   16.66    1.09
  -3  -4  -7   16.99    1.24
  -3  -4  -7   12.02    1.69
  -3  -4  -7   17.20    1.80
  -3  -4  -7   15.73    0.97
  -3  -4  -7   17.02    1.37
  -3  -4  -7   16.74    1.23
  -3  -4  -7   12.85    1.08
  -3  -4  -7   17.29    1.39
  -3  -4  -7   14.61    1.29
   3   4   7   15.11    1.07
   3   4   7   15.10    1.24
   3   4   7   14.36    1.21
   3   4   7   15.76    1.27
   3   4   7   14.81    1.01
   3   4   7   12.98    1.22
   3   4   7   14.16    1.20
   3   4   7   15.18    1.24
   3   4   7   15.71    1.29
   3   4   7   16.16    1.17
   3   4   7   16.62    0.89
  -4  -4  -7   59.21    2.50
  -4  -4  -7   55.02    2.57
  -4  -4  -7   53.60    2.53
  -4  -4  -7   54.52    2.31
  -4  -4  -7   45.97    2.62
  -4  -4  -7   49.36    3.47
  -4  -4  -7   51.68    2.16
  -4  -4  -7   55.18    2.56
   4   4   7   51.66    2.65
   4   4   7   52.93    2.24
   4   4   7   59.50    2.52
   4   4   7   55.84    2.67
   4   4   7   52.78    2.58
   4   4   7   56.71    2.67
   4   4   7   57.78    2.72
   4   4   7   58.11    2.40
   4   4   7   57.73    2.64
  -5  -4  -7   43.05    2.45
  -5  -4  -7   39.72    2.47
  -5  -4  -7   44.15    2.28
  -5  -4  -7   41.43    1.82
  -5  -4  -7   44.49    2.19
  -5  -4  -7   44.34    2.26
  -5  -4  -7   38.28    1.99
  -5  -4  -7   41.28    2.25
   5   4   7   42.42    2.37
   5   4   7   41.50    2.41
   5   4   7   41.83    2.33
   5   4   7   41.94    1.94
   5   4   7   36.27    2.25
   5   4   7   39.73    2.11
  -6  -4  -7   10.50    1.40
  -6  -4  -7    8.02    0.82
  -6  -4  -7   10.22    1.15
  -6  -4  -7    8.46    1.50
  -6  -4  -7   10.32    1.20
  -6  -4  -7   10.64    1.14
  -6  -4  -7   10.73    1.22
  -6  -4  -7    9.51    1.22
   6   4   7    9.99    0.69
   6   4   7    9.89    1.01
   6   4   7    8.87    1.25
   6   4   7    8.31    1.37
   6   4   7   10.01    1.26
  -7  -4  -7    7.82    1.28
  -7  -4  -7    9.05    1.21
  -7  -4  -7    8.43    1.30
  -7  -4  -7    9.03    1.37
  -7  -4  -7    9.92    0.92
   7   4   7    9.22    0.66
   7   4   7   10.00    1.11
   7   4   7   10.48    1.46
   3  -5  -7    1.81    0.83
   3  -5  -7    2.76    1.02
   3  -5  -7    2.10    1.30
   3  -5  -7    1.78    0.46
   3  -5  -7    2.04    1.96
  -3   5   7    2.40    0.97
  -3   5   7    1.69    0.63
  -3   5   7    1.99    0.74
  -3   5   7    1.47    0.82
  -3   5   7    1.15    0.63
  -3   5   7    1.52    0.82
   2  -5  -7    4.95    0.63
   2  -5  -7    5.21    1.00
   2  -5  -7    4.02    1.69
   2  -5  -7    5.19    1.06
   2  -5  -7    5.18    1.17
   2  -5  -7    4.63    0.91
   2  -5  -7    6.04    1.62
  -2   5   7    2.81    0.62
  -2   5   7    4.32    1.08
  -2   5   7    5.80    0.93
  -2   5   7    3.93    0.87
  -2   5   7    4.06    0.90
  -2   5   7    4.46    1.03
  -2   5   7    4.77    1.11
   1  -5  -7    4.02    0.90
   1  -5  -7    4.63    1.02
   1  -5  -7    4.95    0.91
   1  -5  -7    3.97    1.42
   1  -5  -7    3.96    1.41
   1  -5  -7    4.81    1.04
   1  -5  -7    4.92    0.61
   1  -5  -7    4.46    0.84
  -1   5   7    5.13    0.94
  -1   5   7    4.09    0.80
  -1   5   7    3.99    0.71
  -1   5   7    2.79    0.69
  -1   5   7    4.37    0.77
  -1   5   7    4.61    0.98
  -1   5   7    4.36    0.96
  -1   5   7    6.14    0.97
   0  -5  -7    0.36    0.43
   0  -5  -7    0.27    0.43
   0  -5  -7    0.76    0.67
   0  -5  -7   -0.24    0.46
   0  -5  -7   -0.02    0.67
   0  -5  -7    0.40    0.40
   0  -5  -7    0.54    0.45
   0  -5  -7    0.66    0.44
   0  -5  -7   -0.10    0.42
   0  -5  -7    0.18    0.48
   0  -5  -7   -0.21    0.36
   0  -5  -7    0.15    0.39
   0  -5  -7    0.08    0.30
   0   5   7    0.06    0.35
   0   5   7    0.50    0.39
   0   5   7    0.65    0.49
   0   5   7   -0.10    0.40
   0   5   7    0.20    0.36
   0   5   7    0.09    0.42
   0   5   7   -0.26    0.34
   0   5   7    0.20    0.41
  -1  -5  -7   24.33    1.27
  -1  -5  -7   25.31    1.60
  -1  -5  -7   28.61    1.68
  -1  -5  -7   26.24    1.67
  -1  -5  -7   22.53    1.45
  -1  -5  -7   26.42    1.66
  -1  -5  -7   22.86    1.64
  -1  -5  -7   24.33    1.36
  -1  -5  -7   22.99    1.60
  -1  -5  -7   24.08    1.55
  -1  -5  -7   21.55    1.59
  -1  -5  -7   26.28    1.75
  -1  -5  -7   29.55    2.52
   1   5   7   26.81    1.62
   1   5   7   24.61    1.49
   1   5   7   25.92    1.65
   1   5   7   23.46    1.32
   1   5   7   24.36    1.36
   1   5   7   24.93    2.42
   1   5   7   25.96    1.67
   1   5   7   24.99    1.65
   1   5   7   25.73    1.46
  -2  -5  -7   12.49    1.13
  -2  -5  -7   11.34    1.12
  -2  -5  -7   11.44    1.17
  -2  -5  -7   12.10    1.10
  -2  -5  -7   11.63    1.64
  -2  -5  -7   11.84    1.12
  -2  -5  -7   10.16    1.14
  -2  -5  -7   12.51    1.14
  -2  -5  -7   12.33    0.90
  -2  -5  -7   11.62    1.14
  -2  -5  -7   12.88    1.08
  -2  -5  -7   11.85    0.89
  -2  -5  -7   13.61    1.21
   2   5   7   12.16    1.13
   2   5   7   13.11    1.21
   2   5   7   12.59    0.89
   2   5   7   12.86    1.08
   2   5   7   11.61    1.67
   2   5   7   10.77    0.93
   2   5   7   12.64    1.00
   2   5   7   14.77    1.24
   2   5   7   11.07    1.10
  -3  -5  -7   33.80    2.05
  -3  -5  -7   35.31    2.04
  -3  -5  -7   41.23    3.04
  -3  -5  -7   37.30    1.65
  -3  -5  -7   34.31    2.04
  -3  -5  -7   38.49    2.01
  -3  -5  -7   39.02    1.92
  -3  -5  -7   39.60    1.73
  -3  -5  -7   34.98    1.94
  -3  -5  -7   36.96    1.96
  -3  -5  -7   37.66    2.00
  -3  -5  -7   37.51    2.12
  -3  -5  -7   35.20    2.04
   3   5   7   40.58    1.97
   3   5   7   33.52    2.02
   3   5   7   39.47    2.17
   3   5   7   37.13    1.86
   3   5   7   36.78    2.04
   3   5   7   34.58    1.75
   3   5   7   38.79    1.66
   3   5   7   33.46    2.00
   3   5   7   37.71    2.90
  -4  -5  -7    1.66    0.57
  -4  -5  -7    1.78    0.56
  -4  -5  -7    1.70    0.68
  -4  -5  -7    1.67    0.55
  -4  -5  -7    1.25    0.52
  -4  -5  -7    0.94    0.46
  -4  -5  -7    2.05    1.00
  -4  -5  -7    1.01    0.59
  -4  -5  -7    0.95    0.35
   4   5   7    0.97    0.48
   4   5   7    0.66    0.49
   4   5   7    1.78    0.64
   4   5   7    1.72    0.71
   4   5   7    1.53    0.69
   4   5   7    1.31    0.41
   4   5   7    0.77    0.45
   4   5   7    1.07    0.50
  -5  -5  -7   39.95    2.17
  -5  -5  -7   38.10    1.72
  -5  -5  -7   39.91    2.16
  -5  -5  -7   38.53    2.04
  -5  -5  -7   35.21    2.37
  -5  -5  -7   38.70    2.39
  -5  -5  -7   34.07    2.07
  -5  -5  -7   35.18    1.84
   5   5   7   41.25    2.30
   5   5   7   38.19    2.10
   5   5   7   38.76    2.01
   5   5   7   36.69    2.25
   5   5   7   34.43    1.89
   5   5   7   34.38    2.30
   5   5   7   37.68    2.25
  -6  -5  -7   -0.27    0.43
  -6  -5  -7    0.13    0.51
  -6  -5  -7    0.15    0.50
  -6  -5  -7   -0.35    0.40
  -6  -5  -7    0.13    0.31
  -6  -5  -7    0.80    0.78
  -6  -5  -7    0.72    0.53
   6   5   7    0.78    0.55
   6   5   7    0.07    0.64
   6   5   7    0.26    0.57
   6   5   7    0.37    0.50
   6   5   7    1.25    0.81
  -7  -5  -7    0.05    0.56
  -7  -5  -7   -0.23    0.60
   7   5   7   -0.07    0.29
   7   5   7   -0.15    0.52
   7   5   7    0.96    0.87
   3  -6  -7    3.46    1.02
   3  -6  -7    4.10    2.17
   3  -6  -7    3.45    1.10
  -3   6   7    3.33    0.79
  -3   6   7    3.97    0.92
  -3   6   7    2.14    0.75
  -3   6   7    3.32    0.85
   2  -6  -7    4.28    0.93
   2  -6  -7    5.19    1.06
   2  -6  -7    7.01    2.09
   2  -6  -7    3.35    1.39
   2  -6  -7    2.48    0.95
  -2   6   7    2.91    0.87
  -2   6   7    3.48    0.79
  -2   6   7    4.22    0.90
  -2   6   7    4.28    1.04
  -2   6   7    3.49    0.73
  -2   6   7    3.28    0.81
  -2   6   7    3.26    0.95
   1  -6  -7    5.30    1.05
   1  -6  -7    3.83    1.38
   1  -6  -7    5.49    1.55
   1  -6  -7    4.44    0.89
   1  -6  -7    4.45    0.90
   1  -6  -7    4.00    0.88
  -1   6   7    5.65    1.06
  -1   6   7    5.18    0.77
  -1   6   7    6.18    0.99
  -1   6   7    5.41    1.04
  -1   6   7    5.20    0.87
  -1   6   7    4.32    0.91
  -1   6   7    5.50    0.92
  -1   6   7    5.74    0.90
   0  -6  -7   10.14    1.10
   0  -6  -7    9.40    1.63
   0  -6  -7    9.67    1.54
   0  -6  -7   10.10    1.13
   0  -6  -7    9.69    1.21
   0  -6  -7    8.89    1.13
   0  -6  -7   12.14    1.60
   0  -6  -7   10.17    1.16
   0  -6  -7   11.65    1.03
   0   6   7   11.43    1.17
   0   6   7    9.25    1.16
   0   6   7   10.95    1.07
   0   6   7   10.90    1.18
   0   6   7   11.43    1.05
   0   6   7   11.53    0.98
   0   6   7   10.81    1.01
   0   6   7   10.31    1.17
  -1  -6  -7    8.48    1.13
  -1  -6  -7    7.02    0.95
  -1  -6  -7    8.35    0.65
  -1  -6  -7    7.32    1.51
  -1  -6  -7    8.92    1.02
  -1  -6  -7    8.53    1.02
  -1  -6  -7    7.23    1.04
  -1  -6  -7    7.92    0.99
  -1  -6  -7    6.70    0.99
  -1  -6  -7    8.75    0.87
  -1  -6  -7    8.82    1.03
   1   6   7    7.53    0.86
   1   6   7    9.24    0.91
   1   6   7    8.82    1.11
   1   6   7    8.31    1.02
   1   6   7    7.45    0.98
   1   6   7    7.80    0.91
   1   6   7    8.94    0.89
   1   6   7    8.48    1.02
  -2  -6  -7    3.16    0.85
  -2  -6  -7    2.76    0.67
  -2  -6  -7    3.57    0.76
  -2  -6  -7    2.98    0.78
  -2  -6  -7    2.94    0.73
  -2  -6  -7    2.04    0.99
  -2  -6  -7    3.45    0.78
  -2  -6  -7    2.46    0.70
  -2  -6  -7    2.12    0.58
  -2  -6  -7    3.39    0.57
  -2  -6  -7    3.86    0.62
   2   6   7    2.24    0.58
   2   6   7    3.45    0.81
   2   6   7    2.28    0.52
   2   6   7    2.51    0.71
   2   6   7    3.24    0.78
   2   6   7    2.91    0.68
   2   6   7    2.97    0.71
   2   6   7    3.20    0.77
  -3  -6  -7    2.87    0.75
  -3  -6  -7    3.45    0.85
  -3  -6  -7    2.27    1.08
  -3  -6  -7    3.26    0.82
  -3  -6  -7    2.46    0.64
  -3  -6  -7    3.78    0.60
  -3  -6  -7    2.69    0.59
  -3  -6  -7    2.70    0.73
  -3  -6  -7    3.30    0.75
  -3  -6  -7    4.00    0.96
  -3  -6  -7    3.86    0.82
   3   6   7    2.62    0.78
   3   6   7    3.36    0.82
   3   6   7    3.37    0.76
   3   6   7    2.71    0.61
   3   6   7    3.02    0.62
   3   6   7    2.93    0.77
   3   6   7    2.88    0.73
   3   6   7    3.46    0.73
  -4  -6  -7   34.15    2.95
  -4  -6  -7   35.78    1.63
  -4  -6  -7   32.08    2.18
  -4  -6  -7   38.31    2.02
  -4  -6  -7   39.80    2.12
  -4  -6  -7   38.99    2.01
  -4  -6  -7   35.69    2.19
  -4  -6  -7   36.78    2.07
   4   6   7   37.89    1.96
   4   6   7   33.25    2.13
   4   6   7   36.22    1.93
   4   6   7   37.84    1.73
   4   6   7   36.10    2.29
   4   6   7   40.16    2.22
   4   6   7   38.19    2.08
   4   6   7   38.43    2.20
  -5  -6  -7   15.52    1.64
  -5  -6  -7   16.38    1.02
  -5  -6  -7   15.30    1.37
  -5  -6  -7   16.80    2.29
  -5  -6  -7   17.01    1.43
  -5  -6  -7   11.87    1.45
  -5  -6  -7   15.36    1.10
   5   6   7   13.13    1.43
   5   6   7   16.04    1.69
   5   6   7   17.09    1.57
   5   6   7   16.19    1.36
   5   6   7   19.57    1.65
   5   6   7   14.07    1.36
   5   6   7   16.03    1.36
  -6  -6  -7    2.49    0.83
  -6  -6  -7    2.10    0.49
  -6  -6  -7    3.96    0.78
  -6  -6  -7    2.86    1.74
  -6  -6  -7    2.19    1.06
   6   6   7    2.76    0.84
   6   6   7    1.26    0.84
   6   6   7    1.65    0.69
   6   6   7    2.32    0.93
   6   6   7    3.22    0.93
   2  -7  -7   19.26    2.55
   2  -7  -7   20.25    1.52
   2  -7  -7   23.20    1.93
  -2   7   7   21.29    1.64
  -2   7   7   16.97    1.53
  -2   7   7   20.49    1.45
  -2   7   7   20.39    1.64
   1  -7  -7   37.70    2.08
   1  -7  -7   42.55    2.46
   1  -7  -7   39.84    2.47
   1  -7  -7   43.14    3.39
   1  -7  -7   35.94    2.20
  -1   7   7   34.71    1.94
  -1   7   7   41.22    2.12
  -1   7   7   42.31    2.20
  -1   7   7   39.35    2.20
   0  -7  -7   11.64    1.17
   0  -7  -7   13.68    1.38
   0  -7  -7   12.06    1.20
   0  -7  -7   12.61    1.91
   0  -7  -7   11.33    1.27
   0   7   7   11.22    1.22
   0   7   7   10.60    1.27
   0   7   7   12.54    1.09
   0   7   7   13.20    1.32
   0   7   7    9.45    1.08
   0   7   7   11.44    1.11
   0   7   7   10.53    1.11
  -1  -7  -7    2.72    1.08
  -1  -7  -7    3.63    0.82
  -1  -7  -7    2.13    0.67
  -1  -7  -7    2.18    0.71
  -1  -7  -7    3.01    0.78
  -1  -7  -7    3.69    0.82
  -1  -7  -7    3.38    0.86
   1   7   7    1.30    0.65
   1   7   7    1.05    0.55
   1   7   7    2.55    0.81
   1   7   7    2.68    0.67
   1   7   7    1.97    0.58
   1   7   7    3.84    0.77
   1   7   7    2.21    0.57
   1   7   7    2.40    0.71
  -2  -7  -7    4.46    1.28
  -2  -7  -7    3.79    0.82
  -2  -7  -7    5.00    0.92
  -2  -7  -7    4.17    0.93
  -2  -7  -7    3.76    0.82
  -2  -7  -7    2.15    0.69
  -2  -7  -7    4.03    0.87
   2   7   7    4.33    0.95
   2   7   7    4.40    0.76
   2   7   7    4.79    0.93
   2   7   7    5.31    0.83
   2   7   7    3.14    0.75
   2   7   7    2.90    0.74
   2   7   7    4.34    0.94
   2   7   7    3.97    0.82
  -3  -7  -7    7.33    1.15
  -3  -7  -7    8.48    0.99
  -3  -7  -7    7.80    1.11
  -3  -7  -7    5.02    0.92
  -3  -7  -7    6.29    1.03
  -3  -7  -7    8.30    1.09
  -3  -7  -7    5.65    1.47
   3   7   7    7.30    0.97
   3   7   7    5.92    0.98
   3   7   7    5.47    0.91
   3   7   7    5.69    0.91
   3   7   7    7.43    0.85
   3   7   7    6.71    1.06
   3   7   7    6.12    1.04
   3   7   7    7.44    1.16
  -4  -7  -7   18.70    1.63
  -4  -7  -7   18.72    1.47
  -4  -7  -7   13.88    2.08
  -4  -7  -7   17.06    1.41
  -4  -7  -7   19.22    1.64
   4   7   7   17.61    1.39
   4   7   7   18.90    1.50
   4   7   7   18.63    1.60
   4   7   7   19.49    1.75
   4   7   7   15.20    1.49
   4   7   7   19.11    1.21
   4   7   7   16.84    1.40
  -5  -7  -7   35.56    3.27
  -5  -7  -7   34.51    2.09
  -5  -7  -7   34.37    2.32
  -5  -7  -7   33.35    1.54
   5   7   7   34.29    2.05
   5   7   7   32.34    2.22
   5   7   7   31.17    1.99
   5   7   7   33.12    1.73
   5   7   7   32.73    2.25
   5   7   7   37.18    2.52
   5   7   7   33.88    2.14
  -6  -7  -7    3.62    0.65
  -6  -7  -7    3.18    0.87
   6   7   7    4.17    1.03
   6   7   7    3.96    1.35
   6   7   7    2.23    0.86
   6   7   7    3.99    0.96
   1  -8  -7    0.27    0.63
   1  -8  -7    0.60    0.70
   1  -8  -7    0.04    0.83
  -1   8   7    0.00    0.50
  -1   8   7    0.10    0.49
  -1   8   7    0.81    0.69
  -1   8   7    0.86    0.54
   0  -8  -7    1.47    1.03
   0  -8  -7    2.35    0.80
   0  -8  -7    2.79    0.87
   0   8   7    2.69    0.75
   0   8   7    3.94    0.85
   0   8   7    3.66    0.85
   0   8   7    4.15    0.92
  -1  -8  -7    4.13    1.37
  -1  -8  -7    6.11    1.07
  -1  -8  -7    5.75    0.98
  -1  -8  -7    4.50    0.98
  -1  -8  -7    6.31    1.07
   1   8   7    4.85    0.92
   1   8   7    5.63    0.90
   1   8   7    5.10    0.93
   1   8   7    4.08    0.87
  -2  -8  -7   16.06    1.43
  -2  -8  -7   16.34    2.14
  -2  -8  -7   18.16    1.46
  -2  -8  -7   17.89    1.43
  -2  -8  -7   21.12    1.66
   2   8   7   18.30    1.39
   2   8   7   16.74    1.35
   2   8   7   17.85    1.29
   2   8   7   16.51    1.40
  -3  -8  -7    1.48    0.67
  -3  -8  -7    2.87    0.83
  -3  -8  -7    1.82    0.70
  -3  -8  -7    1.56    0.70
  -3  -8  -7    1.54    1.08
   3   8   7    1.86    0.70
   3   8   7    2.66    0.72
   3   8   7    1.54    0.49
   3   8   7    1.21    0.59
  -4  -8  -7   21.29    2.57
  -4  -8  -7   20.85    1.63
  -4  -8  -7   22.15    1.74
   4   8   7   21.56    1.39
   4   8   7   20.25    1.59
   4   8   7   23.24    1.72
   4   8   7   21.11    1.66
  -5  -8  -7   37.68    2.26
  -5  -8  -7   35.16    3.42
  -5  -8  -7   36.61    2.36
   5   8   7   36.04    2.26
   5   8   7   36.45    1.88
   5   8   7   34.58    2.30
   5   8   7   40.85    2.29
   0  -9  -7    3.60    0.97
   0  -9  -7    4.54    1.54
   0  -9  -7    6.52    1.19
   0   9   7    3.77    0.91
   0   9   7    4.27    0.88
   0   9   7    4.92    0.98
   0   9   7    4.47    0.92
  -1  -9  -7    0.64    0.58
  -1  -9  -7    0.93    0.63
  -1  -9  -7    1.46    0.97
   1   9   7    2.00    0.72
   1   9   7    0.28    0.59
   1   9   7    1.77    0.70
   1   9   7    0.47    0.51
  -2  -9  -7    2.37    0.89
  -2  -9  -7    2.86    1.28
  -2  -9  -7    1.53    0.72
   2   9   7    0.35    0.53
   2   9   7    2.23    0.71
   2   9   7    2.55    0.75
   2   9   7    1.53    0.72
  -3  -9  -7   18.55    2.39
  -3  -9  -7   21.20    1.80
  -3  -9  -7   17.62    1.51
   3   9   7   15.45    1.32
   3   9   7   17.14    1.53
   3   9   7   16.16    1.53
   3   9   7   16.30    1.45
   4   9   7    9.05    1.06
  -1   2  -8   48.42    3.46
  -1   2  -8   46.32    2.37
  -1   2  -8   42.29    2.44
   1  -2   8   47.88    2.40
   1  -2   8   48.74    2.99
  -2   2  -8   22.04    1.61
  -2   2  -8   18.85    1.46
  -2   2  -8   21.08    2.28
   2  -2   8   22.10    1.97
   2  -2   8   22.67    1.53
  -3   2  -8    8.95    1.06
  -3   2  -8    8.40    1.63
  -3   2  -8    7.35    1.03
   3  -2   8    7.92    1.06
   3  -2   8    7.84    1.43
  -4   2  -8    4.69    0.96
  -4   2  -8    4.51    0.92
   4  -2   8    5.22    0.96
   0   1  -8    6.17    0.94
   0   1  -8    7.45    1.79
   0   1  -8    4.84    1.07
   0   1  -8    6.82    1.10
   0  -1   8    5.03    1.25
   0  -1   8    6.85    0.94
   0  -1   8    7.34    1.10
  -1   1  -8    9.11    1.16
  -1   1  -8    9.14    0.89
  -1   1  -8    8.04    1.07
  -1   1  -8    9.97    1.72
   1  -1   8   10.37    0.97
   1  -1   8   10.13    1.15
   1  -1   8   11.06    1.00
   1  -1   8    8.14    1.36
  -2   1  -8   12.50    1.18
  -2   1  -8   12.12    1.23
  -2   1  -8   12.66    1.75
   2  -1   8   13.20    1.47
   2  -1   8   13.47    1.27
   2  -1   8   14.36    1.03
  -3   1  -8    8.40    1.05
  -3   1  -8    7.87    1.55
  -3   1  -8    9.95    1.08
   3  -1   8   11.06    0.88
   3  -1   8   10.87    1.13
   3  -1   8   10.29    1.28
  -4   1  -8    4.02    0.85
  -4   1  -8    4.93    0.90
  -4   1  -8    3.01    1.02
   4  -1   8    4.96    0.98
  -5   1  -8   12.41    1.26
  -5   1  -8   12.98    1.28
  -5   1  -8   13.10    1.85
   5  -1   8   13.30    1.37
   5  -1   8   14.35    1.04
   1   0  -8    5.95    1.06
   1   0  -8    7.81    1.36
   1   0  -8    8.91    1.28
   1   0  -8    6.62    0.82
   1   0  -8    5.27    1.72
   1   0  -8    7.71    1.19
  -1   0   8    8.20    1.26
  -1   0   8    7.14    1.41
  -1   0   8    7.12    1.09
   0   0  -8    2.45    0.63
   0   0  -8    3.75    1.37
   0   0  -8    5.04    0.98
   0   0  -8    3.17    0.86
   0   0  -8    3.00    0.62
   0   0  -8    3.84    0.85
   0   0   8    2.87    0.78
   0   0   8    2.87    0.87
   0   0   8    2.76    0.79
   0   0   8    4.05    0.81
  -1   0  -8    0.45    0.36
  -1   0  -8    0.61    0.52
  -1   0  -8    0.76    0.38
  -1   0  -8    0.28    0.46
  -1   0  -8    0.48    0.54
  -1   0  -8    0.09    0.69
   1   0   8    0.57    0.46
   1   0   8    0.26    0.44
   1   0   8    0.34    0.39
   1   0   8   -0.50    0.46
   1   0   8    0.41    0.50
  -2   0  -8    3.55    0.85
  -2   0  -8    5.68    1.28
  -2   0  -8    5.59    0.67
  -2   0  -8    5.36    0.87
  -2   0  -8    3.97    0.84
   2   0   8    5.80    0.80
   2   0   8    5.85    0.82
   2   0   8    3.67    0.95
   2   0   8    4.60    0.89
   2   0   8    5.25    0.79
  -3   0  -8    3.65    0.59
  -3   0  -8    4.01    0.83
  -3   0  -8    4.29    0.87
  -3   0  -8    2.90    1.02
  -3   0  -8    3.15    0.79
   3   0   8    2.73    0.69
   3   0   8    2.50    0.77
   3   0   8    4.95    0.91
   3   0   8    3.61    0.70
   3   0   8    3.82    0.72
  -4   0  -8    6.11    0.91
  -4   0  -8    5.85    0.92
  -4   0  -8    6.21    0.69
  -4   0  -8    5.58    1.32
   4   0   8    6.26    0.79
   4   0   8    5.15    0.85
   4   0   8    6.05    1.00
   4   0   8    5.23    0.79
  -5   0  -8   18.95    1.98
  -5   0  -8   18.29    1.46
  -5   0  -8   16.28    1.40
  -5   0  -8   16.74    1.10
   5   0   8   17.51    1.24
   5   0   8   16.01    1.49
   5   0   8   19.89    1.58
   5   0   8   17.69    1.28
  -6   0  -8    4.37    0.99
  -6   0  -8    3.79    0.76
  -6   0  -8    4.76    1.02
   6   0   8    5.46    1.17
   6   0   8    4.27    0.97
   2  -1  -8   42.30    2.75
   2  -1  -8   36.20    2.40
   2  -1  -8   42.08    2.55
   2  -1  -8   40.66    2.00
   2  -1  -8   46.15    4.05
   2  -1  -8   42.12    2.46
  -2   1   8   39.05    2.37
  -2   1   8   45.18    2.86
   1  -1  -8   50.15    2.23
   1  -1  -8   46.77    2.53
   1  -1  -8   52.38    2.72
   1  -1  -8   51.10    3.75
   1  -1  -8   54.98    2.95
   1  -1  -8   53.18    2.58
  -1   1   8   51.04    2.76
  -1   1   8   55.88    2.63
  -1   1   8   52.09    2.92
   0  -1  -8    2.92    0.71
   0  -1  -8    3.85    0.76
   0  -1  -8    3.55    0.62
   0  -1  -8    3.35    0.87
   0  -1  -8    2.83    1.11
   0  -1  -8    3.80    0.85
   0   1   8    2.08    0.63
   0   1   8    3.72    0.93
   0   1   8    4.12    0.86
   0   1   8    3.22    0.86
   0   1   8    4.53    0.96
  -1  -1  -8    8.97    1.49
  -1  -1  -8   10.81    0.82
  -1  -1  -8    8.20    1.10
  -1  -1  -8    7.90    1.03
  -1  -1  -8    9.09    0.84
  -1  -1  -8    9.94    1.08
   1   1   8   11.45    1.14
   1   1   8   10.12    1.13
   1   1   8   10.01    1.05
   1   1   8    8.53    1.02
   1   1   8   11.06    1.07
  -2  -1  -8   11.86    0.89
  -2  -1  -8   11.39    1.15
  -2  -1  -8   11.64    1.11
  -2  -1  -8   10.20    1.43
  -2  -1  -8   10.13    1.09
  -2  -1  -8   11.99    0.86
   2   1   8   12.72    1.19
   2   1   8   13.61    1.17
   2   1   8   12.08    1.09
   2   1   8   11.83    1.09
   2   1   8   10.25    1.05
  -3  -1  -8   40.38    2.04
  -3  -1  -8   34.40    2.47
  -3  -1  -8   39.17    1.68
  -3  -1  -8   33.18    1.98
  -3  -1  -8   36.23    2.04
  -3  -1  -8   37.14    1.67
   3   1   8   38.11    1.99
   3   1   8   37.60    1.96
   3   1   8   40.15    1.95
   3   1   8   43.30    2.13
   3   1   8   37.74    1.94
  -4  -1  -8    4.97    0.64
  -4  -1  -8    5.09    0.70
  -4  -1  -8    6.32    0.91
  -4  -1  -8    4.71    1.17
  -4  -1  -8    6.12    0.94
  -4  -1  -8    5.33    1.08
   4   1   8    5.98    0.87
   4   1   8    7.26    0.94
   4   1   8    7.02    1.03
   4   1   8    6.10    0.88
  -5  -1  -8   10.33    1.13
  -5  -1  -8    8.61    0.83
  -5  -1  -8   12.23    1.23
  -5  -1  -8    9.36    1.38
  -5  -1  -8   11.17    0.97
   5   1   8   11.76    1.35
   5   1   8    9.04    1.20
   5   1   8    9.06    1.07
   5   1   8    9.37    1.11
   5   1   8    9.20    1.07
  -6  -1  -8    1.35    0.46
  -6  -1  -8    1.69    0.65
  -6  -1  -8    1.13    0.62
  -6  -1  -8    1.72    1.00
  -6  -1  -8    1.93    0.69
   6   1   8    0.80    0.68
   6   1   8    0.90    0.61
   2  -2  -8   13.43    1.12
   2  -2  -8   15.26    1.55
   2  -2  -8   15.43    1.62
   2  -2  -8   13.33    1.47
   2  -2  -8   15.56    2.66
   2  -2  -8   15.96    1.74
  -2   2   8   14.42    1.50
  -2   2   8   15.08    1.68
   1  -2  -8   10.69    1.39
   1  -2  -8    9.35    1.16
   1  -2  -8   10.65    2.03
   1  -2  -8   10.56    1.34
   1  -2  -8    8.51    1.14
   1  -2  -8    9.98    0.91
   1  -2  -8   10.66    1.92
  -1   2   8   10.43    1.35
  -1   2   8   13.11    1.40
  -1   2   8    8.94    1.18
  -1   2   8    9.83    1.27
   0  -2  -8    6.10    1.41
   0  -2  -8    5.35    0.83
   0  -2  -8    5.57    0.95
   0  -2  -8    4.41    1.00
   0  -2  -8    4.54    0.88
   0  -2  -8    5.55    0.69
   0  -2  -8    4.20    0.98
   0   2   8    3.73    0.87
   0   2   8    5.75    0.94
   0   2   8    5.52    0.97
   0   2   8    5.77    0.97
   0   2   8    3.59    0.87
   0   2   8    5.19    0.99
  -1  -2  -8   12.23    0.94
  -1  -2  -8   10.03    0.82
  -1  -2  -8    8.16    1.36
  -1  -2  -8   11.05    1.19
  -1  -2  -8    9.33    1.12
  -1  -2  -8    9.93    1.18
  -1  -2  -8   10.25    1.17
  -1  -2  -8   11.89    1.12
  -1  -2  -8    9.07    1.06
   1   2   8   11.45    1.17
   1   2   8   11.54    1.14
   1   2   8   11.73    1.14
   1   2   8    9.82    1.01
   1   2   8   11.19    1.16
   1   2   8   10.49    1.07
  -2  -2  -8   -0.25    0.39
  -2  -2  -8    0.44    0.56
  -2  -2  -8   -0.47    0.38
  -2  -2  -8    0.06    0.29
  -2  -2  -8   -0.42    0.35
  -2  -2  -8    0.27    0.39
  -2  -2  -8    0.41    0.45
  -2  -2  -8   -0.05    0.25
  -2  -2  -8    1.01    0.49
   2   2   8   -0.16    0.36
   2   2   8    0.76    0.47
   2   2   8    0.26    0.35
   2   2   8    0.40    0.45
   2   2   8   -0.25    0.33
  -3  -2  -8   59.89    3.16
  -3  -2  -8   55.18    2.26
  -3  -2  -8   54.56    2.61
  -3  -2  -8   52.45    2.61
  -3  -2  -8   56.52    2.57
  -3  -2  -8   56.77    2.26
  -3  -2  -8   57.41    2.64
  -3  -2  -8   57.12    2.64
  -3  -2  -8   54.46    3.73
   3   2   8   54.69    2.57
   3   2   8   56.08    2.64
   3   2   8   56.24    2.65
   3   2   8   56.82    2.57
  -4  -2  -8   14.92    1.23
  -4  -2  -8   13.32    0.96
  -4  -2  -8   15.21    1.44
  -4  -2  -8   14.57    1.04
  -4  -2  -8   14.61    1.34
  -4  -2  -8   14.56    1.27
  -4  -2  -8   16.63    1.65
   4   2   8   14.47    1.26
   4   2   8   13.60    1.29
   4   2   8   14.39    1.25
   4   2   8   13.64    1.25
  -5  -2  -8   22.51    1.26
  -5  -2  -8   21.06    1.81
  -5  -2  -8   19.57    1.33
  -5  -2  -8   21.76    1.54
  -5  -2  -8   18.18    1.50
   5   2   8   19.86    1.55
   5   2   8   22.29    1.58
   5   2   8   22.18    1.70
   5   2   8   17.30    1.47
   5   2   8   20.00    1.61
  -6  -2  -8   14.53    1.30
  -6  -2  -8   17.10    1.87
  -6  -2  -8   16.67    1.46
  -6  -2  -8   15.06    1.45
  -6  -2  -8   14.36    1.08
   6   2   8   14.85    1.40
   2  -3  -8   15.87    1.56
   2  -3  -8   15.11    1.76
   2  -3  -8   17.75    1.67
   2  -3  -8   13.86    1.13
   2  -3  -8   19.39    2.86
   2  -3  -8   14.14    1.70
   2  -3  -8   15.29    1.54
  -2   3   8   14.77    1.55
  -2   3   8   16.01    1.08
   1  -3  -8   16.45    1.41
   1  -3  -8   16.40    2.25
   1  -3  -8   17.74    1.48
   1  -3  -8   15.59    1.53
   1  -3  -8   17.10    1.16
   1  -3  -8   18.12    1.56
   1  -3  -8   16.03    1.64
   1  -3  -8   18.48    1.68
  -1   3   8   16.04    1.47
  -1   3   8   17.90    1.63
  -1   3   8   15.64    1.53
  -1   3   8   16.61    1.06
   0  -3  -8    2.94    0.84
   0  -3  -8    2.69    0.82
   0  -3  -8    3.51    0.80
   0  -3  -8    1.93    0.56
   0  -3  -8    2.54    0.71
   0  -3  -8    2.14    0.51
   0  -3  -8    2.75    0.74
   0  -3  -8    3.54    1.19
   0   3   8    3.01    0.56
   0   3   8    2.43    0.65
   0   3   8    3.34    0.78
   0   3   8    3.81    0.91
   0   3   8    3.92    0.90
  -1  -3  -8    8.92    0.81
  -1  -3  -8    9.73    1.15
  -1  -3  -8   10.75    1.41
  -1  -3  -8    9.96    1.19
  -1  -3  -8    8.84    1.08
  -1  -3  -8    8.84    0.87
  -1  -3  -8    9.62    1.08
  -1  -3  -8    9.53    1.15
  -1  -3  -8    9.30    1.14
   1   3   8    9.71    1.02
   1   3   8    9.36    1.08
   1   3   8    9.86    1.09
   1   3   8   10.80    0.77
   1   3   8    8.63    0.86
   1   3   8    9.56    1.10
   1   3   8    8.34    1.08
  -2  -3  -8   43.02    2.23
  -2  -3  -8   39.64    2.05
  -2  -3  -8   41.77    1.82
  -2  -3  -8   41.00    2.25
  -2  -3  -8   36.30    2.10
  -2  -3  -8   37.86    2.12
  -2  -3  -8   40.54    2.45
  -2  -3  -8   41.65    2.18
  -2  -3  -8   40.51    1.82
   2   3   8   42.81    2.25
   2   3   8   41.13    1.65
   2   3   8   40.10    2.00
   2   3   8   45.67    2.35
   2   3   8   38.62    2.13
   2   3   8   44.27    2.20
   2   3   8   36.67    2.06
  -3  -3  -8   16.43    1.30
  -3  -3  -8   16.80    1.59
  -3  -3  -8   18.74    1.47
  -3  -3  -8   14.96    1.28
  -3  -3  -8   15.18    1.06
  -3  -3  -8   17.99    1.08
  -3  -3  -8   14.76    1.38
  -3  -3  -8   18.71    1.36
  -3  -3  -8   16.24    1.27
   3   3   8   17.64    1.36
   3   3   8   12.43    1.26
   3   3   8   15.19    1.30
   3   3   8   14.66    1.29
  -4  -3  -8   42.10    2.29
  -4  -3  -8   43.56    2.62
  -4  -3  -8   44.78    2.50
  -4  -3  -8   47.32    1.97
  -4  -3  -8   41.22    2.43
  -4  -3  -8   47.15    2.36
  -4  -3  -8   47.19    2.29
  -4  -3  -8   43.35    2.04
  -4  -3  -8   42.50    2.28
   4   3   8   47.66    2.36
   4   3   8   50.83    2.49
   4   3   8   42.83    2.35
   4   3   8   43.34    2.34
  -5  -3  -8    2.86    0.73
  -5  -3  -8    3.13    0.94
  -5  -3  -8    4.11    0.90
  -5  -3  -8    4.03    0.64
  -5  -3  -8    3.61    0.85
  -5  -3  -8    4.02    0.81
  -5  -3  -8    4.09    0.89
   5   3   8    3.00    0.78
   5   3   8    4.10    0.94
   5   3   8    3.72    0.94
  -6  -3  -8    1.28    0.58
  -6  -3  -8    3.73    1.23
  -6  -3  -8    2.20    0.66
  -6  -3  -8    1.05    0.45
  -6  -3  -8    2.17    0.72
   6   3   8    1.96    0.80
   2  -4  -8    1.29    1.00
   2  -4  -8   -0.09    0.69
   2  -4  -8    0.75    0.79
   2  -4  -8   -0.02    0.65
   2  -4  -8    0.44    0.68
   2  -4  -8   -0.73    1.17
   2  -4  -8    0.46    0.43
  -2   4   8    0.50    0.47
  -2   4   8    0.68    0.76
  -2   4   8    0.41    0.45
  -2   4   8    1.40    0.81
   1  -4  -8    6.87    1.90
   1  -4  -8    5.32    1.03
   1  -4  -8    3.57    0.67
   1  -4  -8    4.95    1.03
   1  -4  -8    5.27    1.21
   1  -4  -8    5.36    0.99
   1  -4  -8    2.92    0.79
   1  -4  -8    2.21    0.87
  -1   4   8    5.11    0.89
  -1   4   8    4.26    1.02
  -1   4   8    5.27    0.70
  -1   4   8    2.86    0.86
  -1   4   8    5.91    1.11
  -1   4   8    3.29    0.71
   0  -4  -8   28.74    1.94
   0  -4  -8   27.01    1.65
   0  -4  -8   29.91    1.81
   0  -4  -8   27.39    1.90
   0  -4  -8   29.73    1.83
   0  -4  -8   29.44    2.39
   0  -4  -8   30.83    1.99
   0  -4  -8   27.73    1.45
   0  -4  -8   27.55    1.97
   0   4   8   29.17    1.47
   0   4   8   26.80    1.59
   0   4   8   28.59    1.96
   0   4   8   23.17    1.73
   0   4   8   28.27    1.38
   0   4   8   30.72    1.95
   0   4   8   27.50    1.69
  -1  -4  -8   62.10    2.88
  -1  -4  -8   58.87    2.37
  -1  -4  -8   56.49    2.82
  -1  -4  -8   60.33    2.71
  -1  -4  -8   60.65    3.18
  -1  -4  -8   60.42    2.88
  -1  -4  -8   59.69    2.51
  -1  -4  -8   52.20    2.69
  -1  -4  -8   58.92    2.86
   1   4   8   60.29    2.55
   1   4   8   62.33    2.24
   1   4   8   57.53    2.79
   1   4   8   61.32    2.90
   1   4   8   51.65    2.76
   1   4   8   57.28    2.34
   1   4   8   57.37    2.75
   1   4   8   63.26    2.69
  -2  -4  -8   15.74    1.09
  -2  -4  -8   16.89    1.41
  -2  -4  -8   17.42    1.11
  -2  -4  -8   16.27    1.35
  -2  -4  -8   20.98    1.42
  -2  -4  -8   18.02    1.40
  -2  -4  -8   17.40    1.45
  -2  -4  -8   16.01    1.41
  -2  -4  -8   16.29    1.50
   2   4   8   19.27    1.57
   2   4   8   18.44    1.09
   2   4   8   16.53    1.19
   2   4   8   16.59    0.92
   2   4   8   20.44    1.34
   2   4   8   16.92    1.36
   2   4   8   17.07    1.44
   2   4   8   16.58    1.38
   2   4   8   18.18    1.45
  -3  -4  -8    2.79    0.78
  -3  -4  -8    3.01    0.67
  -3  -4  -8    4.91    0.99
  -3  -4  -8    1.83    0.56
  -3  -4  -8    3.03    0.77
  -3  -4  -8    2.80    0.55
  -3  -4  -8    2.91    0.71
  -3  -4  -8    2.55    0.78
  -3  -4  -8    1.36    0.58
   3   4   8    2.33    0.74
   3   4   8    2.31    0.70
   3   4   8    2.87    0.61
   3   4   8    2.87    0.70
   3   4   8    4.08    0.88
   3   4   8    2.71    0.73
   3   4   8    2.40    0.62
  -4  -4  -8   10.76    0.88
  -4  -4  -8   11.98    1.34
  -4  -4  -8   10.89    1.15
  -4  -4  -8   11.26    1.18
  -4  -4  -8   11.85    1.19
  -4  -4  -8   12.64    1.39
  -4  -4  -8   11.69    1.04
  -4  -4  -8   13.44    1.25
  -4  -4  -8   11.83    1.38
   4   4   8   11.74    1.24
   4   4   8   12.19    0.94
   4   4   8   12.55    1.25
   4   4   8   10.86    1.23
   4   4   8   12.49    1.12
  -5  -4  -8    2.09    0.67
  -5  -4  -8    2.10    0.60
  -5  -4  -8    2.81    0.95
  -5  -4  -8    3.34    0.91
  -5  -4  -8    3.65    0.91
  -5  -4  -8    2.80    0.58
  -5  -4  -8    2.20    0.65
  -5  -4  -8    2.19    0.69
   5   4   8    2.54    0.80
   5   4   8    2.89    0.40
   5   4   8    2.24    0.75
   5   4   8    2.16    0.80
   5   4   8    2.99    0.60
  -6  -4  -8    2.07    0.76
  -6  -4  -8    2.63    0.75
  -6  -4  -8    1.46    0.44
  -6  -4  -8    2.20    0.77
  -6  -4  -8    1.66    0.68
  -6  -4  -8    2.58    0.86
  -6  -4  -8    2.16    1.08
   6   4   8    2.33    0.86
   6   4   8    2.74    0.62
   6   4   8    2.56    0.82
   2  -5  -8   18.02    1.66
   2  -5  -8   23.32    3.08
   2  -5  -8   16.01    1.68
   2  -5  -8   17.74    1.15
   2  -5  -8   18.19    1.86
  -2   5   8   18.16    1.59
  -2   5   8   17.41    1.32
  -2   5   8   17.96    1.36
  -2   5   8   15.98    1.77
  -2   5   8   18.77    1.73
  -2   5   8   16.83    1.81
   1  -5  -8    2.60    0.75
   1  -5  -8    3.09    0.90
   1  -5  -8    3.49    0.88
   1  -5  -8    1.16    0.81
   1  -5  -8    2.28    0.51
   1  -5  -8    2.71    0.80
   1  -5  -8    3.46    1.52
  -1   5   8    2.67    0.62
  -1   5   8    3.60    0.89
  -1   5   8    3.29    0.90
  -1   5   8    3.50    0.77
  -1   5   8    3.36    0.82
  -1   5   8    3.53    0.82
  -1   5   8    2.44    0.77
   0  -5  -8    1.38    0.65
   0  -5  -8    0.95    0.65
   0  -5  -8    1.80    1.06
   0  -5  -8    0.76    0.43
   0  -5  -8    1.49    0.65
   0  -5  -8    1.46    0.68
   0  -5  -8    1.33    0.59
   0  -5  -8    0.91    0.63
   0  -5  -8    1.35    1.22
   0   5   8    2.08    0.70
   0   5   8    1.57    0.49
   0   5   8    1.37    0.56
   0   5   8    0.60    0.46
   0   5   8    1.39    0.64
   0   5   8    1.12    0.47
   0   5   8    0.96    0.58
  -1  -5  -8    3.25    0.86
  -1  -5  -8    1.58    0.50
  -1  -5  -8    2.88    0.62
  -1  -5  -8    3.64    0.90
  -1  -5  -8    2.86    0.72
  -1  -5  -8    2.36    0.72
  -1  -5  -8    3.33    0.86
  -1  -5  -8    2.83    0.90
  -1  -5  -8    3.64    0.90
  -1  -5  -8    2.57    1.25
   1   5   8    2.79    0.65
   1   5   8    2.50    0.72
   1   5   8    3.80    0.92
   1   5   8    3.61    0.77
   1   5   8    3.36    0.63
   1   5   8    2.28    0.74
   1   5   8    2.16    0.68
   1   5   8    2.14    0.59
  -2  -5  -8    2.61    0.57
  -2  -5  -8    1.80    0.62
  -2  -5  -8    2.26    0.74
  -2  -5  -8    2.10    0.62
  -2  -5  -8    1.96    1.06
  -2  -5  -8    3.06    0.91
  -2  -5  -8    1.71    0.53
  -2  -5  -8    2.32    0.67
  -2  -5  -8    4.33    0.82
  -2  -5  -8    2.15    0.69
   2   5   8    1.58    0.55
   2   5   8    4.11    0.94
   2   5   8    2.63    0.58
   2   5   8    3.10    0.70
   2   5   8    1.69    0.64
   2   5   8    2.21    0.64
   2   5   8    2.76    0.54
   2   5   8    2.83    0.81
  -3  -5  -8   35.28    2.01
  -3  -5  -8   30.68    1.98
  -3  -5  -8   33.11    1.84
  -3  -5  -8   31.25    1.64
  -3  -5  -8   35.34    2.00
  -3  -5  -8   36.60    1.65
  -3  -5  -8   30.83    2.81
  -3  -5  -8   28.00    2.00
  -3  -5  -8   31.08    2.06
  -3  -5  -8   35.01    1.99
   3   5   8   34.04    2.05
   3   5   8   33.59    2.09
   3   5   8   33.22    1.99
   3   5   8   35.27    2.09
   3   5   8   33.36    1.79
   3   5   8   32.55    1.66
   3   5   8   33.43    1.89
   3   5   8   32.24    1.50
  -4  -5  -8    1.61    0.58
  -4  -5  -8    2.17    0.66
  -4  -5  -8    1.47    0.65
  -4  -5  -8    1.97    0.66
  -4  -5  -8    2.43    0.56
  -4  -5  -8    3.16    1.00
  -4  -5  -8    1.47    0.59
  -4  -5  -8    1.43    0.52
  -4  -5  -8    2.67    0.86
   4   5   8    1.99    0.73
   4   5   8    1.68    0.53
   4   5   8    2.25    0.68
   4   5   8    1.92    0.66
   4   5   8    1.06    0.64
   4   5   8    1.84    0.55
  -5  -5  -8   30.47    1.90
  -5  -5  -8   28.90    1.49
  -5  -5  -8   28.06    1.87
  -5  -5  -8   24.79    1.62
  -5  -5  -8   29.34    1.90
  -5  -5  -8   28.19    1.89
  -5  -5  -8   27.27    2.14
  -5  -5  -8   25.58    2.01
   5   5   8   29.97    1.62
   5   5   8   29.05    1.84
   5   5   8   26.41    1.92
   5   5   8   25.46    1.93
   5   5   8   24.92    1.98
  -6  -5  -8    6.88    1.07
  -6  -5  -8    5.21    1.11
  -6  -5  -8    8.62    1.24
  -6  -5  -8    9.52    1.47
  -6  -5  -8    8.08    1.25
  -6  -5  -8    8.09    0.85
   6   5   8    8.57    1.33
   6   5   8   11.08    1.50
   6   5   8    7.63    1.04
   6   5   8    7.65    1.33
   2  -6  -8    8.26    1.54
   2  -6  -8    9.42    2.54
   2  -6  -8   10.56    1.34
  -2   6   8    7.97    1.37
  -2   6   8   11.53    1.43
  -2   6   8    9.61    1.55
  -2   6   8    7.74    1.04
  -2   6   8    9.49    1.17
  -2   6   8    7.57    1.18
   1  -6  -8    4.87    0.69
   1  -6  -8    4.96    1.08
   1  -6  -8    5.09    1.06
   1  -6  -8    2.60    0.90
   1  -6  -8    7.44    1.92
   1  -6  -8    5.35    1.01
  -1   6   8    4.63    0.91
  -1   6   8    5.25    1.08
  -1   6   8    4.67    1.13
  -1   6   8    3.42    0.84
  -1   6   8    4.48    0.95
  -1   6   8    4.76    1.16
  -1   6   8    4.16    0.84
   0  -6  -8    9.77    1.23
   0  -6  -8   12.19    0.88
   0  -6  -8   12.32    1.17
   0  -6  -8   12.81    1.81
   0  -6  -8   10.94    1.25
   0  -6  -8   13.47    1.39
   0  -6  -8    9.14    1.83
   0   6   8    8.91    1.25
   0   6   8   12.43    1.09
   0   6   8   12.06    1.36
   0   6   8   11.51    1.37
   0   6   8   12.29    1.22
   0   6   8    9.67    1.10
   0   6   8   10.43    1.02
  -1  -6  -8    5.50    1.04
  -1  -6  -8    5.90    1.03
  -1  -6  -8    6.07    1.01
  -1  -6  -8    4.85    1.16
  -1  -6  -8    4.27    1.46
  -1  -6  -8    5.90    0.71
  -1  -6  -8    6.26    0.89
  -1  -6  -8    5.80    1.03
  -1  -6  -8    4.02    0.93
   1   6   8    5.70    0.82
   1   6   8    6.62    1.07
   1   6   8    4.78    1.02
   1   6   8    5.92    1.02
   1   6   8    5.25    0.80
   1   6   8    4.52    0.98
   1   6   8    5.50    0.88
   1   6   8    4.93    0.90
  -2  -6  -8    6.17    1.04
  -2  -6  -8    5.50    0.97
  -2  -6  -8    4.33    0.70
  -2  -6  -8    6.36    0.97
  -2  -6  -8    4.52    0.76
  -2  -6  -8    5.89    1.02
  -2  -6  -8    5.64    1.44
  -2  -6  -8    5.34    1.05
  -2  -6  -8    5.69    0.97
   2   6   8    6.26    0.79
   2   6   8    6.10    0.88
   2   6   8    5.87    0.98
   2   6   8    5.77    0.83
   2   6   8    5.84    1.08
   2   6   8    6.47    1.06
   2   6   8    5.56    0.92
   2   6   8    5.99    1.03
  -3  -6  -8   17.32    2.21
  -3  -6  -8   20.16    1.53
  -3  -6  -8   20.30    1.67
  -3  -6  -8   16.96    1.16
  -3  -6  -8   20.43    1.52
  -3  -6  -8   18.84    1.63
  -3  -6  -8   20.42    1.53
  -3  -6  -8   18.21    1.18
  -3  -6  -8   16.91    1.39
   3   6   8   19.14    1.57
   3   6   8   20.07    1.58
   3   6   8   18.58    1.29
   3   6   8   19.59    1.48
   3   6   8   19.94    1.40
   3   6   8   17.85    1.59
   3   6   8   16.13    1.51
   3   6   8   18.46    1.17
  -4  -6  -8   16.76    1.46
  -4  -6  -8   20.03    1.53
  -4  -6  -8   16.06    1.41
  -4  -6  -8   14.22    3.02
  -4  -6  -8   16.07    1.41
  -4  -6  -8   16.86    1.62
  -4  -6  -8   16.69    1.10
  -4  -6  -8   17.69    1.60
  -4  -6  -8   16.59    1.19
   4   6   8   15.64    1.06
   4   6   8   16.13    1.59
   4   6   8   15.96    1.39
   4   6   8   16.64    1.52
   4   6   8   15.43    1.27
   4   6   8   16.88    1.51
   4   6   8   20.78    1.44
  -5  -6  -8   21.96    1.70
  -5  -6  -8   20.94    1.26
  -5  -6  -8   17.75    1.74
  -5  -6  -8   20.59    1.93
  -5  -6  -8   21.81    1.71
  -5  -6  -8   19.87    1.39
   5   6   8   19.41    1.74
   5   6   8   24.12    1.84
   5   6   8   22.67    1.96
   5   6   8   20.75    1.53
   5   6   8   24.17    1.73
  -6  -6  -8    2.51    0.69
  -6  -6  -8    3.02    0.68
  -6  -6  -8    2.86    0.83
   6   6   8    3.00    1.01
   6   6   8    5.35    1.05
   6   6   8    2.21    0.94
   6   6   8    2.87    1.04
   1  -7  -8    1.65    0.81
   1  -7  -8    3.33    1.48
   1  -7  -8    3.08    0.89
  -1   7   8    2.36    0.77
  -1   7   8    2.94    0.79
  -1   7   8    2.46    0.73
  -1   7   8    2.54    0.79
   0  -7  -8   15.33    1.48
   0  -7  -8   14.47    1.52
   0  -7  -8   15.08    2.27
   0  -7  -8   13.16    1.38
   0   7   8   14.68    1.28
   0   7   8   13.77    1.20
   0   7   8   13.69    1.34
   0   7   8   14.69    1.35
   0   7   8   11.64    1.41
   0   7   8   11.91    1.39
   0   7   8   13.47    1.48
  -1  -7  -8   39.93    2.31
  -1  -7  -8   33.13    2.12
  -1  -7  -8   41.39    2.32
  -1  -7  -8   35.86    2.21
  -1  -7  -8   36.94    3.27
   1   7   8   41.48    2.41
   1   7   8   37.57    2.13
   1   7   8   40.94    3.35
   1   7   8   36.12    1.92
   1   7   8   35.64    2.19
   1   7   8   37.15    2.07
   1   7   8   38.39    1.96
   1   7   8   34.43    2.20
  -2  -7  -8    0.33    0.71
  -2  -7  -8    0.01    0.40
  -2  -7  -8    0.35    0.51
  -2  -7  -8   -0.31    0.39
  -2  -7  -8    0.61    0.62
  -2  -7  -8    0.53    0.52
   2   7   8    0.08    0.57
   2   7   8   -0.09    0.47
   2   7   8    0.54    0.58
   2   7   8   -0.13    0.48
   2   7   8   -0.39    0.40
   2   7   8    0.80    0.47
   2   7   8   -0.69    0.38
   2   7   8    0.01    0.41
  -3  -7  -8    3.23    0.88
  -3  -7  -8    3.69    0.71
  -3  -7  -8    3.06    1.16
  -3  -7  -8    3.64    0.87
  -3  -7  -8    2.82    0.85
  -3  -7  -8    3.54    0.88
   3   7   8    5.45    0.90
   3   7   8    2.34    0.77
   3   7   8    3.08    0.90
   3   7   8    5.21    0.81
   3   7   8    4.53    1.05
   3   7   8    3.64    0.86
   3   7   8    2.42    0.76
   3   7   8    3.53    0.82
  -4  -7  -8    9.21    0.89
  -4  -7  -8    8.20    1.40
  -4  -7  -8    7.40    1.15
  -4  -7  -8    9.94    1.93
  -4  -7  -8    7.84    1.25
  -4  -7  -8    7.77    1.16
   4   7   8    6.76    1.23
   4   7   8    9.04    1.13
   4   7   8    8.56    1.20
   4   7   8   10.48    1.15
   4   7   8    8.46    1.25
   4   7   8   10.87    1.45
   4   7   8   10.15    0.97
  -5  -7  -8    4.12    1.05
  -5  -7  -8    2.36    1.00
  -5  -7  -8    3.98    0.69
   5   7   8    4.46    0.95
   5   7   8    5.10    1.21
   5   7   8    2.90    0.82
   5   7   8    3.42    0.91
   5   7   8    2.84    0.99
   5   7   8    3.83    0.74
   1  -8  -8   -0.32    1.01
   1  -8  -8    0.53    0.73
   1  -8  -8    0.28    0.76
  -1   8   8   -0.16    0.67
  -1   8   8    1.21    0.72
  -1   8   8    0.55    0.58
  -1   8   8    1.25    0.71
   0  -8  -8   14.57    2.33
   0  -8  -8   14.51    1.42
   0  -8  -8   16.93    1.65
   0   8   8   15.97    1.42
   0   8   8   16.00    1.46
   0   8   8   15.06    1.33
   0   8   8   15.56    1.46
  -1  -8  -8    0.75    0.91
  -1  -8  -8    0.02    0.60
  -1  -8  -8    0.83    0.64
   1   8   8    0.24    0.52
   1   8   8    0.48    0.58
   1   8   8    0.80    0.54
   1   8   8    0.53    0.58
  -2  -8  -8    3.87    0.92
  -2  -8  -8    1.56    0.97
  -2  -8  -8    1.71    0.76
   2   8   8    2.49    0.77
   2   8   8    1.26    0.55
   2   8   8    2.77    0.73
   2   8   8    2.39    0.65
  -3  -8  -8    8.55    1.30
  -3  -8  -8    9.04    1.18
  -3  -8  -8    7.75    1.83
   3   8   8    6.59    0.91
   3   8   8    5.04    1.07
   3   8   8    4.46    1.01
   3   8   8    5.77    1.04
  -4  -8  -8   10.35    1.47
  -4  -8  -8    7.64    1.91
  -4  -8  -8   10.27    1.29
   4   8   8    8.28    1.23
   4   8   8   10.62    1.26
   4   8   8    9.36    1.27
   4   8   8   11.77    1.08
  -1  -9  -8   11.13    2.08
  -1  -9  -8   15.94    1.57
   1   9   8   12.15    1.35
   1   9   8   11.17    1.34
   1   9   8   13.94    1.37
   1   9   8   15.73    1.43
  -2  -9  -8   18.47    1.62
  -2  -9  -8   14.29    2.27
   2   9   8   13.44    1.48
   2   9   8   15.06    1.45
   2   9   8   16.04    1.49
   2   9   8   18.00    1.42
  -3  -9  -8   12.11    2.19
  -3  -9  -8    8.32    1.28
   3   9   8    9.14    1.29
   3   9   8    8.62    1.25
   3   9   8    8.82    1.08
   3   9   8    9.48    1.28
  -1   0  -9   -0.20    0.42
  -1   0  -9    0.61    0.59
  -1   0  -9    0.32    1.00
  -1   0  -9    1.07    0.70
   1   0   9    1.71    0.68
   1   0   9   -0.70    0.43
   1   0   9    0.66    0.71
  -2   0  -9    6.48    1.56
  -2   0  -9    4.67    1.07
  -2   0  -9    6.50    1.07
  -2   0  -9    6.16    0.81
   2   0   9    6.37    0.92
   2   0   9    6.55    1.09
   2   0   9    4.76    1.16
  -3   0  -9    4.79    0.98
  -3   0  -9    5.50    1.01
  -3   0  -9    7.32    0.83
  -3   0  -9    4.74    1.37
   3   0   9    4.92    1.10
   3   0   9    4.90    1.05
   3   0   9    6.96    0.90
  -4   0  -9    3.36    0.82
  -4   0  -9    3.67    1.24
  -4   0  -9    4.80    0.79
  -4   0  -9    5.64    1.05
   4   0   9    6.76    0.93
   4   0   9    7.40    1.16
   0  -1  -9    3.05    0.88
   0  -1  -9    1.65    0.71
   0  -1  -9    2.39    0.70
   0  -1  -9    2.15    1.27
   0  -1  -9    2.95    1.00
   0  -1  -9    3.42    0.74
   0   1   9    1.24    0.66
   0   1   9    3.24    0.91
   0   1   9    2.92    0.95
  -1  -1  -9    0.52    0.58
  -1  -1  -9    0.89    0.48
  -1  -1  -9    0.92    0.89
  -1  -1  -9    0.52    0.64
  -1  -1  -9    1.68    0.73
  -1  -1  -9    1.08    0.45
   1   1   9    1.44    0.75
   1   1   9    0.91    0.58
   1   1   9    0.73    0.63
  -2  -1  -9    6.41    1.08
  -2  -1  -9    4.13    1.30
  -2  -1  -9    4.28    0.97
  -2  -1  -9    4.38    0.70
  -2  -1  -9    5.98    0.77
  -2  -1  -9    5.56    1.06
   2   1   9    4.34    1.02
   2   1   9    5.62    0.89
   2   1   9    5.32    1.05
  -3  -1  -9    5.58    1.37
  -3  -1  -9    5.73    1.00
  -3  -1  -9    7.20    1.17
  -3  -1  -9    6.18    0.77
  -3  -1  -9    7.52    0.83
  -3  -1  -9    5.68    1.00
   3   1   9    5.92    0.94
   3   1   9    6.26    1.04
  -4  -1  -9   12.58    1.03
  -4  -1  -9    8.94    1.61
  -4  -1  -9   12.90    1.46
  -4  -1  -9   11.17    0.94
  -4  -1  -9    9.47    1.20
  -4  -1  -9   10.09    1.22
   4   1   9   13.15    1.34
   4   1   9   13.58    1.21
  -5  -1  -9    1.44    0.92
  -5  -1  -9    2.44    0.76
  -5  -1  -9    1.40    0.66
  -5  -1  -9    1.93    0.51
  -5  -1  -9    2.01    0.73
   5   1   9    1.80    0.78
   5   1   9    2.14    0.68
   1  -2  -9   11.07    1.62
   1  -2  -9   13.68    1.16
   1  -2  -9   13.50    1.59
   1  -2  -9   12.75    2.47
   1  -2  -9   14.08    1.50
  -1   2   9   17.05    1.74
  -1   2   9   15.71    1.51
   0  -2  -9    5.19    1.15
   0  -2  -9    5.25    0.81
   0  -2  -9    4.55    1.09
   0  -2  -9    5.00    0.98
   0  -2  -9    5.90    1.13
   0  -2  -9    3.62    1.45
   0   2   9    6.65    1.09
   0   2   9    5.53    1.12
  -1  -2  -9    7.93    1.13
  -1  -2  -9    6.91    0.83
  -1  -2  -9    7.80    1.13
  -1  -2  -9    5.71    1.53
  -1  -2  -9    9.05    1.29
  -1  -2  -9    6.87    0.90
   1   2   9    8.57    1.20
   1   2   9    9.35    1.61
   1   2   9    8.26    1.06
   1   2   9    7.53    1.07
  -2  -2  -9    6.29    1.08
  -2  -2  -9    5.35    0.76
  -2  -2  -9    5.77    1.33
  -2  -2  -9    4.82    0.97
  -2  -2  -9    4.30    1.01
  -2  -2  -9    5.92    0.77
   2   2   9    7.55    1.08
   2   2   9    4.79    0.95
   2   2   9    6.01    1.07
   2   2   9    5.59    0.97
  -3  -2  -9    4.20    0.93
  -3  -2  -9    4.73    0.73
  -3  -2  -9    5.64    0.99
  -3  -2  -9    5.23    1.02
  -3  -2  -9    5.00    1.24
  -3  -2  -9    5.25    0.72
   3   2   9    4.41    0.99
   3   2   9    4.13    0.90
   3   2   9    3.41    0.79
   3   2   9    4.92    0.96
  -4  -2  -9    1.82    0.82
  -4  -2  -9    0.73    0.37
  -4  -2  -9    0.71    0.54
  -4  -2  -9    0.97    0.47
  -4  -2  -9    0.68    0.55
  -4  -2  -9    0.60    0.78
   4   2   9    2.30    0.79
   4   2   9    1.39    0.65
  -5  -2  -9    2.06    0.55
  -5  -2  -9    2.15    0.64
  -5  -2  -9    4.57    1.01
  -5  -2  -9    2.69    1.05
  -5  -2  -9    1.59    0.66
  -5  -2  -9    1.58    0.86
   5   2   9    3.37    0.93
   5   2   9    1.96    0.69
  -6  -2  -9    1.60    1.07
  -6  -2  -9    0.91    0.64
  -6  -2  -9    1.54    0.78
  -6  -2  -9    1.44    0.68
   1  -3  -9    8.29    2.19
   1  -3  -9    7.74    1.28
   1  -3  -9    9.15    1.03
   1  -3  -9    9.72    1.41
   1  -3  -9   10.57    1.54
  -1   3   9    9.87    1.37
  -1   3   9   10.46    1.41
   0  -3  -9    0.67    1.06
   0  -3  -9   -0.07    0.59
   0  -3  -9    0.29    0.47
   0  -3  -9    0.40    0.45
   0  -3  -9    0.40    0.59
   0  -3  -9    0.55    0.71
   0  -3  -9    0.34    0.90
   0   3   9   -0.06    0.54
  -1  -3  -9   30.87    1.94
  -1  -3  -9   28.60    2.01
  -1  -3  -9   29.63    2.06
  -1  -3  -9   28.49    1.93
  -1  -3  -9   26.81    2.38
  -1  -3  -9   29.61    1.57
  -1  -3  -9   27.86    2.02
  -1  -3  -9   26.01    1.64
   1   3   9   31.26    1.93
   1   3   9   30.41    1.99
   1   3   9   31.43    2.01
  -2  -3  -9   12.81    1.37
  -2  -3  -9   10.14    1.24
  -2  -3  -9   10.32    1.28
  -2  -3  -9   10.17    1.25
  -2  -3  -9   11.05    1.23
  -2  -3  -9   12.38    1.00
  -2  -3  -9   10.14    0.94
  -2  -3  -9   11.51    1.53
   2   3   9   12.10    1.45
   2   3   9   11.71    1.28
   2   3   9   10.64    1.20
   2   3   9    9.36    1.15
  -3  -3  -9    1.53    0.46
  -3  -3  -9    1.49    0.49
  -3  -3  -9    1.52    0.68
  -3  -3  -9    0.93    0.67
  -3  -3  -9    1.68    0.74
  -3  -3  -9    0.98    0.62
  -3  -3  -9    1.84    0.63
  -3  -3  -9    1.41    0.61
   3   3   9    2.02    0.65
   3   3   9    1.33    0.62
   3   3   9    0.99    0.54
   3   3   9    1.69    0.69
  -4  -3  -9    3.03    0.77
  -4  -3  -9    2.47    0.57
  -4  -3  -9    2.82    0.91
  -4  -3  -9    3.62    1.16
  -4  -3  -9    2.95    0.82
  -4  -3  -9    3.66    0.74
   4   3   9    2.37    0.72
   4   3   9    3.04    0.80
  -5  -3  -9   19.23    1.21
  -5  -3  -9   16.64    1.50
  -5  -3  -9   16.91    1.40
  -5  -3  -9   19.23    1.62
  -5  -3  -9   15.64    1.81
  -5  -3  -9   16.96    1.89
   5   3   9   19.48    1.59
  -6  -3  -9    0.67    0.57
  -6  -3  -9    0.73    0.66
  -6  -3  -9    0.27    0.42
  -6  -3  -9    0.12    0.86
  -6  -3  -9    1.00    0.68
   6   3   9    0.28    0.59
   1  -4  -9    7.46    2.18
   1  -4  -9    8.58    1.79
   1  -4  -9    9.57    0.98
   1  -4  -9   12.09    1.65
   1  -4  -9    7.48    1.27
   1  -4  -9   11.20    1.60
  -1   4   9   10.59    0.99
  -1   4   9    9.96    1.38
  -1   4   9    9.01    0.77
   0  -4  -9   13.68    2.05
   0  -4  -9   13.38    1.08
   0  -4  -9   13.59    1.42
   0  -4  -9   14.53    1.54
   0  -4  -9   13.12    1.43
   0  -4  -9   10.38    1.23
   0  -4  -9   12.73    1.52
   0  -4  -9   12.70    1.53
   0   4   9   10.69    0.97
   0   4   9   15.32    1.42
   0   4   9   13.13    0.82
   0   4   9   10.05    1.39
   0   4   9   14.17    1.71
  -1  -4  -9    2.83    0.88
  -1  -4  -9    5.15    1.12
  -1  -4  -9    4.01    0.95
  -1  -4  -9    4.53    1.31
  -1  -4  -9    4.06    0.82
  -1  -4  -9    4.41    1.02
  -1  -4  -9    4.30    0.99
  -1  -4  -9    3.34    0.67
  -1  -4  -9    4.62    1.07
   1   4   9    4.28    1.03
   1   4   9    4.66    0.71
   1   4   9    4.14    1.02
   1   4   9    4.66    0.51
   1   4   9    4.77    1.01
  -2  -4  -9    9.73    1.26
  -2  -4  -9    9.01    0.93
  -2  -4  -9    9.06    1.20
  -2  -4  -9    6.48    1.27
  -2  -4  -9    7.77    0.91
  -2  -4  -9    8.15    1.19
  -2  -4  -9    7.83    1.17
  -2  -4  -9    9.84    1.17
  -2  -4  -9    8.10    1.21
   2   4   9    6.90    1.13
   2   4   9    9.08    0.81
   2   4   9    7.52    1.15
   2   4   9    9.92    1.18
  -3  -4  -9    4.73    1.03
  -3  -4  -9    6.01    1.01
  -3  -4  -9    6.43    1.01
  -3  -4  -9    6.44    0.79
  -3  -4  -9    6.80    1.13
  -3  -4  -9    6.82    1.19
  -3  -4  -9    7.61    1.14
  -3  -4  -9    6.72    0.89
  -3  -4  -9    6.69    1.26
   3   4   9    8.31    1.15
   3   4   9    7.55    0.77
   3   4   9    8.41    1.15
   3   4   9    6.25    1.03
  -4  -4  -9   36.57    2.44
  -4  -4  -9   37.21    2.45
  -4  -4  -9   38.37    1.88
  -4  -4  -9   38.83    2.02
  -4  -4  -9   39.71    2.28
  -4  -4  -9   42.67    2.35
  -4  -4  -9   41.12    2.32
  -4  -4  -9   38.15    2.54
  -4  -4  -9   40.42    2.22
   4   4   9   39.88    1.73
   4   4   9   39.22    2.35
   4   4   9   38.70    2.35
   4   4   9   41.41    2.33
  -5  -4  -9    4.76    0.74
  -5  -4  -9    6.89    1.36
  -5  -4  -9    3.76    0.97
  -5  -4  -9    4.16    0.98
  -5  -4  -9    4.38    1.00
  -5  -4  -9    4.27    0.91
  -5  -4  -9    4.95    1.24
  -5  -4  -9    5.02    1.06
   5   4   9    4.68    0.70
   5   4   9    2.63    1.02
   5   4   9    4.34    1.05
  -6  -4  -9    0.61    0.59
  -6  -4  -9    0.81    0.62
  -6  -4  -9    0.78    0.63
  -6  -4  -9    0.16    0.37
   6   4   9    0.87    0.69
   1  -5  -9    7.61    2.27
   1  -5  -9    6.72    1.48
   1  -5  -9    8.19    0.94
   1  -5  -9    5.02    1.27
   1  -5  -9    7.67    1.29
  -1   5   9    7.59    0.96
  -1   5   9    6.56    1.31
  -1   5   9    8.34    1.42
  -1   5   9    8.23    0.93
   0  -5  -9    1.91    0.68
   0  -5  -9    1.11    0.51
   0  -5  -9    0.93    0.72
   0  -5  -9    1.24    0.81
   0  -5  -9    1.52    1.16
   0  -5  -9    1.47    0.76
   0  -5  -9    0.93    0.78
   0   5   9    1.67    0.75
   0   5   9    1.01    0.45
   0   5   9    2.39    0.60
   0   5   9    1.66    0.80
   0   5   9    1.49    0.76
  -1  -5  -9    1.80    0.67
  -1  -5  -9    2.30    0.74
  -1  -5  -9    1.68    0.52
  -1  -5  -9    1.57    0.72
  -1  -5  -9    1.80    0.58
  -1  -5  -9    1.34    0.73
  -1  -5  -9    2.08    1.00
  -1  -5  -9    2.38    0.77
  -1  -5  -9    1.05    0.70
   1   5   9    1.66    0.59
   1   5   9    2.27    0.80
   1   5   9    0.96    0.71
   1   5   9    1.05    0.66
   1   5   9    1.83    0.45
   1   5   9    1.43    0.52
  -2  -5  -9    2.13    0.78
  -2  -5  -9    1.20    0.50
  -2  -5  -9    2.00    0.73
  -2  -5  -9    0.66    0.66
  -2  -5  -9    1.92    0.67
  -2  -5  -9    1.28    0.62
  -2  -5  -9    1.74    0.74
  -2  -5  -9    1.05    0.50
  -2  -5  -9    0.42    0.73
   2   5   9    0.91    0.59
   2   5   9    1.12    0.65
   2   5   9    1.54    0.52
   2   5   9    0.79    0.37
   2   5   9    0.49    0.55
   2   5   9    1.19    0.61
  -3  -5  -9    0.61    0.64
  -3  -5  -9    0.09    0.46
  -3  -5  -9    0.48    0.57
  -3  -5  -9    0.26    0.46
  -3  -5  -9    0.55    0.68
  -3  -5  -9    0.25    0.38
  -3  -5  -9    0.43    0.55
  -3  -5  -9   -0.05    0.47
  -3  -5  -9    0.90    0.82
   3   5   9    0.12    0.46
   3   5   9   -0.25    0.41
   3   5   9    0.54    0.44
   3   5   9    0.58    0.58
   3   5   9    0.28    0.30
   3   5   9    1.24    0.66
  -4  -5  -9    8.38    1.14
  -4  -5  -9    7.50    1.26
  -4  -5  -9    9.31    0.91
  -4  -5  -9    8.54    1.18
  -4  -5  -9    5.04    1.19
  -4  -5  -9    7.71    1.13
  -4  -5  -9    7.60    1.14
  -4  -5  -9    8.05    1.29
  -4  -5  -9    8.95    1.00
   4   5   9    9.74    0.93
   4   5   9    7.36    1.18
   4   5   9    7.77    1.27
   4   5   9    8.35    1.22
  -5  -5  -9    0.31    0.71
  -5  -5  -9   -0.17    0.35
  -5  -5  -9   -0.03    0.71
  -5  -5  -9   -0.01    0.50
  -5  -5  -9   -0.09    0.53
  -5  -5  -9    0.52    0.53
  -5  -5  -9    0.29    0.79
  -5  -5  -9   -0.05    0.50
   5   5   9   -0.29    0.55
   5   5   9    0.18    0.44
   5   5   9    1.30    0.67
  -6  -5  -9    1.86    0.53
  -6  -5  -9    2.36    0.82
  -6  -5  -9    2.45    0.89
  -6  -5  -9    2.80    0.90
  -6  -5  -9    2.14    0.85
   6   5   9    1.90    0.59
   6   5   9    2.47    0.41
   6   5   9    4.50    1.15
   1  -6  -9    9.64    1.40
   1  -6  -9    7.53    1.56
   1  -6  -9    9.82    0.97
   1  -6  -9    8.73    2.29
  -1   6   9    9.29    1.23
  -1   6   9    9.43    1.09
  -1   6   9    8.85    1.43
  -1   6   9   11.13    1.18
  -1   6   9    7.78    1.51
   0  -6  -9   13.91    1.56
   0  -6  -9   13.49    1.09
   0  -6  -9   12.93    1.37
   0  -6  -9   13.75    1.61
   0  -6  -9   13.16    1.47
   0  -6  -9   12.21    2.09
   0   6   9   13.12    1.37
   0   6   9   12.55    1.18
   0   6   9   14.76    1.60
   0   6   9   16.09    1.69
   0   6   9   17.66    1.60
   0   6   9   12.69    1.14
  -1  -6  -9    8.19    1.56
  -1  -6  -9    7.78    0.94
  -1  -6  -9    5.79    1.20
  -1  -6  -9    7.87    1.25
  -1  -6  -9    6.65    1.18
  -1  -6  -9    9.84    1.10
  -1  -6  -9    8.42    1.26
   1   6   9    8.61    1.30
   1   6   9   10.74    1.34
   1   6   9    8.13    1.08
   1   6   9    7.92    1.46
   1   6   9    6.77    0.90
   1   6   9    7.76    0.95
   1   6   9    8.24    1.32
  -2  -6  -9    6.55    0.87
  -2  -6  -9    4.50    1.05
  -2  -6  -9    6.91    1.26
  -2  -6  -9    5.87    1.10
  -2  -6  -9    5.97    1.19
  -2  -6  -9    6.05    0.92
  -2  -6  -9    6.02    1.15
  -2  -6  -9    4.82    1.04
   2   6   9    4.97    0.99
   2   6   9    6.17    0.88
   2   6   9    9.53    1.25
   2   6   9    6.53    0.79
   2   6   9    6.68    1.03
   2   6   9    6.30    1.17
   2   6   9    6.84    1.18
  -3  -6  -9    7.23    1.29
  -3  -6  -9    8.95    0.94
  -3  -6  -9    7.73    0.91
  -3  -6  -9    8.79    1.19
  -3  -6  -9    6.35    1.09
  -3  -6  -9    7.73    1.25
  -3  -6  -9    6.35    1.16
  -3  -6  -9    6.65    1.19
   3   6   9    7.85    0.96
   3   6   9    7.34    1.06
   3   6   9    9.87    1.25
   3   6   9    6.88    1.23
   3   6   9    8.43    1.26
   3   6   9    7.63    0.81
  -4  -6  -9    1.07    0.60
  -4  -6  -9    2.02    0.77
  -4  -6  -9    0.70    0.67
  -4  -6  -9    0.70    0.60
  -4  -6  -9    0.99    0.63
  -4  -6  -9    1.29    0.48
  -4  -6  -9    0.68    0.80
  -4  -6  -9    1.49    0.59
   4   6   9    1.14    0.67
   4   6   9    0.16    0.58
   4   6   9    0.59    0.60
   4   6   9    1.22    0.57
   4   6   9    1.15    0.72
   4   6   9    1.79    0.49
  -5  -6  -9    3.61    0.74
  -5  -6  -9    4.49    1.19
  -5  -6  -9    1.92    0.66
  -5  -6  -9    1.86    0.75
   5   6   9    4.05    0.92
   5   6   9    3.36    0.96
   5   6   9    3.67    1.12
   0  -7  -9   24.75    2.05
   0  -7  -9   26.11    1.73
   0   7   9   22.02    1.59
   0   7   9   24.80    1.97
   0   7   9   20.77    1.53
   0   7   9   23.91    1.81
   0   7   9   24.18    1.75
   0   7   9   22.10    1.98
  -1  -7  -9   11.63    1.46
  -1  -7  -9   10.33    1.43
  -1  -7  -9   12.14    1.22
   1   7   9   12.17    1.31
   1   7   9   11.34    1.29
   1   7   9   11.58    1.16
   1   7   9   12.77    1.54
   1   7   9   11.28    1.49
   1   7   9    9.62    1.06
  -2  -7  -9    4.24    0.89
  -2  -7  -9    3.10    0.71
  -2  -7  -9    3.00    0.85
  -2  -7  -9    4.46    1.04
  -2  -7  -9    3.67    1.04
   2   7   9    3.37    0.97
   2   7   9    4.84    1.19
   2   7   9    3.78    0.80
   2   7   9    4.43    0.94
   2   7   9    3.35    0.83
   2   7   9    3.97    0.86
   2   7   9    2.52    0.85
  -3  -7  -9    4.21    1.03
  -3  -7  -9    5.65    0.89
  -3  -7  -9    5.89    1.33
  -3  -7  -9    6.43    0.83
   3   7   9    4.69    1.12
   3   7   9    4.50    1.01
   3   7   9    3.41    0.95
   3   7   9    5.01    0.96
   3   7   9    5.72    1.18
   3   7   9    6.23    1.05
   3   7   9    5.36    0.84
  -4  -7  -9   13.72    1.13
  -4  -7  -9   13.01    1.43
   4   7   9   11.79    1.47
   4   7   9   13.69    1.41
   4   7   9   11.85    1.04
   4   7   9   13.30    1.60
   4   7   9   12.66    1.24
   4   7   9   11.19    1.55
  -5  -7  -9    8.47    1.31
  -5  -7  -9    8.75    0.95
   5   7   9    9.27    1.46
   5   7   9    8.68    1.28
   5   7   9    7.99    1.19
  -1  -8  -9   10.73    1.48
  -1  -8  -9    7.15    2.11
  -1  -8  -9    8.56    1.40
   1   8   9    9.34    1.16
   1   8   9    8.68    1.14
   1   8   9    8.19    1.23
   1   8   9    8.34    1.23
  -2  -8  -9    5.81    1.34
  -2  -8  -9    3.83    1.49
  -2  -8  -9    7.24    1.28
   2   8   9    8.50    1.12
   2   8   9    8.17    1.06
   2   8   9    6.93    1.13
   2   8   9    5.98    1.08
  -3  -8  -9   14.42    1.51
  -3  -8  -9   11.17    1.66
   3   8   9   11.46    1.34
   3   8   9   11.40    1.40
   3   8   9    9.08    1.19
   3   8   9   11.73    1.16
  -4  -8  -9    1.62    0.80
   4   8   9    1.65    0.84
   4   8   9    0.90    0.62
   4   8   9    0.57    0.64
   4   8   9    1.84    0.58
  -2  -2 -10   10.05    1.33
  -2  -2 -10    7.52    0.94
  -2  -2 -10    9.46    1.42
  -2  -2 -10    6.12    1.65
  -2  -2 -10    6.28    1.27
  -2  -2 -10    8.44    1.03
   2   2  10    7.85    1.13
  -3  -2 -10   16.16    1.62
  -3  -2 -10   13.61    1.16
  -3  -2 -10   11.29    1.81
  -3  -2 -10   17.05    1.63
  -3  -2 -10   15.83    1.48
  -3  -2 -10   14.41    1.17
   3   2  10   15.39    1.42
   3   2  10   12.44    1.70
  -4  -2 -10   12.35    1.14
  -4  -2 -10   11.40    1.67
  -4  -2 -10   11.01    1.06
  -4  -2 -10   11.47    1.35
  -4  -2 -10   12.31    1.89
  -4  -2 -10   10.64    1.35
   4   2  10   13.12    1.34
  -1  -3 -10    8.31    2.02
  -1  -3 -10   10.36    1.37
  -1  -3 -10    8.11    1.01
  -1  -3 -10    8.75    1.45
  -1  -3 -10    7.02    1.39
  -1  -3 -10    7.92    1.14
   1   3  10    8.45    1.24
  -2  -3 -10    0.76    0.67
  -2  -3 -10    1.77    1.08
  -2  -3 -10    0.94    0.51
  -2  -3 -10    0.71    0.46
  -2  -3 -10    0.36    0.62
  -2  -3 -10    0.79    0.61
   2   3  10    0.27    0.60
  -3  -3 -10    5.43    1.11
  -3  -3 -10    4.23    1.12
  -3  -3 -10    3.35    0.76
  -3  -3 -10    5.06    0.88
  -3  -3 -10    3.28    1.22
  -3  -3 -10    4.34    1.04
   3   3  10    4.13    1.03
  -4  -3 -10    5.24    0.92
  -4  -3 -10    3.02    0.88
  -4  -3 -10    5.09    1.30
  -4  -3 -10    2.45    1.07
  -4  -3 -10    4.29    0.96
  -4  -3 -10    3.40    0.80
   4   3  10    5.13    1.03
  -1  -4 -10    5.32    1.33
  -1  -4 -10    3.33    1.34
  -1  -4 -10    6.65    1.22
  -1  -4 -10    4.63    1.01
  -1  -4 -10    5.98    0.94
   1   4  10    5.26    1.15
  -2  -4 -10    4.78    0.88
  -2  -4 -10    5.79    1.26
  -2  -4 -10    3.95    1.25
  -2  -4 -10    6.12    1.17
  -2  -4 -10    4.00    0.79
  -2  -4 -10    4.45    1.06
   2   4  10    4.99    1.08
  -3  -4 -10   12.35    1.62
  -3  -4 -10   12.67    1.70
  -3  -4 -10   13.08    1.18
  -3  -4 -10   11.76    1.39
  -3  -4 -10    9.95    1.04
  -3  -4 -10   11.58    1.43
   3   4  10   13.63    1.43
  -4  -4 -10   47.23    2.29
  -4  -4 -10   38.81    2.84
  -4  -4 -10   47.08    2.18
  -4  -4 -10   41.63    2.79
  -4  -4 -10   44.92    2.64
  -4  -4 -10   45.76    2.55
   4   4  10   46.03    2.57
  -5  -4 -10   33.93    2.28
  -5  -4 -10   35.64    2.23
  -5  -4 -10   32.17    1.98
  -5  -4 -10   32.13    1.79
   5   4  10   32.49    2.22
  -1  -5 -10    1.32    0.87
  -1  -5 -10    2.61    1.04
  -1  -5 -10    1.28    0.64
  -1  -5 -10    1.69    0.87
  -1  -5 -10    1.71    0.58
  -1  -5 -10    2.02    0.92
  -1  -5 -10    1.13    1.15
   1   5  10    1.74    0.43
   1   5  10    1.83    0.55
   1   5  10    0.96    0.72
  -2  -5 -10   14.21    1.83
  -2  -5 -10   10.13    1.14
  -2  -5 -10    9.54    1.48
  -2  -5 -10   12.73    1.49
  -2  -5 -10   14.32    1.62
  -2  -5 -10   11.55    2.44
  -2  -5 -10   14.91    1.66
  -2  -5 -10   11.95    1.21
   2   5  10   12.97    1.50
   2   5  10   12.52    1.05
  -3  -5 -10   20.39    1.78
  -3  -5 -10   20.25    1.94
  -3  -5 -10   18.38    1.69
  -3  -5 -10   19.64    1.40
  -3  -5 -10   17.56    1.42
  -3  -5 -10   18.17    2.10
  -3  -5 -10   20.31    1.81
  -3  -5 -10   19.83    1.79
  -3  -5 -10   16.77    2.47
   3   5  10   19.83    1.71
   3   5  10   19.13    1.26
  -4  -5 -10   22.65    2.05
  -4  -5 -10   23.51    1.92
  -4  -5 -10   28.75    2.32
  -4  -5 -10   22.01    1.59
  -4  -5 -10   25.11    1.54
  -4  -5 -10   22.14    1.89
  -4  -5 -10   25.73    1.96
   4   5  10   25.25    1.41
   4   5  10   22.06    1.87
  -5  -5 -10    5.65    1.79
  -5  -5 -10    4.68    1.02
  -1  -6 -10   11.73    2.24
  -1  -6 -10    9.52    1.11
  -1  -6 -10   10.78    1.56
  -1  -6 -10   10.18    1.71
  -1  -6 -10   11.80    1.32
   1   6  10   10.14    0.95
   1   6  10    8.40    2.09
   1   6  10    9.29    1.44
   1   6  10    9.78    1.08
  -2  -6 -10    7.13    1.09
  -2  -6 -10    5.06    1.26
  -2  -6 -10    6.92    1.30
  -2  -6 -10    6.39    1.75
  -2  -6 -10    7.56    1.03
   2   6  10    6.70    1.37
   2   6  10    6.72    0.97
   2   6  10    7.25    1.32
   2   6  10    7.06    0.81
  -3  -6 -10    5.48    0.94
  -3  -6 -10    5.03    1.31
  -3  -6 -10    4.53    1.15
  -3  -6 -10    8.42    1.64
  -3  -6 -10    8.19    2.16
  -3  -6 -10    5.26    0.96
   3   6  10    5.58    1.28
   3   6  10    6.25    0.96
   3   6  10    6.48    1.25
   3   6  10    5.47    0.73
  -4  -6 -10    1.67    0.68
  -4  -6 -10    1.18    0.73
  -4  -6 -10    0.41    0.44
  -4  -6 -10    1.00    0.79
   4   6  10    1.62    0.61
   4   6  10    3.09    0.92
  -2  -7 -10    1.61    0.86
  -2  -7 -10    2.84    0.65
  -2  -7 -10    4.70    1.03
   2   7  10    2.84    1.09
   2   7  10    2.90    0.73
   2   7  10    3.90    1.00
   2   7  10    2.42    0.63
   2   7  10    2.42    1.02
  -3  -7 -10    4.42    0.98
  -3  -7 -10    5.79    1.23
  -3  -7 -10    4.96    0.92
   3   7  10    5.71    1.32
   3   7  10    5.67    1.01
   3   7  10    6.01    0.86
   3   7  10    6.82    1.34
   0   0   0    0.00    0.00
;
_shelx_hkl_checksum              69707
loop_
_space_group_symop_operation_xyz
'x, y, z'
loop_
_atom_site_label
_atom_site_type_symbol
_atom_site_fract_x
_atom_site_fract_y
_atom_site_fract_z
_atom_site_U_iso_or_equiv
_atom_site_adp_type
_atom_site_occupancy
_atom_site_site_symmetry_order
_atom_site_calc_flag
_atom_site_refinement_flags_posn
_atom_site_refinement_flags_adp
C1 C 0.8645(5) 0.7566(4) 0.0527(4) 0.0290(6) Uani 1 1 d . .
H1A H 0.9927 0.7230 -0.0340 0.043 Uiso 1 1 calc R U
H1B H 0.9188 0.8485 0.0784 0.043 Uiso 1 1 calc R U
H1C H 0.7458 0.8123 -0.0046 0.043 Uiso 1 1 calc R U
C2 C 0.7654(4) 0.5793(4) 0.2365(3) 0.0176(5) Uani 1 1 d . .
H2 H 0.8925 0.5187 0.2864 0.021 Uiso 1 1 calc R U
C3 C 0.6619(4) 0.4338(4) 0.2069(4) 0.0258(6) Uani 1 1 d . .
H3A H 0.6379 0.4956 0.0836 0.031 Uiso 1 1 calc R U
H3B H 0.7674 0.3294 0.2085 0.031 Uiso 1 1 calc R U
C4 C 0.4317(4) 0.3553(4) 0.3678(3) 0.0194(5) Uani 1 1 d . .
H4A H 0.4203 0.2155 0.4218 0.023 Uiso 1 1 calc R U
H4B H 0.3025 0.4085 0.3207 0.023 Uiso 1 1 calc R U
C5 C 0.4265(4) 0.4160(3) 0.5186(3) 0.0143(5) Uani 1 1 d . .
H5 H 0.2648 0.4436 0.5765 0.017 Uiso 1 1 calc R U
C6 C 0.5056(4) 0.2607(3) 0.6794(3) 0.0160(5) Uani 1 1 d . .
C7 C 0.7363(4) 0.1803(4) 0.6095(3) 0.0211(5) Uani 1 1 d . .
H7A H 0.7681 0.0748 0.7171 0.032 Uiso 1 1 calc R U
H7B H 0.8576 0.2797 0.5454 0.032 Uiso 1 1 calc R U
H7C H 0.7308 0.1349 0.5214 0.032 Uiso 1 1 calc R U
C8 C 0.3238(4) 0.0963(4) 0.7975(3) 0.0219(5) Uani 1 1 d . .
H8A H 0.3291 0.0289 0.7244 0.033 Uiso 1 1 calc R U
H8B H 0.1716 0.1467 0.8303 0.033 Uiso 1 1 calc R U
H8C H 0.3549 0.0086 0.9132 0.033 Uiso 1 1 calc R U
C9 C 0.5235(4) 0.3446(4) 0.8100(3) 0.0164(5) Uani 1 1 d . .
C10 C 0.2919(4) 0.3943(4) 0.9218(3) 0.0197(5) Uani 1 1 d . .
H10A H 0.2055 0.2774 1.0237 0.030 Uiso 1 1 calc R U
H10B H 0.2044 0.4648 0.8374 0.030 Uiso 1 1 calc R U
H10C H 0.3186 0.4723 0.9755 0.030 Uiso 1 1 calc R U
C11 C 0.6902(4) 0.5159(4) 0.6850(3) 0.0160(5) Uani 1 1 d . .
C12 C 0.6447(4) 0.6763(3) 0.5118(3) 0.0155(5) Uani 1 1 d . .
C13 C 0.3085(4) 0.8235(4) 0.4823(3) 0.0174(5) Uani 1 1 d . .
C14 C 0.4078(4) 0.7666(4) 0.3246(3) 0.0178(5) Uani 1 1 d . .
H14A H 0.4940 0.8745 0.2056 0.021 Uiso 1 1 calc R U
H14B H 0.2860 0.7194 0.3040 0.021 Uiso 1 1 calc R U
C15 C 0.5680(4) 0.6080(3) 0.3951(3) 0.0156(5) Uani 1 1 d . .
O1 O 0.6164(3) 0.2087(3) 0.9468(2) 0.0215(4) Uani 1 1 d . .
O2 O 0.8623(3) 0.5260(3) 0.7149(2) 0.0231(4) Uani 1 1 d . .
O3 O 0.8271(3) 0.8058(3) 0.3978(3) 0.0207(4) Uani 1 1 d . .
O4 O 0.4456(3) 0.7680(2) 0.5891(2) 0.0183(4) Uani 1 1 d . .
O5 O 0.1373(3) 0.9052(3) 0.5194(3) 0.0223(4) Uani 1 1 d . .
H1 H 0.749(7) 0.244(6) 0.930(6) 0.045(10) Uiso 1 1 d . .
H3 H 0.882(5) 0.817(5) 0.465(5) 0.024(8) Uiso 1 1 d . .
loop_
_atom_site_aniso_label
_atom_site_aniso_U_11
_atom_site_aniso_U_22
_atom_site_aniso_U_33
_atom_site_aniso_U_23
_atom_site_aniso_U_13
_atom_site_aniso_U_12
C1 0.0270(13) 0.0260(17) 0.0201(12) -0.0063(12) 0.0028(10) -0.0016(11)
C2 0.0149(10) 0.0201(14) 0.0156(11) -0.0082(11) -0.0025(9) 0.0008(9)
C3 0.0258(13) 0.0323(17) 0.0214(12) -0.0170(12) -0.0018(10) -0.0042(11)
C4 0.0208(11) 0.0218(14) 0.0186(11) -0.0110(10) -0.0059(9) -0.0026(10)
C5 0.0126(10) 0.0156(13) 0.0150(10) -0.0074(10) -0.0036(8) -0.0010(9)
C6 0.0169(11) 0.0142(13) 0.0152(11) -0.0061(10) -0.0037(9) -0.0004(9)
C7 0.0230(12) 0.0189(14) 0.0176(12) -0.0077(11) -0.0050(10) 0.0058(10)
C8 0.0262(12) 0.0179(14) 0.0185(12) -0.0056(11) -0.0063(10) -0.0035(10)
C9 0.0158(11) 0.0185(14) 0.0139(10) -0.0061(10) -0.0061(9) 0.0026(9)
C10 0.0171(11) 0.0271(16) 0.0163(11) -0.0124(11) -0.0037(9) 0.0016(10)
C11 0.0142(10) 0.0208(14) 0.0176(11) -0.0133(11) -0.0048(8) 0.0038(9)
C12 0.0128(10) 0.0154(13) 0.0200(11) -0.0095(10) -0.0049(9) -0.0001(9)
C13 0.0158(11) 0.0141(13) 0.0226(12) -0.0078(10) -0.0069(9) -0.0012(9)
C14 0.0148(11) 0.0197(14) 0.0177(11) -0.0070(10) -0.0057(9) 0.0000(9)
C15 0.0138(10) 0.0169(14) 0.0151(10) -0.0066(10) -0.0044(9) 0.0002(9)
O1 0.0207(9) 0.0220(11) 0.0185(8) -0.0045(8) -0.0092(7) 0.0013(7)
O2 0.0183(8) 0.0271(11) 0.0253(9) -0.0097(8) -0.0115(7) 0.0009(7)
O3 0.0171(8) 0.0200(10) 0.0244(9) -0.0064(8) -0.0095(7) -0.0038(7)
O4 0.0170(8) 0.0184(10) 0.0239(9) -0.0123(8) -0.0094(7) 0.0049(6)
O5 0.0169(8) 0.0228(11) 0.0333(10) -0.0172(9) -0.0100(7) 0.0049(7)
loop_
_atom_type_symbol
_atom_type_description
_atom_type_scat_dispersion_real
_atom_type_scat_dispersion_imag
_atom_type_scat_source
C C 0.0033 0.0016 'International Tables Vol C Tables 4.2.6.8 and 6.1.1.4'
H H 0.0000 0.0000 'International Tables Vol C Tables 4.2.6.8 and 6.1.1.4'
O O 0.0106 0.0060 'International Tables Vol C Tables 4.2.6.8 and 6.1.1.4'
loop_
_geom_angle_atom_site_label_1
_geom_angle_atom_site_label_2
_geom_angle_atom_site_label_3
_geom_angle
C2 C1 H1A 109.5
C2 C1 H1B 109.5
H1A C1 H1B 109.5
C2 C1 H1C 109.5
H1A C1 H1C 109.5
H1B C1 H1C 109.5
C1 C2 C3 111.9(2)
C1 C2 C15 116.5(2)
C3 C2 C15 103.98(18)
C1 C2 H2 108.0
C3 C2 H2 108.0
C15 C2 H2 108.0
C4 C3 C2 107.99(19)
C4 C3 H3A 110.1
C2 C3 H3A 110.1
C4 C3 H3B 110.1
C2 C3 H3B 110.1
H3A C3 H3B 108.4
C3 C4 C5 106.27(19)
C3 C4 H4A 110.5
C5 C4 H4A 110.5
C3 C4 H4B 110.5
C5 C4 H4B 110.5
H4A C4 H4B 108.7
C4 C5 C6 113.40(19)
C4 C5 C15 101.87(18)
C6 C5 C15 117.65(17)
C4 C5 H5 107.8
C6 C5 H5 107.8
C15 C5 H5 107.8
C7 C6 C8 108.0(2)
C7 C6 C5 113.84(18)
C8 C6 C5 108.32(18)
C7 C6 C9 108.56(18)
C8 C6 C9 108.62(17)
C5 C6 C9 109.33(18)
C6 C7 H7A 109.5
C6 C7 H7B 109.5
H7A C7 H7B 109.5
C6 C7 H7C 109.5
H7A C7 H7C 109.5
H7B C7 H7C 109.5
C6 C8 H8A 109.5
C6 C8 H8B 109.5
H8A C8 H8B 109.5
C6 C8 H8C 109.5
H8A C8 H8C 109.5
H8B C8 H8C 109.5
O1 C9 C11 108.20(18)
O1 C9 C10 105.94(18)
C11 C9 C10 111.9(2)
O1 C9 C6 109.52(19)
C11 C9 C6 106.96(17)
C10 C9 C6 114.15(17)
C9 C10 H10A 109.5
C9 C10 H10B 109.5
H10A C10 H10B 109.5
C9 C10 H10C 109.5
H10A C10 H10C 109.5
H10B C10 H10C 109.5
O2 C11 C9 121.7(2)
O2 C11 C12 119.0(2)
C9 C11 C12 119.23(19)
O3 C12 O4 109.70(19)
O3 C12 C11 112.14(19)
O4 C12 C11 104.73(17)
O3 C12 C15 110.74(19)
O4 C12 C15 104.65(17)
C11 C12 C15 114.3(2)
O5 C13 O4 120.7(2)
O5 C13 C14 129.6(2)
O4 C13 C14 109.7(2)
C13 C14 C15 103.46(19)
C13 C14 H14A 111.1
C15 C14 H14A 111.1
C13 C14 H14B 111.1
C15 C14 H14B 111.1
H14A C14 H14B 109.0
C14 C15 C12 99.97(18)
C14 C15 C2 114.5(2)
C12 C15 C2 115.23(18)
C14 C15 C5 108.75(18)
C12 C15 C5 112.84(18)
C2 C15 C5 105.59(18)
C9 O1 H1 112(3)
C12 O3 H3 108(2)
C13 O4 C12 109.96(17)
loop_
_geom_bond_atom_site_label_1
_geom_bond_atom_site_label_2
_geom_bond_distance
C1 C2 1.522(3)
C1 H1A 0.9800
C1 H1B 0.9800
C1 H1C 0.9800
C2 C3 1.548(3)
C2 C15 1.553(3)
C2 H2 1.0000
C3 C4 1.540(3)
C3 H3A 0.9900
C3 H3B 0.9900
C4 C5 1.551(3)
C4 H4A 0.9900
C4 H4B 0.9900
C5 C6 1.553(3)
C5 C15 1.558(3)
C5 H5 1.0000
C6 C7 1.532(3)
C6 C8 1.539(3)
C6 C9 1.573(3)
C7 H7A 0.9800
C7 H7B 0.9800
C7 H7C 0.9800
C8 H8A 0.9800
C8 H8B 0.9800
C8 H8C 0.9800
C9 O1 1.422(3)
C9 C11 1.521(3)
C9 C10 1.541(3)
C10 H10A 0.9800
C10 H10B 0.9800
C10 H10C 0.9800
C11 O2 1.212(3)
C11 C12 1.534(4)
C12 O3 1.377(3)
C12 O4 1.462(3)
C12 C15 1.551(3)
C13 O5 1.199(3)
C13 O4 1.358(3)
C13 C14 1.507(3)
C14 C15 1.539(3)
C14 H14A 0.9900
C14 H14B 0.9900
O1 H1 0.85(4)
O3 H3 0.80(3)
