#------------------------------------------------------------------------------
#$Date: 2019-11-03 12:32:01 +0200 (Sun, 03 Nov 2019) $
#$Revision: 221396 $
#$URL: file:///home/coder/svn-repositories/cod/cif/4/12/82/4128274.cif $
#------------------------------------------------------------------------------
#
# This file is available in the Crystallography Open Database (COD),
# http://www.crystallography.net/
#
# All data on this site have been placed in the public domain by the
# contributors.
#
data_4128274
loop_
_publ_author_name
'Liu, Zong-Ying'
'Hu, Jiun-Wei'
'Huang, Chun-Hao'
'Huang, Teng-Hsing'
'Chen, Deng-Gao'
'Ho, Ssu-Yu'
'Chen, Kew-Yu'
'Li, Elise Y.'
'Chou, Pi-Tai'
_publ_section_title
;
 Sulfur-Based Intramolecular Hydrogen-Bond: Excited-State Hydrogen-Bond
 On/Off Switch with Dual Room-Temperature Phosphorescence.
;
_journal_issue                   25
_journal_name_full               'Journal of the American Chemical Society'
_journal_page_first              9885
_journal_page_last               9894
_journal_paper_doi               10.1021/jacs.9b02765
_journal_volume                  141
_journal_year                    2019
_chemical_formula_moiety         'C9 H8 O S'
_chemical_formula_sum            'C9 H8 O S'
_chemical_formula_weight         164.21
_space_group_crystal_system      triclinic
_space_group_IT_number           2
_space_group_name_Hall           '-P 1'
_space_group_name_H-M_alt        'P -1'
_symmetry_cell_setting           triclinic
_symmetry_space_group_name_Hall  '-P 1'
_symmetry_space_group_name_H-M   'P -1'
_atom_sites_solution_hydrogens   mixed
_audit_creation_method           SHELXL-2014/7
_cell_angle_alpha                88.382(19)
_cell_angle_beta                 84.595(18)
_cell_angle_gamma                64.170(16)
_cell_formula_units_Z            4
_cell_length_a                   7.705(4)
_cell_length_b                   8.751(5)
_cell_length_c                   13.141(7)
_cell_measurement_reflns_used    4354
_cell_measurement_temperature    300(2)
_cell_measurement_theta_max      26.434
_cell_measurement_theta_min      3.000
_cell_volume                     793.9(8)
_computing_cell_refinement       'SAINT V7.34A (Bruker AXS, 2006)'
_computing_data_collection       'APEX2 (Bruker AXS, 2010)'
_computing_data_reduction        'SAINT V7.34A (Bruker AXS, 2006)'
_computing_molecular_graphics    'Bruker SHELXTL'
_computing_publication_material  'Bruker SHELXTL'
_computing_structure_refinement  'SHELXL-2014/7 (Sheldrick, 2014)'
_computing_structure_solution    'SHELXL-2014/7 (Sheldrick, 2014)'
_diffrn_ambient_temperature      300(2)
_diffrn_measured_fraction_theta_full 0.981
_diffrn_measured_fraction_theta_max 0.961
_diffrn_measurement_device_type  'Bruker APEX-II CCD'
_diffrn_measurement_method       '\f and \w scans'
_diffrn_radiation_probe          x-ray
_diffrn_radiation_type           MoK\a
_diffrn_radiation_wavelength     0.71073
_diffrn_reflns_av_R_equivalents  0.0347
_diffrn_reflns_av_unetI/netI     0.0359
_diffrn_reflns_Laue_measured_fraction_full 0.981
_diffrn_reflns_Laue_measured_fraction_max 0.961
_diffrn_reflns_limit_h_max       8
_diffrn_reflns_limit_h_min       -9
_diffrn_reflns_limit_k_max       10
_diffrn_reflns_limit_k_min       -10
_diffrn_reflns_limit_l_max       16
_diffrn_reflns_limit_l_min       -16
_diffrn_reflns_number            11815
_diffrn_reflns_point_group_measured_fraction_full 0.981
_diffrn_reflns_point_group_measured_fraction_max 0.961
_diffrn_reflns_theta_full        25.242
_diffrn_reflns_theta_max         26.569
_diffrn_reflns_theta_min         2.949
_exptl_absorpt_coefficient_mu    0.339
_exptl_absorpt_correction_T_max  0.9281
_exptl_absorpt_correction_T_min  0.8001
_exptl_absorpt_correction_type   multi-scan
_exptl_absorpt_process_details   'SADABS V2012/1 (Bruker AXS Inc.)'
_exptl_crystal_colour            brown
_exptl_crystal_density_diffrn    1.374
_exptl_crystal_description       parallelepiped
_exptl_crystal_F_000             344
_exptl_crystal_size_max          0.370
_exptl_crystal_size_mid          0.350
_exptl_crystal_size_min          0.260
_refine_diff_density_max         0.543
_refine_diff_density_min         -0.392
_refine_diff_density_rms         0.053
_refine_ls_extinction_method     none
_refine_ls_goodness_of_fit_ref   1.040
_refine_ls_hydrogen_treatment    mixed
_refine_ls_matrix_type           full
_refine_ls_number_parameters     204
_refine_ls_number_reflns         3180
_refine_ls_number_restraints     0
_refine_ls_restrained_S_all      1.040
_refine_ls_R_factor_all          0.0789
_refine_ls_R_factor_gt           0.0599
_refine_ls_shift/su_max          0.002
_refine_ls_shift/su_mean         0.000
_refine_ls_structure_factor_coef Fsqd
_refine_ls_weighting_details
'w=1/[\s^2^(Fo^2^)+(0.0366P)^2^+1.2779P] where P=(Fo^2^+2Fc^2^)/3'
_refine_ls_weighting_scheme      calc
_refine_ls_wR_factor_gt          0.1413
_refine_ls_wR_factor_ref         0.1545
_reflns_Friedel_coverage         0.000
_reflns_number_gt                2499
_reflns_number_total             3180
_reflns_threshold_expression     'I > 2\s(I)'
_cod_data_source_file            ja9b02765_si_005.cif
_cod_data_source_block           ohs
_cod_depositor_comments
;
The following automatic conversions were performed:

'_symmetry_cell_setting' value 'Triclinic' changed to 'triclinic'
according to
/home/data/users/saulius/crontab/automatic-downloads/current/ACS/lib/dictionaries/cif_core.dic
dictionary named 'cif_core.dic' version 2.4.2 from 2011-04-26.

Automatic conversion script
Id: cif_fix_values 4973 2017-02-22 13:04:09Z antanas 
;
_cod_original_cell_volume        793.9(7)
_cod_original_sg_symbol_H-M      P-1
_cod_database_code               4128274
_shelx_shelxl_version_number     2014/7
_shelx_space_group_comment
; 
The symmetry employed for this shelxl refinement is uniquely defined 
by the following loop, which should always be used as a source of 
symmetry information in preference to the above space-group names. 
They are only intended as comments. 
;
_shelx_estimated_absorpt_t_min   0.885
_shelx_estimated_absorpt_t_max   0.917
_shelx_res_file
; 
  
    ohs.res created by SHELXL-2014/7 
  
  
TITL ohs in P-1 
CELL 0.71073   7.70490   8.75140  13.14140  88.3820  84.5953  64.1697 
ZERR    4.00   0.00370   0.00460   0.00740   0.0190   0.0180   0.0162 
LATT 1 
SFAC C  H  O  S 
UNIT 36  32  4  4 
L.S. 12 
ACTA 
BOND $H 
FMAP 2 
PLAN 0 
CONF 
SIZE 0.26 0.35 0.37 
TEMP 26.880 
WGHT    0.036600    1.277900 
FVAR       0.30730 
S1    4    0.269394    0.721773    0.385501    11.00000    0.06305    0.06344 = 
         0.08108   -0.03049   -0.00041   -0.02462 
O1    3    0.217110    1.076630    0.323621    11.00000    0.08618    0.07978 = 
         0.04014    0.01384   -0.01302   -0.01562 
AFIX  83 
H1A   2    0.223617    0.981071    0.318501    11.00000    0.15528 
AFIX   0 
C1    1    0.275166    0.816849    0.489489    11.00000    0.02730    0.04152 = 
         0.05393   -0.00325    0.00074   -0.01122 
C2    1    0.302621    0.739839    0.594056    11.00000    0.05847    0.04915 = 
         0.07198    0.01589   -0.00343   -0.02166 
AFIX  23 
H2B   2    0.425265    0.639346    0.593206    11.00000   -1.20000 
H2C   2    0.199356    0.707725    0.615746    11.00000   -1.20000 
AFIX   0 
C3    1    0.299431    0.873098    0.666053    11.00000    0.06385    0.08671 = 
         0.04228    0.01502   -0.00877   -0.03324 
AFIX  23 
H3A   2    0.195534    0.900609    0.720280    11.00000   -1.20000 
H3B   2    0.421417    0.834033    0.696295    11.00000   -1.20000 
AFIX   0 
C4    1    0.266612    1.025009    0.599506    11.00000    0.03053    0.05478 = 
         0.04107   -0.00271   -0.00193   -0.01568 
C5    1    0.250235    1.182276    0.625192    11.00000    0.05058    0.07090 = 
         0.06548   -0.02724    0.00091   -0.02820 
AFIX  43 
H5A   2    0.258847    1.208107    0.692142    11.00000   -1.20000 
AFIX   0 
C6    1    0.220551    1.301457    0.548786    11.00000    0.04871    0.04340 = 
         0.11402   -0.02105    0.00888   -0.01908 
AFIX  43 
H6A   2    0.208573    1.408266    0.565790    11.00000   -1.20000 
AFIX   0 
C7    1    0.208275    1.267957    0.449738    11.00000    0.05301    0.03762 = 
         0.08948    0.01834    0.00313   -0.01004 
AFIX  43 
H7A   2    0.188051    1.351368    0.400744    11.00000   -1.20000 
AFIX   0 
C8    1    0.225905    1.109417    0.421730    11.00000    0.03794    0.04375 = 
         0.04797    0.00862   -0.00177   -0.00726 
C9    1    0.254100    0.987292    0.498543    11.00000    0.02359    0.03523 = 
         0.03710   -0.00081   -0.00044   -0.00887 
S2    4    0.510534    0.188416   -0.118405    11.00000    0.06298    0.05235 = 
         0.07446   -0.01596    0.00996   -0.01930 
O2    3    0.216866    0.515084   -0.204613    11.00000    0.09396    0.08364 = 
         0.04044    0.01584   -0.01615   -0.04246 
H2A   2    0.310745    0.410331   -0.201178    11.00000    0.11387 
C10   1    0.403227    0.317749   -0.020364    11.00000    0.03691    0.03807 = 
         0.05076    0.00368   -0.00514   -0.02349 
C11   1    0.445862    0.277408    0.088535    11.00000    0.05653    0.04900 = 
         0.06153    0.01768   -0.02422   -0.02954 
AFIX  23 
H11A  2    0.579926    0.250947    0.096262    11.00000   -1.20000 
H11B  2    0.422660    0.180615    0.110446    11.00000   -1.20000 
AFIX   0 
C12   1    0.310770    0.434792    0.151698    11.00000    0.07641    0.07170 = 
         0.03923    0.00507   -0.01538   -0.04057 
AFIX  23 
H12A  2    0.226214    0.409006    0.201353    11.00000   -1.20000 
H12B  2    0.383987    0.479187    0.187432    11.00000   -1.20000 
AFIX   0 
C13   1    0.195799    0.559931    0.074774    11.00000    0.04745    0.04369 = 
         0.04770   -0.00102   -0.00339   -0.02894 
C14   1    0.052756    0.723638    0.088607    11.00000    0.05506    0.05244 = 
         0.07594   -0.02051    0.00885   -0.02695 
AFIX  43 
H14A  2    0.014520    0.773776    0.153371    11.00000   -1.20000 
AFIX   0 
C15   1   -0.033123    0.812136    0.003191    11.00000    0.04305    0.03408 = 
         0.11907    0.00328   -0.00672   -0.01815 
AFIX  43 
H15A  2   -0.130580    0.922166    0.012312    11.00000   -1.20000 
AFIX   0 
C16   1    0.020153    0.743654   -0.093838    11.00000    0.04977    0.04700 = 
         0.08808    0.03184   -0.02520   -0.02834 
AFIX  43 
H16A  2   -0.040600    0.806894   -0.148923    11.00000   -1.20000 
AFIX   0 
C17   1    0.164239    0.580578   -0.109299    11.00000    0.04613    0.04863 = 
         0.04855    0.01557   -0.01184   -0.02917 
C18   1    0.252708    0.488196   -0.023465    11.00000    0.03416    0.03227 = 
         0.04009    0.00557   -0.00599   -0.02103 
  
HKLF 4 
  
REM  ohs in P-1 
REM R1 =  0.0599 for    2499 Fo > 4sig(Fo)  and  0.0789 for all    3180 data 
REM    204 parameters refined using      0 restraints 
  
END 
  
WGHT      0.0222      1.2041 
  
REM Highest difference peak  0.543,  deepest hole -0.392,  1-sigma level  0.053 
Q1    1   0.2391  0.8202  0.3450  11.00000  0.05    0.54 
Q2    1   0.5395  0.2008 -0.0554  11.00000  0.05    0.39 
Q3    1   0.4805  0.2820 -0.1500  11.00000  0.05    0.33 
Q4    1   0.2766  0.7176  0.4532  11.00000  0.05    0.24 
Q5    1   0.2148  0.5161 -0.0633  11.00000  0.05    0.21 
Q6    1   0.1634  1.0226  0.5411  11.00000  0.05    0.21 
Q7    1   0.2397  1.0378  0.4605  11.00000  0.05    0.20 
Q8    1   0.2899  0.4075 -0.0201  11.00000  0.05    0.20 
Q9    1   0.3448  0.4280 -0.0296  11.00000  0.05    0.19 
Q10   1   0.2184  0.5305  0.0110  11.00000  0.05    0.18 
Q11   1   0.3445  0.3544  0.1261  11.00000  0.05    0.18 
Q12   1   0.3138  0.5021  0.2557  11.00000  0.05    0.17 
Q13   1   0.2748  0.9037  0.4974  11.00000  0.05    0.16 
Q14   1  -0.2554  1.0698  0.0312  11.00000  0.05    0.16 
Q15   1   0.4835  0.7458  0.4068  11.00000  0.05    0.16 
Q16   1   0.3058  1.0025  0.5343  11.00000  0.05    0.16 
Q17   1   0.3006  0.7261  0.2766  11.00000  0.05    0.16 
Q18   1   0.5177  0.4434  0.1711  11.00000  0.05    0.16 
Q19   1   0.2450  0.9257  0.7458  11.00000  0.05    0.16 
Q20   1   0.2782  0.6192  0.2740  11.00000  0.05    0.15 
;
_shelx_res_checksum              69616
_shelx_hkl_file
; 
   1   0   0   15.07    0.70 
   1   0   0   16.40    0.71 
  -2   0   0  684.47   30.18 
  -2   0   0  653.79   30.17 
   2   0   0  685.42   30.15 
   2   0   0  686.10   30.17 
  -3   0   0   11.64    0.55 
  -3   0   0   11.72    0.55 
   3   0   0   11.31    0.54 
   3   0   0   11.92    0.55 
   3   0   0   11.55    0.53 
  -4   0   0  345.00   16.05 
  -4   0   0  357.10   16.06 
   4   0   0  361.93   16.05 
   4   0   0  370.82   16.05 
   4   0   0  370.22   16.13 
  -5   0   0    0.13    0.13 
  -5   0   0    0.22    0.14 
   5   0   0    0.32    0.11 
   5   0   0    0.23    0.11 
  -6   0   0    7.00    0.49 
  -6   0   0    9.31    0.51 
   6   0   0    7.87    0.44 
   6   0   0    8.10    0.43 
  -7   0   0   -0.01    0.20 
  -7   0   0    0.10    0.24 
   7   0   0   -0.06    0.11 
   7   0   0    0.14    0.14 
  -8   0   0    2.91    0.41 
  -8   0   0    2.16    0.33 
   8   0   0    2.48    0.21 
   8  -1   0    0.35    0.28 
  -8   1   0   -0.08    0.28 
  -8   1   0    0.37    0.33 
   7  -1   0    0.48    0.18 
   7  -1   0    0.25    0.18 
  -7   1   0    0.22    0.24 
  -7   1   0    0.39    0.31 
   6  -1   0    7.69    0.45 
   6  -1   0    6.83    0.45 
  -6   1   0    8.04    0.50 
   5  -1   0   10.90    0.57 
   5  -1   0   10.35    0.52 
   5  -1   0   10.98    0.57 
  -5   1   0   11.07    0.60 
  -5   1   0   11.36    0.61 
   4  -1   0    3.77    0.26 
   4  -1   0    3.21    0.21 
   4  -1   0    3.29    0.25 
  -4   1   0    4.05    0.28 
  -4   1   0    3.70    0.28 
   3  -1   0    9.56    0.46 
   3  -1   0    9.16    0.48 
   3  -1   0    9.69    0.48 
  -3   1   0    9.76    0.48 
  -3   1   0    9.85    0.49 
   2  -1   0   15.48    0.72 
   2  -1   0   15.45    0.71 
  -2   1   0   15.54    0.72 
  -2   1   0   15.04    0.72 
   1  -1   0   25.20    1.17 
  -1   1   0   26.17    1.17 
  -1   1   0   26.46    1.17 
  -2  -1   0    0.23    0.04 
  -3  -1   0    1.08    0.10 
  -3  -1   0    1.06    0.10 
   3   1   0    1.13    0.08 
   3   1   0    1.13    0.08 
  -4  -1   0  153.46    7.03 
  -4  -1   0  153.97    7.03 
   4   1   0  166.62    7.03 
   4   1   0  157.22    7.03 
  -5  -1   0    4.14    0.27 
  -5  -1   0    4.71    0.29 
   5   1   0    4.01    0.23 
   5   1   0    4.36    0.23 
  -6  -1   0   29.43    1.35 
  -6  -1   0   30.94    1.36 
   6   1   0   28.34    1.30 
   6   1   0   27.04    1.30 
  -8  -1   0    8.27    0.58 
  -8  -1   0    9.00    0.61 
   6  -2   0    1.04    0.24 
   6  -2   0    0.94    0.13 
  -6   2   0    1.13    0.29 
  -6   2   0    0.83    0.25 
   5  -2   0    5.88    0.34 
   5  -2   0    5.92    0.41 
   5  -2   0    5.59    0.40 
  -5   2   0    5.48    0.44 
   4  -2   0   21.06    1.01 
   4  -2   0   20.53    1.01 
   4  -2   0   20.35    0.99 
  -4   2   0   23.99    1.04 
  -4   2   0   19.78    1.02 
   3  -2   0   24.38    1.14 
   3  -2   0   24.23    1.14 
  -3   2   0   24.48    1.15 
  -3   2   0   24.20    1.14 
   2  -2   0   10.46    0.53 
   2  -2   0   11.04    0.54 
  -2   2   0   10.35    0.53 
  -2   2   0   11.20    0.54 
   1  -2   0   63.37    2.92 
   1  -2   0   66.66    2.92 
  -1   2   0   65.33    2.92 
  -1   2   0   65.16    2.92 
   0  -2   0  304.85   13.30 
   0   2   0  293.44   13.28 
   0   2   0  293.97   13.27 
  -1  -2   0    0.45    0.07 
  -1  -2   0    0.54    0.06 
   1   2   0    0.46    0.07 
   1   2   0    0.38    0.05 
  -2  -2   0  670.17   29.79 
  -3  -2   0    0.55    0.08 
  -3  -2   0    0.58    0.08 
  -4  -2   0   16.58    0.72 
  -4  -2   0   15.41    0.73 
  -4  -2   0   15.70    0.73 
  -5  -2   0    3.16    0.21 
  -5  -2   0    3.07    0.22 
  -6  -2   0   10.26    0.53 
  -6  -2   0   10.36    0.54 
  -7  -2   0    0.30    0.17 
  -7  -2   0    0.40    0.17 
  -9  -2   0   -0.10    0.23 
  -9  -2   0    0.10    0.29 
   7  -3   0    0.05    0.33 
  -7   3   0   -0.07    0.32 
   6  -3   0    6.37    0.53 
   6  -3   0    7.50    0.43 
  -6   3   0    6.76    0.64 
  -6   3   0    6.62    0.58 
   5  -3   0   12.18    0.68 
   5  -3   0   11.90    0.63 
   5  -3   0   12.95    0.67 
  -5   3   0   11.60    0.72 
  -5   3   0   12.13    0.71 
   4  -3   0    2.13    0.31 
   4  -3   0    1.10    0.17 
   4  -3   0    1.23    0.22 
  -4   3   0    2.20    0.33 
  -4   3   0    1.40    0.22 
   3  -3   0    0.62    0.18 
   3  -3   0    0.80    0.17 
  -3   3   0    0.69    0.16 
  -3   3   0    0.56    0.18 
   2  -3   0   26.72    1.25 
   2  -3   0   26.59    1.25 
  -2   3   0   26.29    1.25 
  -2   3   0   27.51    1.26 
   1  -3   0   55.47    2.45 
   1  -3   0   54.18    2.44 
  -1   3   0   55.36    2.45 
  -1   3   0   51.38    2.44 
   0  -3   0   44.86    2.06 
   0  -3   0   46.28    2.06 
   0   3   0   46.24    2.05 
   0   3   0   44.67    2.05 
  -1  -3   0   19.40    0.89 
  -1  -3   0   18.82    0.89 
   1   3   0   19.12    0.88 
   1   3   0   20.04    0.89 
  -2  -3   0    0.60    0.09 
  -2  -3   0    0.70    0.09 
   2   3   0    0.51    0.07 
   2   3   0    0.63    0.07 
  -3  -3   0   79.33    3.46 
  -3  -3   0   75.97    3.46 
  -4  -3   0  180.84    8.37 
  -4  -3   0  195.69    8.40 
  -5  -3   0    1.93    0.17 
  -5  -3   0    2.08    0.16 
  -5  -3   0    2.24    0.14 
  -6  -3   0    1.47    0.18 
  -6  -3   0    1.44    0.21 
  -7  -3   0    8.19    0.45 
  -7  -3   0    8.05    0.46 
  -8  -3   0    1.75    0.23 
  -8  -3   0    1.58    0.24 
  -9  -3   0    0.52    0.28 
  -9  -3   0    0.59    0.23 
   6  -4   0    0.73    0.21 
   6  -4   0    0.35    0.28 
   6  -4   0    0.65    0.34 
  -6   4   0    1.48    0.39 
   5  -4   0    0.48    0.28 
   5  -4   0    0.17    0.19 
  -5   4   0    0.26    0.33 
  -5   4   0    0.42    0.27 
   4  -4   0    0.62    0.22 
   4  -4   0    0.40    0.18 
  -4   4   0    0.69    0.24 
  -4   4   0    0.96    0.26 
   3  -4   0    2.91    0.34 
  -3   4   0    2.35    0.29 
  -3   4   0    1.73    0.27 
   2  -4   0    4.76    0.35 
   2  -4   0    4.73    0.38 
  -2   4   0    4.83    0.38 
  -2   4   0    4.90    0.35 
   1  -4   0   13.77    0.72 
   1  -4   0   14.94    0.72 
  -1   4   0   14.48    0.73 
  -1   4   0   15.17    0.72 
   0  -4   0  144.85    6.44 
   0  -4   0  139.52    6.44 
   0   4   0  145.22    6.44 
   0   4   0  146.57    6.44 
  -1  -4   0    8.11    0.41 
  -1  -4   0    7.97    0.41 
   1   4   0    8.06    0.41 
   1   4   0    7.98    0.41 
  -2  -4   0   47.03    2.15 
  -2  -4   0   49.10    2.15 
   2   4   0   47.52    2.14 
   2   4   0   47.36    2.14 
  -3  -4   0    5.63    0.28 
  -3  -4   0    5.14    0.28 
  -4  -4   0  354.72   15.81 
  -4  -4   0  354.02   15.79 
  -5  -4   0    1.38    0.15 
  -5  -4   0    1.22    0.15 
  -6  -4   0   13.36    0.64 
  -6  -4   0   14.08    0.66 
  -6  -4   0   13.54    0.65 
  -7  -4   0    0.08    0.13 
  -7  -4   0    0.24    0.12 
  -8  -4   0    6.01    0.39 
  -8  -4   0    5.58    0.40 
   5  -5   0    4.40    0.62 
   5  -5   0    4.34    0.49 
   5  -5   0    3.38    0.43 
  -5   5   0    3.83    0.54 
   4  -5   0   -0.18    0.28 
  -4   5   0   -0.16    0.30 
  -4   5   0   -0.28    0.25 
   3  -5   0    0.94    0.26 
  -3   5   0    0.98    0.27 
   2  -5   0   14.55    0.75 
   2  -5   0   14.76    0.76 
  -2   5   0   13.31    0.74 
  -2   5   0   13.23    0.74 
   1  -5   0    9.56    0.59 
   1  -5   0   11.02    0.59 
  -1   5   0   11.47    0.60 
  -1   5   0   11.32    0.61 
   0  -5   0    3.90    0.28 
   0  -5   0    3.83    0.30 
   0   5   0    3.90    0.29 
   0   5   0    3.83    0.30 
  -1  -5   0    0.03    0.11 
  -1  -5   0   -0.04    0.11 
   1   5   0    0.05    0.11 
   1   5   0    0.00    0.10 
  -2  -5   0   93.87    4.11 
  -2  -5   0   92.34    4.11 
   2   5   0   91.24    4.10 
   2   5   0   89.17    4.10 
  -3  -5   0    3.34    0.23 
  -3  -5   0    3.38    0.23 
   3   5   0    3.64    0.19 
   3   5   0    3.54    0.19 
  -4  -5   0    1.21    0.16 
  -4  -5   0    1.41    0.16 
  -5  -5   0    8.94    0.45 
  -5  -5   0    9.28    0.46 
  -6  -5   0   43.83    2.01 
  -6  -5   0   45.00    2.01 
  -7  -5   0   -0.14    0.11 
  -7  -5   0   -0.16    0.09 
  -7  -5   0   -0.04    0.10 
  -8  -5   0    4.82    0.34 
  -8  -5   0    4.10    0.32 
   4  -6   0    7.81    0.66 
   4  -6   0    8.02    0.60 
  -4   6   0    6.36    0.66 
  -4   6   0    8.44    0.62 
   3  -6   0    0.61    0.25 
   3  -6   0    0.79    0.31 
  -3   6   0    1.32    0.35 
   2  -6   0    3.38    0.42 
  -2   6   0    3.92    0.45 
   1  -6   0    3.19    0.33 
  -1   6   0    2.33    0.31 
   0  -6   0    0.11    0.20 
   0  -6   0    0.49    0.17 
   0   6   0   -0.24    0.19 
   0   6   0   -0.23    0.20 
  -1  -6   0   30.10    1.38 
  -1  -6   0   29.28    1.39 
   1   6   0   30.06    1.38 
   1   6   0   28.26    1.37 
  -2  -6   0    0.00    0.12 
  -2  -6   0   -0.10    0.14 
   2   6   0   -0.17    0.12 
   2   6   0    0.24    0.11 
  -3  -6   0    2.43    0.24 
  -3  -6   0    2.33    0.24 
   3   6   0    2.41    0.18 
   3   6   0    2.61    0.19 
  -4  -6   0    1.55    0.22 
  -4  -6   0    2.00    0.20 
  -5  -6   0    3.66    0.27 
  -5  -6   0    3.64    0.26 
  -6  -6   0    9.04    0.47 
  -6  -6   0    8.96    0.48 
  -7  -6   0    2.00    0.24 
  -7  -6   0    1.31    0.21 
  -8  -6   0    0.30    0.15 
  -8  -6   0    0.63    0.15 
  -8  -6   0    0.42    0.13 
  -8  -6   0    0.32    0.15 
  -9  -6   0    0.59    0.19 
  -9  -6   0    0.57    0.18 
   4  -7   0    2.42    0.40 
   3  -7   0    1.10    0.30 
   3  -7   0    1.09    0.30 
   3  -7   0    1.09    0.31 
  -3   7   0    0.57    0.33 
  -3   7   0    0.96    0.31 
   2  -7   0    6.94    0.57 
   2  -7   0    6.19    0.64 
  -2   7   0    7.75    0.56 
  -2   7   0    6.72    0.62 
   1  -7   0    0.43    0.26 
  -1   7   0    0.33    0.26 
   0  -7   0   12.80    0.75 
   0  -7   0   12.49    0.74 
   0   7   0   16.07    0.74 
   0   7   0   13.55    0.75 
  -1  -7   0   -0.12    0.17 
  -1  -7   0   -0.15    0.16 
   1   7   0   -0.33    0.20 
   1   7   0   -0.21    0.20 
  -2  -7   0    7.69    0.48 
  -2  -7   0    7.78    0.48 
   2   7   0    8.14    0.46 
   2   7   0    6.86    0.44 
  -3  -7   0    0.05    0.15 
  -3  -7   0    0.16    0.16 
   3   7   0    0.10    0.13 
   3   7   0    0.20    0.10 
  -4  -7   0    6.43    0.37 
  -4  -7   0    6.13    0.37 
   4   7   0    5.29    0.28 
   4   7   0    5.27    0.28 
  -5  -7   0    0.77    0.17 
  -5  -7   0    0.73    0.15 
  -6  -7   0    1.19    0.16 
  -6  -7   0    1.19    0.18 
  -7  -7   0    3.65    0.31 
  -7  -7   0    4.06    0.31 
  -8  -7   0   13.63    0.72 
  -8  -7   0   13.86    0.70 
  -8  -7   0   12.79    0.71 
  -8  -7   0   14.21    0.71 
  -9  -7   0    0.27    0.18 
   2  -8   0    2.37    0.39 
  -2   8   0    2.08    0.36 
   1  -8   0    0.20    0.26 
   1  -8   0    0.51    0.24 
  -1   8   0   -0.05    0.35 
  -1   8   0    0.38    0.26 
   0  -8   0    3.82    0.43 
   0  -8   0    4.86    0.53 
   0   8   0    3.92    0.45 
  -1  -8   0   13.43    0.76 
  -1  -8   0   14.07    0.78 
   1   8   0   13.93    0.75 
  -2  -8   0    4.09    0.40 
  -2  -8   0    3.87    0.38 
   2   8   0    4.51    0.36 
   2   8   0    4.29    0.37 
  -3  -8   0    1.30    0.21 
  -3  -8   0    1.17    0.20 
   3   8   0    1.38    0.19 
   3   8   0    1.24    0.17 
  -4  -8   0    3.10    0.32 
   4   8   0    3.03    0.21 
   4   8   0    3.04    0.21 
  -5  -8   0    1.22    0.19 
  -5  -8   0    1.23    0.22 
  -6  -8   0    3.76    0.37 
  -6  -8   0    4.31    0.36 
  -7  -8   0    0.22    0.18 
  -8  -8   0    3.54    0.37 
  -8  -8   0    3.13    0.36 
   1  -9   0    0.46    0.32 
  -1   9   0    0.29    0.31 
   0  -9   0    4.38    0.48 
   0  -9   0    4.03    0.46 
   0   9   0    5.08    0.59 
   0   9   0    4.53    0.52 
  -1  -9   0    0.13    0.24 
  -1  -9   0   -0.26    0.32 
   1   9   0    0.34    0.28 
  -2  -9   0    0.11    0.22 
  -2  -9   0    0.13    0.28 
   2   9   0    0.49    0.21 
   2   9   0    0.02    0.21 
  -3  -9   0    0.24    0.20 
  -3  -9   0    0.07    0.24 
   3   9   0   -0.01    0.18 
   3   9   0   -0.03    0.18 
  -4  -9   0    3.38    0.42 
  -4  -9   0    2.70    0.36 
   4   9   0    3.15    0.26 
   4   9   0    2.80    0.24 
  -5  -9   0    3.43    0.36 
  -6  -9   0    6.76    0.49 
  -6  -9   0    7.84    0.51 
  -7  -9   0    1.46    0.29 
  -8  -9   0    3.78    0.47 
  -1 -10   0    1.32    0.33 
   1  10   0    1.35    0.39 
  -2 -10   0    0.33    0.28 
  -2 -10   0    0.28    0.28 
   2  10   0    0.35    0.28 
  -3 -10   0    1.44    0.35 
  -3 -10   0    0.53    0.27 
   3  10   0    0.05    0.21 
  -4 -10   0   -0.22    0.22 
  -4 -10   0    0.34    0.32 
   4  10   0    0.14    0.15 
   4  10   0    0.18    0.16 
  -5 -10   0    0.83    0.29 
  -5 -10   0    0.93    0.24 
  -6 -10   0    0.36    0.22 
  -6 -10   0    0.47    0.28 
  -7 -10   0    0.12    0.28 
  -7 -10   0    0.31    0.24 
  -7 -10   1    0.37    0.22 
  -7 -10   1    0.08    0.28 
  -6 -10   1    0.47    0.22 
  -6 -10   1    0.25    0.27 
  -5 -10   1    0.63    0.29 
  -5 -10   1    0.67    0.23 
   4  10  -1    0.50    0.12 
  -4 -10   1    1.25    0.26 
  -4 -10   1    0.73    0.31 
   3  10  -1    1.26    0.25 
  -3 -10   1    1.34    0.28 
  -3 -10   1    1.26    0.35 
   2  10  -1    1.14    0.30 
   2  10  -1    1.33    0.32 
  -2 -10   1    1.44    0.30 
  -2 -10   1    1.31    0.31 
   1  10  -1    0.27    0.36 
  -1 -10   1    0.12    0.28 
  -8  -9   1    0.17    0.25 
  -7  -9   1   -0.02    0.21 
  -6  -9   1    9.51    0.55 
  -5  -9   1    0.51    0.18 
   4   9  -1    1.61    0.16 
   4   9  -1    1.36    0.16 
  -4  -9   1    1.70    0.24 
  -4  -9   1    1.58    0.27 
   3   9  -1    0.57    0.18 
   3   9  -1    0.48    0.17 
  -3  -9   1    0.69    0.26 
  -3  -9   1    0.60    0.22 
   2   9  -1    1.44    0.25 
  -2  -9   1    1.45    0.29 
  -2  -9   1    0.99    0.25 
   1   9  -1    1.94    0.32 
  -1  -9   1    2.26    0.39 
  -1  -9   1    1.91    0.31 
   0   9  -1    0.87    0.30 
   0   9  -1    0.59    0.34 
   0  -9   1    0.69    0.27 
   0  -9   1    0.72    0.29 
  -1   9  -1   -0.51    0.51 
  -1   9  -1   -0.29    0.29 
   1  -9   1   -0.43    0.29 
  -8  -8   1    0.13    0.16 
  -7  -8   1   -0.11    0.15 
  -6  -8   1    3.51    0.30 
  -6  -8   1    3.59    0.32 
  -5  -8   1    0.06    0.16 
  -5  -8   1    0.11    0.16 
  -4  -8   1    5.29    0.40 
  -4  -8   1    5.63    0.40 
   3   8  -1    4.51    0.31 
   3   8  -1    4.69    0.32 
  -3  -8   1    5.33    0.41 
   2   8  -1    4.27    0.36 
   2   8  -1    4.44    0.36 
  -2  -8   1    3.89    0.38 
  -2  -8   1    4.30    0.41 
   1   8  -1    0.17    0.20 
  -1  -8   1    0.02    0.19 
  -1  -8   1   -0.29    0.23 
   0   8  -1   10.14    0.66 
   0  -8   1   10.43    0.64 
   0  -8   1    9.61    0.67 
  -1   8  -1    4.10    0.55 
  -1   8  -1    3.62    0.48 
   1  -8   1    3.10    0.41 
   1  -8   1    4.21    0.53 
  -2   8  -1    0.29    0.30 
  -2   8  -1    0.35    0.37 
   2  -8   1    0.45    0.37 
  -9  -7   1    0.07    0.18 
  -8  -7   1   15.01    0.78 
  -8  -7   1   16.06    0.78 
  -8  -7   1   16.18    0.82 
  -7  -7   1    0.11    0.12 
  -7  -7   1    0.10    0.15 
  -6  -7   1    0.71    0.13 
  -5  -7   1    7.49    0.43 
  -5  -7   1    7.33    0.41 
  -4  -7   1   32.40    1.52 
  -4  -7   1   33.24    1.52 
   3   7  -1    1.48    0.17 
   3   7  -1    1.30    0.18 
  -3  -7   1    1.79    0.20 
  -3  -7   1    1.87    0.20 
   2   7  -1    1.70    0.26 
  -2  -7   1    1.97    0.31 
  -2  -7   1    2.44    0.31 
   1   7  -1    4.66    0.37 
   1   7  -1    4.12    0.37 
  -1  -7   1    4.84    0.37 
  -1  -7   1    4.80    0.39 
   0   7  -1   28.62    1.36 
   0   7  -1   28.65    1.36 
   0  -7   1   29.03    1.37 
   0  -7   1   26.86    1.38 
  -1   7  -1    2.55    0.34 
   1  -7   1    2.82    0.35 
  -2   7  -1    6.26    0.52 
  -2   7  -1    6.23    0.58 
   2  -7   1    4.97    0.57 
  -3   7  -1    0.87    0.30 
  -3   7  -1    0.18    0.32 
   3  -7   1    0.82    0.29 
   3  -7   1    0.74    0.30 
   4  -7   1    5.27    0.62 
  -9  -6   1    0.02    0.17 
  -9  -6   1   -0.26    0.13 
  -8  -6   1    1.85    0.20 
  -8  -6   1    1.38    0.22 
  -8  -6   1    2.32    0.27 
  -7  -6   1    0.36    0.11 
  -7  -6   1    0.53    0.13 
  -7  -6   1    0.41    0.18 
  -6  -6   1   36.75    1.71 
  -6  -6   1   38.39    1.71 
  -5  -6   1    0.57    0.12 
  -4  -6   1    0.88    0.13 
  -4  -6   1    0.84    0.13 
   3   6  -1   12.76    0.60 
   3   6  -1   12.73    0.60 
  -3  -6   1   12.71    0.64 
  -3  -6   1   12.98    0.63 
   2   6  -1   20.25    0.95 
   2   6  -1   20.15    0.95 
  -2  -6   1   19.91    0.97 
  -2  -6   1   20.70    0.97 
   1   6  -1    9.68    0.54 
   1   6  -1    9.95    0.54 
  -1  -6   1    9.92    0.55 
  -1  -6   1   10.14    0.55 
   0   6  -1   -0.21    0.18 
   0   6  -1   -0.17    0.17 
   0  -6   1    0.06    0.16 
   0  -6   1   -0.09    0.18 
  -1   6  -1    2.28    0.34 
  -1   6  -1    2.40    0.33 
  -2   6  -1    3.85    0.44 
   2  -6   1    3.17    0.44 
  -3   6  -1    1.76    0.38 
   3  -6   1    1.93    0.33 
   3  -6   1    1.80    0.28 
  -4   6  -1    0.83    0.30 
  -4   6  -1    0.66    0.32 
   4  -6   1    0.34    0.27 
   4  -6   1    0.63    0.31 
  -9  -5   1   -0.13    0.16 
  -9  -5   1   -0.25    0.22 
  -8  -5   1    0.35    0.14 
  -8  -5   1    0.42    0.07 
  -8  -5   1    0.41    0.07 
  -8  -5   1    0.46    0.17 
  -7  -5   1    0.11    0.11 
  -7  -5   1   -0.07    0.11 
  -7  -5   1   -0.10    0.10 
  -6  -5   1   79.01    3.56 
  -6  -5   1   80.09    3.56 
  -5  -5   1    2.76    0.18 
  -5  -5   1    2.57    0.19 
  -4  -5   1   -0.14    0.08 
  -3  -5   1    2.17    0.18 
  -3  -5   1    2.05    0.17 
   2   5  -1   21.24    0.98 
  -2  -5   1   21.81    1.00 
  -2  -5   1   20.97    1.00 
   1   5  -1    3.49    0.25 
   1   5  -1    3.56    0.24 
  -1  -5   1    3.74    0.27 
  -1  -5   1    3.46    0.26 
   0   5  -1   25.93    1.23 
   0   5  -1   25.04    1.23 
   0  -5   1   26.77    1.24 
   0  -5   1   27.46    1.24 
  -1   5  -1    0.41    0.19 
  -1   5  -1    0.61    0.17 
   1  -5   1    0.66    0.21 
   1  -5   1    0.63    0.18 
  -2   5  -1    0.23    0.20 
  -2   5  -1    0.43    0.21 
   2  -5   1    0.64    0.20 
   2  -5   1    0.18    0.19 
  -3   5  -1   19.88    1.02 
   3  -5   1   19.18    1.01 
  -4   5  -1    3.02    0.39 
   4  -5   1    2.77    0.48 
   4  -5   1    3.12    0.36 
  -5   5  -1    0.61    0.36 
   5  -5   1    0.64    0.28 
   5  -5   1    0.96    0.25 
  -9  -4   1    7.08    0.46 
  -8  -4   1    0.82    0.16 
  -8  -4   1    0.46    0.15 
  -7  -4   1    3.88    0.29 
  -7  -4   1    4.73    0.23 
  -7  -4   1    4.28    0.27 
  -6  -4   1    4.09    0.24 
  -6  -4   1    3.41    0.23 
  -6  -4   1    3.56    0.24 
  -5  -4   1    9.39    0.44 
  -5  -4   1    9.05    0.44 
  -4  -4   1   77.56    3.48 
  -4  -4   1   78.66    3.48 
  -3  -4   1   29.90    1.29 
  -3  -4   1   27.13    1.29 
   2   4  -1  113.19    5.02 
   2   4  -1  113.31    5.02 
  -2  -4   1  114.67    5.03 
  -2  -4   1  109.66    5.03 
   1   4  -1    6.45    0.33 
   1   4  -1    6.61    0.34 
  -1  -4   1    6.50    0.34 
  -1  -4   1    6.15    0.35 
   0   4  -1    2.19    0.20 
   0   4  -1    3.10    0.22 
   0  -4   1    2.31    0.23 
   0  -4   1    2.42    0.22 
  -1   4  -1    0.29    0.12 
  -1   4  -1    0.38    0.16 
   1  -4   1    0.20    0.14 
   1  -4   1    0.25    0.12 
  -2   4  -1   31.55    1.50 
  -2   4  -1   33.80    1.51 
   2  -4   1   31.40    1.51 
   2  -4   1   31.83    1.50 
  -3   4  -1    3.49    0.33 
   3  -4   1    4.37    0.40 
  -4   4  -1    0.58    0.19 
  -4   4  -1    1.14    0.28 
   4  -4   1    0.46    0.20 
  -5   4  -1    0.20    0.26 
  -5   4  -1    0.18    0.31 
   5  -4   1    0.13    0.19 
   5  -4   1   -0.15    0.26 
  -6   4  -1    0.39    0.34 
   6  -4   1   -0.37    0.34 
   6  -4   1    0.75    0.30 
   6  -4   1    0.50    0.20 
  -9  -3   1    0.07    0.24 
  -9  -3   1    0.34    0.20 
  -8  -3   1   -0.03    0.16 
  -8  -3   1   -0.04    0.20 
  -7  -3   1    0.10    0.12 
  -7  -3   1   -0.13    0.14 
  -6  -3   1    5.28    0.32 
  -6  -3   1    5.68    0.27 
  -6  -3   1    5.42    0.31 
  -5  -3   1    2.41    0.17 
  -5  -3   1    2.41    0.17 
  -5  -3   1    2.70    0.17 
  -4  -3   1   40.21    1.84 
  -4  -3   1   42.14    1.84 
  -3  -3   1   30.82    1.50 
  -3  -3   1   36.27    1.50 
  -2  -3   1    9.53    0.44 
   1   3  -1  128.01    5.51 
   1   3  -1  120.64    5.51 
  -1  -3   1  121.50    5.51 
  -1  -3   1  124.78    5.51 
   0   3  -1    0.96    0.14 
   0   3  -1    0.84    0.13 
   0  -3   1    1.04    0.14 
   0  -3   1    1.15    0.15 
  -1   3  -1   91.20    4.06 
  -1   3  -1   87.90    4.06 
   1  -3   1   91.21    4.06 
   1  -3   1   91.80    4.06 
  -2   3  -1    5.47    0.34 
  -2   3  -1    5.77    0.36 
   2  -3   1    5.48    0.35 
   2  -3   1    6.00    0.36 
  -3   3  -1   30.88    1.46 
  -3   3  -1   31.18    1.47 
   3  -3   1   30.87    1.46 
   3  -3   1   32.11    1.46 
  -4   3  -1    4.81    0.42 
  -4   3  -1    6.19    0.41 
   4  -3   1    4.93    0.40 
   4  -3   1    5.43    0.43 
  -5   3  -1    0.56    0.28 
  -5   3  -1    0.25    0.22 
   5  -3   1    0.25    0.20 
   5  -3   1    0.31    0.15 
  -6   3  -1   -0.11    0.26 
  -6   3  -1    0.27    0.35 
   6  -3   1    0.05    0.14 
   6  -3   1    0.04    0.22 
   6  -3   1    0.10    0.29 
  -7   3  -1    0.33    0.34 
   7  -3   1    0.98    0.38 
   7  -3   1    0.78    0.33 
  -9  -2   1    0.03    0.24 
  -9  -2   1    0.17    0.30 
  -8  -2   1    6.11    0.44 
  -8  -2   1    5.81    0.47 
  -7  -2   1   -0.02    0.16 
  -7  -2   1    0.21    0.14 
  -6  -2   1    7.02    0.39 
  -6  -2   1    6.53    0.37 
  -5  -2   1    0.05    0.03 
  -5  -2   1   -0.05    0.08 
  -5  -2   1   -0.06    0.08 
  -4  -2   1    0.00    0.05 
  -3  -2   1    7.93    0.38 
  -3  -2   1    7.88    0.36 
   1   2  -1    4.32    0.22 
  -1  -2   1    4.99    0.23 
  -1  -2   1    5.06    0.23 
   0   2  -1    3.65    0.20 
   0   2  -1    3.52    0.20 
   0  -2   1    3.95    0.21 
   0  -2   1    3.53    0.20 
  -1   2  -1   59.41    2.60 
  -1   2  -1   56.88    2.59 
   1  -2   1   57.48    2.60 
   1  -2   1   57.41    2.60 
  -2   2  -1  228.57   10.61 
  -2   2  -1  230.29   10.61 
   2  -2   1  247.32   10.61 
   2  -2   1  246.60   10.65 
  -3   2  -1    1.63    0.22 
  -3   2  -1    1.64    0.23 
   3  -2   1    1.08    0.16 
   3  -2   1    1.92    0.21 
  -4   2  -1    1.10    0.22 
  -4   2  -1    1.78    0.28 
   4  -2   1    1.75    0.27 
   4  -2   1    1.93    0.25 
  -5   2  -1    3.01    0.35 
   5  -2   1    2.68    0.34 
   5  -2   1    3.05    0.23 
   5  -2   1    2.62    0.35 
  -6   2  -1    4.87    0.46 
   6  -2   1    5.44    0.42 
   6  -2   1    4.51    0.30 
  -7   2  -1    0.62    0.30 
  -7   2  -1    0.11    0.32 
   7  -2   1    0.08    0.24 
  -8  -1   1   22.54    1.15 
  -8  -1   1   21.77    1.12 
  -7  -1   1    2.07    0.31 
  -6  -1   1   67.90    3.13 
  -6  -1   1   70.74    3.13 
  -5  -1   1    1.50    0.18 
  -5  -1   1    1.29    0.20 
  -4  -1   1  299.42   13.65 
  -4  -1   1  314.69   13.71 
  -3  -1   1    0.86    0.08 
  -3  -1   1    0.88    0.07 
  -3  -1   1    0.71    0.09 
   0   1  -1  479.17   21.35 
  -1   1  -1   12.65    0.57 
  -1   1  -1   11.66    0.57 
   1  -1   1   12.30    0.57 
   1  -1   1   12.25    0.57 
  -2   1  -1    4.38    0.24 
  -2   1  -1    3.71    0.23 
   2  -1   1    3.92    0.23 
   2  -1   1    4.23    0.24 
  -3   1  -1    7.72    0.40 
  -3   1  -1    6.95    0.40 
   3  -1   1    7.81    0.40 
   3  -1   1    7.49    0.40 
  -4   1  -1    1.84    0.23 
  -4   1  -1    1.72    0.22 
   4  -1   1    1.80    0.21 
   4  -1   1    1.58    0.22 
  -5   1  -1    3.34    0.32 
  -5   1  -1    3.94    0.35 
   5  -1   1    3.46    0.21 
   5  -1   1    3.69    0.31 
   5  -1   1    3.98    0.31 
  -6   1  -1    1.03    0.25 
  -6   1  -1    0.92    0.22 
   6  -1   1    1.07    0.20 
   6  -1   1    0.91    0.20 
  -7   1  -1    0.75    0.30 
  -7   1  -1    1.17    0.27 
   7  -1   1    1.04    0.24 
   7  -1   1    0.94    0.23 
  -8   1  -1    0.50    0.30 
  -8   1  -1    0.45    0.31 
   8  -1   1    0.49    0.24 
   8  -1   1    0.27    0.23 
  -8   0   1    1.90    0.31 
  -8   0   1    1.91    0.39 
   7   0  -1    1.12    0.15 
   7   0  -1    0.80    0.11 
  -7   0   1    1.18    0.26 
  -7   0   1    1.17    0.23 
   6   0  -1   18.07    0.84 
   6   0  -1   17.52    0.84 
  -6   0   1   17.82    0.90 
  -6   0   1   18.65    0.91 
   5   0  -1   12.28    0.58 
   5   0  -1   12.63    0.58 
   5   0  -1   11.81    0.55 
  -5   0   1   12.35    0.63 
  -5   0   1   11.75    0.62 
   4   0  -1   34.24    1.57 
   4   0  -1   32.27    1.56 
   4   0  -1   34.96    1.57 
  -4   0   1   35.40    1.58 
  -4   0   1   36.53    1.58 
   3   0  -1    7.14    0.36 
   3   0  -1    7.49    0.37 
   3   0  -1    7.69    0.36 
  -3   0   1    7.82    0.38 
  -3   0   1    8.02    0.38 
   2   0  -1  840.21   39.16 
  -2   0   1  891.27   39.18 
  -2   0   1  910.67   39.20 
   1   0  -1    0.10    0.03 
  -1   0   1    0.10    0.03 
  -1   0   1    0.18    0.03 
  -1   0   1    0.12    0.03 
  -2   0  -1  995.83   44.38 
  -2   0  -1 1000.00   44.36 
   2   0   1  992.91   44.35 
   2   0   1  998.92   44.36 
  -3   0  -1   16.65    0.79 
  -3   0  -1   17.45    0.79 
   3   0   1   16.72    0.78 
   3   0   1   16.57    0.78 
  -4   0  -1   28.58    1.32 
   4   0   1   25.89    1.31 
   4   0   1   31.16    1.31 
  -5   0  -1    0.13    0.14 
  -5   0  -1    0.02    0.13 
   5   0   1    0.08    0.11 
   5   0   1    0.02    0.11 
  -6   0  -1   22.51    1.14 
  -6   0  -1   25.39    1.15 
   6   0   1   23.17    1.11 
   6   0   1   23.21    1.11 
  -7   0  -1    1.66    0.30 
  -7   0  -1    2.05    0.26 
   7   0   1    1.90    0.28 
   7   0   1    1.52    0.26 
  -8   0  -1    0.42    0.35 
  -8   0  -1    0.03    0.27 
   8   0   1    0.08    0.16 
   8   0   1    0.24    0.14 
  -8   1   1    1.82    0.39 
  -8   1   1    2.69    0.37 
   7  -1  -1    3.19    0.33 
   7  -1  -1    3.20    0.30 
  -7   1   1    3.93    0.45 
  -7   1   1    3.45    0.50 
   6  -1  -1    0.21    0.16 
   5  -1  -1    8.35    0.45 
   5  -1  -1    7.79    0.41 
   5  -1  -1    8.17    0.45 
  -5   1   1    8.20    0.51 
  -5   1   1    8.69    0.49 
   4  -1  -1    3.56    0.25 
   4  -1  -1    3.45    0.22 
   4  -1  -1    3.59    0.25 
  -4   1   1    3.19    0.29 
  -4   1   1    3.09    0.27 
   3  -1  -1    4.77    0.28 
   3  -1  -1    4.56    0.27 
   3  -1  -1    4.92    0.26 
  -3   1   1    4.98    0.28 
  -3   1   1    4.66    0.29 
   2  -1  -1   98.26    4.36 
   2  -1  -1   98.57    4.36 
   2  -1  -1   98.91    4.36 
  -2   1   1   98.15    4.36 
  -2   1   1   94.45    4.36 
   1  -1  -1    0.38    0.06 
   1  -1  -1    0.27    0.07 
   1  -1  -1    0.26    0.06 
  -1   1   1    0.22    0.06 
  -1   1   1    0.22    0.07 
  -1  -1  -1   89.84    4.14 
  -1  -1  -1   91.75    4.15 
   1   1   1   95.53    4.14 
  -2  -1  -1  684.37   28.68 
  -2  -1  -1  637.60   28.68 
   2   1   1  626.52   28.66 
   2   1   1  628.22   28.66 
  -3  -1  -1    2.63    0.17 
  -3  -1  -1    2.71    0.17 
   3   1   1    2.73    0.16 
   3   1   1    2.79    0.16 
  -4  -1  -1    4.76    0.29 
  -5  -1  -1   29.35    1.39 
  -5  -1  -1   31.32    1.40 
   5   1   1   28.33    1.37 
   5   1   1   31.61    1.37 
  -6  -1  -1   17.07    0.80 
  -6  -1  -1   16.27    0.81 
   6   1   1   15.04    0.75 
   6   1   1   15.97    0.76 
  -7  -1  -1    0.64    0.20 
   7   1   1    0.14    0.10 
   7   1   1    0.01    0.10 
  -8  -1  -1    1.12    0.28 
  -8  -1  -1    0.90    0.24 
  -9  -1  -1    0.43    0.33 
  -9  -1  -1    0.28    0.29 
   7  -2  -1    1.54    0.28 
   7  -2  -1    1.03    0.14 
  -7   2   1    1.63    0.38 
  -7   2   1    0.96    0.31 
   6  -2  -1    2.66    0.24 
   6  -2  -1    2.81    0.38 
   6  -2  -1    2.61    0.34 
  -6   2   1    3.10    0.39 
  -6   2   1    3.18    0.44 
   5  -2  -1   14.73    0.77 
   5  -2  -1   14.78    0.74 
   5  -2  -1   15.37    0.78 
  -5   2   1   16.29    0.80 
  -5   2   1   15.36    0.80 
   4  -2  -1    3.22    0.29 
   4  -2  -1    2.80    0.23 
   4  -2  -1    3.17    0.28 
  -4   2   1    2.71    0.33 
  -4   2   1    2.83    0.30 
   3  -2  -1    0.20    0.13 
   3  -2  -1    0.32    0.13 
   3  -2  -1    0.28    0.09 
  -3   2   1    0.37    0.15 
  -3   2   1    0.31    0.12 
   2  -2  -1   67.75    3.09 
   2  -2  -1   68.93    3.09 
  -2   2   1   69.70    3.10 
  -2   2   1   68.76    3.09 
   1  -2  -1   33.41    1.55 
   1  -2  -1   35.22    1.55 
  -1   2   1   34.43    1.55 
  -1   2   1   33.82    1.55 
   0  -2  -1    5.67    0.29 
   0  -2  -1    5.79    0.29 
   0   2   1    5.73    0.29 
  -1  -2  -1    8.32    0.40 
   1   2   1    7.99    0.39 
   1   2   1    8.80    0.40 
  -2  -2  -1  616.60   27.55 
  -2  -2  -1  618.36   27.54 
   2   2   1  626.78   27.53 
   2   2   1  612.73   27.53 
  -3  -2  -1   33.03    1.43 
  -3  -2  -1   31.29    1.43 
   3   2   1   31.78    1.43 
   3   2   1   31.31    1.43 
  -4  -2  -1    0.69    0.10 
  -4  -2  -1    0.81    0.13 
   4   2   1    0.77    0.07 
   4   2   1    0.70    0.07 
  -5  -2  -1    4.86    0.30 
  -5  -2  -1    4.63    0.29 
   5   2   1    5.00    0.24 
   5   2   1    5.03    0.24 
  -6  -2  -1    4.29    0.33 
  -6  -2  -1    4.75    0.32 
  -7  -2  -1    1.73    0.28 
  -7  -2  -1    2.07    0.32 
  -8  -2  -1   -0.28    0.22 
  -8  -2  -1    0.06    0.20 
  -9  -2  -1    0.29    0.35 
  -9  -2  -1    0.20    0.23 
   7  -3  -1    0.84    0.29 
   7  -3  -1    1.01    0.33 
  -7   3   1    0.66    0.35 
   6  -3  -1    0.57    0.23 
  -6   3   1    0.54    0.35 
  -6   3   1    0.55    0.28 
   5  -3  -1    2.49    0.29 
   5  -3  -1    2.79    0.35 
  -5   3   1    2.82    0.43 
  -5   3   1    2.60    0.40 
   4  -3  -1   29.32    1.39 
   4  -3  -1   29.96    1.39 
   4  -3  -1   28.59    1.37 
  -4   3   1   29.27    1.40 
  -4   3   1   29.02    1.40 
   3  -3  -1   16.12    0.81 
   3  -3  -1   17.05    0.80 
   3  -3  -1   16.56    0.81 
  -3   3   1   15.41    0.82 
  -3   3   1   16.30    0.82 
   2  -3  -1   57.39    2.50 
   2  -3  -1   55.11    2.49 
  -2   3   1   54.42    2.50 
  -2   3   1   53.04    2.50 
   1  -3  -1    0.94    0.13 
   1  -3  -1    0.89    0.12 
  -1   3   1    0.85    0.14 
  -1   3   1    0.62    0.11 
   0  -3  -1  462.10   20.39 
   0  -3  -1  460.96   20.41 
   0   3   1  444.86   20.35 
   0   3   1  457.18   20.41 
  -1  -3  -1    9.86    0.48 
  -1  -3  -1    9.90    0.48 
   1   3   1   10.12    0.48 
  -2  -3  -1   80.79    3.51 
  -2  -3  -1   75.85    3.51 
   2   3   1   79.63    3.50 
   2   3   1   77.85    3.50 
  -3  -3  -1   32.93    1.42 
  -3  -3  -1   29.99    1.42 
   3   3   1   30.92    1.41 
   3   3   1   32.00    1.41 
  -4  -3  -1  228.40   10.00 
  -4  -3  -1  219.40    9.98 
  -5  -3  -1    6.70    0.35 
  -5  -3  -1    6.83    0.36 
  -5  -3  -1    6.43    0.32 
  -6  -3  -1    4.21    0.29 
  -6  -3  -1    4.17    0.27 
  -7  -3  -1    3.52    0.28 
  -7  -3  -1    3.34    0.31 
  -8  -3  -1    6.58    0.44 
  -9  -3  -1    0.37    0.27 
  -9  -3  -1    0.40    0.24 
   6  -4  -1    2.41    0.38 
   6  -4  -1    1.93    0.38 
   6  -4  -1    1.83    0.30 
  -6   4   1    2.29    0.40 
   5  -4  -1    0.16    0.27 
   5  -4  -1    0.62    0.19 
   5  -4  -1    0.21    0.24 
  -5   4   1    0.47    0.34 
  -5   4   1    0.52    0.28 
   4  -4  -1    9.87    0.55 
   4  -4  -1    8.26    0.54 
   4  -4  -1    8.36    0.52 
  -4   4   1    9.25    0.58 
  -4   4   1    7.15    0.59 
   3  -4  -1   14.21    0.77 
   3  -4  -1   17.05    0.80 
   3  -4  -1   15.57    0.80 
  -3   4   1   15.46    0.81 
  -3   4   1   14.45    0.80 
   2  -4  -1    0.96    0.17 
   2  -4  -1    1.03    0.19 
  -2   4   1    0.60    0.17 
  -2   4   1    1.02    0.22 
   1  -4  -1   17.46    0.87 
   1  -4  -1   18.35    0.87 
  -1   4   1   17.96    0.87 
  -1   4   1   18.55    0.88 
   0  -4  -1    5.37    0.33 
   0  -4  -1    5.36    0.32 
   0   4   1    5.40    0.32 
   0   4   1    5.54    0.34 
  -1  -4  -1   16.11    0.78 
  -1  -4  -1   16.48    0.78 
   1   4   1   15.93    0.78 
   1   4   1   17.02    0.77 
  -2  -4  -1   48.54    2.24 
  -2  -4  -1   51.14    2.25 
   2   4   1   49.92    2.24 
   2   4   1   49.60    2.24 
  -3  -4  -1    3.00    0.20 
  -3  -4  -1    3.01    0.20 
   3   4   1    2.96    0.18 
   3   4   1    3.20    0.18 
  -5  -4  -1   10.28    0.51 
  -5  -4  -1   10.13    0.50 
  -6  -4  -1    9.01    0.46 
  -6  -4  -1    8.04    0.42 
  -6  -4  -1    8.58    0.45 
  -7  -4  -1    1.05    0.16 
  -7  -4  -1    1.21    0.17 
  -8  -4  -1    2.30    0.26 
  -8  -4  -1    2.47    0.30 
  -9  -4  -1    0.38    0.25 
  -9  -4  -1    0.93    0.22 
   5  -5  -1    0.21    0.28 
   5  -5  -1    0.12    0.22 
   5  -5  -1    0.23    0.37 
  -5   5   1    0.02    0.32 
   4  -5  -1    1.86    0.32 
   4  -5  -1    1.26    0.23 
  -4   5   1    1.50    0.28 
  -4   5   1    1.54    0.36 
   3  -5  -1    0.56    0.20 
   3  -5  -1    0.79    0.26 
  -3   5   1    0.64    0.26 
   2  -5  -1    5.06    0.41 
   2  -5  -1    5.43    0.42 
  -2   5   1    6.68    0.42 
   1  -5  -1    2.66    0.28 
   1  -5  -1    2.23    0.30 
  -1   5   1    1.75    0.29 
  -1   5   1    2.53    0.35 
   0  -5  -1    2.45    0.25 
   0  -5  -1    2.42    0.26 
   0   5   1    2.49    0.27 
   0   5   1    2.45    0.25 
  -1  -5  -1    9.19    0.49 
  -1  -5  -1    8.87    0.48 
   1   5   1    9.11    0.48 
   1   5   1    9.21    0.49 
  -2  -5  -1   13.63    0.65 
  -2  -5  -1   11.96    0.64 
   2   5   1   12.58    0.64 
   2   5   1   14.77    0.64 
  -3  -5  -1    1.74    0.18 
   3   5   1    1.51    0.15 
   3   5   1    1.81    0.15 
  -4  -5  -1    0.84    0.12 
  -4  -5  -1    0.90    0.13 
  -5  -5  -1    1.20    0.18 
  -5  -5  -1    1.10    0.18 
  -6  -5  -1   36.06    1.62 
  -6  -5  -1   35.10    1.61 
  -6  -5  -1   34.70    1.62 
  -7  -5  -1    1.53    0.23 
  -7  -5  -1    1.67    0.19 
  -7  -5  -1    1.24    0.18 
  -8  -5  -1    1.30    0.20 
  -8  -5  -1    1.25    0.22 
  -9  -5  -1    0.48    0.20 
   4  -6  -1    0.50    0.28 
   4  -6  -1    0.10    0.27 
   4  -6  -1    0.58    0.34 
  -4   6   1    0.65    0.30 
   3  -6  -1   -0.24    0.23 
   3  -6  -1    0.11    0.30 
   3  -6  -1    0.31    0.18 
  -3   6   1   -0.52    0.33 
   2  -6  -1   14.56    0.81 
  -2   6   1   13.97    0.83 
   1  -6  -1   38.72    1.78 
  -1   6   1   34.40    1.77 
  -1   6   1   39.88    1.78 
   0  -6  -1    7.91    0.52 
   0   6   1    8.26    0.49 
   0   6   1    7.67    0.51 
  -1  -6  -1    0.61    0.19 
  -1  -6  -1    0.50    0.16 
   1   6   1    0.30    0.16 
   1   6   1    0.31    0.17 
  -2  -6  -1    2.32    0.25 
  -2  -6  -1    2.02    0.24 
   2   6   1    1.99    0.22 
   2   6   1    1.94    0.25 
  -3  -6  -1   35.24    1.69 
  -3  -6  -1   38.42    1.69 
   3   6   1   36.74    1.68 
   3   6   1   36.78    1.67 
  -4  -6  -1    8.22    0.45 
   4   6   1    8.65    0.40 
   4   6   1    7.95    0.40 
  -5  -6  -1    1.44    0.23 
  -5  -6  -1    1.57    0.21 
  -6  -6  -1    8.11    0.47 
  -6  -6  -1    8.63    0.46 
  -7  -6  -1   15.13    0.75 
  -7  -6  -1   15.22    0.75 
  -7  -6  -1   15.04    0.75 
  -8  -6  -1    1.36    0.23 
  -8  -6  -1    1.73    0.24 
  -8  -6  -1    1.35    0.20 
  -8  -6  -1    1.44    0.21 
  -9  -6  -1    3.17    0.41 
   3  -7  -1    1.21    0.30 
   3  -7  -1    1.12    0.30 
   3  -7  -1    1.06    0.30 
  -3   7   1    1.11    0.35 
   2  -7  -1    5.13    0.48 
   2  -7  -1    4.20    0.58 
  -2   7   1    5.42    0.51 
  -2   7   1    5.24    0.58 
   1  -7  -1    0.84    0.29 
  -1   7   1    0.61    0.29 
   0  -7  -1    0.08    0.23 
   0  -7  -1    0.13    0.15 
   0   7   1   -0.22    0.21 
  -1  -7  -1    6.13    0.42 
  -1  -7  -1    6.69    0.41 
   1   7   1    5.96    0.44 
   1   7   1    5.65    0.43 
  -2  -7  -1   13.39    0.72 
  -2  -7  -1   14.75    0.72 
   2   7   1   13.88    0.70 
   2   7   1   12.81    0.71 
  -3  -7  -1    3.90    0.33 
  -3  -7  -1    3.68    0.36 
   3   7   1    4.32    0.29 
   3   7   1    3.92    0.30 
  -4  -7  -1    9.02    0.52 
  -4  -7  -1    9.26    0.52 
   4   7   1    9.60    0.46 
   4   7   1    9.62    0.47 
  -5  -7  -1    0.75    0.16 
  -6  -7  -1    0.80    0.18 
  -6  -7  -1    0.55    0.16 
  -7  -7  -1    0.14    0.16 
  -7  -7  -1    0.11    0.14 
  -7  -7  -1    0.06    0.17 
  -8  -7  -1    9.12    0.54 
  -8  -7  -1   10.04    0.56 
  -8  -7  -1    8.54    0.53 
  -9  -7  -1    2.84    0.42 
   2  -8  -1    3.69    0.56 
   2  -8  -1    4.32    0.53 
  -2   8   1    3.81    0.53 
   1  -8  -1    1.54    0.32 
   1  -8  -1    1.52    0.28 
  -1   8   1    1.86    0.33 
  -1   8   1    2.52    0.37 
   0  -8  -1    1.51    0.26 
   0  -8  -1    1.15    0.30 
   0   8   1    1.21    0.30 
  -1  -8  -1    3.06    0.42 
  -1  -8  -1    3.09    0.35 
  -2  -8  -1    4.80    0.42 
  -2  -8  -1    4.40    0.44 
   2   8   1    5.23    0.40 
  -3  -8  -1    7.29    0.48 
   3   8   1    6.94    0.44 
   3   8   1    7.36    0.43 
   4   8   1    2.02    0.23 
   4   8   1    1.57    0.20 
  -5  -8  -1    0.21    0.18 
  -5  -8  -1    0.38    0.17 
  -6  -8  -1    2.41    0.33 
  -6  -8  -1    1.94    0.32 
  -7  -8  -1    2.21    0.26 
   1  -9  -1    0.76    0.31 
  -1   9   1    0.30    0.32 
   0  -9  -1    0.42    0.35 
   0  -9  -1    1.28    0.30 
   0   9   1    2.48    0.42 
   0   9   1    1.26    0.32 
  -1  -9  -1    0.13    0.24 
  -1  -9  -1    0.41    0.31 
   1   9   1    0.29    0.26 
  -2  -9  -1   12.80    0.81 
  -2  -9  -1   12.70    0.77 
   2   9   1   14.46    0.77 
  -3  -9  -1    5.60    0.51 
  -3  -9  -1    4.62    0.44 
   3   9   1    5.08    0.43 
   3   9   1    5.72    0.44 
  -4  -9  -1    0.34    0.21 
  -4  -9  -1    0.39    0.24 
   4   9   1    0.32    0.15 
   4   9   1    0.43    0.17 
  -5  -9  -1    2.57    0.41 
  -5  -9  -1    2.67    0.35 
  -6  -9  -1    0.76    0.21 
  -6  -9  -1    0.63    0.23 
  -8  -9  -1    0.57    0.23 
  -8  -9  -1    0.63    0.28 
  -1 -10  -1    0.66    0.30 
   1  10   1    1.59    0.38 
  -2 -10  -1    3.04    0.44 
  -2 -10  -1    2.71    0.36 
   2  10   1    2.73    0.45 
   2  10   1    3.69    0.51 
  -3 -10  -1    2.97    0.45 
  -3 -10  -1    3.31    0.51 
  -4 -10  -1    1.47    0.35 
  -4 -10  -1    1.10    0.26 
   4  10   1    1.03    0.21 
   4  10   1    1.16    0.20 
  -5 -10  -1    0.44    0.31 
  -5 -10  -1    0.31    0.22 
   5  10   1    0.39    0.09 
   5  10   1    0.17    0.15 
  -6 -10  -1    0.21    0.28 
  -6 -10  -1    0.08    0.23 
  -7 -10  -1    0.30    0.30 
  -7 -10  -1    0.11    0.24 
  -6 -10   2    0.44    0.21 
  -6 -10   2    0.75    0.28 
  -5 -10   2    0.14    0.22 
  -5 -10   2    0.00    0.26 
  -4 -10   2    0.31    0.23 
  -4 -10   2   -0.18    0.29 
   3  10  -2    0.07    0.17 
   3  10  -2   -0.13    0.18 
  -3 -10   2    0.33    0.25 
  -3 -10   2    0.55    0.34 
  -2 -10   2    0.66    0.28 
  -2 -10   2    1.04    0.29 
   1  10  -2    0.65    0.36 
  -1 -10   2    0.32    0.30 
  -8  -9   2    2.59    0.45 
  -8  -9   2    2.27    0.30 
  -7  -9   2    1.32    0.21 
  -7  -9   2    1.83    0.25 
  -6  -9   2    2.91    0.33 
  -5  -9   2    2.34    0.37 
  -4  -9   2    1.21    0.23 
  -4  -9   2    1.83    0.28 
   3   9  -2    2.82    0.28 
   3   9  -2    2.91    0.29 
  -3  -9   2    2.50    0.37 
  -3  -9   2    2.58    0.42 
   2   9  -2    4.14    0.40 
  -2  -9   2    3.59    0.42 
  -2  -9   2    4.43    0.51 
   1   9  -2   -0.08    0.18 
   1   9  -2   -0.03    0.28 
  -1  -9   2    0.28    0.31 
  -1  -9   2    0.12    0.25 
   0   9  -2   -0.72    0.35 
   0   9  -2   -0.53    0.27 
   0  -9   2    0.09    0.26 
   0  -9   2    0.15    0.26 
  -1   9  -2   -0.13    0.31 
  -1   9  -2    0.76    0.34 
   1  -9   2    0.85    0.31 
  -8  -8   2    8.02    0.50 
  -8  -8   2   10.46    0.63 
  -7  -8   2   -0.03    0.14 
  -7  -8   2   -0.05    0.16 
  -6  -8   2    5.01    0.35 
  -6  -8   2    4.97    0.35 
  -5  -8   2    3.57    0.33 
  -5  -8   2    3.09    0.29 
  -4  -8   2   17.11    0.87 
  -4  -8   2   16.85    0.85 
  -3  -8   2    1.08    0.25 
   2   8  -2   10.88    0.60 
  -2  -8   2   11.86    0.67 
  -2  -8   2   10.83    0.63 
   0   8  -2    3.50    0.47 
   0  -8   2    2.93    0.48 
   0  -8   2    2.96    0.40 
  -1   8  -2   -0.03    0.32 
  -1   8  -2    0.07    0.26 
   1  -8   2    0.19    0.25 
   1  -8   2   -0.13    0.23 
  -2   8  -2    1.75    0.36 
  -2   8  -2    1.65    0.36 
   2  -8   2    1.64    0.34 
  -8  -7   2    6.11    0.47 
  -8  -7   2    6.27    0.39 
  -8  -7   2    5.41    0.36 
  -7  -7   2    0.32    0.23 
  -7  -7   2    0.00    0.11 
  -7  -7   2    0.04    0.13 
  -6  -7   2    7.70    0.41 
  -5  -7   2    3.73    0.26 
  -5  -7   2    3.62    0.28 
  -4  -7   2    0.15    0.13 
  -4  -7   2    0.19    0.13 
   3   7  -2    0.53    0.10 
   3   7  -2    0.51    0.10 
  -3  -7   2    0.44    0.16 
  -3  -7   2    0.50    0.15 
   2   7  -2   37.90    1.73 
  -2  -7   2   37.97    1.76 
  -2  -7   2   37.58    1.76 
   1   7  -2    5.17    0.38 
   1   7  -2    4.81    0.38 
  -1  -7   2    5.56    0.42 
  -1  -7   2    4.98    0.39 
   0   7  -2    2.40    0.33 
   0  -7   2    1.62    0.25 
   0  -7   2    1.52    0.27 
  -1   7  -2    1.14    0.26 
   1  -7   2    1.07    0.30 
   1  -7   2    0.91    0.28 
  -2   7  -2   14.74    0.86 
  -2   7  -2   15.08    0.91 
   2  -7   2   15.28    0.92 
  -3   7  -2    0.63    0.30 
  -3   7  -2    0.86    0.36 
   3  -7   2    1.14    0.34 
   3  -7   2    1.69    0.32 
  -9  -6   2    0.10    0.14 
  -8  -6   2    0.11    0.13 
  -8  -6   2    0.35    0.17 
  -8  -6   2    0.12    0.11 
  -7  -6   2    1.35    0.18 
  -7  -6   2    0.76    0.12 
  -7  -6   2    0.95    0.19 
  -6  -6   2   10.21    0.50 
  -6  -6   2   10.11    0.50 
  -5  -6   2   13.56    0.65 
  -4  -6   2   16.93    0.80 
  -4  -6   2   16.71    0.80 
   3   6  -2    0.10    0.05 
  -3  -6   2    0.24    0.12 
  -3  -6   2    0.11    0.11 
   2   6  -2    5.94    0.33 
  -2  -6   2    5.74    0.37 
  -2  -6   2    5.50    0.38 
   1   6  -2   40.79    1.84 
   1   6  -2   41.12    1.85 
  -1  -6   2   38.01    1.86 
  -1  -6   2   40.77    1.86 
   0   6  -2   -0.01    0.16 
   0   6  -2    0.01    0.18 
   0  -6   2    0.12    0.20 
   0  -6   2    0.27    0.15 
  -1   6  -2    3.39    0.36 
  -1   6  -2    3.02    0.35 
   1  -6   2    3.92    0.40 
  -2   6  -2    6.08    0.52 
   2  -6   2    6.17    0.50 
  -3   6  -2    9.95    0.71 
  -3   6  -2   10.17    0.65 
   3  -6   2   10.74    0.65 
   3  -6   2   10.14    0.72 
  -4   6  -2    2.06    0.38 
  -4   6  -2    1.96    0.48 
   4  -6   2    2.42    0.37 
   4  -6   2    1.95    0.34 
  -9  -5   2   -0.14    0.18 
  -8  -5   2    1.06    0.16 
  -8  -5   2    1.17    0.16 
  -8  -5   2    1.18    0.14 
  -7  -5   2    1.42    0.23 
  -7  -5   2    0.86    0.12 
  -7  -5   2    0.97    0.12 
  -6  -5   2    3.84    0.23 
  -6  -5   2    4.44    0.33 
  -6  -5   2    3.67    0.22 
  -5  -5   2    0.28    0.07 
  -5  -5   2    0.34    0.07 
  -4  -5   2   20.28    0.93 
  -3  -5   2    8.55    0.43 
  -3  -5   2    8.74    0.43 
   2   5  -2    1.17    0.13 
   2   5  -2    1.13    0.13 
  -2  -5   2    0.89    0.12 
  -2  -5   2    1.06    0.13 
   1   5  -2   30.17    1.38 
   1   5  -2   29.48    1.38 
  -1  -5   2   29.90    1.39 
  -1  -5   2   30.58    1.39 
   0   5  -2   17.83    0.86 
   0   5  -2   17.11    0.87 
   0  -5   2   18.31    0.87 
   0  -5   2   18.05    0.87 
  -1   5  -2   29.09    1.41 
  -1   5  -2   29.70    1.42 
   1  -5   2   30.54    1.43 
   1  -5   2   30.69    1.42 
  -2   5  -2    1.82    0.29 
  -2   5  -2    1.92    0.25 
  -3   5  -2    8.21    0.59 
   3  -5   2    8.52    0.58 
  -4   5  -2    3.05    0.41 
   4  -5   2    3.22    0.41 
   4  -5   2    3.00    0.47 
  -5   5  -2    6.84    0.64 
   5  -5   2    8.25    0.68 
   5  -5   2    5.90    0.55 
  -9  -4   2    0.00    0.20 
  -9  -4   2    0.02    0.19 
  -8  -4   2    1.33    0.17 
  -8  -4   2    1.26    0.19 
  -7  -4   2    1.42    0.15 
  -7  -4   2    1.46    0.17 
  -7  -4   2    1.53    0.16 
  -6  -4   2   -0.03    0.08 
  -6  -4   2   -0.05    0.11 
  -6  -4   2   -0.08    0.07 
  -5  -4   2   19.86    0.86 
  -5  -4   2   18.28    0.90 
  -5  -4   2   19.09    0.86 
  -4  -4   2   85.17    3.63 
  -4  -4   2   77.99    3.63 
  -3  -4   2    3.68    0.19 
   2   4  -2   28.20    1.33 
   2   4  -2   30.45    1.33 
  -2  -4   2   30.22    1.35 
  -2  -4   2   30.43    1.35 
   1   4  -2  100.83    4.54 
   1   4  -2  102.91    4.54 
  -1  -4   2  100.35    4.55 
  -1  -4   2  102.74    4.55 
   0   4  -2   52.92    2.37 
   0  -4   2   50.38    2.37 
   0  -4   2   53.89    2.37 
  -1   4  -2    2.27    0.23 
  -1   4  -2    2.42    0.25 
   1  -4   2    2.48    0.24 
   1  -4   2    2.21    0.23 
  -2   4  -2    0.53    0.20 
  -2   4  -2    0.52    0.17 
   2  -4   2    0.26    0.18 
   2  -4   2    0.91    0.19 
  -3   4  -2    6.35    0.44 
   3  -4   2    7.67    0.44 
   3  -4   2    5.37    0.45 
  -4   4  -2    8.44    0.59 
  -5   4  -2    3.27    0.45 
  -5   4  -2    2.76    0.38 
   5  -4   2    3.63    0.49 
  -6   4  -2   -0.17    0.33 
   6  -4   2    0.24    0.20 
   6  -4   2    0.07    0.27 
   6  -4   2    0.79    0.35 
  -8  -3   2    1.29    0.20 
  -8  -3   2    1.89    0.31 
  -7  -3   2    0.98    0.13 
  -7  -3   2    1.04    0.17 
  -6  -3   2   20.13    0.95 
  -6  -3   2   19.82    0.95 
  -6  -3   2   21.59    0.94 
  -5  -3   2    2.07    0.13 
  -5  -3   2    2.21    0.17 
  -5  -3   2    1.99    0.14 
  -4  -3   2   78.29    3.51 
  -2  -3   2   32.42    1.49 
  -2  -3   2   34.27    1.49 
   1   3  -2   19.49    0.88 
   1   3  -2   19.29    0.87 
  -1  -3   2   19.17    0.88 
  -1  -3   2   19.03    0.88 
   0   3  -2    0.01    0.08 
   0   3  -2   -0.06    0.09 
   0  -3   2    0.07    0.08 
   0  -3   2    0.06    0.09 
  -1   3  -2    7.97    0.43 
  -1   3  -2    7.92    0.42 
   1  -3   2    8.26    0.42 
   1  -3   2    8.12    0.42 
  -2   3  -2    0.11    0.14 
  -2   3  -2    0.26    0.13 
   2  -3   2    0.18    0.13 
   2  -3   2    0.36    0.13 
  -3   3  -2    5.27    0.40 
  -3   3  -2    5.18    0.39 
   3  -3   2    5.91    0.38 
   3  -3   2    6.03    0.40 
  -4   3  -2    0.98    0.21 
   4  -3   2    1.00    0.24 
  -5   3  -2   -0.11    0.24 
  -5   3  -2   -0.09    0.22 
   5  -3   2   -0.11    0.19 
  -6   3  -2    0.81    0.34 
  -6   3  -2    0.50    0.29 
   6  -3   2    0.83    0.31 
   6  -3   2    0.37    0.15 
   6  -3   2    0.42    0.16 
  -7   3  -2    0.48    0.32 
   7  -3   2    0.08    0.29 
   7  -3   2    0.63    0.39 
  -9  -2   2    0.44    0.30 
  -9  -2   2   -0.01    0.24 
  -8  -2   2   11.12    0.62 
  -7  -2   2    3.56    0.30 
  -7  -2   2    3.42    0.29 
  -6  -2   2   10.81    0.54 
  -6  -2   2   10.71    0.55 
  -5  -2   2    1.19    0.12 
  -5  -2   2    1.03    0.14 
  -5  -2   2    1.03    0.14 
  -4  -2   2   10.77    0.53 
  -4  -2   2   11.23    0.54 
  -4  -2   2   12.68    0.53 
  -3  -2   2    5.15    0.27 
  -2  -2   2   14.76    0.69 
  -1  -2   2   39.68    1.78 
  -1  -2   2   40.10    1.78 
   0   2  -2  538.43   24.72 
   0   2  -2  554.01   24.74 
   0  -2   2  551.96   24.75 
   0  -2   2  574.31   24.75 
  -1   2  -2    2.39    0.17 
  -1   2  -2    2.69    0.18 
   1  -2   2    2.48    0.17 
   1  -2   2    2.49    0.17 
  -2   2  -2   12.63    0.60 
  -2   2  -2   11.87    0.60 
   2  -2   2   13.47    0.60 
   2  -2   2   10.76    0.60 
  -3   2  -2   39.49    1.87 
  -3   2  -2   42.41    1.87 
   3  -2   2   41.83    1.87 
   3  -2   2   39.21    1.86 
  -4   2  -2   15.89    0.92 
  -4   2  -2   18.90    0.93 
   4  -2   2   20.29    0.93 
   4  -2   2   19.31    0.91 
  -5   2  -2    0.36    0.20 
   5  -2   2    0.70    0.21 
   5  -2   2    0.48    0.22 
  -6   2  -2    2.02    0.33 
  -6   2  -2    1.59    0.27 
   6  -2   2    1.24    0.17 
   6  -2   2    1.63    0.20 
   6  -2   2    2.15    0.27 
  -7   2  -2    3.57    0.51 
  -7   2  -2    4.25    0.54 
   7  -2   2    4.48    0.52 
  -8  -1   2    6.89    0.51 
  -8  -1   2    7.37    0.58 
  -7  -1   2    6.36    0.48 
  -7  -1   2    9.00    0.50 
  -6  -1   2   56.67    2.51 
  -6  -1   2   53.94    2.51 
  -5  -1   2    1.20    0.19 
  -5  -1   2    1.01    0.17 
   4   1  -2   43.66    2.03 
  -4  -1   2   44.60    2.04 
  -4  -1   2   45.68    2.03 
  -4  -1   2   46.97    2.04 
   3   1  -2   15.98    0.72 
  -3  -1   2   15.66    0.72 
  -3  -1   2   15.54    0.71 
  -3  -1   2   15.56    0.71 
   2   1  -2  108.57    4.80 
  -2  -1   2  106.82    4.80 
   1   1  -2   36.54    1.65 
  -1  -1   2   37.90    1.64 
  -1  -1   2   35.98    1.65 
   0   1  -2    0.24    0.05 
   0   1  -2    0.36    0.05 
   0  -1   2    0.25    0.04 
   0  -1   2    0.27    0.05 
   0  -1   2    0.22    0.05 
  -1   1  -2   22.30    1.04 
  -1   1  -2   23.71    1.04 
   1  -1   2   22.28    1.04 
  -2   1  -2   50.69    2.21 
  -2   1  -2   45.69    2.21 
   2  -1   2   52.28    2.21 
   2  -1   2   47.76    2.21 
  -3   1  -2   79.74    3.60 
  -3   1  -2   81.44    3.60 
   3  -1   2   77.74    3.60 
   3  -1   2   81.72    3.60 
  -4   1  -2    2.27    0.24 
  -4   1  -2    1.92    0.24 
   4  -1   2    1.98    0.24 
   4  -1   2    2.16    0.24 
   4  -1   2    2.23    0.16 
  -5   1  -2    0.68    0.19 
  -5   1  -2    0.40    0.16 
   5  -1   2    0.69    0.16 
   5  -1   2    0.71    0.18 
  -6   1  -2    0.18    0.19 
  -6   1  -2    0.22    0.23 
   6  -1   2    0.14    0.21 
   6  -1   2    0.17    0.20 
  -7   1  -2    8.59    0.70 
   7  -1   2   10.09    0.64 
   7  -1   2   11.12    0.61 
  -8   0   2   -0.05    0.24 
  -8   0   2    0.15    0.34 
  -7   0   2    5.63    0.47 
  -7   0   2    4.07    0.41 
   6   0  -2   14.22    0.67 
   6   0  -2   13.59    0.67 
  -6   0   2   15.54    0.75 
  -6   0   2   15.19    0.77 
   5   0  -2    2.28    0.17 
   5   0  -2    2.36    0.17 
   5   0  -2    2.26    0.18 
  -5   0   2    2.61    0.25 
  -5   0   2    2.49    0.27 
   4   0  -2   47.05    2.16 
   4   0  -2   48.00    2.16 
   4   0  -2   48.63    2.17 
  -4   0   2   49.09    2.18 
  -4   0   2   48.43    2.19 
   3   0  -2   38.75    1.68 
   3   0  -2   36.17    1.67 
   3   0  -2   36.75    1.67 
  -3   0   2   36.98    1.68 
  -3   0   2   36.90    1.68 
  -3   0   2   38.14    1.68 
   2   0  -2   98.40    4.10 
   2   0  -2   90.84    4.08 
   2   0  -2   94.34    4.09 
  -2   0   2   88.83    4.08 
  -2   0   2   88.42    4.08 
  -2   0   2   88.48    4.08 
   1   0  -2    0.03    0.03 
   1   0  -2   -0.04    0.04 
   1   0  -2   -0.06    0.03 
  -1   0   2    0.03    0.04 
  -1   0   2   -0.02    0.04 
  -1   0   2   -0.01    0.04 
   0   0  -2  480.86   21.46 
   0   0  -2  478.82   21.42 
   0   0   2  483.77   21.48 
  -1   0  -2   10.86    0.49 
  -1   0  -2   10.99    0.49 
  -1   0  -2   10.43    0.49 
   1   0   2   11.06    0.49 
   1   0   2    9.58    0.49 
   1   0   2   10.46    0.49 
  -2   0  -2   24.36    1.24 
   2   0   2   31.12    1.25 
   2   0   2   26.91    1.23 
  -3   0  -2   19.55    0.91 
  -3   0  -2   21.11    0.91 
   3   0   2   18.46    0.89 
   3   0   2   19.43    0.91 
   3   0   2   19.66    0.91 
  -4   0  -2    8.29    0.45 
  -4   0  -2    8.37    0.44 
   4   0   2    7.17    0.38 
   4   0   2    8.59    0.43 
   4   0   2    8.75    0.43 
  -5   0  -2    0.83    0.17 
  -5   0  -2    1.01    0.18 
   5   0   2    0.86    0.17 
   5   0   2    0.91    0.16 
  -6   0  -2    2.10    0.34 
  -7   0  -2    0.79    0.24 
  -7   0  -2    0.72    0.26 
   7   0   2    1.08    0.19 
   7   0   2    0.93    0.20 
  -8   0  -2    4.19    0.58 
   8   0   2    3.82    0.36 
   8   0   2    2.90    0.35 
  -8   1   2    0.28    0.31 
  -8   1   2    0.20    0.33 
   7  -1  -2    5.45    0.35 
   7  -1  -2    5.34    0.36 
  -7   1   2    5.38    0.56 
  -7   1   2    6.54    0.50 
   6  -1  -2    5.59    0.36 
   6  -1  -2    5.57    0.31 
   6  -1  -2    5.21    0.35 
  -6   1   2    6.11    0.44 
   5  -1  -2    1.46    0.17 
   5  -1  -2    1.59    0.16 
   5  -1  -2    1.13    0.18 
  -5   1   2    1.37    0.20 
  -5   1   2    1.21    0.22 
   4  -1  -2    0.42    0.10 
   4  -1  -2    0.33    0.11 
   4  -1  -2    0.55    0.11 
  -4   1   2    0.42    0.16 
  -4   1   2    0.47    0.14 
   3  -1  -2    6.37    0.35 
   3  -1  -2    7.08    0.35 
   3  -1  -2    6.67    0.35 
  -3   1   2    6.60    0.36 
  -3   1   2    6.44    0.37 
   2  -1  -2   48.15    2.16 
   2  -1  -2   47.82    2.16 
   2  -1  -2   48.35    2.17 
  -2   1   2   47.60    2.17 
  -2   1   2   48.51    2.16 
  -2   1   2   48.35    2.17 
   1  -1  -2    0.65    0.08 
   1  -1  -2    0.45    0.07 
   1  -1  -2    0.52    0.08 
  -1   1   2    0.57    0.08 
  -1   1   2    0.61    0.10 
  -1   1   2    0.48    0.08 
   0  -1  -2    2.09    0.13 
   0  -1  -2    1.68    0.11 
   0  -1  -2    1.78    0.12 
   0   1   2    1.94    0.12 
  -1  -1  -2   57.40    2.55 
  -1  -1  -2   57.07    2.55 
  -1  -1  -2   55.02    2.55 
   1   1   2   57.99    2.55 
   1   1   2   57.37    2.55 
   1   1   2   57.46    2.55 
  -2  -1  -2   78.71    3.61 
  -2  -1  -2   86.87    3.62 
  -2  -1  -2   71.89    3.61 
   2   1   2   82.33    3.61 
   2   1   2   82.83    3.61 
   2   1   2   82.92    3.61 
  -3  -1  -2   31.15    1.47 
  -3  -1  -2   35.75    1.49 
  -3  -1  -2   30.79    1.48 
   3   1   2   33.45    1.48 
   3   1   2   33.68    1.48 
   3   1   2   32.07    1.47 
  -4  -1  -2   11.56    0.57 
  -4  -1  -2   11.44    0.57 
   4   1   2   12.31    0.56 
   4   1   2   11.33    0.56 
  -5  -1  -2   15.14    0.77 
  -5  -1  -2   16.26    0.79 
   5   1   2   15.75    0.76 
   5   1   2   16.88    0.76 
  -6  -1  -2    8.73    0.50 
  -6  -1  -2    8.43    0.52 
   6   1   2    9.24    0.46 
   6   1   2    8.43    0.47 
  -7  -1  -2    4.92    0.41 
   7   1   2    5.01    0.32 
   7   1   2    4.51    0.33 
  -8  -1  -2    0.59    0.29 
  -8  -1  -2    0.71    0.25 
   8   1   2    0.51    0.14 
   8   1   2    0.49    0.12 
  -9  -1  -2    0.58    0.29 
  -9  -1  -2    0.56    0.34 
   7  -2  -2    0.36    0.21 
   7  -2  -2    0.21    0.11 
   7  -2  -2    0.30    0.22 
  -7   2   2    0.43    0.29 
  -7   2   2    0.75    0.35 
   6  -2  -2    0.70    0.18 
   6  -2  -2    0.84    0.20 
   6  -2  -2    0.52    0.14 
  -6   2   2    0.61    0.24 
  -6   2   2    0.66    0.27 
   5  -2  -2    6.94    0.43 
   5  -2  -2    6.68    0.44 
   5  -2  -2    6.57    0.40 
  -5   2   2    8.42    0.47 
  -5   2   2    7.15    0.48 
   4  -2  -2   31.91    1.51 
   4  -2  -2   33.43    1.52 
   4  -2  -2   31.63    1.52 
  -4   2   2   33.74    1.54 
  -4   2   2   33.69    1.54 
   3  -2  -2   37.42    1.68 
   3  -2  -2   37.53    1.68 
   3  -2  -2   38.49    1.68 
  -3   2   2   35.48    1.69 
  -3   2   2   34.67    1.69 
   2  -2  -2    4.89    0.30 
   2  -2  -2    5.23    0.29 
   2  -2  -2    4.56    0.29 
  -2   2   2    4.92    0.31 
  -2   2   2    5.14    0.30 
   1  -2  -2   25.37    1.14 
   1  -2  -2   25.85    1.13 
   1  -2  -2   24.20    1.13 
  -1   2   2   24.63    1.13 
  -1   2   2   23.27    1.13 
   0  -2  -2    1.72    0.14 
   0  -2  -2    1.76    0.14 
   0  -2  -2    1.85    0.15 
   0   2   2    1.84    0.14 
   0   2   2    1.63    0.15 
  -1  -2  -2   40.18    1.80 
  -1  -2  -2   40.30    1.80 
  -1  -2  -2   40.67    1.80 
   1   2   2   39.11    1.80 
   1   2   2   39.68    1.80 
  -2  -2  -2    7.45    0.37 
  -2  -2  -2    7.25    0.37 
  -2  -2  -2    7.50    0.37 
   2   2   2    8.14    0.37 
  -3  -2  -2    1.60    0.12 
  -3  -2  -2    1.37    0.13 
  -3  -2  -2    1.72    0.14 
  -4  -2  -2   11.47    0.54 
  -4  -2  -2   11.32    0.56 
  -4  -2  -2   11.99    0.57 
   4   2   2   11.64    0.55 
   4   2   2   11.90    0.55 
  -5  -2  -2   14.36    0.68 
  -5  -2  -2   12.96    0.67 
   5   2   2   13.63    0.65 
   5   2   2   14.32    0.65 
  -6  -2  -2    2.72    0.27 
  -6  -2  -2    2.53    0.26 
   6   2   2    3.02    0.21 
   6   2   2    2.79    0.20 
  -7  -2  -2   -0.25    0.16 
  -7  -2  -2    0.28    0.17 
   7   2   2   -0.13    0.08 
   7   2   2   -0.18    0.09 
  -8  -2  -2   -0.29    0.25 
  -9  -2  -2    0.45    0.27 
  -9  -2  -2   -0.09    0.33 
   6  -3  -2    3.92    0.35 
   6  -3  -2    3.11    0.38 
  -6   3   2    3.57    0.57 
  -6   3   2    3.14    0.48 
   5  -3  -2    2.65    0.32 
  -5   3   2    3.11    0.40 
  -5   3   2    2.69    0.43 
   4  -3  -2    8.49    0.56 
   4  -3  -2   10.11    0.53 
   4  -3  -2   10.03    0.57 
  -4   3   2   10.10    0.57 
   3  -3  -2    0.36    0.17 
   3  -3  -2    0.49    0.16 
   3  -3  -2    0.36    0.14 
  -3   3   2    0.28    0.21 
  -3   3   2    0.21    0.16 
   2  -3  -2   35.09    1.59 
   2  -3  -2   35.50    1.59 
   2  -3  -2   35.31    1.59 
  -2   3   2   31.87    1.59 
  -2   3   2   34.15    1.59 
   1  -3  -2   14.09    0.69 
   1  -3  -2   14.17    0.68 
   1  -3  -2   14.08    0.68 
  -1   3   2   13.80    0.68 
  -1   3   2   14.45    0.69 
   0  -3  -2   63.94    2.89 
   0  -3  -2   63.34    2.89 
   0  -3  -2   64.54    2.90 
   0   3   2   65.69    2.90 
   0   3   2   64.21    2.89 
  -1  -3  -2    4.81    0.27 
  -1  -3  -2    4.66    0.27 
  -1  -3  -2    5.28    0.28 
   1   3   2    4.89    0.27 
   1   3   2    4.70    0.26 
  -2  -3  -2  134.93    5.98 
  -2  -3  -2  137.13    5.99 
  -2  -3  -2  130.32    5.98 
   2   3   2  131.19    5.97 
   2   3   2  136.99    5.98 
  -5  -3  -2   18.00    0.85 
  -5  -3  -2   17.16    0.85 
  -5  -3  -2   18.24    0.82 
   5   3   2   17.77    0.82 
   5   3   2   18.69    0.82 
  -6  -3  -2   24.02    1.10 
  -6  -3  -2   22.51    1.09 
  -7  -3  -2    2.95    0.29 
  -7  -3  -2    2.23    0.31 
  -9  -3  -2    0.15    0.24 
  -9  -3  -2    0.30    0.29 
   6  -4  -2    1.46    0.41 
   6  -4  -2    0.90    0.25 
   6  -4  -2    1.27    0.35 
  -6   4   2    1.09    0.34 
   5  -4  -2    0.71    0.29 
   5  -4  -2    0.66    0.21 
   5  -4  -2    1.08    0.25 
  -5   4   2    1.25    0.29 
  -5   4   2    0.60    0.35 
   4  -4  -2    8.97    0.55 
   4  -4  -2    9.29    0.56 
   4  -4  -2   10.54    0.58 
  -4   4   2    8.66    0.59 
  -4   4   2    8.57    0.61 
   3  -4  -2   14.03    0.80 
   3  -4  -2   16.33    0.80 
   3  -4  -2   15.37    0.82 
  -3   4   2   15.36    0.82 
  -3   4   2   16.95    0.82 
   2  -4  -2   30.14    1.38 
   2  -4  -2   29.68    1.38 
   2  -4  -2   30.55    1.38 
  -2   4   2   30.53    1.40 
  -2   4   2   25.43    1.38 
   1  -4  -2   37.69    1.78 
   1  -4  -2   41.32    1.79 
   1  -4  -2   38.76    1.78 
  -1   4   2   39.43    1.79 
  -1   4   2   36.62    1.79 
   0  -4  -2    5.02    0.31 
   0  -4  -2    5.59    0.32 
   0   4   2    5.04    0.34 
   0   4   2    5.03    0.32 
  -1  -4  -2   28.26    1.27 
  -1  -4  -2   26.96    1.27 
   1   4   2   27.38    1.27 
  -2  -4  -2   51.23    2.36 
  -2  -4  -2   51.38    2.36 
   2   4   2   53.49    2.36 
   2   4   2   53.04    2.35 
  -3  -4  -2    6.08    0.34 
  -3  -4  -2    6.77    0.34 
   3   4   2    6.16    0.32 
   3   4   2    6.01    0.32 
  -4  -4  -2    7.57    0.42 
  -4  -4  -2    8.30    0.42 
  -4  -4  -2    7.97    0.41 
   4   4   2    8.25    0.39 
   4   4   2    8.14    0.39 
  -5  -4  -2   17.29    0.83 
  -5  -4  -2   17.76    0.83 
  -5  -4  -2   17.64    0.83 
  -6  -4  -2    4.11    0.31 
  -6  -4  -2    3.90    0.25 
  -6  -4  -2    4.18    0.30 
  -7  -4  -2    1.19    0.17 
  -7  -4  -2    1.18    0.19 
  -9  -4  -2    2.35    0.37 
  -9  -4  -2    2.39    0.34 
   5  -5  -2    1.94    0.29 
   5  -5  -2    1.85    0.31 
   5  -5  -2    2.32    0.41 
  -5   5   2    1.22    0.35 
   4  -5  -2    0.70    0.28 
   4  -5  -2    0.68    0.22 
  -4   5   2    0.68    0.34 
  -4   5   2    0.64    0.28 
   3  -5  -2    5.92    0.49 
   3  -5  -2    7.46    0.50 
  -3   5   2    5.38    0.52 
   2  -5  -2    1.10    0.21 
   2  -5  -2    0.87    0.21 
   2  -5  -2    0.97    0.22 
   1  -5  -2   41.07    1.90 
   1  -5  -2   39.74    1.90 
   1  -5  -2   41.41    1.90 
  -1   5   2   39.67    1.90 
  -1   5   2   42.70    1.91 
   0  -5  -2   13.39    0.67 
   0  -5  -2   12.62    0.66 
   0   5   2   12.40    0.67 
   0   5   2   12.71    0.66 
  -1  -5  -2    0.57    0.14 
  -1  -5  -2    0.48    0.13 
   1   5   2    0.65    0.17 
  -2  -5  -2    0.43    0.12 
  -2  -5  -2    0.38    0.12 
   2   5   2    0.21    0.10 
   2   5   2    0.42    0.13 
  -3  -5  -2   41.18    1.86 
   3   5   2   38.57    1.85 
   3   5   2   42.84    1.86 
  -4  -5  -2   -0.13    0.10 
  -4  -5  -2   -0.04    0.09 
   4   5   2   -0.18    0.08 
  -5  -5  -2    9.33    0.48 
  -5  -5  -2    9.23    0.49 
  -5  -5  -2    9.05    0.48 
  -6  -5  -2    8.66    0.50 
  -6  -5  -2   10.46    0.52 
  -6  -5  -2   10.21    0.52 
  -7  -5  -2    1.01    0.18 
  -7  -5  -2    0.97    0.16 
  -7  -5  -2    0.90    0.12 
  -8  -5  -2    0.04    0.19 
  -9  -5  -2    1.04    0.27 
  -9  -5  -2    1.34    0.23 
   4  -6  -2    3.38    0.48 
   4  -6  -2    5.07    0.60 
  -4   6   2    3.56    0.53 
   3  -6  -2   -0.31    0.28 
   3  -6  -2    0.03    0.17 
   3  -6  -2    0.00    0.24 
  -3   6   2   -0.48    0.32 
   2  -6  -2    1.30    0.27 
   2  -6  -2    1.87    0.27 
  -2   6   2    1.35    0.32 
   1  -6  -2   10.13    0.63 
   1  -6  -2   10.79    0.63 
  -1   6   2   10.09    0.61 
  -1   6   2   10.91    0.65 
   0  -6  -2   22.48    1.05 
   0   6   2   20.21    1.06 
   0   6   2   21.52    1.07 
  -1  -6  -2   16.17    0.89 
  -1  -6  -2   18.30    0.90 
   1   6   2   19.38    0.90 
  -2  -6  -2    0.42    0.15 
  -2  -6  -2    0.47    0.16 
   2   6   2    0.77    0.15 
   2   6   2    0.57    0.18 
  -3  -6  -2    0.48    0.14 
   3   6   2    0.54    0.14 
  -4  -6  -2    9.10    0.51 
   4   6   2    9.78    0.47 
   4   6   2    9.33    0.47 
  -5  -6  -2   13.01    0.65 
  -5  -6  -2   13.19    0.65 
   5   6   2   12.35    0.59 
  -6  -6  -2    1.93    0.25 
  -6  -6  -2    1.93    0.27 
  -6  -6  -2    1.77    0.25 
  -7  -6  -2    0.31    0.14 
  -7  -6  -2    0.46    0.16 
  -7  -6  -2    0.31    0.15 
  -9  -6  -2    4.76    0.49 
  -9  -6  -2    4.74    0.42 
   3  -7  -2   -0.32    0.26 
   3  -7  -2   -0.16    0.28 
   3  -7  -2    0.02    0.27 
  -3   7   2    0.47    0.33 
   2  -7  -2    3.45    0.53 
   2  -7  -2    2.14    0.31 
  -2   7   2    3.03    0.46 
  -2   7   2    2.49    0.41 
   1  -7  -2    3.24    0.44 
   1  -7  -2    2.27    0.44 
  -1   7   2    2.88    0.44 
   0  -7  -2    7.79    0.52 
   0   7   2    6.49    0.49 
   0   7   2    7.87    0.55 
  -1  -7  -2    4.31    0.39 
  -1  -7  -2    2.80    0.35 
  -2  -7  -2    7.56    0.47 
   2   7   2    6.11    0.45 
   2   7   2    6.53    0.44 
  -3  -7  -2   33.20    1.67 
  -3  -7  -2   35.99    1.68 
   3   7   2   37.70    1.66 
   3   7   2   36.97    1.67 
  -4  -7  -2    3.80    0.32 
  -4  -7  -2    3.63    0.35 
   4   7   2    3.76    0.25 
   4   7   2    3.42    0.28 
  -5  -7  -2    0.15    0.15 
   5   7   2    0.26    0.08 
   5   7   2    0.28    0.08 
  -6  -7  -2    0.35    0.22 
  -6  -7  -2    0.93    0.21 
  -6  -7  -2    0.77    0.19 
  -7  -7  -2    2.78    0.33 
  -7  -7  -2    2.63    0.32 
  -7  -7  -2    3.26    0.34 
  -8  -7  -2    0.59    0.17 
  -9  -7  -2    0.03    0.26 
  -9  -7  -2   -0.06    0.20 
   2  -8  -2    0.31    0.32 
   2  -8  -2    0.61    0.32 
  -2   8   2    0.55    0.35 
   1  -8  -2    0.41    0.27 
   1  -8  -2    0.61    0.31 
   1  -8  -2    0.34    0.28 
  -1   8   2    0.35    0.35 
  -1   8   2   -0.11    0.29 
   0  -8  -2    8.15    0.59 
   0  -8  -2    8.58    0.64 
   0   8   2    8.36    0.61 
  -1  -8  -2    5.56    0.49 
  -1  -8  -2    5.40    0.46 
   1   8   2    5.41    0.50 
  -2  -8  -2    3.25    0.41 
  -2  -8  -2    2.44    0.36 
   2   8   2    2.99    0.35 
  -3  -8  -2    1.21    0.24 
  -3  -8  -2    1.15    0.22 
   3   8   2    1.06    0.21 
   3   8   2    0.82    0.21 
  -4  -8  -2    3.08    0.34 
   4   8   2    3.08    0.27 
   4   8   2    2.81    0.29 
  -5  -8  -2    3.56    0.37 
   5   8   2    2.59    0.22 
   5   8   2    2.88    0.21 
  -6  -8  -2    2.09    0.28 
  -7  -8  -2    5.41    0.45 
  -7  -8  -2    5.76    0.48 
   1  -9  -2    2.09    0.43 
  -1   9   2    2.72    0.39 
   0  -9  -2    1.69    0.34 
   0  -9  -2    1.03    0.33 
   0   9   2    1.44    0.34 
   0   9   2    1.26    0.34 
  -1  -9  -2    0.36    0.28 
  -1  -9  -2    0.30    0.25 
  -1  -9  -2    0.25    0.23 
   1   9   2   -0.26    0.29 
  -2  -9  -2    6.62    0.51 
  -2  -9  -2    6.12    0.59 
   2   9   2    6.58    0.54 
  -3  -9  -2   13.07    0.74 
  -3  -9  -2   13.29    0.78 
   3   9   2   12.35    0.70 
  -4  -9  -2    7.24    0.51 
  -4  -9  -2    7.43    0.56 
   4   9   2    7.26    0.46 
   4   9   2    7.52    0.45 
  -5  -9  -2    2.56    0.36 
  -5  -9  -2    2.14    0.28 
   5   9   2    1.85    0.21 
   5   9   2    2.00    0.21 
  -6  -9  -2    0.72    0.25 
  -6  -9  -2    0.45    0.21 
  -6  -9  -2    0.53    0.27 
  -7  -9  -2    0.73    0.23 
  -7  -9  -2    0.77    0.28 
  -7  -9  -2    0.34    0.26 
  -8  -9  -2    1.06    0.27 
  -8  -9  -2    0.75    0.26 
  -1 -10  -2    1.05    0.32 
   1  10   2    0.96    0.34 
   1  10   2    1.11    0.31 
  -2 -10  -2    0.89    0.31 
   2  10   2    1.31    0.32 
   2  10   2    1.24    0.31 
  -3 -10  -2    0.37    0.27 
  -3 -10  -2    0.45    0.30 
   3  10   2   -0.05    0.22 
   3  10   2    0.49    0.26 
  -4 -10  -2    1.31    0.35 
   4  10   2    0.56    0.25 
  -5 -10  -2   -0.02    0.28 
  -5 -10  -2    0.18    0.24 
  -5 -10  -2    0.53    0.33 
   5  10   2    0.09    0.16 
   5  10   2    0.35    0.14 
  -6 -10  -2    4.35    0.46 
  -6 -10  -2    4.02    0.45 
  -6 -10  -2    3.89    0.54 
  -7 -10  -2    1.62    0.28 
  -7 -10  -2    1.22    0.33 
  -7 -10  -2    1.66    0.36 
  -6 -10   3    0.63    0.22 
  -6 -10   3    0.78    0.29 
  -5 -10   3    0.66    0.23 
  -5 -10   3    0.27    0.28 
  -4 -10   3    2.98    0.41 
  -4 -10   3    3.70    0.41 
   3  10  -3   -0.28    0.16 
   3  10  -3   -0.09    0.14 
  -3 -10   3    0.94    0.33 
  -3 -10   3    0.11    0.24 
   2  10  -3    0.06    0.24 
  -2 -10   3   -0.04    0.26 
  -2 -10   3   -0.12    0.25 
   1  10  -3    0.63    0.34 
  -1 -10   3   -0.41    0.28 
  -7  -9   3   -0.02    0.39 
  -7  -9   3    0.16    0.17 
  -7  -9   3    0.17    0.19 
  -6  -9   3    2.73    0.32 
  -6  -9   3    2.68    0.36 
  -5  -9   3    0.98    0.24 
  -4  -9   3    0.23    0.19 
  -4  -9   3    0.65    0.24 
   3   9  -3    0.22    0.12 
   3   9  -3    0.23    0.15 
  -3  -9   3    0.13    0.21 
  -3  -9   3    0.35    0.24 
   2   9  -3    5.99    0.44 
  -2  -9   3    4.77    0.47 
  -2  -9   3    5.51    0.54 
   1   9  -3    0.68    0.24 
   1   9  -3    1.59    0.29 
  -1  -9   3    0.66    0.33 
  -1  -9   3    0.87    0.28 
   0   9  -3    0.93    0.34 
   0   9  -3    0.50    0.29 
   0  -9   3    0.53    0.29 
   0  -9   3    1.08    0.31 
  -1   9  -3    0.49    0.33 
  -1   9  -3    0.40    0.33 
   1  -9   3    0.17    0.33 
  -7  -8   3    0.90    0.17 
  -7  -8   3    0.94    0.14 
  -7  -8   3    1.23    0.33 
  -6  -8   3   11.77    0.61 
  -6  -8   3   11.02    0.59 
  -5  -8   3    2.00    0.25 
  -5  -8   3    1.96    0.26 
  -4  -8   3    2.76    0.31 
  -4  -8   3    3.11    0.35 
   3   8  -3    7.14    0.39 
   3   8  -3    7.31    0.39 
  -3  -8   3    8.85    0.52 
   2   8  -3    1.32    0.20 
  -2  -8   3    1.37    0.23 
  -2  -8   3    1.16    0.24 
   0   8  -3    0.09    0.26 
   0   8  -3    0.17    0.17 
   0  -8   3   -0.03    0.29 
   0  -8   3   -0.19    0.22 
  -1   8  -3    3.40    0.55 
  -1   8  -3    4.51    0.48 
   1  -8   3    4.26    0.45 
   1  -8   3    3.65    0.52 
  -2   8  -3    0.71    0.31 
  -2   8  -3    0.49    0.32 
   2  -8   3   -0.15    0.30 
  -8  -7   3    3.71    0.43 
  -8  -7   3    3.29    0.28 
  -8  -7   3    2.78    0.24 
  -5  -7   3    4.39    0.29 
  -5  -7   3    4.53    0.30 
  -4  -7   3   11.66    0.60 
  -4  -7   3   11.78    0.60 
   3   7  -3    4.18    0.23 
   3   7  -3    4.90    0.23 
  -3  -7   3    4.24    0.35 
  -3  -7   3    5.08    0.34 
   2   7  -3    5.54    0.34 
  -2  -7   3    5.23    0.41 
  -2  -7   3    4.54    0.41 
   1   7  -3    1.86    0.24 
   1   7  -3    2.08    0.24 
  -1  -7   3    2.29    0.31 
  -1  -7   3    1.95    0.26 
   0   7  -3   35.10    1.71 
   0   7  -3   41.01    1.72 
   0  -7   3   34.22    1.73 
   0  -7   3   35.67    1.74 
  -1   7  -3    0.89    0.26 
   1  -7   3    0.87    0.26 
   1  -7   3    0.97    0.25 
  -2   7  -3    0.75    0.28 
  -2   7  -3    1.29    0.33 
   2  -7   3    0.61    0.33 
   2  -7   3    0.78    0.31 
  -3   7  -3    1.06    0.36 
  -3   7  -3    0.43    0.30 
   3  -7   3    0.71    0.30 
  -8  -6   3    0.55    0.20 
  -8  -6   3    0.65    0.11 
  -8  -6   3    0.50    0.12 
  -7  -6   3    3.23    0.20 
  -7  -6   3    2.89    0.21 
  -7  -6   3    3.28    0.33 
  -6  -6   3    1.02    0.21 
  -6  -6   3    0.83    0.10 
  -6  -6   3    0.81    0.10 
  -5  -6   3    0.62    0.11 
  -4  -6   3   16.24    0.80 
  -4  -6   3   17.89    0.81 
  -3  -6   3   60.36    2.78 
  -3  -6   3   62.75    2.78 
   2   6  -3    0.39    0.10 
  -2  -6   3    0.47    0.14 
  -2  -6   3    0.40    0.16 
   1   6  -3    2.35    0.26 
   1   6  -3    2.06    0.25 
  -1  -6   3    1.99    0.29 
  -1  -6   3    2.27    0.30 
   0   6  -3    2.36    0.30 
   0   6  -3    2.13    0.30 
   0  -6   3    3.16    0.34 
  -1   6  -3   41.84    1.91 
  -1   6  -3   40.57    1.91 
   1  -6   3   40.17    1.92 
  -2   6  -3    0.46    0.20 
  -2   6  -3    0.80    0.26 
   2  -6   3    1.00    0.25 
  -3   6  -3    0.98    0.37 
  -3   6  -3    0.49    0.26 
   3  -6   3    0.86    0.31 
   3  -6   3    1.07    0.28 
  -4   6  -3    2.93    0.48 
   4  -6   3    2.28    0.36 
   4  -6   3    1.85    0.34 
  -9  -5   3    0.91    0.16 
  -8  -5   3    2.29    0.24 
  -8  -5   3    2.45    0.24 
  -8  -5   3    2.24    0.21 
  -7  -5   3   -0.06    0.08 
  -7  -5   3   -0.14    0.07 
  -7  -5   3   -0.10    0.13 
  -6  -5   3    5.67    0.25 
  -6  -5   3    4.68    0.25 
  -6  -5   3    4.29    0.36 
  -5  -5   3    2.12    0.23 
  -5  -5   3    2.07    0.13 
  -5  -5   3    1.90    0.13 
  -4  -5   3    4.17    0.23 
  -3  -5   3   12.63    0.60 
  -3  -5   3   12.71    0.60 
   2   5  -3    8.56    0.42 
  -2  -5   3    9.04    0.45 
  -2  -5   3    8.57    0.45 
   1   5  -3    0.36    0.12 
   1   5  -3    0.51    0.11 
  -1  -5   3    0.38    0.13 
  -1  -5   3    0.39    0.13 
   0   5  -3   19.24    0.93 
   0   5  -3   18.67    0.93 
   0  -5   3   19.95    0.94 
   0  -5   3   19.74    0.94 
  -1   5  -3   20.58    0.99 
  -1   5  -3   19.69    1.00 
   1  -5   3   19.47    0.99 
   1  -5   3   21.13    1.00 
  -2   5  -3   34.98    1.59 
  -2   5  -3   35.32    1.59 
   2  -5   3   30.50    1.59 
  -3   5  -3    2.98    0.44 
   3  -5   3    2.83    0.42 
  -4   5  -3    1.97    0.38 
   4  -5   3    3.22    0.41 
   4  -5   3    2.76    0.44 
  -5   5  -3    3.64    0.55 
   5  -5   3    1.91    0.33 
   5  -5   3    2.61    0.40 
  -9  -4   3    0.60    0.23 
  -9  -4   3    0.89    0.18 
  -8  -4   3    0.55    0.13 
  -8  -4   3    0.64    0.15 
  -7  -4   3    0.13    0.10 
  -7  -4   3    0.15    0.10 
  -7  -4   3    0.19    0.10 
  -6  -4   3    0.45    0.06 
  -6  -4   3   -0.08    0.14 
  -6  -4   3    0.46    0.07 
  -5  -4   3    1.69    0.23 
  -4  -4   3    1.16    0.16 
  -3  -4   3   32.28    1.48 
  -3  -4   3   33.50    1.47 
  -2  -4   3   55.02    2.50 
  -2  -4   3   56.64    2.50 
   1   4  -3    2.36    0.17 
   1   4  -3    2.26    0.17 
  -1  -4   3    2.30    0.19 
  -1  -4   3    2.30    0.19 
   0   4  -3   -0.20    0.09 
   0  -4   3   -0.16    0.11 
   0  -4   3   -0.16    0.10 
  -1   4  -3   31.22    1.39 
  -1   4  -3   28.64    1.38 
   1  -4   3   29.76    1.39 
   1  -4   3   29.34    1.38 
  -2   4  -3    2.35    0.33 
  -2   4  -3    2.51    0.28 
   2  -4   3    2.30    0.30 
   2  -4   3    2.23    0.28 
  -3   4  -3    3.55    0.35 
   3  -4   3    3.24    0.34 
   3  -4   3    2.32    0.35 
  -4   4  -3    2.99    0.44 
   4  -4   3    3.54    0.44 
  -5   4  -3    4.28    0.57 
  -5   4  -3    4.41    0.49 
   5  -4   3    3.83    0.51 
   5  -4   3    4.76    0.47 
  -6   4  -3    1.07    0.34 
   6  -4   3    1.14    0.21 
   6  -4   3    0.86    0.23 
   6  -4   3    1.20    0.31 
  -9  -3   3    5.40    0.47 
  -9  -3   3    4.49    0.45 
  -8  -3   3    2.43    0.27 
  -8  -3   3    2.08    0.30 
  -7  -3   3    0.07    0.12 
  -7  -3   3   -0.01    0.10 
  -7  -3   3    0.01    0.06 
  -6  -3   3    0.44    0.10 
  -6  -3   3    0.21    0.09 
  -6  -3   3    0.30    0.09 
  -5  -3   3   20.71    0.95 
  -5  -3   3   20.63    0.92 
  -5  -3   3   19.89    0.92 
  -4  -3   3   36.65    1.67 
  -3  -3   3    1.94    0.19 
  -2  -3   3    2.88    0.15 
  -2  -3   3    2.91    0.16 
   1   3  -3  180.55    7.86 
  -1  -3   3  172.69    7.86 
  -1  -3   3  174.77    7.85 
   0   3  -3    7.04    0.37 
   0   3  -3    7.09    0.37 
   0  -3   3    7.22    0.37 
   0  -3   3    7.16    0.37 
  -1   3  -3    0.24    0.11 
  -1   3  -3    0.43    0.11 
   1  -3   3    0.25    0.11 
   1  -3   3    0.32    0.12 
  -2   3  -3   10.37    0.56 
  -2   3  -3   10.63    0.56 
   2  -3   3   10.57    0.55 
   2  -3   3   10.92    0.56 
  -3   3  -3   25.66    1.27 
  -3   3  -3   27.90    1.28 
   3  -3   3   27.18    1.28 
   3  -3   3   26.69    1.27 
  -4   3  -3    7.85    0.52 
   4  -3   3    6.17    0.49 
   4  -3   3    8.24    0.47 
  -5   3  -3    2.82    0.43 
  -5   3  -3    1.64    0.27 
   5  -3   3    2.85    0.41 
   5  -3   3    2.12    0.28 
  -6   3  -3    0.30    0.26 
  -6   3  -3   -0.07    0.30 
   6  -3   3    0.44    0.32 
   6  -3   3    0.10    0.15 
   6  -3   3    0.20    0.15 
  -7   3  -3   -0.41    0.34 
   7  -3   3    0.16    0.44 
   7  -3   3    0.45    0.30 
  -7  -2   3    1.09    0.17 
  -7  -2   3    1.24    0.17 
  -6  -2   3    3.22    0.24 
  -6  -2   3    3.44    0.21 
  -6  -2   3    3.46    0.27 
  -5  -2   3   14.71    0.69 
  -5  -2   3   14.48    0.68 
  -5  -2   3   14.48    0.68 
  -4  -2   3   -0.04    0.08 
  -4  -2   3    0.08    0.05 
  -4  -2   3    0.15    0.05 
  -3  -2   3    6.46    0.33 
  -2  -2   3    2.15    0.16 
   1   2  -3   27.25    1.32 
   1   2  -3   29.88    1.32 
  -1  -2   3   30.77    1.35 
  -1  -2   3   30.10    1.33 
   0   2  -3   17.87    0.83 
   0   2  -3   18.13    0.83 
   0  -2   3   17.84    0.83 
   0  -2   3   18.53    0.83 
  -1   2  -3  104.77    4.82 
  -1   2  -3  103.61    4.82 
   1  -2   3  115.36    4.82 
   1  -2   3  107.36    4.82 
  -2   2  -3    0.45    0.13 
  -2   2  -3    0.36    0.11 
   2  -2   3    0.46    0.13 
   2  -2   3    0.51    0.12 
  -3   2  -3   26.46    1.28 
  -3   2  -3   27.55    1.28 
   3  -2   3   28.26    1.28 
   3  -2   3   26.91    1.27 
  -4   2  -3    1.12    0.19 
  -4   2  -3    1.64    0.26 
   4  -2   3    2.01    0.29 
   4  -2   3    1.39    0.21 
   4  -2   3    1.83    0.27 
  -5   2  -3   27.51    1.32 
  -5   2  -3   25.92    1.33 
   5  -2   3   31.16    1.31 
   5  -2   3   25.07    1.26 
   5  -2   3   27.20    1.33 
  -6   2  -3    4.96    0.48 
  -6   2  -3    5.47    0.52 
   6  -2   3    5.42    0.31 
   6  -2   3    3.81    0.42 
   6  -2   3    4.67    0.30 
  -7   2  -3    0.99    0.32 
  -7   2  -3    1.56    0.31 
   7  -2   3    2.10    0.36 
  -8  -1   3   10.61    0.70 
  -8  -1   3   11.21    0.66 
  -7  -1   3    0.57    0.21 
  -7  -1   3    0.60    0.21 
  -6  -1   3    4.26    0.32 
  -6  -1   3    4.54    0.34 
   5   1  -3    5.95    0.33 
  -5  -1   3    6.11    0.37 
  -5  -1   3    6.61    0.35 
  -5  -1   3    6.22    0.33 
   4   1  -3   36.56    1.66 
  -4  -1   3   36.43    1.66 
  -4  -1   3   36.33    1.65 
  -4  -1   3   37.03    1.65 
   3   1  -3    0.85    0.12 
  -3  -1   3    1.02    0.09 
  -3  -1   3    0.85    0.12 
  -3  -1   3    0.98    0.09 
   2   1  -3   22.20    0.97 
  -2  -1   3   21.19    0.95 
  -2  -1   3   20.88    0.97 
  -2  -1   3   20.42    0.95 
   1   1  -3   27.62    1.21 
   1   1  -3   26.35    1.19 
  -1  -1   3   25.39    1.19 
  -1  -1   3   27.22    1.21 
  -1  -1   3   26.47    1.19 
   0   1  -3    0.13    0.05 
   0   1  -3    0.10    0.05 
   0   1  -3    0.14    0.07 
   0  -1   3    0.24    0.06 
   0  -1   3    0.08    0.07 
   0  -1   3    0.14    0.06 
  -1   1  -3   72.04    3.23 
  -1   1  -3   72.92    3.23 
   1  -1   3   70.50    3.23 
   1  -1   3   73.63    3.23 
   1  -1   3   71.62    3.23 
  -2   1  -3    2.49    0.20 
  -2   1  -3    2.25    0.19 
   2  -1   3    2.27    0.19 
   2  -1   3    2.48    0.17 
  -3   1  -3    5.33    0.34 
  -3   1  -3    5.39    0.36 
   3  -1   3    6.97    0.36 
   3  -1   3    7.07    0.35 
   3  -1   3    6.22    0.32 
  -4   1  -3   22.95    1.06 
  -4   1  -3   22.39    1.06 
   4  -1   3   22.09    1.02 
   4  -1   3   20.83    1.05 
   4  -1   3   22.21    1.05 
  -5   1  -3   31.26    1.35 
  -5   1  -3   27.34    1.35 
   5  -1   3   29.03    1.34 
   5  -1   3   29.46    1.34 
   5  -1   3   24.72    1.28 
  -6   1  -3    8.29    0.57 
  -6   1  -3    7.81    0.54 
   6  -1   3    7.21    0.39 
   6  -1   3    9.63    0.56 
   6  -1   3    8.12    0.39 
   6  -1   3    8.86    0.52 
  -7   1  -3    0.70    0.27 
  -7   1  -3    0.64    0.34 
   7  -1   3    0.75    0.23 
  -8   0   3    1.20    0.37 
  -8   0   3    1.27    0.28 
  -7   0   3    4.38    0.45 
  -7   0   3    3.71    0.40 
   6   0  -3    4.71    0.27 
  -6   0   3    4.60    0.40 
  -6   0   3    4.88    0.37 
   5   0  -3   15.92    0.73 
   5   0  -3   14.51    0.71 
   5   0  -3   15.68    0.71 
  -5   0   3   15.39    0.77 
  -5   0   3   16.35    0.78 
   4   0  -3    7.79    0.37 
   4   0  -3    7.78    0.40 
   4   0  -3    7.12    0.36 
  -4   0   3    8.07    0.39 
  -4   0   3    7.85    0.41 
  -4   0   3    7.48    0.42 
   3   0  -3   15.89    0.69 
   3   0  -3   14.95    0.69 
   3   0  -3   16.59    0.72 
  -3   0   3   13.79    0.71 
  -3   0   3   15.48    0.71 
  -3   0   3   14.61    0.71 
   2   0  -3   13.36    0.61 
   2   0  -3   13.93    0.63 
   2   0  -3   12.80    0.61 
  -2   0   3   12.90    0.62 
  -2   0   3   13.39    0.63 
  -2   0   3   13.64    0.62 
   1   0  -3   63.02    2.87 
   1   0  -3   64.49    2.87 
   1   0  -3   65.53    2.88 
  -1   0   3   64.40    2.88 
  -1   0   3   64.01    2.87 
  -1   0   3   64.96    2.87 
   0   0  -3    0.71    0.10 
   0   0  -3    0.65    0.08 
   0   0  -3    0.58    0.08 
   0   0   3    0.57    0.09 
   0   0   3    0.49    0.06 
   0   0   3    0.64    0.08 
  -1   0  -3    5.35    0.26 
  -1   0  -3    5.07    0.26 
  -1   0  -3    4.79    0.25 
   1   0   3    4.63    0.25 
   1   0   3    4.91    0.26 
   1   0   3    5.04    0.26 
  -2   0  -3   28.23    1.25 
  -2   0  -3   27.91    1.25 
  -2   0  -3   28.17    1.24 
   2   0   3   26.86    1.24 
   2   0   3   26.48    1.24 
   2   0   3   26.50    1.24 
  -3   0  -3   34.60    1.54 
  -3   0  -3   33.96    1.54 
   3   0   3   34.52    1.53 
   3   0   3   32.15    1.53 
   3   0   3   33.07    1.52 
  -4   0  -3    2.28    0.23 
  -4   0  -3    2.08    0.24 
   4   0   3    2.34    0.23 
   4   0   3    2.33    0.22 
   4   0   3    2.85    0.16 
  -5   0  -3    1.68    0.20 
  -5   0  -3    2.18    0.23 
   5   0   3    1.87    0.11 
   5   0   3    1.76    0.25 
   5   0   3    1.57    0.19 
  -6   0  -3    4.72    0.40 
  -6   0  -3    5.83    0.40 
   6   0   3    5.07    0.38 
   6   0   3    4.95    0.39 
  -7   0  -3    0.57    0.27 
  -7   0  -3    0.24    0.22 
   7   0   3    0.57    0.21 
   7   0   3    0.10    0.22 
  -8   0  -3    1.16    0.30 
  -8   0  -3    2.00    0.37 
   8   0   3    1.33    0.28 
   7  -1  -3    0.04    0.09 
   7  -1  -3    0.29    0.10 
   7  -1  -3    0.22    0.10 
  -7   1   3    0.09    0.30 
  -7   1   3    0.68    0.26 
   6  -1  -3    0.33    0.13 
   6  -1  -3    0.44    0.13 
   6  -1  -3    0.40    0.11 
  -6   1   3    0.59    0.21 
   5  -1  -3    1.71    0.21 
   5  -1  -3    1.61    0.20 
   5  -1  -3    1.91    0.21 
  -5   1   3    2.03    0.26 
  -5   1   3    1.72    0.28 
   4  -1  -3    2.64    0.21 
   4  -1  -3    2.38    0.21 
   4  -1  -3    2.27    0.21 
  -4   1   3    1.85    0.26 
  -4   1   3    2.46    0.25 
   3  -1  -3   12.80    0.63 
   3  -1  -3   13.77    0.64 
   3  -1  -3   12.75    0.63 
  -3   1   3   12.30    0.65 
  -3   1   3   13.74    0.65 
  -3   1   3   14.28    0.64 
   2  -1  -3   16.80    0.78 
   2  -1  -3   17.22    0.78 
   2  -1  -3   17.82    0.79 
  -2   1   3   15.78    0.79 
  -2   1   3   16.66    0.79 
  -2   1   3   17.22    0.79 
   1  -1  -3   20.75    0.95 
   1  -1  -3   20.60    0.95 
   1  -1  -3   20.43    0.95 
  -1   1   3   21.31    0.95 
  -1   1   3   20.96    0.95 
  -1   1   3   20.15    0.95 
   0  -1  -3  214.31    9.37 
   0  -1  -3  209.39    9.36 
   0  -1  -3  210.26    9.36 
   0   1   3  206.52    9.34 
   0   1   3  206.82    9.36 
   0   1   3  207.05    9.34 
  -1  -1  -3   35.04    1.59 
  -1  -1  -3   34.76    1.58 
  -1  -1  -3   35.43    1.58 
   1   1   3   35.05    1.58 
   1   1   3   35.05    1.59 
   1   1   3   35.66    1.58 
  -2  -1  -3   68.97    3.19 
  -2  -1  -3   73.71    3.19 
  -2  -1  -3   69.17    3.19 
   2   1   3   70.68    3.19 
   2   1   3   73.77    3.19 
   2   1   3   71.50    3.19 
  -3  -1  -3   88.22    4.01 
  -3  -1  -3   90.94    3.99 
  -3  -1  -3   91.20    4.01 
   3   1   3   93.34    4.00 
   3   1   3   87.37    3.99 
   3   1   3   86.11    4.00 
  -4  -1  -3   43.01    1.88 
  -4  -1  -3   41.96    1.88 
   4   1   3   40.60    1.87 
   4   1   3   38.86    1.85 
   4   1   3   41.94    1.87 
  -5  -1  -3    4.85    0.34 
  -5  -1  -3    5.03    0.33 
   5   1   3    5.16    0.32 
   5   1   3    5.34    0.32 
  -6  -1  -3    0.45    0.19 
  -6  -1  -3    0.40    0.19 
   6   1   3    0.69    0.16 
   6   1   3    0.47    0.17 
  -7  -1  -3    2.29    0.29 
  -7  -1  -3    2.38    0.35 
   7   1   3    1.44    0.21 
   7   1   3    2.03    0.23 
  -8  -1  -3    0.30    0.32 
  -8  -1  -3    0.50    0.25 
   8   1   3    0.70    0.18 
   8   1   3    0.70    0.20 
   7  -2  -3    0.08    0.19 
   7  -2  -3   -0.06    0.18 
   7  -2  -3   -0.04    0.16 
  -7   2   3    0.01    0.29 
  -7   2   3   -0.48    0.30 
   6  -2  -3   12.13    0.67 
   6  -2  -3   13.26    0.66 
   6  -2  -3   13.09    0.67 
  -6   2   3   12.94    0.75 
  -6   2   3   12.62    0.78 
   5  -2  -3    7.22    0.43 
   5  -2  -3    6.62    0.43 
   5  -2  -3    7.04    0.42 
  -5   2   3    7.58    0.49 
   4  -2  -3    0.79    0.16 
   4  -2  -3    1.03    0.14 
   4  -2  -3    1.30    0.18 
  -4   2   3    1.03    0.23 
  -4   2   3    1.06    0.19 
   3  -2  -3   57.02    2.56 
   3  -2  -3   55.94    2.56 
   3  -2  -3   56.03    2.56 
  -3   2   3   57.34    2.57 
  -3   2   3   56.52    2.57 
   2  -2  -3   87.56    3.83 
   2  -2  -3   81.58    3.83 
   2  -2  -3   85.24    3.83 
  -2   2   3   86.21    3.83 
  -2   2   3   86.02    3.83 
   1  -2  -3    9.31    0.48 
   1  -2  -3    9.32    0.48 
   1  -2  -3   10.82    0.49 
  -1   2   3    9.70    0.49 
  -1   2   3   10.00    0.49 
  -1   2   3    9.94    0.49 
   0  -2  -3   -0.05    0.06 
   0  -2  -3   -0.04    0.07 
   0  -2  -3    0.09    0.08 
   0   2   3    0.04    0.08 
   0   2   3   -0.02    0.07 
   0   2   3    0.04    0.08 
  -1  -2  -3   65.23    2.89 
  -1  -2  -3   64.75    2.89 
  -1  -2  -3   64.42    2.88 
   1   2   3   64.65    2.89 
   1   2   3   62.98    2.88 
   1   2   3   64.35    2.88 
  -2  -2  -3   55.01    2.59 
  -2  -2  -3   60.92    2.60 
  -2  -2  -3   57.57    2.60 
   2   2   3   57.17    2.60 
   2   2   3   58.53    2.60 
   2   2   3   58.14    2.60 
  -3  -2  -3    7.45    0.37 
  -3  -2  -3    7.41    0.38 
  -3  -2  -3    7.45    0.38 
   3   2   3    7.82    0.38 
   3   2   3    7.50    0.37 
   3   2   3    7.39    0.37 
  -4  -2  -3    1.71    0.17 
  -4  -2  -3    1.98    0.19 
  -4  -2  -3    1.40    0.13 
   4   2   3    1.80    0.17 
   4   2   3    1.83    0.17 
  -5  -2  -3    5.52    0.34 
  -5  -2  -3    5.70    0.27 
  -5  -2  -3    5.98    0.36 
   5   2   3    5.47    0.32 
   5   2   3    5.79    0.33 
  -6  -2  -3    0.27    0.17 
  -6  -2  -3    0.39    0.17 
   6   2   3    0.53    0.13 
   6   2   3    0.27    0.14 
   7   2   3    2.70    0.24 
   7   2   3    2.49    0.25 
  -8  -2  -3    1.41    0.30 
  -8  -2  -3    1.38    0.27 
   8   2   3    1.48    0.19 
   8   2   3    1.44    0.19 
  -9  -2  -3    0.02    0.29 
  -9  -2  -3    0.22    0.35 
   6  -3  -3    1.08    0.24 
   6  -3  -3    1.03    0.20 
  -6   3   3    1.98    0.41 
  -6   3   3    1.70    0.32 
   5  -3  -3    0.41    0.16 
   5  -3  -3    0.17    0.21 
  -5   3   3   -0.14    0.25 
  -5   3   3    0.36    0.23 
   4  -3  -3    1.27    0.20 
   4  -3  -3    1.51    0.23 
   4  -3  -3    1.69    0.24 
  -4   3   3    1.16    0.23 
   3  -3  -3   16.11    0.77 
   3  -3  -3   15.31    0.77 
   3  -3  -3   16.12    0.77 
  -3   3   3   13.76    0.80 
  -3   3   3   14.99    0.79 
   2  -3  -3   28.90    1.24 
   2  -3  -3   25.36    1.23 
   2  -3  -3   24.92    1.23 
  -2   3   3   25.32    1.23 
  -2   3   3   27.04    1.24 
   1  -3  -3    3.71    0.26 
   1  -3  -3    4.05    0.26 
   1  -3  -3    3.49    0.26 
  -1   3   3    3.59    0.25 
  -1   3   3    3.63    0.26 
   0  -3  -3   -0.03    0.09 
   0  -3  -3    0.00    0.10 
   0  -3  -3   -0.04    0.09 
   0   3   3    0.01    0.10 
   0   3   3   -0.09    0.11 
  -1  -3  -3   56.94    2.60 
  -1  -3  -3   59.18    2.61 
  -1  -3  -3   56.54    2.60 
   1   3   3   57.49    2.60 
   1   3   3   59.06    2.60 
  -2  -3  -3    0.67    0.10 
  -2  -3  -3    0.52    0.10 
  -2  -3  -3    0.93    0.13 
   2   3   3    0.57    0.09 
   2   3   3    0.65    0.10 
  -3  -3  -3    3.18    0.20 
  -3  -3  -3    2.63    0.20 
  -3  -3  -3    3.02    0.20 
   3   3   3    2.98    0.19 
   3   3   3    2.96    0.19 
  -4  -3  -3    5.47    0.30 
  -4  -3  -3    4.71    0.28 
  -4  -3  -3    4.85    0.29 
   4   3   3    5.13    0.28 
   4   3   3    5.04    0.28 
  -5  -3  -3    0.10    0.11 
  -5  -3  -3    0.08    0.11 
  -5  -3  -3    0.04    0.08 
   5   3   3    0.34    0.09 
   5   3   3    0.19    0.09 
  -6  -3  -3    7.09    0.41 
  -6  -3  -3    7.10    0.42 
  -6  -3  -3    6.12    0.32 
   6   3   3    7.21    0.36 
   6   3   3    6.94    0.36 
  -7  -3  -3    4.84    0.38 
  -7  -3  -3    4.28    0.37 
   7   3   3    4.40    0.25 
   7   3   3    4.36    0.24 
  -8  -3  -3    1.86    0.26 
  -8  -3  -3    2.35    0.30 
  -9  -3  -3    0.02    0.33 
  -9  -3  -3    0.02    0.24 
  -6   4   3    0.63    0.35 
   5  -4  -3    0.16    0.18 
   5  -4  -3    0.80    0.30 
  -5   4   3    1.20    0.42 
  -5   4   3    0.65    0.28 
   4  -4  -3    3.11    0.37 
   4  -4  -3    2.83    0.35 
  -4   4   3    2.66    0.40 
  -4   4   3    3.05    0.45 
   3  -4  -3   29.02    1.34 
   3  -4  -3   30.96    1.33 
   3  -4  -3   26.50    1.33 
  -3   4   3   26.24    1.34 
  -3   4   3   26.28    1.34 
   2  -4  -3   15.23    0.78 
   2  -4  -3   15.24    0.78 
   2  -4  -3   15.00    0.77 
  -2   4   3   14.65    0.78 
  -2   4   3   15.66    0.80 
   1  -4  -3    5.87    0.38 
   1  -4  -3    5.77    0.37 
   1  -4  -3    5.82    0.36 
  -1   4   3    5.37    0.39 
  -1   4   3    5.52    0.36 
   0  -4  -3   11.43    0.60 
   0  -4  -3   12.24    0.61 
   0  -4  -3   12.14    0.61 
   0   4   3   11.82    0.60 
   0   4   3   12.05    0.61 
  -1  -4  -3   19.04    0.87 
  -1  -4  -3   18.49    0.89 
  -1  -4  -3   17.61    0.87 
   1   4   3   17.89    0.87 
   1   4   3   18.73    0.87 
  -2  -4  -3   16.18    0.78 
  -2  -4  -3   15.65    0.77 
   2   4   3   16.64    0.76 
   2   4   3   15.93    0.77 
  -3  -4  -3    7.94    0.41 
  -3  -4  -3    7.81    0.41 
  -3  -4  -3    8.09    0.42 
   3   4   3    7.72    0.40 
   3   4   3    7.72    0.40 
  -4  -4  -3    0.47    0.10 
  -4  -4  -3    0.25    0.11 
  -4  -4  -3    0.39    0.11 
   4   4   3    0.32    0.09 
   4   4   3    0.38    0.10 
  -5  -4  -3    0.27    0.12 
  -5  -4  -3    0.19    0.13 
   5   4   3    0.26    0.09 
   5   4   3    0.30    0.09 
  -6  -4  -3    8.41    0.48 
  -6  -4  -3    8.53    0.48 
  -6  -4  -3    8.67    0.44 
   6   4   3    8.89    0.42 
   6   4   3    8.77    0.41 
  -7  -4  -3    8.96    0.52 
  -7  -4  -3    9.59    0.55 
  -9  -4  -3   -0.08    0.29 
  -9  -4  -3    0.05    0.23 
   5  -5  -3    0.35    0.36 
   5  -5  -3    0.48    0.27 
   5  -5  -3    0.20    0.21 
  -5   5   3   -0.07    0.32 
   4  -5  -3    3.48    0.48 
   4  -5  -3    4.04    0.42 
  -4   5   3    3.10    0.48 
  -4   5   3    4.51    0.58 
   3  -5  -3    6.84    0.52 
   3  -5  -3    6.99    0.49 
  -3   5   3    6.36    0.55 
   2  -5  -3    0.67    0.19 
   2  -5  -3    0.60    0.21 
  -2   5   3    0.89    0.25 
   1  -5  -3    0.66    0.19 
   1  -5  -3    0.36    0.18 
   1  -5  -3    0.06    0.20 
  -1   5   3    0.46    0.20 
  -1   5   3    0.18    0.20 
   0  -5  -3   29.53    1.33 
   0  -5  -3   28.14    1.32 
   0  -5  -3   27.10    1.33 
   0   5   3   27.72    1.32 
   0   5   3   27.77    1.34 
  -1  -5  -3  133.82    6.02 
  -1  -5  -3  142.74    6.04 
  -1  -5  -3  128.07    6.02 
   1   5   3  132.82    6.02 
  -2  -5  -3    8.43    0.43 
  -2  -5  -3    7.13    0.41 
  -2  -5  -3    7.17    0.41 
   2   5   3    7.04    0.42 
   2   5   3    6.32    0.39 
  -3  -5  -3    5.52    0.34 
  -3  -5  -3    5.18    0.37 
   3   5   3    5.80    0.34 
   3   5   3    5.98    0.32 
  -4  -5  -3   -0.07    0.12 
  -4  -5  -3   -0.09    0.12 
  -4  -5  -3   -0.09    0.12 
   4   5   3    0.04    0.11 
   4   5   3   -0.09    0.09 
  -5  -5  -3   40.53    1.88 
  -5  -5  -3   40.38    1.88 
  -5  -5  -3   41.71    1.88 
   5   5   3   41.69    1.85 
   5   5   3   41.04    1.85 
  -6  -5  -3    6.77    0.41 
  -6  -5  -3    7.18    0.41 
  -6  -5  -3    6.65    0.39 
  -7  -5  -3    6.45    0.42 
  -7  -5  -3    6.12    0.36 
  -7  -5  -3    6.90    0.44 
  -9  -5  -3    0.72    0.24 
  -9  -5  -3    0.92    0.29 
   4  -6  -3   -0.20    0.24 
   4  -6  -3    0.11    0.34 
  -4   6   3   -0.60    0.36 
   3  -6  -3    0.80    0.33 
   3  -6  -3    0.12    0.23 
   3  -6  -3    0.51    0.24 
  -3   6   3    0.86    0.39 
  -3   6   3    0.35    0.28 
   2  -6  -3    4.55    0.45 
  -2   6   3    4.44    0.50 
   1  -6  -3    0.01    0.23 
   1  -6  -3    0.01    0.15 
   1  -6  -3    0.02    0.20 
  -1   6   3    0.13    0.16 
  -1   6   3   -0.26    0.28 
   0  -6  -3    1.13    0.21 
   0  -6  -3    0.88    0.22 
   0   6   3    1.10    0.23 
  -1  -6  -3    7.08    0.46 
  -1  -6  -3    7.78    0.47 
  -1  -6  -3    7.97    0.50 
   1   6   3    7.08    0.50 
  -2  -6  -3   23.48    1.09 
  -2  -6  -3   21.79    1.09 
  -2  -6  -3   21.06    1.11 
   2   6   3   23.93    1.09 
   2   6   3   22.47    1.07 
  -3  -6  -3    0.99    0.17 
  -3  -6  -3    0.79    0.20 
  -3  -6  -3    1.07    0.18 
   3   6   3    1.22    0.19 
   3   6   3    1.25    0.20 
  -4  -6  -3   11.46    0.58 
  -4  -6  -3   10.24    0.60 
   4   6   3   10.27    0.54 
   4   6   3   11.33    0.56 
  -5  -6  -3    0.25    0.14 
  -5  -6  -3    0.31    0.15 
  -5  -6  -3    0.23    0.17 
   5   6   3    0.40    0.10 
   5   6   3    0.29    0.11 
  -6  -6  -3   11.19    0.58 
  -6  -6  -3   10.55    0.59 
  -6  -6  -3   10.22    0.57 
  -7  -6  -3    2.50    0.33 
  -7  -6  -3    2.62    0.31 
  -7  -6  -3    2.42    0.27 
  -8  -6  -3    3.07    0.37 
  -8  -6  -3    2.45    0.38 
  -9  -6  -3   -0.45    0.27 
  -9  -6  -3    0.22    0.22 
   3  -7  -3    4.44    0.55 
   3  -7  -3    4.29    0.59 
   3  -7  -3    4.62    0.53 
  -3   7   3    3.78    0.58 
   2  -7  -3    0.12    0.29 
   2  -7  -3   -0.09    0.26 
   2  -7  -3    0.08    0.32 
  -2   7   3    0.20    0.42 
  -2   7   3    0.19    0.28 
   1  -7  -3    1.10    0.30 
  -1   7   3    1.30    0.32 
  -1  -7  -3   46.79    2.39 
  -1  -7  -3   53.56    2.40 
   1   7   3   55.48    2.41 
  -2  -7  -3    6.94    0.43 
  -2  -7  -3    5.95    0.43 
   2   7   3    5.81    0.46 
   2   7   3    5.33    0.41 
  -4  -7  -3    3.03    0.33 
  -4  -7  -3    3.00    0.37 
  -4  -7  -3    3.12    0.33 
   4   7   3    3.11    0.26 
   4   7   3    2.75    0.31 
  -5  -7  -3   33.53    1.55 
  -5  -7  -3   30.56    1.51 
   5   7   3   30.85    1.47 
   5   7   3   33.65    1.47 
  -6  -7  -3    2.67    0.34 
  -6  -7  -3    2.84    0.34 
  -7  -7  -3    2.97    0.38 
  -8  -7  -3    0.54    0.21 
  -8  -7  -3    0.58    0.17 
  -8  -7  -3    0.93    0.25 
  -9  -7  -3    1.15    0.29 
  -9  -7  -3    1.24    0.26 
   2  -8  -3   -0.17    0.28 
   2  -8  -3   -0.11    0.30 
  -2   8   3   -0.25    0.34 
   1  -8  -3    1.73    0.35 
   1  -8  -3    1.86    0.30 
   1  -8  -3    1.29    0.31 
  -1   8   3    1.42    0.32 
  -1   8   3    1.58    0.34 
   0  -8  -3    3.00    0.37 
   0  -8  -3    2.58    0.35 
   0   8   3    2.15    0.33 
   0   8   3    1.87    0.35 
  -1  -8  -3    0.20    0.24 
  -1  -8  -3   -0.11    0.19 
   1   8   3    0.07    0.26 
  -2  -8  -3    6.10    0.51 
  -2  -8  -3    6.48    0.48 
   2   8   3    6.42    0.46 
  -3  -8  -3   -0.09    0.18 
  -3  -8  -3    0.06    0.23 
  -3  -8  -3    0.13    0.22 
   3   8   3    0.70    0.21 
   3   8   3    0.18    0.22 
  -4  -8  -3   11.98    0.69 
  -4  -8  -3   11.98    0.68 
  -4  -8  -3   11.39    0.66 
   4   8   3   11.82    0.62 
   4   8   3   11.78    0.63 
  -5  -8  -3   10.32    0.65 
  -5  -8  -3   11.80    0.62 
  -5  -8  -3   10.21    0.60 
   5   8   3    8.95    0.54 
   5   8   3   10.52    0.53 
  -6  -8  -3    1.74    0.27 
  -6  -8  -3    2.23    0.35 
  -7  -8  -3    0.60    0.21 
  -7  -8  -3    0.77    0.23 
  -7  -8  -3    0.97    0.26 
   1  -9  -3   -0.31    0.29 
  -1   9   3   -0.37    0.33 
   0  -9  -3    4.53    0.55 
   0   9   3    3.24    0.54 
  -1  -9  -3    1.28    0.31 
  -1  -9  -3    0.94    0.29 
  -1  -9  -3    0.84    0.29 
   1   9   3    1.43    0.39 
   1   9   3    1.08    0.31 
  -2  -9  -3    0.16    0.22 
  -2  -9  -3    0.11    0.27 
  -2  -9  -3    0.57    0.31 
   2   9   3    0.16    0.28 
  -3  -9  -3    1.23    0.30 
  -3  -9  -3    1.12    0.31 
  -3  -9  -3    1.22    0.25 
   3   9   3    1.39    0.25 
  -4  -9  -3    3.73    0.42 
  -4  -9  -3    4.28    0.49 
  -4  -9  -3    4.43    0.47 
   4   9   3    4.91    0.40 
   4   9   3    4.02    0.42 
  -5  -9  -3    5.56    0.48 
  -5  -9  -3    5.27    0.50 
  -5  -9  -3    5.08    0.45 
   5   9   3    4.81    0.34 
   5   9   3    4.31    0.35 
  -6  -9  -3    0.72    0.26 
  -6  -9  -3    0.65    0.23 
  -6  -9  -3    0.63    0.26 
  -7  -9  -3    0.32    0.25 
  -7  -9  -3    0.21    0.24 
  -8  -9  -3   -0.26    0.25 
  -8  -9  -3   -0.02    0.25 
  -1 -10  -3    0.01    0.29 
   1  10   3    0.29    0.30 
  -2 -10  -3    0.53    0.29 
   2  10   3    0.69    0.30 
   2  10   3    0.38    0.38 
  -3 -10  -3    0.33    0.26 
  -3 -10  -3    0.49    0.28 
   3  10   3    0.29    0.30 
  -4 -10  -3    2.53    0.34 
  -4 -10  -3    2.08    0.31 
  -4 -10  -3    2.40    0.42 
   4  10   3    2.74    0.37 
  -5 -10  -3    2.13    0.32 
  -5 -10  -3    1.78    0.35 
   5  10   3    2.55    0.33 
  -6 -10  -3    0.60    0.35 
  -6 -10  -3   -0.04    0.29 
  -6 -10  -3    0.25    0.26 
  -7 -10  -3    1.87    0.40 
  -7 -10  -3    0.66    0.33 
  -7 -10  -3    1.11    0.29 
  -6 -10   4    0.22    0.27 
  -6 -10   4    0.18    0.20 
  -5 -10   4    2.03    0.32 
  -5 -10   4    1.42    0.26 
  -4 -10   4    3.36    0.43 
  -4 -10   4    3.95    0.55 
   3  10  -4    0.19    0.18 
   3  10  -4    0.68    0.24 
  -3 -10   4    0.75    0.32 
  -3 -10   4    0.11    0.26 
   2  10  -4    0.58    0.23 
  -2 -10   4    0.52    0.30 
  -2 -10   4    0.71    0.29 
  -1 -10   4    0.64    0.31 
  -7  -9   4    0.71    0.19 
  -7  -9   4    0.57    0.47 
  -7  -9   4    0.75    0.18 
  -6  -9   4    0.50    0.23 
  -6  -9   4    0.22    0.17 
  -4  -9   4    1.33    0.23 
   3   9  -4    0.36    0.11 
   3   9  -4    0.43    0.11 
  -3  -9   4    0.69    0.23 
  -3  -9   4    0.47    0.26 
   2   9  -4    9.28    0.54 
  -2  -9   4    9.30    0.68 
  -2  -9   4    9.72    0.63 
   1   9  -4    0.53    0.24 
  -1  -9   4    1.08    0.28 
  -1  -9   4    0.35    0.30 
   0   9  -4   -0.01    0.26 
   0   9  -4    0.09    0.31 
   0  -9   4    0.16    0.31 
  -1   9  -4    0.30    0.31 
  -1   9  -4    1.26    0.36 
   1  -9   4    0.11    0.34 
  -8  -8   4    2.24    0.39 
  -7  -8   4    2.87    0.25 
  -7  -8   4    3.04    0.28 
  -7  -8   4    3.26    0.41 
  -6  -8   4    1.49    0.35 
  -6  -8   4    1.79    0.24 
  -6  -8   4    1.93    0.27 
  -5  -8   4    1.54    0.19 
  -5  -8   4    1.66    0.25 
  -4  -8   4    6.97    0.45 
  -4  -8   4    6.68    0.47 
   3   8  -4    2.64    0.16 
   2   8  -4    8.49    0.48 
  -2  -8   4    8.02    0.55 
  -2  -8   4    8.40    0.55 
   1   8  -4   13.04    0.67 
   1   8  -4   12.74    0.66 
  -1  -8   4    9.62    0.70 
  -1  -8   4   11.21    0.71 
   0   8  -4    2.19    0.31 
   0  -8   4    2.55    0.37 
   0  -8   4    1.80    0.31 
  -1   8  -4    0.26    0.25 
  -1   8  -4    0.18    0.32 
   1  -8   4   -0.06    0.27 
   1  -8   4    0.30    0.26 
  -2   8  -4    0.48    0.28 
  -2   8  -4    0.16    0.32 
   2  -8   4   -0.16    0.27 
  -7  -7   4    4.48    0.28 
  -6  -7   4    1.42    0.18 
  -6  -7   4    1.08    0.18 
  -5  -7   4    0.62    0.13 
  -5  -7   4    0.41    0.13 
  -4  -7   4    1.19    0.17 
  -4  -7   4    1.22    0.17 
  -3  -7   4    7.98    0.47 
  -3  -7   4    8.09    0.47 
   2   7  -4    0.53    0.14 
  -2  -7   4    0.46    0.21 
  -2  -7   4    0.50    0.18 
   1   7  -4    0.01    0.16 
   1   7  -4   -0.07    0.17 
  -1  -7   4   -0.24    0.20 
   0   7  -4    9.20    0.54 
   0  -7   4    8.15    0.58 
   0  -7   4    8.40    0.55 
  -1   7  -4    0.81    0.27 
  -1   7  -4    0.16    0.18 
   1  -7   4    0.58    0.26 
   1  -7   4    0.72    0.27 
  -2   7  -4   -0.04    0.32 
  -2   7  -4    0.01    0.26 
   2  -7   4   -0.50    0.27 
   2  -7   4   -0.19    0.25 
  -3   7  -4   -0.26    0.30 
   3  -7   4    0.16    0.32 
  -8  -6   4    0.35    0.09 
  -8  -6   4   -0.07    0.19 
  -8  -6   4    0.47    0.10 
  -7  -6   4    0.28    0.07 
  -7  -6   4    0.63    0.20 
  -7  -6   4    0.32    0.07 
  -6  -6   4    3.15    0.38 
  -6  -6   4    2.70    0.17 
  -5  -6   4   17.69    0.90 
  -5  -6   4   16.85    0.81 
  -5  -6   4   17.78    0.80 
  -4  -6   4    4.75    0.29 
  -4  -6   4    4.65    0.28 
  -3  -6   4    4.27    0.28 
  -3  -6   4    4.04    0.29 
  -2  -6   4   24.89    1.17 
  -2  -6   4   24.76    1.17 
   1   6  -4   50.57    2.31 
   1   6  -4   52.51    2.31 
  -1  -6   4   50.40    2.33 
  -1  -6   4   50.00    2.33 
   0   6  -4   27.95    1.42 
   0   6  -4   30.26    1.42 
   0  -6   4   31.91    1.44 
   0  -6   4   30.92    1.45 
  -1   6  -4    0.56    0.20 
  -1   6  -4    0.18    0.19 
   1  -6   4    0.36    0.22 
   1  -6   4    0.22    0.21 
  -2   6  -4   16.11    0.88 
   2  -6   4   15.90    0.89 
  -3   6  -4   10.50    0.76 
  -3   6  -4   10.52    0.71 
   3  -6   4   11.51    0.81 
   3  -6   4   11.59    0.74 
  -4   6  -4   -0.09    0.32 
   4  -6   4    0.34    0.32 
  -8  -5   4   -0.14    0.10 
  -8  -5   4   -0.22    0.10 
  -8  -5   4   -0.06    0.16 
  -7  -5   4    1.81    0.30 
  -7  -5   4    1.90    0.14 
  -7  -5   4    2.04    0.13 
  -6  -5   4    8.07    0.48 
  -5  -5   4   -0.20    0.14 
  -4  -5   4    0.18    0.07 
  -4  -5   4    0.19    0.16 
  -4  -5   4    0.18    0.06 
  -3  -5   4   37.48    1.73 
  -3  -5   4   38.88    1.73 
   2   5  -4    5.66    0.28 
  -2  -5   4    5.74    0.32 
  -2  -5   4    5.61    0.33 
   1   5  -4    1.72    0.20 
   1   5  -4    1.64    0.19 
  -1  -5   4    1.49    0.23 
   0   5  -4    2.77    0.27 
   0   5  -4    2.78    0.27 
   0  -5   4    3.16    0.29 
   0  -5   4    2.64    0.29 
  -1   5  -4   12.60    0.71 
  -1   5  -4   12.22    0.70 
   1  -5   4   15.22    0.71 
   1  -5   4   13.50    0.71 
  -2   5  -4    2.14    0.32 
   2  -5   4    1.57    0.25 
  -3   5  -4    4.24    0.47 
   3  -5   4    4.34    0.45 
  -4   5  -4    1.51    0.33 
  -4   5  -4    1.23    0.39 
   4  -5   4    1.51    0.35 
   4  -5   4    1.72    0.32 
  -5   5  -4   -0.46    0.32 
   5  -5   4    0.12    0.30 
   5  -5   4    0.09    0.29 
  -9  -4   4    1.12    0.23 
  -8  -4   4    0.37    0.12 
  -8  -4   4    0.20    0.16 
  -8  -4   4    0.43    0.10 
  -7  -4   4    0.72    0.10 
  -7  -4   4    0.62    0.16 
  -7  -4   4    0.61    0.10 
  -6  -4   4    0.03    0.05 
  -6  -4   4   -0.04    0.05 
  -5  -4   4    1.96    0.26 
  -4  -4   4   -0.20    0.12 
  -3  -4   4   10.15    0.47 
  -3  -4   4    9.91    0.46 
  -3  -4   4    9.87    0.53 
  -2  -4   4   15.31    0.72 
  -2  -4   4   15.79    0.73 
   1   4  -4   -0.10    0.08 
   1   4  -4   -0.10    0.07 
  -1  -4   4    0.02    0.10 
   0   4  -4   12.86    0.60 
   0   4  -4   11.72    0.60 
   0  -4   4   12.00    0.60 
   0  -4   4   11.97    0.61 
  -1   4  -4    0.09    0.14 
  -1   4  -4    0.12    0.12 
   1  -4   4    0.13    0.15 
   1  -4   4   -0.03    0.14 
  -2   4  -4   24.39    1.14 
  -2   4  -4   23.90    1.14 
   2  -4   4   22.29    1.13 
   2  -4   4   23.41    1.14 
  -3   4  -4   15.71    0.81 
  -3   4  -4   13.78    0.78 
   3  -4   4   15.16    0.80 
   3  -4   4   15.30    0.81 
  -4   4  -4    6.96    0.54 
   4  -4   4    6.94    0.53 
  -5   4  -4    1.06    0.29 
  -5   4  -4    0.73    0.35 
   5  -4   4    0.20    0.26 
   5  -4   4    0.01    0.22 
   5  -4   4    0.28    0.31 
  -6   4  -4   -0.53    0.30 
   6  -4   4   -0.08    0.29 
   6  -4   4    0.08    0.23 
   6  -4   4   -0.19    0.35 
  -8  -3   4    0.72    0.16 
  -8  -3   4    0.39    0.17 
  -7  -3   4    5.80    0.34 
  -7  -3   4    6.06    0.36 
  -7  -3   4    6.40    0.35 
  -6  -3   4    1.70    0.23 
  -6  -3   4    1.77    0.16 
  -6  -3   4    1.50    0.17 
  -5  -3   4    7.79    0.37 
  -5  -3   4    8.32    0.44 
  -5  -3   4    7.65    0.37 
  -4  -3   4   15.94    0.77 
  -3  -3   4   78.29    3.52 
  -2  -3   4    0.64    0.13 
  -2  -3   4    0.34    0.06 
  -2  -3   4    0.56    0.09 
   1   3  -4    6.40    0.32 
  -1  -3   4    6.45    0.36 
  -1  -3   4    6.66    0.33 
  -1  -3   4    6.16    0.33 
   0   3  -4    0.18    0.09 
   0   3  -4    0.25    0.09 
   0  -3   4    0.21    0.10 
   0  -3   4    0.35    0.10 
  -1   3  -4  121.77    5.30 
  -1   3  -4  117.40    5.30 
   1  -3   4  119.46    5.30 
   1  -3   4  114.66    5.30 
  -2   3  -4   19.55    0.97 
  -2   3  -4   21.50    0.98 
   2  -3   4   19.93    0.97 
   2  -3   4   20.26    0.98 
  -3   3  -4    0.40    0.19 
  -3   3  -4    0.29    0.17 
   3  -3   4    0.34    0.19 
   3  -3   4    0.17    0.16 
  -4   3  -4   13.94    0.77 
   4  -3   4   13.77    0.75 
   4  -3   4   14.00    0.72 
   4  -3   4   14.35    0.75 
  -5   3  -4   10.84    0.69 
  -5   3  -4    9.76    0.64 
   5  -3   4   10.16    0.66 
   5  -3   4   10.84    0.57 
  -6   3  -4    1.38    0.31 
  -6   3  -4    1.77    0.36 
   6  -3   4    1.33    0.20 
   6  -3   4    1.13    0.29 
   6  -3   4    1.65    0.35 
  -7   3  -4   -0.24    0.34 
   7  -3   4    1.23    0.41 
   7  -3   4    0.03    0.30 
  -8  -2   4   12.06    0.65 
  -7  -2   4    4.69    0.34 
  -7  -2   4    4.47    0.34 
  -6  -2   4    0.78    0.15 
  -6  -2   4    0.57    0.12 
  -6  -2   4    0.56    0.11 
  -5  -2   4    2.75    0.23 
  -5  -2   4    2.88    0.19 
  -5  -2   4    2.83    0.19 
  -4  -2   4   11.39    0.49 
  -4  -2   4   10.54    0.49 
  -4  -2   4   10.15    0.54 
  -3  -2   4   45.60    2.32 
  -3  -2   4   53.28    2.32 
  -3  -2   4   57.51    2.36 
  -2  -2   4    0.03    0.04 
  -2  -2   4    0.11    0.09 
  -2  -2   4    0.22    0.04 
   1   2  -4   64.52    2.99 
   1   2  -4   67.98    2.99 
  -1  -2   4   66.81    3.00 
  -1  -2   4   68.09    3.02 
  -1  -2   4   67.90    3.00 
   0   2  -4  267.40   11.38 
   0   2  -4  265.57   11.40 
   0  -2   4  232.03   11.32 
   0  -2   4  241.97   11.33 
   0  -2   4  265.72   11.38 
  -1   2  -4  194.37    8.42 
  -1   2  -4  191.91    8.42 
   1  -2   4  189.03    8.42 
   1  -2   4  188.01    8.42 
   1  -2   4  181.48    8.43 
  -2   2  -4   40.33    1.83 
  -2   2  -4   41.00    1.83 
   2  -2   4   39.76    1.83 
   2  -2   4   38.78    1.83 
   2  -2   4   40.52    1.83 
  -3   2  -4   41.36    1.85 
  -3   2  -4   39.49    1.85 
   3  -2   4   41.73    1.85 
   3  -2   4   38.74    1.84 
   3  -2   4   39.19    1.83 
  -4   2  -4   43.66    2.08 
  -4   2  -4   47.70    2.08 
   4  -2   4   42.80    2.04 
   4  -2   4   46.28    2.07 
   4  -2   4   44.09    2.07 
  -5   2  -4   10.09    0.63 
  -5   2  -4    9.59    0.60 
   5  -2   4   11.63    0.58 
   5  -2   4   10.42    0.60 
   5  -2   4    8.35    0.52 
  -6   2  -4    4.06    0.46 
  -6   2  -4    5.11    0.52 
   6  -2   4    4.84    0.48 
   6  -2   4    3.75    0.30 
  -7   2  -4    2.12    0.35 
  -7   2  -4    2.03    0.35 
   7  -2   4    2.72    0.40 
   7  -2   4    2.13    0.18 
   7  -2   4    3.10    0.42 
  -8  -1   4    0.33    0.23 
  -8  -1   4    0.47    0.28 
  -7  -1   4    0.30    0.20 
  -7  -1   4    0.22    0.21 
  -6  -1   4    0.93    0.18 
  -6  -1   4    0.45    0.15 
   5   1  -4    3.37    0.23 
  -5  -1   4    3.18    0.24 
  -5  -1   4    3.05    0.26 
  -5  -1   4    3.13    0.23 
   4   1  -4    2.27    0.19 
  -4  -1   4    1.93    0.17 
  -4  -1   4    2.34    0.20 
  -4  -1   4    2.25    0.17 
   3   1  -4    3.51    0.23 
  -3  -1   4    3.63    0.23 
  -3  -1   4    3.45    0.19 
  -3  -1   4    3.64    0.20 
   2   1  -4    5.28    0.29 
  -2  -1   4    5.31    0.29 
  -2  -1   4    5.37    0.26 
  -2  -1   4    5.17    0.26 
   1   1  -4   14.74    0.67 
   1   1  -4   15.09    0.67 
   1   1  -4   14.97    0.70 
  -1  -1   4   15.31    0.68 
  -1  -1   4   14.32    0.68 
  -1  -1   4   14.89    0.70 
   0   1  -4    1.89    0.14 
   0   1  -4    2.45    0.17 
   0   1  -4    2.25    0.14 
   0  -1   4    1.95    0.14 
   0  -1   4    1.86    0.16 
  -1   1  -4   91.99    3.90 
  -1   1  -4   78.57    3.90 
  -1   1  -4   90.47    3.90 
   1  -1   4   87.52    3.90 
   1  -1   4   89.36    3.90 
   1  -1   4   84.89    3.90 
  -2   1  -4    1.51    0.17 
  -2   1  -4    1.39    0.16 
   2  -1   4    1.37    0.16 
   2  -1   4    1.29    0.15 
   2  -1   4    1.27    0.17 
  -3   1  -4    9.50    0.46 
  -3   1  -4    8.11    0.45 
   3  -1   4    7.61    0.44 
   3  -1   4    8.40    0.42 
   3  -1   4    7.77    0.45 
  -4   1  -4    0.47    0.16 
  -4   1  -4    0.43    0.17 
   4  -1   4    0.30    0.15 
   4  -1   4    0.26    0.09 
   4  -1   4    0.48    0.15 
  -5   1  -4    2.85    0.33 
  -5   1  -4    2.01    0.31 
   5  -1   4    2.15    0.19 
   5  -1   4    3.05    0.32 
   5  -1   4    2.69    0.34 
  -6   1  -4    1.56    0.25 
  -6   1  -4    1.84    0.29 
   6  -1   4    1.72    0.26 
   6  -1   4    1.63    0.16 
  -7   1  -4    7.40    0.60 
  -7   1  -4    8.48    0.70 
   7  -1   4    9.55    0.62 
  -8   1  -4    0.14    0.34 
   8  -1   4   -0.26    0.32 
  -8   0   4    0.34    0.27 
  -8   0   4    0.20    0.36 
  -7   0   4    1.12    0.23 
  -7   0   4    0.66    0.27 
   6   0  -4    2.39    0.22 
  -6   0   4    2.11    0.32 
  -6   0   4    2.46    0.28 
   5   0  -4   22.68    1.03 
  -5   0   4   21.36    1.05 
  -5   0   4   21.56    1.04 
   4   0  -4   52.06    2.37 
   4   0  -4   54.80    2.40 
  -4   0   4   52.38    2.40 
  -4   0   4   54.43    2.40 
  -4   0   4   52.21    2.40 
   3   0  -4    7.39    0.36 
   3   0  -4    6.89    0.32 
   3   0  -4    6.40    0.32 
  -3   0   4    6.07    0.35 
  -3   0   4    7.52    0.36 
  -3   0   4    6.34    0.35 
   2   0  -4    7.15    0.36 
   2   0  -4    6.69    0.33 
   2   0  -4    7.17    0.33 
  -2   0   4    6.58    0.34 
  -2   0   4    6.85    0.35 
  -2   0   4    7.29    0.36 
   1   0  -4   50.17    2.32 
   1   0  -4   51.94    2.32 
   1   0  -4   52.96    2.34 
  -1   0   4   52.04    2.34 
  -1   0   4   52.67    2.33 
   0   0  -4  345.90   15.26 
   0   0  -4  338.02   15.21 
   0   0  -4  342.08   15.23 
   0   0   4  331.47   15.23 
   0   0   4  341.11   15.27 
   0   0   4  346.95   15.23 
  -1   0  -4   24.20    1.11 
  -1   0  -4   23.54    1.10 
  -1   0  -4   24.74    1.10 
   1   0   4   23.90    1.10 
   1   0   4   24.35    1.11 
   1   0   4   24.20    1.10 
  -2   0  -4   14.24    0.65 
  -2   0  -4   13.41    0.66 
  -2   0  -4   13.97    0.65 
   2   0   4   14.20    0.65 
   2   0   4   13.07    0.64 
   2   0   4   13.25    0.65 
  -3   0  -4    7.10    0.38 
  -3   0  -4    7.20    0.38 
   3   0   4    6.78    0.35 
   3   0   4    7.03    0.38 
   3   0   4    7.11    0.38 
  -4   0  -4    2.35    0.26 
  -4   0  -4    2.88    0.26 
   4   0   4    2.60    0.26 
   4   0   4    2.73    0.25 
   4   0   4    3.34    0.19 
  -5   0  -4    9.89    0.59 
  -5   0  -4    9.37    0.57 
   5   0   4   10.86    0.50 
   5   0   4   11.05    0.56 
   5   0   4   11.18    0.57 
  -6   0  -4    8.15    0.52 
  -6   0  -4    6.82    0.48 
   6   0   4    6.91    0.48 
   6   0   4    6.80    0.47 
  -7   0  -4    0.42    0.23 
  -7   0  -4    0.59    0.28 
   7   0   4    0.55    0.22 
  -8   0  -4    1.06    0.35 
  -8   0  -4   -0.11    0.28 
   8   0   4    0.56    0.24 
   7  -1  -4    0.17    0.12 
  -7   1   4   -0.26    0.24 
  -7   1   4   -0.29    0.32 
   6  -1  -4   -0.06    0.10 
   6  -1  -4   -0.07    0.12 
   6  -1  -4   -0.02    0.10 
  -6   1   4   -0.21    0.20 
   5  -1  -4    5.22    0.32 
   5  -1  -4    4.45    0.30 
   5  -1  -4    4.64    0.29 
  -5   1   4    5.01    0.39 
  -5   1   4    4.44    0.43 
   4  -1  -4    0.05    0.10 
   4  -1  -4    0.24    0.12 
   4  -1  -4    0.16    0.10 
  -4   1   4    0.29    0.15 
  -4   1   4    0.15    0.14 
   3  -1  -4    2.77    0.20 
   3  -1  -4    3.20    0.23 
   3  -1  -4    2.79    0.21 
  -3   1   4    2.65    0.24 
  -3   1   4    2.83    0.24 
  -3   1   4    2.83    0.23 
   2  -1  -4    2.08    0.19 
   2  -1  -4    1.98    0.17 
   2  -1  -4    2.39    0.16 
  -2   1   4    2.27    0.19 
  -2   1   4    2.08    0.19 
  -2   1   4    2.05    0.18 
   1  -1  -4   82.96    3.80 
   1  -1  -4   86.67    3.80 
   1  -1  -4   85.07    3.81 
  -1   1   4   85.49    3.81 
  -1   1   4   85.80    3.80 
  -1   1   4   83.90    3.80 
   0  -1  -4    4.28    0.23 
   0  -1  -4    3.81    0.23 
   0  -1  -4    4.33    0.23 
   0   1   4    3.85    0.22 
   0   1   4    3.89    0.23 
   0   1   4    3.74    0.23 
  -1  -1  -4    1.34    0.13 
  -1  -1  -4    1.33    0.14 
  -1  -1  -4    1.44    0.13 
   1   1   4    1.34    0.13 
   1   1   4    1.57    0.14 
   1   1   4    1.43    0.13 
  -2  -1  -4    5.42    0.28 
  -2  -1  -4    5.27    0.28 
  -2  -1  -4    5.50    0.28 
   2   1   4    5.15    0.27 
   2   1   4    5.26    0.28 
   2   1   4    4.29    0.28 
  -3  -1  -4    0.41    0.10 
  -3  -1  -4    0.35    0.08 
  -3  -1  -4    0.33    0.11 
   3   1   4    0.44    0.11 
   3   1   4    0.28    0.07 
   3   1   4    0.48    0.10 
  -4  -1  -4   47.85    2.16 
  -4  -1  -4   47.84    2.19 
  -4  -1  -4   50.80    2.20 
   4   1   4   47.34    2.18 
   4   1   4   47.06    2.16 
  -5  -1  -4    2.33    0.27 
  -5  -1  -4    2.73    0.28 
   5   1   4    2.85    0.16 
   5   1   4    2.38    0.26 
   5   1   4    2.74    0.25 
  -6  -1  -4    4.23    0.39 
   6   1   4    3.27    0.32 
   6   1   4    3.39    0.31 
  -7  -1  -4    0.40    0.24 
  -7  -1  -4    0.32    0.22 
   7   1   4    0.16    0.19 
   7   1   4    0.64    0.20 
  -8  -1  -4    6.82    0.56 
  -8  -1  -4    6.71    0.63 
   8   1   4    6.72    0.48 
   8   1   4    6.54    0.47 
  -7   2   4    0.15    0.30 
  -7   2   4   -0.55    0.34 
   6  -2  -4    0.04    0.16 
   6  -2  -4   -0.07    0.17 
   6  -2  -4    0.34    0.18 
  -6   2   4    0.05    0.24 
  -6   2   4   -0.11    0.32 
   5  -2  -4   11.03    0.60 
   5  -2  -4   11.30    0.62 
   5  -2  -4   11.31    0.61 
  -5   2   4   12.83    0.69 
  -5   2   4   11.65    0.66 
   4  -2  -4   23.91    1.13 
   4  -2  -4   24.93    1.13 
   4  -2  -4   25.01    1.14 
  -4   2   4   24.63    1.17 
  -4   2   4   20.94    1.15 
   3  -2  -4    1.52    0.21 
   3  -2  -4    1.53    0.21 
   3  -2  -4    1.65    0.22 
  -3   2   4    1.43    0.18 
  -3   2   4    1.45    0.18 
   2  -2  -4    5.01    0.31 
   2  -2  -4    4.93    0.30 
   2  -2  -4    4.92    0.30 
  -2   2   4    5.18    0.31 
  -2   2   4    5.02    0.31 
  -2   2   4    4.97    0.32 
   1  -2  -4   47.02    2.06 
   1  -2  -4   44.08    2.04 
   1  -2  -4   43.98    2.04 
  -1   2   4   44.92    2.05 
  -1   2   4   45.50    2.05 
  -1   2   4   45.68    2.05 
   0  -2  -4   74.81    3.29 
   0  -2  -4   73.01    3.29 
   0  -2  -4   73.59    3.28 
   0   2   4   72.33    3.28 
   0   2   4   73.54    3.28 
   0   2   4   72.02    3.29 
  -1  -2  -4    0.44    0.09 
  -1  -2  -4    0.29    0.08 
  -1  -2  -4    0.27    0.09 
   1   2   4    0.35    0.09 
   1   2   4    0.29    0.08 
  -2  -2  -4    0.53    0.09 
  -2  -2  -4    0.46    0.09 
  -2  -2  -4    0.58    0.10 
   2   2   4    0.53    0.09 
   2   2   4    0.32    0.08 
   2   2   4    0.32    0.10 
  -3  -2  -4    8.21    0.43 
  -3  -2  -4    7.92    0.43 
  -3  -2  -4    8.48    0.42 
   3   2   4    8.71    0.43 
   3   2   4    8.78    0.43 
   3   2   4    8.91    0.42 
  -4  -2  -4   83.55    3.68 
  -4  -2  -4   80.72    3.66 
  -4  -2  -4   82.93    3.68 
   4   2   4   84.02    3.67 
   4   2   4   79.23    3.67 
   4   2   4   80.29    3.66 
  -5  -2  -4    6.87    0.42 
  -5  -2  -4    6.82    0.40 
  -5  -2  -4    6.84    0.35 
   5   2   4    7.25    0.39 
   5   2   4    6.77    0.39 
  -6  -2  -4    6.73    0.45 
  -6  -2  -4    6.63    0.44 
   6   2   4    6.56    0.41 
   6   2   4    6.82    0.40 
  -7  -2  -4    2.83    0.35 
   7   2   4    3.46    0.30 
   7   2   4    2.70    0.31 
  -8  -2  -4    7.26    0.56 
  -8  -2  -4    8.31    0.62 
   8   2   4    8.05    0.48 
   8   2   4    8.52    0.47 
  -9  -2  -4   -0.02    0.32 
  -9  -2  -4   -0.36    0.28 
   6  -3  -4    1.07    0.24 
   6  -3  -4    0.43    0.21 
  -6   3   4    0.24    0.28 
  -6   3   4    0.67    0.34 
   5  -3  -4    1.41    0.26 
   5  -3  -4    0.89    0.23 
   5  -3  -4    0.76    0.21 
  -5   3   4    1.04    0.26 
  -5   3   4    0.69    0.31 
   4  -3  -4   -0.11    0.19 
   4  -3  -4   -0.25    0.17 
   4  -3  -4    0.07    0.17 
  -4   3   4    0.08    0.27 
  -4   3   4   -0.13    0.19 
   3  -3  -4    6.56    0.41 
   3  -3  -4    5.87    0.40 
   3  -3  -4    6.12    0.41 
  -3   3   4    6.40    0.44 
  -3   3   4    6.25    0.43 
   2  -3  -4   23.88    1.13 
   2  -3  -4   23.94    1.12 
   2  -3  -4   23.71    1.12 
  -2   3   4   23.64    1.13 
  -2   3   4   23.64    1.13 
   1  -3  -4   94.85    4.06 
   1  -3  -4   83.43    4.05 
   1  -3  -4   92.18    4.05 
  -1   3   4   91.46    4.05 
  -1   3   4   88.69    4.05 
   0  -3  -4    2.01    0.21 
   0  -3  -4    2.06    0.18 
   0  -3  -4    2.07    0.20 
   0   3   4    1.72    0.21 
  -1  -3  -4    9.70    0.49 
  -1  -3  -4    9.89    0.49 
  -1  -3  -4    9.27    0.48 
   1   3   4    9.49    0.47 
   1   3   4    9.14    0.48 
   1   3   4    9.77    0.50 
  -2  -3  -4   26.83    1.20 
  -2  -3  -4   24.99    1.21 
  -2  -3  -4   26.24    1.21 
   2   3   4   26.23    1.20 
   2   3   4   25.23    1.20 
   2   3   4   27.20    1.22 
  -3  -3  -4   69.32    3.13 
  -3  -3  -4   68.94    3.13 
  -3  -3  -4   68.87    3.13 
   3   3   4   71.84    3.13 
   3   3   4   69.26    3.13 
  -4  -3  -4    5.51    0.33 
  -4  -3  -4    5.37    0.33 
  -4  -3  -4    5.44    0.31 
   4   3   4    5.21    0.32 
   4   3   4    5.68    0.31 
  -5  -3  -4   12.78    0.63 
  -5  -3  -4   12.22    0.60 
  -5  -3  -4   12.58    0.63 
   5   3   4   12.60    0.62 
   5   3   4   12.44    0.61 
  -6  -3  -4    6.87    0.43 
  -6  -3  -4    6.62    0.41 
  -6  -3  -4    5.27    0.32 
   6   3   4    6.57    0.38 
   6   3   4    6.43    0.36 
  -7  -3  -4    6.78    0.45 
  -7  -3  -4    6.97    0.44 
   7   3   4    5.72    0.37 
   7   3   4    5.66    0.36 
  -8  -3  -4    1.23    0.25 
  -8  -3  -4    1.55    0.30 
   8   3   4    1.12    0.18 
   8   3   4    1.10    0.17 
  -9  -3  -4    1.14    0.29 
  -9  -3  -4    1.55    0.39 
   6  -4  -4   -0.17    0.33 
   6  -4  -4   -0.11    0.25 
  -6   4   4   -0.05    0.37 
   5  -4  -4    2.03    0.32 
  -5   4   4    1.62    0.40 
  -5   4   4    1.23    0.31 
   4  -4  -4    0.10    0.22 
  -4   4   4    0.00    0.29 
  -4   4   4   -0.18    0.24 
   3  -4  -4    6.12    0.43 
   3  -4  -4    4.80    0.43 
  -3   4   4    4.73    0.48 
  -3   4   4    5.77    0.43 
   2  -4  -4    0.22    0.18 
   2  -4  -4    0.11    0.18 
   2  -4  -4    0.01    0.18 
  -2   4   4    0.25    0.20 
   1  -4  -4   37.10    1.62 
   1  -4  -4   32.37    1.61 
   1  -4  -4   34.55    1.61 
  -1   4   4   34.86    1.62 
  -1   4   4   34.69    1.62 
   0  -4  -4   42.40    1.99 
   0  -4  -4   43.87    2.01 
   0  -4  -4   43.61    1.99 
   0   4   4   42.95    1.99 
   0   4   4   45.07    2.00 
  -1  -4  -4   30.50    1.40 
  -1  -4  -4   30.72    1.41 
  -1  -4  -4   29.73    1.40 
   1   4   4   28.60    1.39 
   1   4   4   31.24    1.40 
  -2  -4  -4   28.99    1.31 
  -2  -4  -4   27.90    1.32 
   2   4   4   27.79    1.30 
   2   4   4   28.06    1.30 
  -3  -4  -4    9.57    0.50 
  -3  -4  -4   10.83    0.50 
  -3  -4  -4    9.13    0.50 
   3   4   4    8.91    0.48 
   3   4   4    9.94    0.50 
  -4  -4  -4   63.08    2.91 
  -4  -4  -4   63.06    2.91 
  -4  -4  -4   63.47    2.91 
   4   4   4   63.09    2.90 
   4   4   4   69.09    2.90 
  -5  -4  -4    0.04    0.11 
  -5  -4  -4    0.04    0.12 
  -5  -4  -4    0.02    0.13 
   5   4   4    0.00    0.10 
   5   4   4    0.12    0.11 
  -6  -4  -4    1.94    0.28 
  -6  -4  -4    1.35    0.19 
  -6  -4  -4    1.63    0.21 
   6   4   4    1.93    0.19 
   6   4   4    2.10    0.20 
  -7  -4  -4    0.82    0.19 
  -7  -4  -4    0.72    0.09 
   7   4   4    0.47    0.12 
   7   4   4    0.92    0.15 
  -8  -4  -4    0.18    0.20 
  -8  -4  -4    0.52    0.26 
  -9  -4  -4    1.08    0.27 
  -9  -4  -4    1.17    0.34 
   5  -5  -4    0.67    0.29 
   5  -5  -4    0.34    0.37 
   5  -5  -4    0.41    0.27 
  -5   5   4   -0.12    0.37 
   4  -5  -4   -0.03    0.27 
   4  -5  -4    0.34    0.22 
  -4   5   4   -0.35    0.27 
  -4   5   4    0.03    0.35 
   3  -5  -4    0.68    0.26 
   3  -5  -4    1.05    0.24 
  -3   5   4    1.04    0.32 
  -3   5   4    0.79    0.26 
   2  -5  -4   15.34    0.82 
   2  -5  -4   16.38    0.81 
   2  -5  -4   16.32    0.84 
  -2   5   4   13.87    0.85 
   1  -5  -4   41.24    1.96 
   1  -5  -4   40.55    1.94 
   1  -5  -4   43.10    1.95 
  -1   5   4   42.78    1.95 
   0  -5  -4    0.04    0.17 
   0  -5  -4    0.30    0.17 
   0  -5  -4    0.14    0.16 
   0   5   4    0.00    0.20 
   0   5   4    0.07    0.17 
  -1  -5  -4    2.86    0.29 
  -1  -5  -4    2.92    0.29 
  -1  -5  -4    2.86    0.27 
   1   5   4    3.02    0.30 
   1   5   4    3.34    0.29 
  -2  -5  -4   34.71    1.59 
  -2  -5  -4   34.17    1.60 
  -2  -5  -4   35.02    1.59 
   2   5   4   34.10    1.59 
   2   5   4   33.81    1.58 
  -3  -5  -4   99.84    4.48 
  -3  -5  -4  101.17    4.47 
   3   5   4   98.85    4.46 
   3   5   4   97.66    4.45 
  -4  -5  -4    2.55    0.26 
  -4  -5  -4    2.39    0.25 
  -4  -5  -4    2.64    0.26 
   4   5   4    2.76    0.23 
   4   5   4    2.28    0.24 
  -5  -5  -4    4.15    0.31 
  -5  -5  -4    4.36    0.32 
  -5  -5  -4    3.90    0.31 
   5   5   4    4.27    0.27 
   5   5   4    4.14    0.29 
  -6  -5  -4    0.66    0.20 
  -6  -5  -4    0.58    0.16 
  -6  -5  -4    0.56    0.14 
   6   5   4    0.81    0.12 
   6   5   4    0.71    0.12 
  -7  -5  -4    6.26    0.38 
  -7  -5  -4    7.33    0.47 
  -8  -5  -4    8.56    0.44 
  -8  -5  -4    9.75    0.61 
  -8  -5  -4    9.60    0.56 
  -9  -5  -4    0.46    0.28 
  -9  -5  -4   -0.01    0.23 
   4  -6  -4    0.20    0.29 
   4  -6  -4    0.53    0.33 
   4  -6  -4    0.32    0.28 
   3  -6  -4   10.75    0.68 
   3  -6  -4   11.85    0.77 
  -3   6   4   10.62    0.70 
  -3   6   4   11.39    0.78 
   2  -6  -4    1.37    0.27 
  -2   6   4    1.59    0.34 
   1  -6  -4    6.01    0.46 
   1  -6  -4    6.43    0.49 
  -1   6   4    6.69    0.51 
   0  -6  -4    8.26    0.52 
   0  -6  -4    7.48    0.54 
   0   6   4    8.21    0.52 
   0   6   4    8.77    0.54 
  -1  -6  -4   29.92    1.37 
  -1  -6  -4   27.86    1.40 
  -1  -6  -4   27.93    1.38 
   1   6   4   30.94    1.39 
   1   6   4   27.98    1.37 
  -2  -6  -4   16.87    0.87 
  -2  -6  -4   17.67    0.88 
  -2  -6  -4   17.08    0.90 
   2   6   4   18.18    0.86 
   2   6   4   17.29    0.87 
  -3  -6  -4    0.11    0.17 
  -3  -6  -4    0.03    0.15 
  -3  -6  -4   -0.07    0.18 
   3   6   4    0.07    0.15 
   3   6   4    0.02    0.14 
  -4  -6  -4   11.32    0.59 
  -4  -6  -4   10.01    0.60 
   4   6   4   11.17    0.58 
   4   6   4   11.29    0.57 
  -5  -6  -4    7.88    0.48 
  -5  -6  -4    7.61    0.49 
  -5  -6  -4    8.56    0.50 
   5   6   4    8.17    0.45 
   5   6   4    8.00    0.43 
  -6  -6  -4    4.65    0.39 
  -6  -6  -4    5.88    0.39 
  -6  -6  -4    5.62    0.38 
   6   6   4    5.63    0.31 
   6   6   4    5.20    0.31 
  -7  -6  -4    0.29    0.16 
  -7  -6  -4    0.92    0.24 
  -7  -6  -4    0.18    0.16 
  -8  -6  -4    3.29    0.43 
  -8  -6  -4    3.06    0.37 
  -8  -6  -4    3.02    0.27 
  -9  -6  -4    0.32    0.29 
  -9  -6  -4    0.74    0.23 
   3  -7  -4    0.22    0.42 
   3  -7  -4    0.11    0.30 
   3  -7  -4    0.52    0.31 
  -3   7   4   -0.27    0.34 
   2  -7  -4    7.16    0.60 
   2  -7  -4    7.39    0.65 
   2  -7  -4    6.66    0.53 
  -2   7   4    7.30    0.65 
  -2   7   4    7.80    0.57 
   1  -7  -4    8.84    0.61 
   1  -7  -4    8.51    0.56 
  -1   7   4    6.91    0.64 
  -1   7   4    8.01    0.56 
   0  -7  -4    5.24    0.47 
   0  -7  -4    3.82    0.55 
   0   7   4    5.20    0.46 
  -1  -7  -4   -0.11    0.12 
  -1  -7  -4    0.20    0.21 
   1   7   4    0.49    0.21 
  -2  -7  -4   18.35    0.90 
  -2  -7  -4   16.24    0.88 
   2   7   4   16.54    0.88 
   2   7   4   18.11    0.89 
  -3  -7  -4   44.87    1.92 
  -3  -7  -4   42.07    1.92 
  -3  -7  -4   42.02    1.94 
   3   7   4   34.80    1.89 
   3   7   4   41.56    1.91 
  -4  -7  -4    0.90    0.23 
   4   7   4    1.21    0.20 
   4   7   4    1.22    0.18 
  -5  -7  -4    1.34    0.24 
   5   7   4    1.68    0.23 
   5   7   4    1.31    0.20 
  -6  -7  -4    0.43    0.19 
  -6  -7  -4   -0.23    0.19 
   6   7   4    0.01    0.11 
   6   7   4   -0.02    0.11 
  -7  -7  -4    5.08    0.44 
  -7  -7  -4    5.71    0.44 
  -8  -7  -4    3.58    0.41 
  -8  -7  -4    3.21    0.47 
  -8  -7  -4    3.12    0.35 
  -9  -7  -4    0.71    0.26 
  -9  -7  -4    0.76    0.33 
   2  -8  -4   -0.16    0.30 
   2  -8  -4    0.27    0.49 
  -2   8   4    0.03    0.34 
   1  -8  -4    0.32    0.29 
   1  -8  -4    0.53    0.30 
   1  -8  -4    0.32    0.24 
  -1   8   4    0.48    0.33 
  -1   8   4    0.39    0.31 
   0  -8  -4   -0.03    0.32 
   0  -8  -4   -0.13    0.30 
   0  -8  -4   -0.09    0.25 
   0   8   4   -0.38    0.33 
  -1  -8  -4    2.77    0.36 
  -1  -8  -4    2.10    0.29 
   1   8   4    2.20    0.35 
  -2  -8  -4    1.80    0.27 
  -2  -8  -4    2.73    0.41 
  -3  -8  -4    7.47    0.54 
  -3  -8  -4    6.91    0.51 
  -3  -8  -4    8.09    0.55 
   3   8   4    8.03    0.49 
  -4  -8  -4    1.79    0.29 
  -4  -8  -4    1.60    0.26 
  -4  -8  -4    1.22    0.22 
   4   8   4    1.67    0.21 
   4   8   4    1.84    0.26 
  -5  -8  -4    1.63    0.28 
  -5  -8  -4    1.43    0.28 
  -5  -8  -4    1.27    0.23 
   5   8   4    1.84    0.26 
   5   8   4    1.52    0.22 
  -6  -8  -4    8.11    0.52 
  -6  -8  -4    6.91    0.53 
   6   8   4    6.36    0.39 
   6   8   4    7.30    0.39 
  -7  -8  -4    5.72    0.48 
  -7  -8  -4    5.54    0.54 
  -7  -8  -4    6.72    0.49 
  -8  -8  -4    0.73    0.32 
  -8  -8  -4    0.40    0.23 
  -8  -8  -4    0.92    0.25 
  -1   9   4   -0.06    0.35 
   0  -9  -4    2.69    0.38 
   0   9   4    2.34    0.40 
  -1  -9  -4   -0.11    0.25 
  -1  -9  -4    0.05    0.23 
  -1  -9  -4    0.24    0.29 
   1   9   4    0.00    0.28 
   1   9   4    0.26    0.37 
  -2  -9  -4    1.92    0.30 
  -2  -9  -4    1.88    0.34 
  -2  -9  -4    2.53    0.36 
   2   9   4    1.98    0.35 
   2   9   4    3.14    0.51 
  -3  -9  -4    3.18    0.39 
  -3  -9  -4    2.22    0.33 
  -3  -9  -4    2.30    0.35 
   3   9   4    2.45    0.37 
  -5  -9  -4    0.13    0.25 
  -5  -9  -4    0.21    0.26 
  -5  -9  -4    0.16    0.21 
   5   9   4    0.07    0.19 
   5   9   4   -0.14    0.18 
  -6  -9  -4    1.14    0.30 
  -6  -9  -4    0.87    0.28 
  -6  -9  -4    1.13    0.26 
   6   9   4    0.68    0.14 
  -7  -9  -4    0.53    0.27 
  -7  -9  -4    0.67    0.26 
  -8  -9  -4    0.06    0.26 
  -8  -9  -4   -0.33    0.25 
   1  10   4    1.50    0.38 
  -2 -10  -4    0.70    0.29 
   2  10   4    1.87    0.43 
   2  10   4    0.82    0.31 
  -3 -10  -4    0.07    0.29 
   3  10   4   -0.16    0.33 
   3  10   4   -0.11    0.27 
  -4 -10  -4    0.42    0.27 
  -4 -10  -4    1.50    0.30 
   4  10   4    0.71    0.24 
   4  10   4    1.07    0.29 
  -5 -10  -4    7.31    0.60 
  -5 -10  -4    6.95    0.67 
  -5 -10  -4    7.29    0.62 
   5  10   4    8.87    0.53 
   5  10   4    6.33    0.52 
  -6 -10  -4    2.03    0.35 
  -6 -10  -4    1.57    0.34 
  -6 -10  -4    1.48    0.30 
  -7 -10  -4    0.67    0.30 
  -7 -10  -4    0.37    0.32 
  -5 -10   5    0.91    0.25 
  -5 -10   5    1.06    0.29 
  -4 -10   5    2.84    0.39 
  -4 -10   5    2.84    0.43 
  -3 -10   5    3.93    0.56 
  -3 -10   5    2.97    0.47 
   2  10  -5    0.86    0.38 
   2  10  -5    0.12    0.26 
  -2 -10   5    0.03    0.30 
  -2 -10   5   -0.08    0.39 
  -7  -9   5    0.51    0.22 
  -7  -9   5    0.91    0.46 
  -6  -9   5   -0.01    0.17 
  -6  -9   5   -0.28    0.39 
  -6  -9   5    0.03    0.22 
  -5  -9   5    1.34    0.25 
  -5  -9   5    0.95    0.38 
  -4  -9   5    2.75    0.37 
  -4  -9   5    3.00    0.42 
  -3  -9   5    0.04    0.25 
  -3  -9   5    0.16    0.23 
   2   9  -5    2.72    0.32 
  -2  -9   5    3.63    0.41 
  -2  -9   5    2.85    0.45 
   1   9  -5    0.28    0.23 
  -1  -9   5    0.60    0.28 
  -1  -9   5    0.17    0.28 
   0   9  -5   -0.19    0.27 
   0   9  -5    0.25    0.32 
   0  -9   5    0.10    0.29 
  -7  -8   5    0.08    0.33 
  -7  -8   5    0.53    0.14 
  -7  -8   5    0.27    0.12 
  -6  -8   5    0.29    0.13 
  -6  -8   5    0.43    0.15 
  -6  -8   5    0.08    0.36 
  -5  -8   5    0.18    0.16 
  -5  -8   5    0.30    0.31 
  -4  -8   5    2.04    0.33 
  -4  -8   5    1.88    0.23 
  -3  -8   5    6.15    0.44 
  -3  -8   5    7.16    0.50 
   2   8  -5   13.56    0.73 
  -2  -8   5   15.77    0.81 
  -2  -8   5   15.10    0.81 
   1   8  -5    1.09    0.22 
   1   8  -5    1.16    0.23 
  -1  -8   5    0.96    0.27 
  -1  -8   5    1.16    0.29 
   0   8  -5    3.67    0.47 
   0  -8   5    4.13    0.50 
   0  -8   5    3.86    0.57 
  -1   8  -5    2.61    0.38 
  -1   8  -5    2.27    0.33 
   1  -8   5    3.31    0.45 
   1  -8   5    2.86    0.40 
  -2   8  -5   -0.16    0.30 
  -2   8  -5   -0.20    0.42 
   2  -8   5   -0.11    0.32 
  -8  -7   5    3.61    0.47 
  -7  -7   5    1.49    0.16 
  -7  -7   5    1.53    0.15 
  -6  -7   5    8.88    0.61 
  -6  -7   5    8.42    0.42 
  -6  -7   5    7.94    0.43 
  -5  -7   5   22.17    1.11 
  -5  -7   5   20.42    1.00 
  -5  -7   5   21.47    1.00 
  -4  -7   5    2.27    0.25 
  -4  -7   5    2.55    0.26 
  -4  -7   5    1.92    0.31 
  -3  -7   5    0.50    0.16 
  -3  -7   5    0.53    0.16 
   2   7  -5   14.73    0.76 
  -2  -7   5   17.19    0.82 
  -2  -7   5   15.73    0.82 
   1   7  -5    8.05    0.48 
   1   7  -5    7.40    0.47 
  -1  -7   5    9.08    0.53 
  -1  -7   5    8.27    0.52 
   0   7  -5    4.77    0.40 
   0  -7   5    4.23    0.45 
   0  -7   5    4.65    0.45 
  -1   7  -5    0.34    0.22 
  -1   7  -5    0.43    0.27 
   1  -7   5    0.68    0.29 
   1  -7   5    0.42    0.25 
  -2   7  -5    0.53    0.28 
  -2   7  -5    0.69    0.34 
   2  -7   5    0.63    0.30 
   2  -7   5    0.70    0.30 
  -3   7  -5    0.53    0.34 
   3  -7   5    0.07    0.33 
  -8  -6   5   -0.17    0.25 
  -8  -6   5    0.18    0.06 
  -8  -6   5    0.31    0.07 
  -7  -6   5   -0.13    0.21 
  -6  -6   5    2.37    0.14 
  -6  -6   5    1.98    0.15 
  -5  -6   5    1.13    0.13 
  -5  -6   5    0.72    0.10 
  -4  -6   5    1.23    0.17 
  -4  -6   5    1.11    0.18 
  -3  -6   5    0.64    0.12 
  -3  -6   5    0.77    0.15 
   2   6  -5    1.74    0.16 
  -2  -6   5    1.57    0.24 
  -2  -6   5    1.79    0.25 
   1   6  -5    0.35    0.15 
   1   6  -5    0.36    0.14 
  -1  -6   5    0.26    0.17 
  -1  -6   5    0.40    0.18 
   0   6  -5    5.38    0.40 
   0   6  -5    5.78    0.41 
   0  -6   5    5.64    0.41 
   0  -6   5    5.83    0.42 
  -1   6  -5   11.37    0.65 
   1  -6   5   11.98    0.67 
   1  -6   5   11.80    0.68 
  -2   6  -5    0.76    0.28 
   2  -6   5    0.54    0.27 
  -3   6  -5    0.38    0.29 
  -3   6  -5    0.41    0.35 
   3  -6   5    0.50    0.28 
   3  -6   5    0.31    0.30 
  -4   6  -5    0.80    0.35 
   4  -6   5    0.51    0.32 
   4  -6   5    1.01    0.36 
  -8  -5   5    0.72    0.10 
  -8  -5   5    0.81    0.11 
  -8  -5   5    0.64    0.21 
  -7  -5   5    0.86    0.20 
  -7  -5   5    0.82    0.10 
  -6  -5   5    1.38    0.21 
  -5  -5   5    7.16    0.46 
  -5  -5   5    7.20    0.33 
  -4  -5   5   12.95    0.59 
  -4  -5   5   12.79    0.60 
  -4  -5   5   12.50    0.69 
  -3  -5   5    1.59    0.27 
  -3  -5   5    1.36    0.17 
  -3  -5   5    1.41    0.16 
   2   5  -5    3.75    0.19 
  -2  -5   5    3.56    0.35 
  -2  -5   5    4.01    0.26 
  -2  -5   5    4.19    0.27 
   1   5  -5   47.45    2.11 
  -1  -5   5   46.49    2.13 
  -1  -5   5   46.13    2.13 
   0   5  -5   30.12    1.41 
   0   5  -5   30.84    1.41 
   0  -5   5   29.58    1.42 
  -1   5  -5    0.70    0.20 
  -1   5  -5    0.80    0.20 
   1  -5   5    0.83    0.21 
  -2   5  -5   14.48    0.79 
  -2   5  -5   16.54    0.81 
   2  -5   5   14.04    0.81 
  -3   5  -5   11.76    0.73 
   3  -5   5   12.03    0.74 
  -4   5  -5    2.92    0.40 
  -4   5  -5    1.60    0.32 
   4  -5   5    2.31    0.40 
   4  -5   5    1.83    0.33 
  -5   5  -5   -0.28    0.36 
   5  -5   5   -0.09    0.28 
   5  -5   5   -0.21    0.27 
  -8  -4   5    0.57    0.16 
  -8  -4   5    0.85    0.15 
  -8  -4   5    0.80    0.13 
  -7  -4   5   14.25    0.70 
  -7  -4   5   12.55    0.63 
  -7  -4   5   13.14    0.62 
  -6  -4   5    0.53    0.18 
  -6  -4   5    0.68    0.09 
  -5  -4   5    1.53    0.20 
  -4  -4   5    3.76    0.18 
  -4  -4   5    3.62    0.18 
  -4  -4   5    3.81    0.31 
  -3  -4   5    5.23    0.27 
  -3  -4   5    5.18    0.27 
  -3  -4   5    5.35    0.36 
  -2  -4   5   67.35    3.04 
  -2  -4   5   67.33    3.04 
  -2  -4   5   68.79    3.08 
   1   4  -5    7.79    0.38 
   1   4  -5    7.62    0.38 
  -1  -4   5    6.80    0.43 
  -1  -4   5    7.72    0.40 
  -1  -4   5    7.38    0.40 
   0   4  -5    5.15    0.31 
   0   4  -5    5.01    0.31 
   0  -4   5    4.89    0.33 
   0  -4   5    4.77    0.35 
   0  -4   5    5.04    0.32 
  -1   4  -5    1.79    0.25 
  -1   4  -5    2.03    0.25 
   1  -4   5    1.63    0.25 
   1  -4   5    1.96    0.27 
  -2   4  -5   53.21    2.36 
  -2   4  -5   51.19    2.36 
   2  -4   5   52.64    2.36 
   2  -4   5   50.98    2.36 
   2  -4   5   48.26    2.36 
  -3   4  -5    1.46    0.24 
  -3   4  -5    1.50    0.27 
   3  -4   5    1.73    0.25 
   3  -4   5    1.70    0.26 
  -4   4  -5    1.25    0.31 
   4  -4   5    1.07    0.22 
   4  -4   5    1.57    0.30 
  -5   4  -5    1.60    0.34 
  -5   4  -5    2.14    0.34 
   5  -4   5    2.05    0.34 
   5  -4   5    1.40    0.32 
   5  -4   5    2.03    0.25 
  -6   4  -5   -0.40    0.34 
   6  -4   5   -0.06    0.30 
   6  -4   5    0.16    0.20 
   6  -4   5   -0.26    0.40 
  -8  -3   5    0.02    0.17 
  -8  -3   5   -0.03    0.14 
  -7  -3   5    2.97    0.24 
  -7  -3   5    2.94    0.29 
  -7  -3   5    2.94    0.27 
  -6  -3   5    4.36    0.27 
  -6  -3   5    4.74    0.34 
  -6  -3   5    4.69    0.26 
  -5  -3   5    5.65    0.28 
  -5  -3   5    5.68    0.28 
  -5  -3   5    6.13    0.38 
  -4  -3   5    2.29    0.25 
  -4  -3   5    2.32    0.12 
  -3  -3   5   36.75    1.65 
  -3  -3   5   36.26    1.65 
  -3  -3   5   37.74    1.70 
  -2  -3   5   60.70    2.82 
  -2  -3   5   65.75    2.86 
  -2  -3   5   62.78    2.82 
   1   3  -5  206.21    8.70 
   1   3  -5  200.92    8.70 
  -1  -3   5  189.12    8.70 
  -1  -3   5  190.07    8.68 
  -1  -3   5  188.33    8.68 
   0   3  -5   36.47    1.63 
   0   3  -5   34.70    1.63 
   0  -3   5   36.27    1.64 
   0  -3   5   35.90    1.66 
   0  -3   5   36.33    1.64 
  -1   3  -5    8.64    0.46 
  -1   3  -5    8.42    0.45 
   1  -3   5    8.60    0.48 
   1  -3   5    8.15    0.46 
   1  -3   5    8.39    0.46 
  -2   3  -5    7.45    0.45 
  -2   3  -5    7.67    0.45 
   2  -3   5    7.80    0.45 
   2  -3   5    7.08    0.45 
   2  -3   5    7.78    0.44 
  -3   3  -5   19.51    0.87 
  -3   3  -5   16.36    0.88 
   3  -3   5   16.00    0.87 
   3  -3   5   17.31    0.85 
   3  -3   5   15.88    0.84 
  -4   3  -5    2.49    0.36 
   4  -3   5    2.17    0.28 
   4  -3   5    2.40    0.37 
  -5   3  -5    2.15    0.34 
   5  -3   5    2.35    0.33 
   5  -3   5    2.40    0.28 
  -6   3  -5    0.45    0.29 
  -6   3  -5    0.43    0.31 
   6  -3   5    0.69    0.16 
   6  -3   5    0.20    0.36 
   6  -3   5    0.51    0.30 
  -7  -2   5    2.61    0.25 
  -7  -2   5    2.57    0.30 
  -7  -2   5    2.56    0.28 
  -6  -2   5    7.01    0.41 
  -6  -2   5    6.93    0.38 
  -6  -2   5    7.02    0.40 
  -5  -2   5   11.18    0.56 
  -5  -2   5   10.36    0.52 
  -5  -2   5   10.58    0.52 
   4   2  -5    0.36    0.12 
  -4  -2   5    0.07    0.12 
  -4  -2   5    0.40    0.07 
  -4  -2   5    0.44    0.07 
   3   2  -5    0.51    0.12 
  -3  -2   5    0.70    0.09 
  -3  -2   5    0.41    0.12 
  -3  -2   5    0.63    0.08 
   2   2  -5   99.13    4.28 
  -2  -2   5   97.10    4.28 
  -2  -2   5   91.21    4.24 
  -2  -2   5   93.78    4.24 
   1   2  -5   63.58    2.82 
   1   2  -5   59.48    2.82 
   1   2  -5   66.12    2.85 
  -1  -2   5   64.37    2.85 
  -1  -2   5   61.68    2.83 
  -1  -2   5   63.47    2.83 
   0   2  -5   33.51    1.42 
   0   2  -5   26.96    1.42 
   0  -2   5   32.59    1.44 
   0  -2   5   30.91    1.43 
   0  -2   5   32.55    1.43 
  -1   2  -5    1.26    0.18 
  -1   2  -5    1.32    0.16 
   1  -2   5    1.44    0.20 
   1  -2   5    1.31    0.16 
   1  -2   5    1.16    0.17 
  -2   2  -5   25.03    1.16 
  -2   2  -5   24.85    1.16 
   2  -2   5   24.59    1.16 
   2  -2   5   24.30    1.16 
  -3   2  -5   42.96    1.94 
  -3   2  -5   41.52    1.93 
   3  -2   5   41.52    1.93 
   3  -2   5   41.14    1.92 
   3  -2   5   42.24    1.93 
  -4   2  -5   12.34    0.68 
   4  -2   5   11.93    0.69 
   4  -2   5   11.20    0.64 
   4  -2   5   14.56    0.67 
  -5   2  -5    4.51    0.43 
  -5   2  -5    6.27    0.48 
   5  -2   5    6.46    0.37 
   5  -2   5    4.44    0.41 
  -6   2  -5    0.08    0.31 
  -6   2  -5    0.25    0.25 
   6  -2   5    0.11    0.13 
   6  -2   5    0.11    0.29 
  -7   2  -5    0.74    0.34 
   7  -2   5    1.17    0.32 
   7  -2   5    1.09    0.39 
  -8  -1   5   -0.05    0.24 
  -8  -1   5    0.23    0.30 
  -7  -1   5    3.21    0.37 
   6   1  -5    0.66    0.14 
  -6  -1   5    0.89    0.18 
  -6  -1   5    0.89    0.17 
  -6  -1   5    1.16    0.16 
   5   1  -5    0.14    0.12 
  -5  -1   5   -0.20    0.13 
  -5  -1   5    0.00    0.13 
  -5  -1   5   -0.04    0.11 
   4   1  -5    7.30    0.42 
  -4  -1   5    7.90    0.43 
  -4  -1   5    7.76    0.39 
  -4  -1   5    7.62    0.39 
   3   1  -5   59.94    2.65 
  -3  -1   5   59.34    2.65 
  -3  -1   5   57.32    2.62 
  -3  -1   5   57.50    2.62 
   2   1  -5    0.83    0.13 
  -2  -1   5    0.99    0.11 
  -2  -1   5    0.90    0.13 
   1   1  -5   18.74    0.88 
   1   1  -5   19.39    0.85 
   1   1  -5   18.43    0.85 
  -1  -1   5   18.15    0.88 
  -1  -1   5   18.89    0.85 
  -1  -1   5   18.14    0.85 
   0   1  -5   29.57    1.34 
   0   1  -5   29.72    1.34 
   0   1  -5   29.62    1.36 
   0  -1   5   29.01    1.36 
   0  -1   5   29.45    1.34 
   0  -1   5   30.09    1.34 
  -1   1  -5    1.90    0.17 
  -1   1  -5    1.85    0.16 
  -1   1  -5    1.68    0.18 
   1  -1   5    1.57    0.18 
   1  -1   5    1.19    0.17 
   1  -1   5    1.62    0.16 
  -2   1  -5  109.65    4.90 
  -2   1  -5  115.65    4.90 
   2  -1   5  107.40    4.90 
   2  -1   5  107.99    4.90 
   2  -1   5  106.30    4.90 
  -3   1  -5    9.47    0.49 
  -3   1  -5    9.24    0.49 
   3  -1   5    7.59    0.48 
   3  -1   5    9.58    0.49 
   3  -1   5    9.41    0.47 
  -4   1  -5    4.41    0.37 
  -4   1  -5    5.09    0.36 
   4  -1   5    4.49    0.30 
   4  -1   5    4.68    0.37 
   4  -1   5    5.02    0.34 
  -5   1  -5   -0.01    0.19 
  -5   1  -5    0.49    0.24 
   5  -1   5    0.89    0.21 
  -6   1  -5   10.77    0.65 
  -6   1  -5   12.29    0.71 
   6  -1   5   10.21    0.54 
   6  -1   5   10.69    0.64 
  -7   1  -5    1.77    0.36 
   7  -1   5    1.83    0.40 
   7  -1   5    1.62    0.35 
  -8   1  -5   -0.04    0.35 
   8  -1   5   -0.43    0.37 
   8  -1   5   -0.40    0.29 
   7   0  -5    2.61    0.25 
  -7   0   5    1.92    0.34 
  -7   0   5    2.38    0.39 
   6   0  -5    6.45    0.38 
  -6   0   5    5.91    0.47 
  -6   0   5    5.96    0.44 
   5   0  -5    0.27    0.11 
  -5   0   5    0.07    0.13 
   4   0  -5    0.21    0.12 
  -4   0   5   -0.01    0.10 
  -4   0   5    0.04    0.13 
  -4   0   5    0.14    0.13 
   3   0  -5   36.03    1.62 
   3   0  -5   34.77    1.62 
   3   0  -5   36.74    1.66 
  -3   0   5   36.35    1.65 
  -3   0   5   36.74    1.66 
  -3   0   5   36.97    1.65 
   2   0  -5   70.48    3.27 
   2   0  -5   75.18    3.30 
   2   0  -5   72.55    3.27 
  -2   0   5   73.17    3.28 
  -2   0   5   74.34    3.30 
  -2   0   5   74.16    3.28 
   1   0  -5    0.44    0.07 
   1   0  -5    0.40    0.07 
  -1   0   5    0.40    0.08 
  -1   0   5    0.47    0.08 
  -1   0   5    0.22    0.10 
   0   0  -5    0.24    0.07 
   0   0  -5    0.24    0.07 
   0   0  -5    0.21    0.09 
   0   0   5    0.11    0.09 
   0   0   5    0.26    0.07 
   0   0   5    0.26    0.07 
  -1   0  -5   21.14    0.97 
  -1   0  -5   21.84    0.98 
  -1   0  -5   21.35    0.98 
   1   0   5   21.84    0.98 
   1   0   5   20.41    0.99 
   1   0   5   20.32    0.98 
  -2   0  -5  200.49    8.54 
  -2   0  -5  192.02    8.54 
  -2   0  -5  190.55    8.53 
   2   0   5  190.82    8.53 
   2   0   5  184.28    8.53 
   2   0   5  190.85    8.54 
  -3   0  -5   27.42    1.25 
  -3   0  -5   27.28    1.27 
   3   0   5   26.46    1.25 
   3   0   5   26.78    1.26 
   3   0   5   28.34    1.27 
  -4   0  -5    1.57    0.19 
  -4   0  -5    1.61    0.20 
   4   0   5    1.50    0.23 
   4   0   5    1.63    0.18 
   4   0   5    1.11    0.17 
  -5   0  -5    1.69    0.25 
   5   0   5    2.14    0.24 
   5   0   5    1.57    0.17 
   5   0   5    1.67    0.21 
  -6   0  -5   12.76    0.76 
  -6   0  -5   13.75    0.77 
   6   0   5   14.94    0.75 
   6   0   5   12.95    0.65 
   6   0   5   15.18    0.76 
  -7   0  -5    0.08    0.25 
  -7   0  -5   -0.38    0.30 
   7   0   5    0.08    0.22 
   7   0   5    0.06    0.23 
  -8   0  -5    0.16    0.30 
  -8   0  -5    0.58    0.32 
   8   0   5    1.14    0.32 
   8   0   5   -0.02    0.23 
  -7   1   5   -0.05    0.35 
  -7   1   5    0.01    0.25 
   6  -1  -5    1.14    0.18 
  -6   1   5    1.11    0.24 
  -6   1   5    1.01    0.29 
   5  -1  -5   13.91    0.69 
   5  -1  -5   12.68    0.63 
   5  -1  -5   13.02    0.64 
  -5   1   5   13.75    0.73 
  -5   1   5   13.60    0.72 
   4  -1  -5   16.37    0.76 
   4  -1  -5   16.17    0.79 
   4  -1  -5   15.44    0.76 
  -4   1   5   16.40    0.79 
  -4   1   5   16.33    0.80 
  -4   1   5   15.67    0.80 
   3  -1  -5   15.46    0.74 
   3  -1  -5   16.16    0.75 
   3  -1  -5   16.27    0.77 
  -3   1   5   15.42    0.77 
  -3   1   5   15.28    0.77 
  -3   1   5   16.02    0.77 
   2  -1  -5    1.34    0.15 
   2  -1  -5    1.40    0.16 
   2  -1  -5    1.66    0.19 
  -2   1   5    1.54    0.20 
  -2   1   5    1.62    0.18 
  -2   1   5    1.10    0.18 
   1  -1  -5   93.91    4.19 
   1  -1  -5   95.76    4.21 
   1  -1  -5   91.25    4.19 
  -1   1   5   93.91    4.19 
  -1   1   5   93.74    4.20 
   0  -1  -5   96.66    4.13 
   0  -1  -5   93.20    4.14 
   0   1   5   89.06    4.13 
   0   1   5   90.50    4.14 
   0   1   5   92.50    4.13 
  -1  -1  -5    7.56    0.40 
  -1  -1  -5    7.73    0.39 
  -1  -1  -5    7.86    0.39 
   1   1   5    7.72    0.40 
   1   1   5    7.63    0.39 
   1   1   5    7.83    0.39 
  -2  -1  -5   13.99    0.65 
  -2  -1  -5   13.54    0.65 
  -2  -1  -5   13.26    0.65 
   2   1   5   12.87    0.65 
   2   1   5   14.57    0.66 
   2   1   5   13.11    0.65 
  -3  -1  -5    1.78    0.18 
  -3  -1  -5    1.89    0.17 
  -3  -1  -5    1.55    0.19 
   3   1   5    1.60    0.16 
   3   1   5    1.48    0.18 
   3   1   5    1.59    0.18 
  -4  -1  -5   77.28    3.73 
  -4  -1  -5   85.20    3.73 
  -4  -1  -5   84.85    3.71 
   4   1   5   82.30    3.71 
   4   1   5   86.01    3.73 
   4   1   5   81.77    3.73 
  -5  -1  -5    0.08    0.17 
   5   1   5   -0.15    0.14 
   5   1   5    0.06    0.08 
   5   1   5   -0.24    0.13 
  -6  -1  -5   -0.15    0.19 
   6   1   5    0.29    0.18 
   6   1   5   -0.23    0.18 
  -7  -1  -5    0.61    0.26 
  -7  -1  -5    0.53    0.23 
   7   1   5    0.59    0.21 
   7   1   5    0.47    0.25 
  -8  -1  -5    7.46    0.67 
  -8  -1  -5    6.36    0.58 
   8   1   5    7.46    0.55 
  -7   2   5   -0.47    0.34 
  -7   2   5    0.00    0.32 
   6  -2  -5   -0.10    0.15 
   6  -2  -5   -0.13    0.18 
   6  -2  -5    0.01    0.16 
  -6   2   5   -0.09    0.34 
  -6   2   5   -0.28    0.25 
   5  -2  -5    1.13    0.19 
   5  -2  -5    0.69    0.17 
   5  -2  -5    0.56    0.18 
  -5   2   5    1.21    0.24 
  -5   2   5    1.55    0.29 
   4  -2  -5    1.20    0.19 
   4  -2  -5    0.95    0.17 
   4  -2  -5    1.07    0.17 
  -4   2   5    1.01    0.20 
  -4   2   5    0.91    0.22 
   3  -2  -5    5.43    0.36 
   3  -2  -5    4.97    0.33 
   3  -2  -5    5.20    0.33 
  -3   2   5    5.21    0.37 
  -3   2   5    4.99    0.36 
  -3   2   5    5.05    0.36 
   2  -2  -5   11.72    0.57 
   2  -2  -5   10.73    0.57 
   2  -2  -5   11.60    0.59 
  -2   2   5   11.34    0.59 
  -2   2   5   11.03    0.58 
  -2   2   5   11.79    0.59 
   1  -2  -5    1.57    0.18 
   1  -2  -5    1.69    0.19 
   1  -2  -5    1.78    0.18 
  -1   2   5    1.71    0.20 
  -1   2   5    1.75    0.19 
  -1   2   5    1.50    0.20 
   0  -2  -5    5.96    0.33 
   0  -2  -5    5.75    0.32 
   0  -2  -5    5.51    0.33 
   0   2   5    5.47    0.31 
   0   2   5    5.53    0.34 
   0   2   5    5.66    0.32 
  -1  -2  -5    6.35    0.35 
  -1  -2  -5    6.15    0.34 
  -1  -2  -5    6.45    0.35 
   1   2   5    6.33    0.35 
   1   2   5    6.56    0.34 
   1   2   5    6.09    0.35 
  -2  -2  -5  126.20    5.44 
  -2  -2  -5  120.15    5.44 
  -2  -2  -5  115.54    5.44 
   2   2   5  126.76    5.44 
   2   2   5  120.15    5.44 
   2   2   5  121.26    5.44 
  -3  -2  -5    4.17    0.27 
  -3  -2  -5    3.71    0.25 
  -3  -2  -5    3.78    0.26 
   3   2   5    4.07    0.26 
   3   2   5    3.84    0.25 
   3   2   5    3.92    0.26 
  -4  -2  -5    1.09    0.16 
  -4  -2  -5    1.73    0.20 
  -4  -2  -5    1.29    0.17 
   4   2   5    1.44    0.18 
   4   2   5    1.35    0.21 
   4   2   5    1.38    0.17 
  -5  -2  -5   18.20    0.91 
  -5  -2  -5   18.26    0.91 
  -5  -2  -5   18.51    0.87 
   5   2   5   18.45    0.87 
   5   2   5   18.89    0.90 
   5   2   5   18.99    0.89 
  -6  -2  -5    7.25    0.47 
   6   2   5    5.99    0.39 
   6   2   5    6.23    0.41 
  -7  -2  -5    0.15    0.24 
  -7  -2  -5    0.03    0.20 
   7   2   5    0.18    0.19 
   7   2   5    0.23    0.18 
  -8  -2  -5    0.14    0.24 
  -8  -2  -5    0.79    0.34 
   8   2   5    0.58    0.22 
   8   2   5    0.69    0.20 
  -9  -2  -5    0.26    0.33 
  -9  -2  -5    0.10    0.33 
   6  -3  -5    0.11    0.23 
   6  -3  -5   -0.12    0.23 
  -6   3   5   -0.37    0.34 
  -6   3   5   -0.41    0.28 
   5  -3  -5    6.22    0.47 
   5  -3  -5    5.86    0.48 
   5  -3  -5    5.75    0.45 
  -5   3   5    5.12    0.56 
  -5   3   5    5.56    0.50 
   4  -3  -5    4.15    0.38 
   4  -3  -5    4.71    0.39 
   4  -3  -5    4.56    0.39 
  -4   3   5    4.77    0.42 
  -4   3   5    4.13    0.46 
   3  -3  -5   13.38    0.73 
   3  -3  -5   13.32    0.71 
   3  -3  -5   13.25    0.71 
  -3   3   5   14.94    0.75 
   2  -3  -5    2.69    0.27 
   2  -3  -5    2.84    0.26 
   2  -3  -5    2.58    0.26 
  -2   3   5    3.06    0.30 
  -2   3   5    3.11    0.30 
   1  -3  -5   15.64    0.77 
   1  -3  -5   16.40    0.78 
   1  -3  -5   16.26    0.79 
  -1   3   5   15.19    0.79 
  -1   3   5   15.98    0.78 
  -1   3   5   15.85    0.78 
   0  -3  -5   94.46    4.11 
   0  -3  -5   91.02    4.12 
   0  -3  -5   87.38    4.10 
   0   3   5   90.22    4.12 
   0   3   5   91.34    4.10 
   0   3   5   93.85    4.11 
  -1  -3  -5  159.12    6.83 
  -1  -3  -5  152.85    6.84 
  -1  -3  -5  150.37    6.83 
   1   3   5  148.00    6.83 
   1   3   5  153.43    6.83 
   1   3   5  153.57    6.84 
  -2  -3  -5    1.26    0.15 
  -2  -3  -5    1.14    0.18 
  -2  -3  -5    1.16    0.18 
   2   3   5    1.15    0.17 
   2   3   5    1.26    0.20 
   2   3   5    1.38    0.15 
  -3  -3  -5    4.39    0.28 
  -3  -3  -5    3.73    0.26 
  -3  -3  -5    3.88    0.26 
   3   3   5    3.67    0.26 
   3   3   5    4.21    0.27 
   3   3   5    3.67    0.28 
  -4  -3  -5   10.45    0.53 
  -4  -3  -5    9.89    0.52 
  -4  -3  -5    9.41    0.51 
   4   3   5   10.48    0.52 
   4   3   5    9.86    0.53 
   4   3   5   10.10    0.52 
  -5  -3  -5   24.75    1.19 
  -5  -3  -5   26.57    1.20 
  -5  -3  -5   23.78    1.17 
   5   3   5   24.78    1.18 
   5   3   5   26.43    1.18 
  -6  -3  -5   27.08    1.28 
  -6  -3  -5   28.40    1.29 
  -6  -3  -5   25.44    1.23 
   6   3   5   27.26    1.26 
   6   3   5   26.43    1.26 
  -7  -3  -5    2.43    0.36 
  -7  -3  -5    1.71    0.24 
   7   3   5    1.92    0.30 
   7   3   5    1.60    0.26 
  -8  -3  -5    0.12    0.23 
  -8  -3  -5   -0.08    0.29 
   8   3   5   -0.04    0.18 
   8   3   5    0.16    0.17 
  -9  -3  -5    3.47    0.51 
  -9  -3  -5    3.56    0.56 
   5  -4  -5    6.14    0.56 
   5  -4  -5    6.71    0.53 
  -5   4   5    6.75    0.63 
  -5   4   5    5.84    0.58 
   4  -4  -5    0.58    0.21 
   4  -4  -5    0.49    0.22 
  -4   4   5    0.23    0.25 
  -4   4   5    0.42    0.31 
   3  -4  -5    5.80    0.42 
   3  -4  -5    6.97    0.49 
  -3   4   5    5.14    0.44 
  -3   4   5    5.02    0.51 
   2  -4  -5    1.69    0.23 
   2  -4  -5    0.99    0.19 
   2  -4  -5    1.45    0.25 
  -2   4   5    1.49    0.24 
   1  -4  -5   78.04    3.48 
   1  -4  -5   78.62    3.49 
   1  -4  -5   79.73    3.48 
  -1   4   5   79.36    3.49 
  -1   4   5   68.35    3.48 
   0  -4  -5   15.06    0.75 
   0  -4  -5   14.48    0.74 
   0  -4  -5   15.62    0.74 
   0   4   5   14.17    0.75 
  -1  -4  -5   29.04    1.44 
  -1  -4  -5   33.06    1.45 
  -1  -4  -5   31.69    1.46 
   1   4   5   30.72    1.45 
   1   4   5   31.32    1.44 
  -2  -4  -5   24.69    1.17 
  -2  -4  -5   24.55    1.16 
   2   4   5   25.27    1.16 
   2   4   5   24.04    1.15 
  -3  -4  -5   79.54    3.65 
  -3  -4  -5   82.14    3.64 
  -3  -4  -5   80.86    3.64 
   3   4   5   81.01    3.64 
   3   4   5   80.49    3.63 
  -4  -4  -5   14.97    0.74 
  -4  -4  -5   15.42    0.75 
  -4  -4  -5   15.18    0.74 
   4   4   5   14.56    0.73 
   4   4   5   14.93    0.74 
  -5  -4  -5    2.24    0.27 
  -5  -4  -5    2.34    0.28 
  -5  -4  -5    2.63    0.23 
   5   4   5    2.11    0.26 
   5   4   5    2.18    0.24 
  -6  -4  -5   13.57    0.69 
  -6  -4  -5   13.84    0.73 
  -6  -4  -5   14.80    0.73 
   6   4   5   13.61    0.70 
   6   4   5   14.52    0.70 
  -7  -4  -5    0.09    0.18 
   7   4   5    0.04    0.15 
  -8  -4  -5    4.73    0.48 
  -8  -4  -5    4.56    0.44 
   8   4   5    3.88    0.29 
   8   4   5    4.66    0.29 
  -9  -4  -5    0.61    0.37 
  -9  -4  -5    0.10    0.26 
   5  -5  -5    0.31    0.37 
   5  -5  -5    0.43    0.27 
  -5   5   5    0.40    0.35 
   4  -5  -5    4.39    0.54 
  -4   5   5    4.71    0.56 
  -4   5   5    4.88    0.53 
   3  -5  -5   -0.18    0.20 
   3  -5  -5    0.22    0.24 
   3  -5  -5    0.30    0.19 
  -3   5   5    0.07    0.33 
  -3   5   5   -0.29    0.24 
   2  -5  -5   15.54    0.76 
   2  -5  -5   12.69    0.73 
   2  -5  -5   13.52    0.75 
  -2   5   5   13.32    0.79 
   1  -5  -5   12.62    0.73 
   1  -5  -5   11.87    0.67 
   1  -5  -5   12.95    0.68 
  -1   5   5   12.80    0.68 
   0  -5  -5   31.92    1.56 
   0  -5  -5   33.50    1.58 
   0  -5  -5   34.35    1.57 
   0   5   5   33.50    1.57 
  -1  -5  -5   14.01    0.73 
  -1  -5  -5   14.53    0.74 
  -1  -5  -5   13.53    0.72 
   1   5   5   13.84    0.71 
   1   5   5   14.05    0.72 
  -2  -5  -5    1.66    0.20 
  -2  -5  -5    1.33    0.20 
  -2  -5  -5    1.54    0.20 
   2   5   5    1.64    0.20 
   2   5   5    1.40    0.20 
  -3  -5  -5    7.89    0.46 
  -3  -5  -5    7.75    0.47 
   3   5   5    8.10    0.46 
   3   5   5    7.71    0.44 
  -4  -5  -5    6.13    0.39 
  -4  -5  -5    5.87    0.40 
  -4  -5  -5    5.78    0.39 
   4   5   5    5.84    0.38 
   4   5   5    6.01    0.37 
  -5  -5  -5    4.83    0.33 
  -5  -5  -5    4.24    0.34 
  -5  -5  -5    4.11    0.36 
   5   5   5    4.00    0.32 
   5   5   5    4.11    0.31 
  -6  -5  -5    0.47    0.18 
  -6  -5  -5    0.79    0.15 
   6   5   5    0.80    0.16 
   6   5   5    0.63    0.15 
  -7  -5  -5    0.08    0.12 
  -7  -5  -5    0.09    0.18 
   7   5   5    0.00    0.13 
   7   5   5   -0.04    0.11 
  -8  -5  -5    6.41    0.49 
  -8  -5  -5    5.88    0.34 
  -8  -5  -5    6.51    0.52 
  -9  -5  -5    0.62    0.26 
  -9  -5  -5    0.43    0.35 
   4  -6  -5   -0.36    0.30 
   4  -6  -5   -0.06    0.30 
   4  -6  -5    0.42    0.27 
  -4   6   5    0.08    0.35 
   3  -6  -5    0.63    0.34 
   3  -6  -5    0.64    0.26 
   3  -6  -5    1.03    0.49 
  -3   6   5    0.52    0.29 
  -3   6   5    0.79    0.33 
   2  -6  -5    2.83    0.44 
  -2   6   5    3.06    0.42 
   0  -6  -5    1.80    0.27 
   0  -6  -5    1.44    0.26 
   0   6   5    1.51    0.30 
  -1  -6  -5    2.22    0.27 
   1   6   5    1.49    0.25 
  -2  -6  -5    2.39    0.35 
  -2  -6  -5    2.22    0.29 
   2   6   5    2.27    0.30 
   2   6   5    2.86    0.29 
  -3  -6  -5   23.09    1.14 
  -3  -6  -5   22.84    1.16 
  -3  -6  -5   24.34    1.15 
   3   6   5   23.42    1.14 
   3   6   5   24.84    1.13 
  -4  -6  -5   28.40    1.29 
  -4  -6  -5   27.19    1.29 
  -4  -6  -5   27.13    1.30 
   4   6   5   26.02    1.27 
   4   6   5   26.36    1.27 
  -5  -6  -5    2.90    0.34 
  -5  -6  -5    4.25    0.37 
   5   6   5    3.60    0.30 
   5   6   5    3.84    0.33 
  -6  -6  -5   10.12    0.54 
  -6  -6  -5    9.57    0.57 
  -6  -6  -5    8.41    0.54 
   6   6   5    8.86    0.49 
   6   6   5    8.39    0.48 
  -7  -6  -5    1.92    0.29 
  -7  -6  -5    2.77    0.41 
  -7  -6  -5    3.17    0.36 
   7   6   5    2.72    0.22 
   7   6   5    2.84    0.22 
  -8  -6  -5    2.74    0.40 
  -8  -6  -5    2.89    0.45 
  -8  -6  -5    2.32    0.28 
  -9  -6  -5    1.26    0.36 
  -9  -6  -5    0.92    0.26 
   3  -7  -5    0.30    0.31 
   3  -7  -5   -0.44    0.33 
  -3   7   5    0.04    0.34 
   2  -7  -5    5.02    0.57 
   2  -7  -5    4.96    0.50 
   2  -7  -5    4.98    0.51 
  -2   7   5    5.14    0.54 
  -2   7   5    4.80    0.55 
   1  -7  -5    1.16    0.31 
   1  -7  -5    1.35    0.30 
   1  -7  -5    0.87    0.25 
  -1   7   5    1.14    0.38 
  -1   7   5    1.24    0.33 
   0  -7  -5    1.32    0.31 
   0   7   5    1.59    0.32 
  -1  -7  -5   10.60    0.61 
   1   7   5    9.27    0.66 
  -2  -7  -5    5.69    0.49 
  -2  -7  -5    5.97    0.46 
   2   7   5    6.45    0.45 
  -3  -7  -5    6.06    0.45 
  -3  -7  -5    5.19    0.43 
  -3  -7  -5    5.54    0.44 
   3   7   5    6.39    0.44 
   3   7   5    5.03    0.43 
  -4  -7  -5    3.45    0.34 
  -4  -7  -5    3.62    0.39 
   4   7   5    3.28    0.36 
   4   7   5    3.10    0.32 
  -5  -7  -5   11.60    0.66 
  -5  -7  -5   12.64    0.67 
   5   7   5   11.05    0.62 
   5   7   5   11.48    0.62 
  -6  -7  -5    0.28    0.21 
  -6  -7  -5    0.66    0.24 
  -6  -7  -5    0.90    0.22 
   6   7   5    0.40    0.17 
   6   7   5    0.46    0.16 
  -7  -7  -5    3.01    0.37 
  -7  -7  -5    2.50    0.32 
  -7  -7  -5    2.77    0.39 
   7   7   5    2.69    0.21 
   7   7   5    2.06    0.21 
  -8  -7  -5    0.01    0.22 
  -8  -7  -5   -0.28    0.17 
  -8  -7  -5   -0.18    0.29 
  -9  -7  -5    2.40    0.42 
  -2   8   5   -0.19    0.44 
   1  -8  -5    1.07    0.33 
   1  -8  -5    1.48    0.32 
  -1   8   5    1.92    0.39 
   0  -8  -5    0.01    0.24 
   0  -8  -5    0.36    0.31 
   0  -8  -5    0.50    0.28 
   0   8   5    0.70    0.39 
  -1  -8  -5   -0.07    0.28 
  -1  -8  -5   -0.17    0.37 
   1   8   5    0.18    0.25 
   1   8   5   -0.37    0.31 
  -2  -8  -5    0.08    0.22 
  -2  -8  -5    0.13    0.26 
   2   8   5   -0.27    0.35 
   2   8   5   -0.05    0.30 
  -3  -8  -5   20.45    1.03 
  -3  -8  -5   19.57    0.99 
  -3  -8  -5   19.15    1.01 
   3   8   5   19.35    0.99 
   3   8   5   17.06    0.95 
  -4  -8  -5    0.97    0.25 
  -4  -8  -5    1.40    0.26 
  -4  -8  -5    1.33    0.25 
   4   8   5    0.93    0.21 
  -5  -8  -5    0.12    0.23 
  -5  -8  -5    0.04    0.22 
  -5  -8  -5    0.23    0.23 
   5   8   5   -0.25    0.19 
   5   8   5   -0.20    0.21 
  -6  -8  -5   -0.06    0.24 
  -6  -8  -5   -0.05    0.21 
   6   8   5    0.19    0.16 
   6   8   5    0.14    0.19 
  -7  -8  -5    5.90    0.50 
  -7  -8  -5    5.88    0.49 
  -7  -8  -5    5.17    0.57 
   7   8   5    5.41    0.30 
  -8  -8  -5    0.08    0.22 
  -8  -8  -5    0.13    0.24 
  -8  -8  -5   -0.02    0.35 
   0  -9  -5    0.28    0.33 
   0   9   5    0.60    0.37 
  -1  -9  -5    1.98    0.32 
   1   9   5    2.16    0.41 
   1   9   5    1.49    0.32 
  -2  -9  -5   11.38    0.76 
  -2  -9  -5   10.53    0.74 
   2   9   5   11.68    0.79 
   2   9   5   11.70    0.72 
  -3  -9  -5    1.29    0.35 
  -3  -9  -5    1.09    0.27 
  -3  -9  -5    0.93    0.31 
   3   9   5    0.96    0.32 
  -4  -9  -5    1.18    0.31 
  -4  -9  -5    1.19    0.28 
  -4  -9  -5    1.21    0.31 
  -5  -9  -5    2.83    0.43 
  -5  -9  -5    2.88    0.50 
  -5  -9  -5    3.55    0.53 
   5   9   5    4.23    0.40 
   5   9   5    4.02    0.43 
  -6  -9  -5    0.58    0.28 
  -6  -9  -5    0.51    0.25 
  -6  -9  -5    0.58    0.32 
   6   9   5    0.29    0.21 
   6   9   5    0.72    0.20 
  -7  -9  -5   -0.02    0.26 
  -7  -9  -5    0.03    0.27 
  -2 -10  -5    0.42    0.30 
   2  10   5   -0.15    0.36 
   2  10   5    0.16    0.36 
  -3 -10  -5    1.42    0.32 
   3  10   5    0.79    0.30 
   3  10   5    0.71    0.40 
  -4 -10  -5    0.57    0.31 
   4  10   5    0.22    0.33 
  -5 -10  -5    1.80    0.32 
  -5 -10  -5    1.84    0.33 
  -6 -10  -5    0.63    0.28 
  -6 -10  -5    0.34    0.34 
  -6 -10  -5    0.75    0.28 
   6  10   5    0.61    0.36 
   6  10   5    0.03    0.27 
  -4 -10   6    6.22    0.64 
  -4 -10   6    4.78    0.51 
  -4 -10   6    4.10    0.69 
  -3 -10   6    0.04    0.31 
  -3 -10   6   -0.36    0.28 
  -6  -9   6   -0.19    0.37 
  -6  -9   6    0.16    0.17 
  -6  -9   6   -0.07    0.21 
  -5  -9   6   -0.20    0.33 
  -5  -9   6    1.28    0.30 
  -4  -9   6    7.28    0.55 
  -4  -9   6    6.89    0.66 
  -4  -9   6    6.70    0.52 
  -3  -9   6    0.74    0.26 
  -3  -9   6    0.31    0.26 
   2   9  -6    0.01    0.17 
  -2  -9   6    0.50    0.31 
  -2  -9   6    0.45    0.27 
   1   9  -6    0.68    0.24 
  -1  -9   6    0.37    0.31 
  -1  -9   6    0.06    0.28 
   0   9  -6    0.02    0.32 
   0   9  -6   -0.31    0.29 
   0  -9   6   -0.45    0.27 
  -7  -8   6    2.14    0.43 
  -7  -8   6    1.94    0.26 
  -6  -8   6    1.27    0.39 
  -6  -8   6    1.14    0.17 
  -6  -8   6    0.80    0.16 
  -5  -8   6    0.03    0.15 
  -5  -8   6    0.40    0.15 
  -5  -8   6    0.07    0.34 
  -4  -8   6    0.67    0.21 
  -4  -8   6    0.87    0.36 
  -4  -8   6    0.46    0.19 
  -3  -8   6    0.47    0.21 
  -3  -8   6   -0.05    0.32 
   2   8  -6    2.45    0.26 
  -2  -8   6    2.33    0.32 
  -2  -8   6    2.77    0.40 
   1   8  -6    2.22    0.36 
   1   8  -6    2.14    0.35 
  -1  -8   6    1.85    0.32 
  -1  -8   6    2.00    0.33 
   0   8  -6    4.02    0.49 
   0  -8   6    4.84    0.57 
   0  -8   6    3.73    0.51 
  -1   8  -6    0.22    0.36 
  -1   8  -6   -0.08    0.28 
   1  -8   6   -0.45    0.27 
  -2   8  -6    1.20    0.37 
   2  -8   6    0.59    0.37 
   2  -8   6    0.74    0.43 
  -8  -7   6    1.53    0.36 
  -7  -7   6    1.56    0.14 
  -7  -7   6    1.39    0.14 
  -7  -7   6    1.84    0.34 
  -6  -7   6    0.49    0.12 
  -6  -7   6    0.80    0.29 
  -6  -7   6    0.61    0.11 
  -5  -7   6   -0.05    0.27 
  -5  -7   6    0.28    0.13 
  -5  -7   6    0.38    0.12 
  -4  -7   6    1.81    0.23 
  -4  -7   6    1.67    0.25 
  -4  -7   6    1.66    0.34 
  -3  -7   6   12.67    0.65 
  -3  -7   6   12.05    0.65 
  -3  -7   6   11.86    0.73 
   2   7  -6    3.77    0.24 
  -2  -7   6    3.78    0.44 
   1   7  -6    0.50    0.16 
   1   7  -6    0.52    0.16 
  -1  -7   6    0.95    0.23 
  -1  -7   6    0.78    0.21 
   0   7  -6    0.76    0.21 
   0  -7   6    1.02    0.26 
   0  -7   6    0.87    0.27 
  -1   7  -6    4.71    0.48 
  -1   7  -6    5.29    0.50 
   1  -7   6    4.36    0.55 
   1  -7   6    4.67    0.48 
  -2   7  -6    0.43    0.27 
  -2   7  -6    0.47    0.33 
   2  -7   6    0.44    0.35 
   2  -7   6    0.06    0.25 
   2  -7   6    0.02    0.28 
  -3   7  -6    0.30    0.33 
   3  -7   6    0.11    0.33 
   3  -7   6    0.46    0.33 
  -8  -6   6    8.14    0.55 
  -6  -6   6    0.10    0.06 
  -6  -6   6    0.02    0.06 
  -5  -6   6    1.06    0.14 
  -5  -6   6    0.97    0.15 
  -4  -6   6   22.64    1.08 
  -4  -6   6   24.71    1.16 
  -4  -6   6   22.83    1.08 
   2   6  -6    0.77    0.12 
  -2  -6   6    0.70    0.24 
  -2  -6   6    0.60    0.17 
  -2  -6   6    0.40    0.13 
   1   6  -6    1.71    0.24 
   1   6  -6    1.56    0.23 
  -1  -6   6    1.06    0.19 
  -1  -6   6    1.46    0.27 
  -1  -6   6    1.53    0.21 
   0   6  -6   35.89    1.69 
   0   6  -6   37.19    1.69 
   0  -6   6   35.51    1.70 
   0  -6   6   36.10    1.70 
  -1   6  -6   -0.05    0.19 
   1  -6   6   -0.02    0.24 
  -2   6  -6    0.51    0.26 
   2  -6   6    0.27    0.24 
   2  -6   6    0.14    0.29 
   2  -6   6    0.35    0.28 
  -3   6  -6    0.31    0.27 
  -3   6  -6    0.28    0.36 
   3  -6   6    0.33    0.31 
   3  -6   6    0.49    0.31 
   3  -6   6    0.22    0.27 
  -4   6  -6    0.71    0.36 
   4  -6   6    0.48    0.37 
   4  -6   6    0.09    0.28 
  -8  -5   6    0.19    0.13 
  -8  -5   6    0.13    0.21 
  -8  -5   6    0.13    0.09 
  -7  -5   6    0.93    0.26 
  -6  -5   6   -0.03    0.19 
  -5  -5   6    0.64    0.07 
  -5  -5   6    0.39    0.07 
  -5  -5   6    0.61    0.21 
  -4  -5   6   14.47    0.75 
  -4  -5   6   13.90    0.65 
  -4  -5   6   13.42    0.65 
  -3  -5   6   29.16    1.34 
  -3  -5   6   28.87    1.40 
  -3  -5   6   29.86    1.34 
  -2  -5   6    3.60    0.26 
  -2  -5   6    3.11    0.34 
  -2  -5   6    3.41    0.27 
   1   5  -6    1.73    0.19 
   1   5  -6    1.94    0.21 
  -1  -5   6    1.49    0.23 
  -1  -5   6    1.59    0.25 
   0   5  -6    2.82    0.27 
   0   5  -6    2.47    0.27 
   0  -5   6    2.21    0.29 
   0  -5   6    2.69    0.32 
  -1   5  -6    8.56    0.52 
  -1   5  -6    9.09    0.53 
   1  -5   6    8.93    0.54 
   1  -5   6    8.29    0.52 
  -2   5  -6   -0.17    0.22 
  -2   5  -6   -0.06    0.17 
   2  -5   6   -0.30    0.23 
   2  -5   6    0.01    0.16 
  -3   5  -6   -0.10    0.27 
   3  -5   6    0.26    0.24 
   3  -5   6   -0.14    0.28 
  -4   5  -6    2.97    0.37 
  -4   5  -6    2.86    0.38 
   4  -5   6    2.90    0.36 
   4  -5   6    2.04    0.33 
   4  -5   6    1.84    0.32 
  -5   5  -6   -0.10    0.32 
   5  -5   6   -0.49    0.30 
   5  -5   6    0.12    0.26 
  -8  -4   6    0.21    0.19 
  -8  -4   6    0.14    0.14 
  -8  -4   6    0.17    0.12 
  -7  -4   6    0.29    0.17 
  -7  -4   6    0.04    0.10 
  -7  -4   6    0.12    0.10 
  -6  -4   6    1.20    0.21 
  -6  -4   6    1.03    0.11 
  -6  -4   6    0.99    0.11 
  -5  -4   6    7.00    0.33 
  -5  -4   6    7.53    0.46 
  -4  -4   6    6.91    0.45 
  -4  -4   6    7.20    0.34 
  -4  -4   6    7.02    0.34 
  -3  -4   6   -0.08    0.07 
  -3  -4   6   -0.05    0.08 
  -3  -4   6    0.01    0.15 
  -2  -4   6   13.77    0.66 
  -2  -4   6   13.94    0.66 
  -2  -4   6   13.49    0.71 
   1   4  -6    5.76    0.31 
   1   4  -6    5.79    0.32 
  -1  -4   6    6.13    0.35 
  -1  -4   6    5.86    0.35 
  -1  -4   6    6.10    0.39 
   0   4  -6   40.78    1.83 
   0   4  -6   38.23    1.83 
   0  -4   6   39.65    1.86 
   0  -4   6   40.06    1.84 
   0  -4   6   41.52    1.84 
  -1   4  -6   20.28    0.96 
  -1   4  -6   20.83    0.96 
   1  -4   6   17.29    0.96 
   1  -4   6   20.50    0.99 
   1  -4   6   19.58    0.97 
  -2   4  -6    4.82    0.40 
   2  -4   6    4.55    0.39 
   2  -4   6    4.73    0.39 
  -3   4  -6    2.00    0.31 
   3  -4   6    1.76    0.24 
   3  -4   6    1.70    0.28 
  -4   4  -6    2.29    0.37 
   4  -4   6    2.89    0.41 
   4  -4   6    3.76    0.43 
  -5   4  -6    0.28    0.30 
  -5   4  -6    0.08    0.29 
   5  -4   6    1.09    0.34 
   5  -4   6    0.46    0.29 
  -6   4  -6   -0.18    0.49 
   6  -4   6   -0.27    0.34 
  -8  -3   6    0.33    0.15 
  -8  -3   6    0.31    0.16 
  -8  -3   6    0.31    0.20 
  -7  -3   6    0.71    0.19 
  -7  -3   6    1.13    0.15 
  -7  -3   6    1.15    0.17 
  -6  -3   6    4.31    0.36 
  -6  -3   6    4.27    0.27 
  -6  -3   6    4.40    0.26 
  -5  -3   6   41.28    1.85 
  -5  -3   6   42.22    1.90 
  -5  -3   6   40.22    1.85 
  -4  -3   6    5.58    0.28 
  -4  -3   6    6.16    0.39 
  -3  -3   6   26.83    1.26 
  -3  -3   6   25.99    1.20 
  -3  -3   6   27.18    1.21 
  -2  -3   6    0.14    0.08 
  -2  -3   6    0.21    0.08 
  -2  -3   6    0.13    0.13 
   1   3  -6   13.69    0.63 
   1   3  -6   13.30    0.63 
  -1  -3   6   13.76    0.65 
  -1  -3   6   13.49    0.69 
  -1  -3   6   13.69    0.66 
   0   3  -6   18.99    0.87 
   0   3  -6   18.94    0.87 
   0  -3   6   18.25    0.90 
   0  -3   6   18.13    0.88 
   0  -3   6   18.24    0.88 
  -1   3  -6   18.72    0.87 
   1  -3   6   17.94    0.89 
   1  -3   6   18.29    0.87 
   1  -3   6   17.20    0.87 
  -2   3  -6    1.11    0.19 
  -2   3  -6    0.94    0.20 
   2  -3   6    1.08    0.19 
   2  -3   6    0.88    0.20 
   2  -3   6    1.04    0.18 
  -3   3  -6    2.79    0.37 
  -3   3  -6    3.10    0.35 
   3  -3   6    3.42    0.33 
   3  -3   6    3.53    0.32 
  -4   3  -6    8.53    0.61 
   4  -3   6    9.66    0.54 
   4  -3   6    8.78    0.59 
  -5   3  -6    0.71    0.35 
   5  -3   6    0.36    0.27 
   5  -3   6    0.50    0.27 
   5  -3   6    0.59    0.19 
  -6   3  -6   -0.17    0.31 
   6  -3   6    1.07    0.39 
   6  -3   6    0.20    0.17 
   6  -3   6   -0.34    0.28 
  -8  -2   6    3.93    0.46 
  -7  -2   6    0.74    0.20 
  -7  -2   6    0.55    0.16 
  -7  -2   6    0.46    0.17 
  -6  -2   6    0.29    0.17 
  -6  -2   6    0.39    0.12 
  -6  -2   6    0.58    0.14 
   5   2  -6   19.01    0.90 
  -5  -2   6   18.02    0.86 
  -5  -2   6   18.48    0.86 
  -5  -2   6   18.56    0.91 
   4   2  -6    8.96    0.50 
  -4  -2   6    8.86    0.44 
  -4  -2   6    9.01    0.50 
  -4  -2   6    9.25    0.44 
   3   2  -6    4.65    0.31 
  -3  -2   6    4.58    0.31 
  -3  -2   6    4.67    0.25 
   2   2  -6    0.07    0.12 
  -2  -2   6    0.21    0.07 
  -2  -2   6    0.24    0.13 
  -2  -2   6    0.21    0.07 
   1   2  -6   13.02    0.64 
   1   2  -6   12.76    0.60 
   1   2  -6   11.82    0.59 
  -1  -2   6   13.42    0.61 
  -1  -2   6   13.18    0.65 
  -1  -2   6   12.94    0.61 
   0   2  -6  110.94    5.01 
   0   2  -6  114.51    5.01 
   0   2  -6  113.79    5.04 
   0  -2   6  110.20    5.02 
   0  -2   6  110.99    5.04 
   0  -2   6  112.97    5.02 
  -1   2  -6   24.39    1.13 
  -1   2  -6   24.63    1.13 
   1  -2   6   25.07    1.15 
   1  -2   6   24.01    1.14 
   1  -2   6   23.60    1.14 
  -2   2  -6    6.81    0.39 
  -2   2  -6    6.80    0.40 
   2  -2   6    6.80    0.41 
   2  -2   6    6.59    0.39 
   2  -2   6    6.26    0.40 
  -3   2  -6    6.42    0.43 
  -3   2  -6    6.69    0.44 
   3  -2   6    6.38    0.40 
   3  -2   6    6.33    0.42 
   3  -2   6    6.38    0.43 
  -4   2  -6   11.72    0.62 
   4  -2   6   10.75    0.58 
   4  -2   6   10.48    0.61 
   4  -2   6    9.84    0.60 
  -5   2  -6   -0.33    0.25 
   5  -2   6   -0.03    0.14 
   5  -2   6   -0.35    0.25 
   5  -2   6   -0.04    0.14 
  -6   2  -6    0.55    0.37 
  -6   2  -6    0.03    0.26 
   6  -2   6    0.33    0.16 
   6  -2   6    0.50    0.32 
   6  -2   6    0.21    0.28 
  -7   2  -6    0.43    0.33 
   7  -2   6    0.57    0.43 
   7  -2   6   -0.18    0.31 
  -8  -1   6    0.78    0.34 
  -8  -1   6    0.47    0.26 
   6   1  -6    5.08    0.38 
  -6  -1   6    5.42    0.38 
  -6  -1   6    5.62    0.36 
  -6  -1   6    5.52    0.39 
   5   1  -6    4.12    0.31 
  -5  -1   6    3.95    0.30 
  -5  -1   6    3.49    0.33 
  -5  -1   6    3.94    0.28 
   4   1  -6    0.01    0.13 
  -4  -1   6    0.06    0.10 
  -4  -1   6    0.22    0.11 
  -4  -1   6    0.17    0.14 
   3   1  -6   36.47    1.66 
  -3  -1   6   35.93    1.63 
  -3  -1   6   35.48    1.66 
  -3  -1   6   36.28    1.63 
   2   1  -6    8.49    0.47 
  -2  -1   6    8.54    0.47 
  -2  -1   6    8.50    0.42 
  -2  -1   6    8.92    0.42 
   1   1  -6    9.68    0.50 
   1   1  -6    9.48    0.46 
   1   1  -6    9.95    0.46 
  -1  -1   6    9.27    0.50 
  -1  -1   6    9.81    0.47 
  -1  -1   6    9.56    0.47 
   0   1  -6    0.00    0.07 
   0   1  -6   -0.14    0.07 
   0   1  -6   -0.19    0.09 
   0  -1   6   -0.07    0.08 
   0  -1   6   -0.14    0.09 
  -1   1  -6    5.37    0.29 
  -1   1  -6    5.12    0.30 
  -1   1  -6    4.55    0.31 
   1  -1   6    4.88    0.32 
   1  -1   6    5.08    0.30 
   1  -1   6    5.15    0.30 
  -2   1  -6   39.09    1.85 
  -2   1  -6   40.68    1.85 
  -2   1  -6   42.51    1.85 
   2  -1   6   39.65    1.85 
   2  -1   6   39.16    1.84 
   2  -1   6   41.34    1.85 
  -3   1  -6    5.94    0.38 
  -3   1  -6    6.11    0.38 
   3  -1   6    5.76    0.38 
   3  -1   6    5.66    0.35 
   3  -1   6    5.90    0.38 
  -4   1  -6    2.34    0.30 
   4  -1   6    2.00    0.24 
   4  -1   6    2.15    0.24 
   4  -1   6    1.96    0.28 
  -5   1  -6    0.37    0.24 
  -5   1  -6    0.53    0.22 
   5  -1   6    0.16    0.18 
   5  -1   6    0.84    0.15 
  -6   1  -6    6.64    0.58 
  -6   1  -6    6.70    0.52 
   6  -1   6    6.69    0.40 
   6  -1   6    6.19    0.54 
  -7   1  -6    0.17    0.31 
  -7   1  -6    0.15    0.27 
   7  -1   6    0.05    0.07 
   7  -1   6   -0.06    0.35 
   7  -1   6   -0.54    0.36 
   7   0  -6    0.33    0.17 
  -7   0   6   -0.04    0.32 
  -7   0   6    0.51    0.24 
  -6   0   6    2.75    0.37 
   5   0  -6    2.76    0.29 
  -5   0   6    2.47    0.28 
  -5   0   6    2.74    0.30 
  -5   0   6    2.48    0.30 
   4   0  -6   -0.24    0.12 
  -4   0   6   -0.19    0.14 
  -4   0   6   -0.21    0.13 
  -4   0   6   -0.26    0.14 
   3   0  -6   10.11    0.52 
   3   0  -6    9.36    0.45 
   3   0  -6    9.26    0.45 
  -3   0   6   10.02    0.50 
  -3   0   6    9.89    0.53 
  -3   0   6    9.76    0.49 
   2   0  -6    2.06    0.15 
   2   0  -6    1.82    0.14 
   2   0  -6    2.53    0.23 
  -2   0   6    1.90    0.18 
  -2   0   6    2.01    0.21 
  -2   0   6    2.11    0.19 
   1   0  -6   24.01    1.09 
   1   0  -6   23.99    1.09 
   1   0  -6   23.61    1.12 
  -1   0   6   23.61    1.12 
  -1   0   6   24.23    1.10 
  -1   0   6   23.94    1.10 
   0   0  -6    3.06    0.20 
   0   0  -6    3.07    0.20 
   0   0  -6    3.10    0.22 
   0   0   6    3.03    0.23 
   0   0   6    2.95    0.22 
   0   0   6    3.20    0.21 
  -1   0  -6   17.98    0.85 
  -1   0  -6   18.14    0.87 
  -1   0  -6   18.58    0.85 
   1   0   6   18.99    0.86 
   1   0   6   17.69    0.87 
   1   0   6   17.76    0.86 
  -2   0  -6   33.96    1.48 
  -2   0  -6   32.28    1.48 
  -2   0  -6   31.92    1.48 
   2   0   6   31.96    1.48 
   2   0   6   31.49    1.48 
   2   0   6   31.53    1.48 
  -3   0  -6    4.96    0.31 
  -3   0  -6    5.09    0.33 
  -3   0  -6    5.01    0.32 
   3   0   6    5.01    0.31 
   3   0   6    4.81    0.33 
   3   0   6    4.96    0.33 
  -4   0  -6    2.69    0.28 
  -4   0  -6    2.84    0.30 
   4   0   6    2.82    0.30 
   4   0   6    2.97    0.25 
   4   0   6    3.16    0.27 
  -5   0  -6    1.54    0.24 
   5   0   6    1.29    0.22 
   5   0   6    1.43    0.16 
   5   0   6    1.08    0.23 
  -6   0  -6    0.77    0.28 
  -6   0  -6    0.67    0.23 
   6   0   6    0.37    0.21 
   6   0   6    0.74    0.11 
  -7   0  -6    0.27    0.34 
  -7   0  -6   -0.40    0.26 
   7   0   6   -0.19    0.18 
   7   0   6   -0.30    0.28 
   8   0   6   -0.02    0.34 
   7  -1  -6    3.65    0.36 
  -7   1   6    3.57    0.47 
  -7   1   6    2.33    0.45 
   6  -1  -6    0.82    0.19 
  -6   1   6    0.60    0.24 
  -6   1   6    0.45    0.33 
   5  -1  -6    5.52    0.30 
   5  -1  -6    6.34    0.41 
   5  -1  -6    5.18    0.30 
  -5   1   6    6.30    0.46 
   4  -1  -6    2.52    0.20 
   4  -1  -6    2.59    0.21 
   4  -1  -6    2.91    0.30 
  -4   1   6    2.44    0.32 
  -4   1   6    2.76    0.31 
  -4   1   6    2.70    0.28 
   3  -1  -6   19.95    0.93 
   3  -1  -6   19.92    0.93 
   3  -1  -6   20.79    0.97 
  -3   1   6   20.40    0.96 
  -3   1   6   19.38    0.96 
  -3   1   6   19.76    0.97 
   2  -1  -6   71.08    3.19 
   2  -1  -6   73.07    3.22 
   2  -1  -6   73.16    3.19 
  -2   1   6   70.58    3.21 
  -2   1   6   68.75    3.20 
  -2   1   6   69.75    3.20 
   1  -1  -6   46.59    1.99 
   1  -1  -6   43.05    2.01 
   1  -1  -6   42.96    1.99 
  -1   1   6   43.36    2.01 
  -1   1   6   42.90    2.00 
  -1   1   6   45.23    2.00 
   0  -1  -6   52.57    2.35 
   0  -1  -6   51.99    2.33 
   0   1   6   48.62    2.33 
   0   1   6   52.81    2.34 
   0   1   6   52.36    2.35 
  -1  -1  -6   19.26    0.89 
  -1  -1  -6   19.66    0.90 
  -1  -1  -6   18.99    0.89 
   1   1   6   18.40    0.89 
   1   1   6   19.04    0.89 
   1   1   6   18.57    0.90 
  -2  -1  -6   84.17    3.84 
  -2  -1  -6   84.68    3.84 
  -2  -1  -6   84.91    3.85 
   2   1   6   88.42    3.85 
   2   1   6   85.52    3.85 
   2   1   6   86.05    3.85 
  -3  -1  -6   -0.01    0.12 
  -3  -1  -6    0.03    0.10 
  -3  -1  -6   -0.02    0.12 
   3   1   6   -0.14    0.14 
   3   1   6   -0.10    0.12 
   3   1   6    0.06    0.10 
  -4  -1  -6    3.18    0.29 
  -4  -1  -6    3.46    0.30 
  -4  -1  -6    3.09    0.25 
   4   1   6    3.62    0.28 
   4   1   6    3.09    0.25 
   4   1   6    3.58    0.28 
  -5  -1  -6    7.54    0.47 
   5   1   6    6.85    0.44 
   5   1   6    6.95    0.38 
   5   1   6    6.48    0.45 
  -6  -1  -6   13.22    0.74 
  -6  -1  -6   12.28    0.75 
   6   1   6   13.37    0.64 
   6   1   6   15.19    0.73 
   6   1   6   13.28    0.73 
  -7  -1  -6    1.71    0.33 
  -7  -1  -6    1.41    0.28 
  -8  -1  -6    1.32    0.32 
  -8  -1  -6    0.91    0.35 
   8   1   6    0.46    0.25 
   6  -2  -6    0.27    0.24 
   6  -2  -6    0.12    0.13 
   6  -2  -6    0.17    0.13 
  -6   2   6    0.44    0.38 
  -6   2   6    0.59    0.27 
   5  -2  -6    0.86    0.17 
   5  -2  -6    0.32    0.21 
   5  -2  -6    0.82    0.18 
  -5   2   6    0.83    0.24 
  -5   2   6    0.86    0.30 
   4  -2  -6    0.80    0.16 
   4  -2  -6    0.70    0.16 
   4  -2  -6    0.95    0.20 
  -4   2   6    1.33    0.27 
   3  -2  -6   55.91    2.56 
   3  -2  -6   57.07    2.59 
   3  -2  -6   56.88    2.56 
  -3   2   6   57.55    2.58 
  -3   2   6   56.72    2.58 
  -3   2   6   55.13    2.58 
   2  -2  -6    3.60    0.31 
   2  -2  -6    3.71    0.28 
   2  -2  -6    3.70    0.28 
  -2   2   6    3.92    0.31 
  -2   2   6    3.51    0.29 
  -2   2   6    3.71    0.29 
   1  -2  -6   47.16    2.12 
   1  -2  -6   47.03    2.14 
   1  -2  -6   44.38    2.12 
  -1   2   6   49.07    2.14 
  -1   2   6   45.54    2.12 
   0  -2  -6   13.43    0.67 
   0  -2  -6   13.84    0.66 
   0  -2  -6   13.83    0.66 
   0   2   6   12.85    0.66 
   0   2   6   13.33    0.67 
   0   2   6   13.42    0.67 
  -1  -2  -6  191.83    8.54 
  -1  -2  -6  194.46    8.56 
  -1  -2  -6  194.21    8.55 
   1   2   6  197.34    8.56 
   1   2   6  187.01    8.55 
   1   2   6  184.88    8.54 
  -2  -2  -6   38.89    1.77 
  -2  -2  -6   39.43    1.78 
  -2  -2  -6   39.07    1.78 
   2   2   6   37.60    1.78 
   2   2   6   38.95    1.78 
   2   2   6   39.06    1.77 
  -3  -2  -6   56.20    2.48 
  -3  -2  -6   55.46    2.47 
  -3  -2  -6   53.59    2.47 
   3   2   6   53.13    2.47 
   3   2   6   54.07    2.47 
   3   2   6   54.82    2.47 
  -4  -2  -6   44.62    1.97 
  -4  -2  -6   41.00    1.95 
  -4  -2  -6   41.41    1.97 
   4   2   6   45.11    1.97 
   4   2   6   40.08    1.96 
   4   2   6   44.86    1.96 
  -5  -2  -6   12.97    0.68 
  -5  -2  -6   13.41    0.68 
  -5  -2  -6   12.11    0.63 
   5   2   6   12.14    0.63 
   5   2   6   12.85    0.67 
   5   2   6   13.23    0.67 
  -6  -2  -6   10.71    0.61 
  -6  -2  -6   11.03    0.62 
   6   2   6   10.70    0.60 
   6   2   6   10.29    0.61 
  -7  -2  -6    4.76    0.48 
  -7  -2  -6    4.69    0.44 
   7   2   6    4.29    0.44 
   7   2   6    5.30    0.42 
  -8  -2  -6    1.95    0.32 
  -8  -2  -6    2.20    0.41 
   6  -3  -6    0.01    0.21 
   6  -3  -6    0.50    0.25 
   6  -3  -6    0.58    0.26 
  -6   3   6    0.28    0.35 
  -6   3   6    0.86    0.33 
   5  -3  -6    0.55    0.24 
   5  -3  -6    0.42    0.21 
  -5   3   6    0.78    0.28 
  -5   3   6    1.07    0.38 
   4  -3  -6    9.59    0.57 
   4  -3  -6   10.37    0.61 
   4  -3  -6    7.97    0.56 
  -4   3   6    9.74    0.64 
  -4   3   6   10.40    0.61 
   3  -3  -6   35.10    1.70 
   3  -3  -6   34.57    1.72 
   3  -3  -6   36.87    1.70 
  -3   3   6   37.62    1.72 
  -3   3   6   38.25    1.72 
   2  -3  -6   22.09    1.04 
   2  -3  -6   22.78    1.03 
   2  -3  -6   22.40    1.06 
  -2   3   6   20.87    1.04 
  -2   3   6   21.69    1.05 
  -2   3   6   18.58    1.04 
   1  -3  -6    1.99    0.27 
   1  -3  -6    1.75    0.22 
   1  -3  -6    2.01    0.23 
  -1   3   6    1.65    0.25 
  -1   3   6    1.57    0.26 
  -1   3   6    1.73    0.26 
   0  -3  -6    7.90    0.45 
   0  -3  -6    8.34    0.46 
   0  -3  -6    8.22    0.45 
   0   3   6    7.33    0.45 
   0   3   6    7.66    0.44 
   0   3   6    8.43    0.45 
  -1  -3  -6   58.89    2.71 
  -1  -3  -6   62.89    2.71 
  -1  -3  -6   60.17    2.72 
   1   3   6   59.79    2.72 
   1   3   6   57.71    2.71 
   1   3   6   59.74    2.71 
  -2  -3  -6    5.87    0.37 
  -2  -3  -6    6.59    0.38 
  -2  -3  -6    6.40    0.37 
   2   3   6    6.25    0.37 
   2   3   6    6.44    0.39 
   2   3   6    5.66    0.35 
  -3  -3  -6    1.21    0.21 
  -3  -3  -6    1.76    0.19 
  -3  -3  -6    1.29    0.17 
   3   3   6    1.45    0.18 
   3   3   6    1.81    0.20 
   3   3   6    1.40    0.17 
  -4  -3  -6    0.52    0.13 
  -4  -3  -6    0.64    0.17 
  -4  -3  -6    0.40    0.15 
   4   3   6    0.51    0.16 
   4   3   6    0.49    0.13 
   4   3   6    0.39    0.15 
  -5  -3  -6    0.08    0.11 
  -5  -3  -6   -0.06    0.16 
  -5  -3  -6   -0.03    0.16 
   5   3   6    0.03    0.14 
   5   3   6    0.11    0.15 
   5   3   6   -0.05    0.12 
  -6  -3  -6   12.48    0.66 
  -6  -3  -6   12.05    0.65 
  -6  -3  -6   11.94    0.60 
   6   3   6   11.42    0.64 
   6   3   6   12.10    0.64 
  -7  -3  -6    5.98    0.46 
  -7  -3  -6    5.93    0.50 
   7   3   6    6.64    0.42 
   7   3   6    6.34    0.44 
  -8  -3  -6    0.76    0.25 
  -8  -3  -6    1.38    0.35 
   8   3   6    1.39    0.23 
   8   3   6    0.97    0.23 
  -9  -3  -6    0.48    0.32 
  -9  -3  -6    0.21    0.31 
   5  -4  -6    0.55    0.27 
  -5   4   6    0.89    0.31 
  -5   4   6    0.71    0.35 
   4  -4  -6   10.73    0.62 
   4  -4  -6    9.38    0.59 
   4  -4  -6    9.64    0.62 
  -4   4   6    8.53    0.63 
  -4   4   6    9.23    0.73 
   3  -4  -6    8.82    0.54 
   3  -4  -6    9.14    0.56 
  -3   4   6    8.49    0.58 
  -3   4   6    8.15    0.60 
   2  -4  -6   -0.07    0.23 
   2  -4  -6   -0.07    0.25 
   1  -4  -6   13.15    0.75 
   1  -4  -6   15.02    0.76 
   1  -4  -6   13.86    0.77 
  -1   4   6   14.27    0.76 
  -1   4   6   16.66    0.77 
   0  -4  -6    1.89    0.26 
   0  -4  -6    2.00    0.24 
   0  -4  -6    1.99    0.25 
   0   4   6    1.91    0.26 
   0   4   6    1.87    0.24 
  -1  -4  -6   15.28    0.74 
  -1  -4  -6   15.01    0.75 
  -1  -4  -6   14.11    0.73 
   1   4   6   15.00    0.73 
   1   4   6   14.95    0.74 
   1   4   6   13.78    0.75 
  -2  -4  -6   17.16    0.82 
  -2  -4  -6   16.96    0.83 
   2   4   6   16.27    0.81 
   2   4   6   16.60    0.82 
   2   4   6   16.26    0.83 
  -3  -4  -6   17.41    0.85 
  -3  -4  -6   18.49    0.87 
  -3  -4  -6   17.80    0.86 
   3   4   6   15.85    0.84 
   3   4   6   18.05    0.85 
   3   4   6   17.12    0.86 
  -4  -4  -6    0.52    0.17 
  -4  -4  -6    0.52    0.15 
  -4  -4  -6    0.21    0.16 
   4   4   6    0.38    0.16 
   4   4   6    0.38    0.15 
  -5  -4  -6    2.30    0.28 
  -5  -4  -6    2.86    0.25 
  -5  -4  -6    1.86    0.30 
   5   4   6    1.96    0.27 
   5   4   6    2.01    0.27 
  -6  -4  -6    0.30    0.12 
  -6  -4  -6   -0.07    0.17 
  -6  -4  -6   -0.19    0.17 
   6   4   6   -0.07    0.16 
   6   4   6    0.22    0.16 
  -7  -4  -6    0.19    0.25 
  -7  -4  -6    0.29    0.11 
  -7  -4  -6    0.35    0.21 
   7   4   6    0.29    0.17 
   7   4   6    0.05    0.18 
  -8  -4  -6    0.38    0.24 
  -8  -4  -6   -0.04    0.27 
   8   4   6    0.38    0.19 
   8   4   6    0.33    0.18 
  -9  -4  -6    0.53    0.30 
  -9  -4  -6    0.25    0.31 
   4  -5  -6    5.01    0.57 
   4  -5  -6    6.13    0.58 
  -4   5   6    5.79    0.60 
  -4   5   6    4.14    0.53 
   3  -5  -6    0.52    0.26 
   3  -5  -6    0.19    0.21 
  -3   5   6    0.47    0.34 
  -3   5   6    0.58    0.28 
   2  -5  -6    1.11    0.23 
   2  -5  -6    0.61    0.22 
  -2   5   6    1.16    0.26 
  -2   5   6    1.44    0.29 
   1  -5  -6    0.76    0.20 
   1  -5  -6    1.36    0.24 
  -1   5   6    1.34    0.28 
   0  -5  -6   28.72    1.43 
   0  -5  -6   28.72    1.45 
   0  -5  -6   31.16    1.42 
   0   5   6   31.30    1.43 
  -1  -5  -6    0.44    0.16 
  -1  -5  -6    0.45    0.17 
  -1  -5  -6    0.16    0.18 
   1   5   6    0.29    0.21 
   1   5   6    0.32    0.17 
  -2  -5  -6   20.18    1.13 
  -2  -5  -6   23.97    1.13 
  -2  -5  -6   23.55    1.12 
   2   5   6   24.34    1.12 
   2   5   6   23.88    1.13 
  -3  -5  -6    4.08    0.34 
  -3  -5  -6    3.95    0.36 
   3   5   6    4.12    0.34 
   3   5   6    4.54    0.32 
  -4  -5  -6   30.64    1.41 
  -4  -5  -6   29.25    1.41 
  -4  -5  -6   30.71    1.42 
   4   5   6   29.55    1.40 
   4   5   6   29.23    1.40 
  -5  -5  -6    0.15    0.19 
  -6  -5  -6    8.88    0.52 
  -6  -5  -6    9.57    0.55 
  -6  -5  -6   10.11    0.55 
   6   5   6    8.66    0.52 
   6   5   6    8.77    0.51 
  -7  -5  -6    0.15    0.14 
  -7  -5  -6    0.29    0.19 
  -7  -5  -6    0.29    0.23 
   7   5   6    0.27    0.15 
   7   5   6    0.28    0.17 
  -8  -5  -6    0.37    0.24 
  -8  -5  -6    0.17    0.12 
  -8  -5  -6    0.31    0.28 
   8   5   6    0.36    0.15 
   8   5   6    0.06    0.15 
  -9  -5  -6    1.05    0.35 
  -9  -5  -6    0.88    0.29 
   4  -6  -6    0.65    0.30 
   4  -6  -6    0.91    0.35 
  -4   6   6    0.45    0.46 
   3  -6  -6    5.40    0.58 
   3  -6  -6    5.75    0.52 
   3  -6  -6    6.24    0.63 
  -3   6   6    6.10    0.60 
  -3   6   6    5.18    0.62 
   2  -6  -6    0.35    0.26 
   2  -6  -6    0.06    0.21 
  -2   6   6    0.34    0.33 
  -2   6   6    0.34    0.26 
   1  -6  -6    1.14    0.27 
   1  -6  -6    0.62    0.26 
  -1   6   6    1.20    0.33 
   0  -6  -6    0.15    0.13 
   0  -6  -6    0.11    0.15 
   0  -6  -6    0.24    0.23 
   0   6   6   -0.51    0.26 
  -1  -6  -6   69.58    3.01 
   1   6   6   68.03    2.99 
   1   6   6   58.87    2.99 
   2   6   6    2.82    0.33 
  -3  -6  -6    3.00    0.37 
  -3  -6  -6    3.57    0.36 
  -3  -6  -6    3.59    0.32 
   3   6   6    3.25    0.35 
   3   6   6    2.66    0.32 
  -4  -6  -6    0.05    0.17 
  -4  -6  -6   -0.13    0.18 
  -4  -6  -6    0.08    0.23 
   4   6   6   -0.12    0.20 
   4   6   6   -0.16    0.18 
  -5  -6  -6   35.35    1.79 
  -5  -6  -6   39.95    1.81 
  -5  -6  -6   39.37    1.80 
   5   6   6   38.08    1.78 
   5   6   6   39.29    1.78 
  -6  -6  -6    4.35    0.43 
  -6  -6  -6    4.54    0.40 
  -6  -6  -6    4.33    0.40 
   6   6   6    4.33    0.34 
   6   6   6    4.16    0.34 
  -7  -6  -6    2.49    0.33 
  -7  -6  -6    2.90    0.39 
  -7  -6  -6    3.10    0.42 
   7   6   6    2.54    0.28 
   7   6   6    2.83    0.30 
  -8  -6  -6    3.14    0.51 
  -8  -6  -6    2.58    0.32 
  -8  -6  -6    3.13    0.41 
   8   6   6    2.34    0.23 
  -9  -6  -6    3.43    0.55 
   3  -7  -6    0.22    0.33 
   2  -7  -6   -0.42    0.25 
   2  -7  -6    0.07    0.30 
   2  -7  -6   -0.04    0.28 
  -2   7   6    0.36    0.37 
   1  -7  -6    4.33    0.57 
   1  -7  -6    4.37    0.48 
   1  -7  -6    4.59    0.53 
  -1   7   6    4.25    0.66 
   0  -7  -6   16.21    0.89 
   0  -7  -6   13.14    0.93 
   0   7   6   18.30    0.98 
   0   7   6   15.75    0.92 
  -1  -7  -6    3.62    0.44 
   1   7   6    3.69    0.46 
  -2  -7  -6    0.67    0.23 
  -2  -7  -6    0.24    0.16 
   2   7   6    0.57    0.24 
   2   7   6    0.23    0.16 
  -3  -7  -6   16.57    0.90 
  -3  -7  -6   16.81    0.87 
  -3  -7  -6   16.19    0.88 
   3   7   6   16.28    0.85 
   3   7   6   16.85    0.85 
  -4  -7  -6    2.30    0.30 
  -4  -7  -6    2.15    0.30 
  -4  -7  -6    2.19    0.27 
   4   7   6    3.27    0.35 
   4   7   6    3.13    0.35 
  -5  -7  -6    0.86    0.23 
  -5  -7  -6    1.58    0.26 
   5   7   6    1.46    0.25 
   5   7   6    1.37    0.21 
  -6  -7  -6    1.91    0.28 
  -6  -7  -6    2.30    0.32 
  -6  -7  -6    1.55    0.25 
   6   7   6    2.36    0.30 
   6   7   6    2.15    0.29 
  -7  -7  -6    1.29    0.27 
  -7  -7  -6    1.27    0.32 
   7   7   6    1.08    0.20 
   7   7   6    1.59    0.26 
  -8  -7  -6    0.23    0.24 
  -8  -7  -6    0.41    0.35 
  -8  -7  -6   -0.23    0.20 
   1  -8  -6    0.43    0.30 
  -1   8   6    0.26    0.33 
   0  -8  -6    0.24    0.27 
   0  -8  -6    0.98    0.28 
   0  -8  -6    0.28    0.27 
   0   8   6    0.75    0.30 
   0   8   6    0.42    0.35 
  -1  -8  -6    0.26    0.31 
  -1  -8  -6    0.40    0.28 
  -1  -8  -6    0.08    0.30 
   1   8   6    0.15    0.34 
   1   8   6    0.13    0.27 
  -2  -8  -6    1.53    0.26 
  -2  -8  -6    0.96    0.30 
   2   8   6    1.50    0.34 
  -3  -8  -6    6.61    0.52 
  -3  -8  -6    6.27    0.56 
  -3  -8  -6    7.37    0.53 
   3   8   6    6.64    0.55 
  -4  -8  -6   -0.02    0.25 
  -4  -8  -6    0.16    0.24 
  -5  -8  -6    1.17    0.27 
  -5  -8  -6    1.18    0.28 
  -5  -8  -6    0.72    0.27 
   5   8   6    0.82    0.21 
  -6  -8  -6   -0.04    0.23 
  -6  -8  -6   -0.09    0.22 
   6   8   6    0.01    0.22 
   6   8   6    0.00    0.21 
  -7  -8  -6   -0.07    0.33 
  -7  -8  -6    0.12    0.26 
  -7  -8  -6    0.05    0.25 
   7   8   6    0.07    0.18 
   7   8   6    0.48    0.17 
  -8  -8  -6    0.03    0.34 
  -8  -8  -6    0.00    0.23 
  -8  -8  -6    0.23    0.28 
   0  -9  -6    2.07    0.38 
   0   9   6    1.88    0.39 
  -1  -9  -6    0.62    0.31 
   1   9   6    0.66    0.32 
   1   9   6    0.44    0.39 
  -2  -9  -6    0.38    0.25 
  -2  -9  -6    0.36    0.29 
  -2  -9  -6    0.52    0.27 
   2   9   6    0.64    0.40 
   2   9   6    0.37    0.30 
  -3  -9  -6   -0.41    0.23 
  -3  -9  -6    0.23    0.28 
  -3  -9  -6   -0.06    0.28 
   3   9   6   -0.18    0.31 
   3   9   6    0.00    0.26 
  -4  -9  -6    6.79    0.62 
  -4  -9  -6    6.53    0.57 
  -4  -9  -6    6.64    0.56 
   4   9   6    6.87    0.61 
  -5  -9  -6    2.31    0.37 
  -5  -9  -6    3.61    0.50 
  -5  -9  -6    2.64    0.43 
   5   9   6    2.21    0.35 
  -6  -9  -6    0.03    0.26 
  -6  -9  -6    0.43    0.29 
  -6  -9  -6    0.65    0.33 
   6   9   6    0.15    0.26 
  -7  -9  -6   -0.05    0.28 
  -7  -9  -6    0.06    0.28 
   7   9   6    0.12    0.31 
   7   9   6    0.48    0.34 
   2  10   6    2.47    0.45 
  -3 -10  -6    1.07    0.30 
   3  10   6    0.80    0.31 
   3  10   6    1.15    0.38 
  -4 -10  -6    0.36    0.30 
   4  10   6    0.38    0.28 
   4  10   6    0.52    0.37 
  -5 -10  -6    4.67    0.58 
   5  10   6    4.08    0.56 
  -6 -10  -6    1.46    0.35 
   6  10   6    1.40    0.29 
  -6  -9   7    1.28    0.23 
  -6  -9   7    1.26    0.40 
  -5  -9   7    3.41    0.45 
  -5  -9   7    3.88    0.42 
  -4  -9   7    1.05    0.38 
  -4  -9   7    0.87    0.27 
  -4  -9   7    0.74    0.24 
  -3  -9   7    0.33    0.27 
  -3  -9   7   -0.08    0.23 
  -3  -9   7    0.34    0.34 
  -2  -9   7    0.92    0.30 
  -2  -9   7   -0.01    0.32 
  -2  -9   7    1.61    0.39 
  -1  -9   7   -0.14    0.33 
  -1  -9   7    0.01    0.27 
  -1  -9   7   -0.06    0.34 
  -7  -8   7    1.48    0.46 
  -6  -8   7    1.17    0.18 
  -6  -8   7    1.91    0.43 
  -6  -8   7    0.90    0.18 
  -5  -8   7   -0.13    0.15 
  -5  -8   7    0.42    0.38 
  -5  -8   7   -0.26    0.15 
  -4  -8   7    0.07    0.39 
  -4  -8   7    0.23    0.19 
  -3  -8   7    2.53    0.36 
  -3  -8   7    3.43    0.54 
   2   8  -7   10.06    0.51 
  -2  -8   7    9.80    0.65 
  -2  -8   7   10.52    0.77 
  -2  -8   7   10.71    0.67 
   1   8  -7    0.09    0.20 
   1   8  -7    0.17    0.21 
  -1  -8   7    0.30    0.26 
  -1  -8   7    0.02    0.35 
  -1  -8   7    0.20    0.30 
   0   8  -7   -0.11    0.19 
   0   8  -7    0.20    0.28 
   0  -8   7   -0.05    0.28 
   0  -8   7   -0.40    0.27 
   0  -8   7   -0.43    0.26 
  -1   8  -7    0.03    0.37 
  -1   8  -7    0.08    0.28 
   1  -8   7   -0.45    0.33 
   1  -8   7   -0.15    0.29 
  -7  -7   7    0.21    0.15 
  -7  -7   7    0.54    0.33 
  -7  -7   7    0.12    0.07 
  -6  -7   7    3.50    0.25 
  -6  -7   7    4.55    0.52 
  -6  -7   7    3.64    0.26 
  -5  -7   7    3.21    0.24 
  -5  -7   7    3.56    0.28 
  -5  -7   7    3.42    0.45 
  -4  -7   7    0.21    0.13 
  -4  -7   7   -0.02    0.13 
  -4  -7   7   -0.30    0.28 
  -3  -7   7    0.04    0.14 
  -3  -7   7   -0.10    0.18 
  -3  -7   7    0.21    0.28 
   2   7  -7    3.82    0.24 
  -2  -7   7    4.53    0.36 
  -2  -7   7    3.86    0.48 
  -2  -7   7    4.66    0.40 
   1   7  -7    1.75    0.27 
   1   7  -7    2.33    0.28 
  -1  -7   7    2.21    0.35 
  -1  -7   7    1.78    0.28 
  -1  -7   7    1.44    0.24 
   0   7  -7    0.39    0.21 
   0  -7   7    0.14    0.31 
   0  -7   7    0.08    0.24 
   0  -7   7    0.30    0.24 
  -1   7  -7    0.41    0.27 
   1  -7   7    0.45    0.33 
   1  -7   7    0.64    0.34 
   1  -7   7    0.52    0.30 
  -2   7  -7    0.68    0.28 
  -2   7  -7    0.93    0.38 
   2  -7   7    0.09    0.32 
   2  -7   7   -0.28    0.30 
  -3   7  -7    0.25    0.33 
   3  -7   7   -0.23    0.33 
   3  -7   7    0.49    0.49 
  -7  -6   7    1.11    0.29 
  -6  -6   7    0.57    0.25 
  -6  -6   7    0.85    0.12 
  -6  -6   7    1.02    0.13 
  -5  -6   7    1.21    0.16 
  -5  -6   7    1.16    0.16 
  -5  -6   7    1.09    0.29 
  -4  -6   7    0.46    0.12 
  -4  -6   7    0.53    0.12 
  -4  -6   7    0.35    0.23 
  -3  -6   7    6.94    0.53 
  -3  -6   7    7.91    0.44 
  -3  -6   7    7.62    0.42 
   2   6  -7   22.16    1.03 
  -2  -6   7   24.23    1.11 
  -2  -6   7   23.14    1.10 
  -2  -6   7   22.23    1.18 
   1   6  -7    2.93    0.27 
   1   6  -7    3.06    0.28 
  -1  -6   7    3.28    0.35 
  -1  -6   7    3.43    0.37 
   0   6  -7    0.80    0.23 
   0   6  -7    0.87    0.20 
   0  -6   7    0.29    0.25 
   0  -6   7    0.64    0.24 
  -1   6  -7    0.51    0.22 
   1  -6   7    0.26    0.26 
   1  -6   7    0.38    0.22 
   1  -6   7    0.60    0.27 
  -2   6  -7   10.08    0.67 
   2  -6   7    9.34    0.67 
   2  -6   7   10.38    0.72 
   2  -6   7    9.64    0.66 
  -3   6  -7   -0.04    0.27 
  -3   6  -7    0.31    0.28 
   3  -6   7    0.19    0.33 
   3  -6   7    0.01    0.31 
   3  -6   7    0.02    0.27 
  -4   6  -7   -0.09    0.32 
   4  -6   7    0.69    0.35 
   4  -6   7   -0.23    0.34 
  -7  -5   7    2.95    0.18 
  -6  -5   7    0.75    0.10 
  -6  -5   7    0.80    0.08 
  -5  -5   7    0.48    0.08 
  -5  -5   7    0.43    0.09 
  -4  -5   7    0.97    0.16 
  -4  -5   7    1.20    0.16 
  -3  -5   7    0.62    0.12 
  -3  -5   7    0.70    0.13 
  -2  -5   7    0.65    0.14 
  -2  -5   7    0.62    0.21 
  -2  -5   7    0.58    0.16 
   1   5  -7    5.32    0.31 
   1   5  -7    5.56    0.32 
  -1  -5   7    4.82    0.40 
  -1  -5   7    4.41    0.36 
  -1  -5   7    5.04    0.37 
   0   5  -7   -0.17    0.14 
   0   5  -7   -0.20    0.14 
   0  -5   7   -0.20    0.16 
   0  -5   7    0.58    0.21 
  -1   5  -7    3.40    0.38 
   1  -5   7    3.68    0.41 
   1  -5   7    2.72    0.31 
   1  -5   7    2.04    0.32 
  -2   5  -7    3.03    0.42 
   2  -5   7    2.57    0.35 
   2  -5   7    2.63    0.41 
   2  -5   7    2.18    0.37 
  -3   5  -7    0.14    0.25 
  -3   5  -7    0.30    0.30 
   3  -5   7    0.35    0.24 
   3  -5   7    0.01    0.29 
  -4   5  -7    0.20    0.31 
  -4   5  -7    0.30    0.29 
   4  -5   7   -0.11    0.26 
   4  -5   7    0.31    0.27 
   4  -5   7    0.29    0.30 
  -5   5  -7    0.62    0.35 
   5  -5   7    0.71    0.35 
   5  -5   7    0.43    0.29 
  -8  -4   7    0.05    0.21 
  -8  -4   7    0.22    0.21 
  -7  -4   7    8.30    0.44 
  -7  -4   7    8.25    0.44 
  -7  -4   7    8.82    0.57 
  -6  -4   7    0.02    0.21 
  -6  -4   7    0.13    0.08 
  -6  -4   7    0.15    0.09 
  -5  -4   7    3.93    0.23 
  -5  -4   7    4.47    0.23 
  -5  -4   7    4.21    0.40 
  -4  -4   7   -0.24    0.19 
  -4  -4   7    0.08    0.08 
  -4  -4   7   -0.02    0.07 
  -3  -4   7    4.06    0.26 
  -3  -4   7    4.43    0.26 
  -3  -4   7    4.23    0.40 
  -2  -4   7   26.95    1.31 
  -2  -4   7   27.32    1.25 
  -2  -4   7   26.74    1.25 
   1   4  -7    8.50    0.43 
   1   4  -7    9.10    0.43 
  -1  -4   7    8.77    0.47 
  -1  -4   7    7.69    0.51 
  -1  -4   7    8.38    0.46 
   0   4  -7    6.41    0.38 
   0   4  -7    6.29    0.38 
   0  -4   7    6.40    0.41 
   0  -4   7    6.12    0.40 
   0  -4   7    5.91    0.44 
  -1   4  -7    5.83    0.41 
  -1   4  -7    5.55    0.41 
   1  -4   7    6.76    0.45 
   1  -4   7    6.09    0.42 
  -2   4  -7    8.69    0.53 
  -2   4  -7    9.02    0.53 
   2  -4   7    9.21    0.55 
   2  -4   7    7.10    0.50 
  -3   4  -7    0.66    0.25 
   3  -4   7    0.50    0.25 
  -4   4  -7    4.51    0.55 
  -4   4  -7    2.83    0.43 
   4  -4   7    3.12    0.52 
   4  -4   7    3.32    0.45 
  -5   4  -7   -0.72    0.39 
  -5   4  -7    0.03    0.32 
   5  -4   7    0.07    0.29 
   5  -4   7   -0.13    0.29 
  -8  -3   7    0.63    0.21 
  -8  -3   7    0.71    0.24 
  -8  -3   7    0.63    0.26 
  -7  -3   7    1.50    0.22 
  -7  -3   7    1.28    0.23 
  -7  -3   7    1.59    0.20 
  -6  -3   7    0.31    0.18 
  -6  -3   7    0.29    0.12 
  -6  -3   7    0.16    0.10 
  -5  -3   7    7.29    0.45 
  -5  -3   7    6.78    0.36 
  -5  -3   7    6.49    0.35 
  -4  -3   7    1.40    0.14 
  -4  -3   7    1.70    0.28 
  -3  -3   7    6.15    0.41 
  -3  -3   7    6.85    0.33 
  -3  -3   7    6.23    0.33 
  -2  -3   7    3.95    0.24 
  -2  -3   7    3.47    0.30 
  -2  -3   7    3.69    0.25 
   1   3  -7    1.36    0.14 
   1   3  -7    1.46    0.15 
  -1  -3   7    1.48    0.19 
  -1  -3   7    1.72    0.24 
  -1  -3   7    1.66    0.18 
   0   3  -7   -0.01    0.10 
   0   3  -7    0.04    0.11 
   0  -3   7   -0.18    0.14 
   0  -3   7   -0.18    0.13 
   0  -3   7   -0.27    0.12 
  -1   3  -7    1.21    0.17 
  -1   3  -7    0.89    0.16 
   1  -3   7    1.33    0.20 
   1  -3   7    1.27    0.20 
   1  -3   7    1.66    0.22 
  -2   3  -7   11.83    0.63 
  -2   3  -7   10.45    0.63 
   2  -3   7   11.53    0.64 
   2  -3   7   11.30    0.64 
  -3   3  -7    2.42    0.37 
  -3   3  -7    2.57    0.27 
   3  -3   7    2.05    0.26 
   3  -3   7    2.32    0.29 
  -4   3  -7    2.64    0.36 
   4  -3   7    2.39    0.35 
   4  -3   7    2.87    0.33 
  -5   3  -7    0.01    0.37 
  -5   3  -7    0.87    0.36 
   5  -3   7    0.23    0.19 
   5  -3   7    0.08    0.25 
   5  -3   7    0.39    0.32 
  -6   3  -7   -0.08    0.33 
   6  -3   7    0.16    0.20 
   6  -3   7    0.13    0.30 
   6  -3   7    0.18    0.34 
  -7  -2   7    0.47    0.20 
  -7  -2   7    0.14    0.17 
  -7  -2   7    0.61    0.19 
  -6  -2   7    0.04    0.17 
  -6  -2   7    0.18    0.14 
  -6  -2   7    0.14    0.15 
   5   2  -7    0.43    0.18 
  -5  -2   7    0.57    0.13 
  -5  -2   7    0.41    0.17 
  -5  -2   7    0.46    0.11 
   4   2  -7    0.56    0.17 
  -4  -2   7    1.05    0.12 
  -4  -2   7    0.87    0.12 
  -4  -2   7    1.05    0.18 
   3   2  -7    1.12    0.18 
  -3  -2   7    1.13    0.12 
  -3  -2   7    1.12    0.19 
  -3  -2   7    1.05    0.15 
  -2  -2   7   -0.16    0.08 
  -2  -2   7   -0.16    0.13 
  -2  -2   7   -0.08    0.07 
   1   2  -7    0.42    0.08 
   1   2  -7    0.31    0.15 
   1   2  -7    0.50    0.09 
  -1  -2   7    0.45    0.10 
  -1  -2   7    0.41    0.10 
  -1  -2   7    0.42    0.14 
   0   2  -7   14.66    0.70 
   0   2  -7   14.83    0.70 
   0   2  -7   15.10    0.73 
   0  -2   7   14.16    0.73 
   0  -2   7   14.09    0.71 
  -1   2  -7   20.10    1.01 
  -1   2  -7   21.35    1.01 
   1  -2   7   21.34    1.02 
   1  -2   7   22.05    1.02 
   1  -2   7   22.27    1.03 
  -2   2  -7    4.42    0.31 
  -2   2  -7    4.13    0.33 
   2  -2   7    4.17    0.34 
   2  -2   7    4.25    0.32 
   2  -2   7    4.49    0.31 
  -3   2  -7    0.25    0.24 
   3  -2   7    0.24    0.21 
   3  -2   7    0.68    0.17 
  -4   2  -7    2.59    0.40 
   4  -2   7    2.01    0.30 
   4  -2   7    2.54    0.37 
  -5   2  -7    0.77    0.29 
   5  -2   7    1.04    0.29 
   5  -2   7    0.89    0.18 
  -6   2  -7    0.61    0.29 
  -6   2  -7    0.04    0.32 
   6  -2   7    0.80    0.36 
   6  -2   7    0.12    0.27 
   6  -2   7    0.26    0.15 
  -7   2  -7    0.55    0.36 
   7  -2   7    0.42    0.34 
   7  -2   7    1.00    0.40 
  -7  -1   7    7.32    0.53 
  -7  -1   7    9.56    0.59 
  -7  -1   7    9.61    0.58 
   6   1  -7   -0.13    0.18 
  -6  -1   7    0.37    0.17 
  -6  -1   7    0.11    0.19 
  -6  -1   7    0.13    0.18 
   5   1  -7    0.19    0.17 
  -5  -1   7    0.25    0.14 
  -5  -1   7    0.52    0.16 
  -5  -1   7    0.11    0.17 
   4   1  -7    8.84    0.51 
  -4  -1   7    8.74    0.47 
  -4  -1   7    9.25    0.51 
  -4  -1   7    8.38    0.46 
   3   1  -7   39.72    1.80 
  -3  -1   7   38.56    1.80 
  -3  -1   7   38.54    1.77 
   2   1  -7    1.15    0.18 
   2   1  -7    1.07    0.10 
   2   1  -7    1.15    0.09 
  -2  -1   7    1.51    0.16 
  -2  -1   7    1.51    0.14 
  -2  -1   7    1.47    0.19 
   1   1  -7    1.08    0.10 
   1   1  -7    0.70    0.15 
   1   1  -7    0.94    0.10 
  -1  -1   7    1.12    0.13 
  -1  -1   7    0.98    0.12 
  -1  -1   7    0.93    0.16 
   0   1  -7   25.21    1.19 
   0   1  -7   26.27    1.22 
   0   1  -7   26.20    1.19 
   0  -1   7   26.20    1.22 
   0  -1   7   25.39    1.20 
   0  -1   7   26.57    1.20 
  -1   1  -7   -0.05    0.11 
  -1   1  -7   -0.24    0.10 
  -1   1  -7   -0.14    0.11 
   1  -1   7   -0.22    0.11 
   1  -1   7   -0.19    0.13 
   1  -1   7   -0.14    0.10 
  -2   1  -7   -0.05    0.11 
  -2   1  -7    0.04    0.12 
  -2   1  -7    0.10    0.12 
   2  -1   7   -0.01    0.12 
   2  -1   7    0.06    0.13 
   2  -1   7    0.02    0.12 
  -3   1  -7    6.66    0.43 
  -3   1  -7    6.96    0.43 
   3  -1   7    6.80    0.44 
   3  -1   7    6.89    0.41 
   3  -1   7    5.82    0.42 
   4  -1   7   22.53    1.10 
   4  -1   7   25.06    1.13 
   4  -1   7   21.75    1.12 
  -5   1  -7    2.87    0.43 
   5  -1   7    3.06    0.30 
   5  -1   7    2.82    0.40 
  -6   1  -7    1.22    0.29 
  -6   1  -7    1.78    0.36 
   6  -1   7    1.68    0.20 
   6  -1   7    1.69    0.30 
  -7   1  -7    0.13    0.42 
  -7   1  -7    0.26    0.32 
   7  -1   7    0.11    0.13 
   7  -1   7    0.33    0.29 
   7  -1   7    0.41    0.39 
   7   0  -7    0.16    0.21 
  -7   0   7    0.36    0.35 
  -7   0   7    0.41    0.26 
   6   0  -7    4.00    0.40 
  -6   0   7    5.05    0.44 
  -6   0   7    3.85    0.39 
   5   0  -7    5.11    0.41 
  -5   0   7    4.81    0.42 
  -5   0   7    5.71    0.40 
  -5   0   7    5.44    0.40 
   4   0  -7    0.79    0.18 
  -4   0   7    0.71    0.17 
  -4   0   7    0.57    0.16 
  -4   0   7    0.92    0.18 
   3   0  -7    2.24    0.26 
   3   0  -7    2.09    0.14 
   3   0  -7    2.19    0.14 
  -3   0   7    1.80    0.22 
  -3   0   7    2.00    0.27 
  -3   0   7    2.00    0.24 
   2   0  -7   39.92    1.82 
   2   0  -7   41.29    1.86 
   2   0  -7   39.68    1.82 
  -2   0   7   40.50    1.86 
  -2   0   7   39.05    1.84 
  -2   0   7   41.45    1.83 
   1   0  -7   10.34    0.49 
   1   0  -7   10.15    0.49 
   1   0  -7    9.93    0.53 
  -1   0   7    9.91    0.51 
  -1   0   7   10.08    0.50 
  -1   0   7    9.79    0.54 
   0   0  -7    2.23    0.22 
   0   0  -7    2.49    0.19 
   0   0  -7    2.26    0.19 
   0   0   7    2.32    0.20 
   0   0   7    2.28    0.23 
   0   0   7    2.44    0.20 
  -1   0  -7    2.22    0.20 
  -1   0  -7    2.26    0.20 
  -1   0  -7    2.23    0.21 
   1   0   7    1.91    0.21 
   1   0   7    1.76    0.21 
   1   0   7    2.16    0.25 
  -2   0  -7    0.24    0.14 
  -2   0  -7    0.22    0.12 
  -2   0  -7    0.23    0.13 
   2   0   7    0.18    0.12 
   2   0   7    0.14    0.13 
  -3   0  -7    0.90    0.16 
  -3   0  -7    1.03    0.17 
  -3   0  -7    0.85    0.17 
   3   0   7    0.73    0.15 
   3   0   7    1.02    0.18 
   3   0   7    1.08    0.18 
  -4   0  -7    1.84    0.23 
  -4   0  -7    1.84    0.25 
   4   0   7    2.35    0.25 
   4   0   7    1.65    0.21 
   4   0   7    1.61    0.24 
  -5   0  -7    2.91    0.40 
  -5   0  -7    2.54    0.31 
   5   0   7    3.33    0.27 
   5   0   7    2.61    0.33 
   5   0   7    3.29    0.33 
  -6   0  -7   -0.11    0.29 
  -6   0  -7    0.03    0.23 
   6   0   7    0.04    0.15 
   6   0   7    0.15    0.13 
   6   0   7   -0.15    0.24 
  -7   0  -7    1.74    0.37 
  -7   0  -7    1.71    0.31 
   7   0   7    2.18    0.19 
   7   0   7    1.86    0.34 
  -8   0  -7   -0.39    0.34 
   8   0   7    0.07    0.32 
   8   0   7   -0.11    0.38 
   6  -1  -7    2.45    0.40 
  -6   1   7    2.60    0.32 
  -6   1   7    2.75    0.39 
   5  -1  -7   35.41    1.71 
  -5   1   7   38.92    1.71 
  -5   1   7   35.66    1.71 
  -5   1   7   34.99    1.70 
   4  -1  -7    7.33    0.39 
   4  -1  -7    7.98    0.49 
   4  -1  -7    7.50    0.39 
  -4   1   7    7.63    0.50 
  -4   1   7    8.14    0.49 
  -4   1   7    7.17    0.48 
   3  -1  -7   24.62    1.15 
   3  -1  -7   24.62    1.20 
   3  -1  -7   24.63    1.15 
  -3   1   7   25.38    1.18 
  -3   1   7   24.53    1.19 
  -3   1   7   25.29    1.18 
   2  -1  -7   11.81    0.61 
   2  -1  -7   12.68    0.60 
   2  -1  -7   12.69    0.64 
  -2   1   7   12.31    0.63 
  -2   1   7   12.41    0.65 
   1  -1  -7  130.18    6.12 
   1  -1  -7  138.86    6.12 
   1  -1  -7  140.34    6.14 
  -1   1   7  136.09    6.12 
  -1   1   7  140.51    6.13 
  -1   1   7  135.78    6.14 
   0  -1  -7   15.47    0.74 
   0  -1  -7   15.90    0.77 
   0   1   7   15.57    0.77 
   0   1   7   15.16    0.75 
   0   1   7   15.50    0.75 
  -1  -1  -7   36.84    1.68 
  -1  -1  -7   36.63    1.68 
  -1  -1  -7   36.49    1.69 
   1   1   7   37.07    1.69 
   1   1   7   36.86    1.69 
   1   1   7   36.61    1.68 
  -2  -1  -7    5.10    0.32 
  -2  -1  -7    5.16    0.31 
  -2  -1  -7    4.67    0.31 
   2   1   7    4.42    0.31 
   2   1   7    4.98    0.33 
   2   1   7    4.90    0.33 
  -3  -1  -7   18.69    0.89 
  -3  -1  -7   18.83    0.89 
  -3  -1  -7   18.43    0.89 
   3   1   7   19.06    0.89 
   3   1   7   17.51    0.89 
   3   1   7   18.39    0.89 
  -4  -1  -7   24.86    1.17 
  -4  -1  -7   23.92    1.16 
  -4  -1  -7   24.16    1.14 
   4   1   7   22.94    1.15 
   4   1   7   26.50    1.17 
   4   1   7   23.94    1.16 
  -5  -1  -7    0.41    0.19 
  -5  -1  -7    0.55    0.13 
   5   1   7    0.57    0.15 
   5   1   7    0.45    0.20 
   5   1   7    0.86    0.23 
  -6  -1  -7    0.39    0.25 
  -6  -1  -7    0.71    0.22 
   6   1   7    0.62    0.21 
   6   1   7    0.61    0.14 
   6   1   7    0.57    0.22 
  -7  -1  -7    3.43    0.43 
  -7  -1  -7    3.11    0.43 
   7   1   7    3.21    0.47 
  -8  -1  -7    4.86    0.57 
  -8  -1  -7    4.21    0.63 
   8   1   7    3.68    0.56 
   6  -2  -7    3.92    0.27 
  -6   2   7    3.43    0.49 
   5  -2  -7    1.18    0.17 
   5  -2  -7    1.06    0.17 
  -5   2   7    0.98    0.31 
  -5   2   7    1.33    0.26 
   4  -2  -7    0.01    0.18 
   4  -2  -7    0.14    0.15 
  -4   2   7    0.15    0.21 
   3  -2  -7   14.99    0.73 
   3  -2  -7   14.18    0.77 
   3  -2  -7   14.11    0.72 
  -3   2   7   14.50    0.78 
  -3   2   7   14.44    0.76 
  -3   2   7   15.08    0.77 
   2  -2  -7    6.00    0.42 
   2  -2  -7    5.39    0.35 
   2  -2  -7    5.56    0.35 
  -2   2   7    5.80    0.41 
  -2   2   7    5.96    0.39 
  -2   2   7    6.01    0.39 
   1  -2  -7   32.00    1.49 
   1  -2  -7   33.19    1.49 
   1  -2  -7   32.75    1.51 
  -1   2   7   31.06    1.49 
  -1   2   7   32.84    1.49 
  -1   2   7   31.26    1.50 
   0  -2  -7   42.27    1.96 
   0  -2  -7   42.66    1.97 
   0  -2  -7   44.70    1.96 
   0   2   7   42.64    1.96 
   0   2   7   42.26    1.96 
   0   2   7   42.52    1.97 
  -1  -2  -7    0.10    0.12 
  -1  -2  -7    0.04    0.13 
  -1  -2  -7   -0.15    0.12 
   1   2   7   -0.07    0.12 
   1   2   7   -0.08    0.12 
   1   2   7   -0.07    0.14 
  -2  -2  -7    0.97    0.15 
  -2  -2  -7    1.04    0.16 
  -2  -2  -7    1.38    0.18 
   2   2   7    1.08    0.17 
   2   2   7    0.99    0.16 
   2   2   7    1.12    0.16 
  -3  -2  -7   46.90    2.12 
  -3  -2  -7   47.03    2.12 
  -3  -2  -7   48.25    2.12 
   3   2   7   46.44    2.12 
   3   2   7   42.98    2.12 
   3   2   7   46.81    2.12 
  -4  -2  -7    2.95    0.27 
  -4  -2  -7    3.55    0.32 
  -4  -2  -7    3.19    0.31 
   4   2   7    3.22    0.30 
   4   2   7    3.20    0.28 
   4   2   7    3.38    0.31 
  -5  -2  -7   18.16    0.90 
  -5  -2  -7   17.11    0.86 
  -5  -2  -7   19.58    0.90 
   5   2   7   17.59    0.86 
   5   2   7   17.28    0.89 
   5   2   7   17.46    0.90 
  -6  -2  -7   -0.34    0.19 
  -6  -2  -7    0.07    0.12 
  -6  -2  -7   -0.11    0.23 
   6   2   7   -0.07    0.13 
   6   2   7    0.12    0.19 
  -7  -2  -7    4.87    0.46 
  -7  -2  -7    4.58    0.51 
   7   2   7    4.30    0.40 
  -8  -2  -7    0.37    0.32 
  -6   3   7    0.68    0.42 
   5  -3  -7   -0.39    0.24 
   5  -3  -7    0.27    0.21 
   5  -3  -7    0.23    0.21 
  -5   3   7    0.18    0.27 
  -5   3   7    0.02    0.38 
   4  -3  -7    0.91    0.22 
   4  -3  -7    0.75    0.21 
   4  -3  -7    1.18    0.26 
  -4   3   7    0.93    0.28 
  -4   3   7    1.14    0.25 
   3  -3  -7    1.28    0.20 
   3  -3  -7    1.02    0.20 
  -3   3   7    1.21    0.23 
   2  -3  -7    8.90    0.57 
   2  -3  -7    8.95    0.53 
   2  -3  -7    9.23    0.53 
  -2   3   7    9.38    0.58 
  -2   3   7   10.15    0.57 
   1  -3  -7    0.65    0.17 
   1  -3  -7    1.02    0.18 
   1  -3  -7    1.11    0.20 
  -1   3   7    0.97    0.21 
  -1   3   7    0.91    0.21 
   0  -3  -7    0.16    0.16 
   0  -3  -7    0.16    0.14 
   0  -3  -7    0.41    0.14 
   0   3   7    0.01    0.15 
   0   3   7    0.21    0.16 
   0   3   7    0.31    0.16 
  -1  -3  -7    1.07    0.19 
  -1  -3  -7    1.15    0.16 
  -1  -3  -7    1.18    0.17 
   1   3   7    1.36    0.19 
   1   3   7    1.21    0.16 
   1   3   7    0.98    0.17 
  -2  -3  -7   16.57    0.80 
  -2  -3  -7   16.05    0.79 
  -2  -3  -7   16.73    0.79 
   2   3   7   16.05    0.78 
   2   3   7   15.19    0.79 
   2   3   7   15.22    0.79 
  -3  -3  -7   -0.22    0.14 
  -3  -3  -7   -0.20    0.14 
  -3  -3  -7   -0.08    0.13 
   3   3   7   -0.32    0.15 
   3   3   7   -0.20    0.14 
   3   3   7   -0.03    0.13 
  -4  -3  -7    0.84    0.19 
  -4  -3  -7    0.99    0.20 
  -4  -3  -7    0.97    0.16 
   4   3   7    1.20    0.19 
   4   3   7    0.97    0.20 
   4   3   7    0.88    0.16 
  -5  -3  -7   -0.04    0.13 
  -5  -3  -7    0.08    0.20 
   5   3   7   -0.17    0.17 
   5   3   7   -0.24    0.19 
   5   3   7    0.05    0.14 
  -6  -3  -7    0.14    0.11 
  -6  -3  -7   -0.30    0.20 
  -6  -3  -7   -0.43    0.18 
   6   3   7   -0.33    0.17 
  -7  -3  -7    1.12    0.14 
  -7  -3  -7    1.19    0.25 
  -7  -3  -7    0.81    0.27 
   7   3   7    0.79    0.25 
  -8  -3  -7    2.67    0.40 
   8   3   7    3.13    0.42 
   5  -4  -7   -0.03    0.21 
  -5   4   7    1.18    0.38 
   4  -4  -7    0.85    0.24 
   4  -4  -7    0.43    0.23 
  -4   4   7    0.07    0.37 
  -4   4   7    0.58    0.29 
   3  -4  -7    1.61    0.24 
   3  -4  -7    1.46    0.26 
   3  -4  -7    2.33    0.33 
  -3   4   7    0.99    0.32 
  -3   4   7    1.43    0.29 
   2  -4  -7   14.09    0.77 
   2  -4  -7   16.92    0.76 
   2  -4  -7   14.60    0.80 
  -2   4   7   13.12    0.78 
  -2   4   7   13.97    0.78 
   1  -4  -7   28.25    1.38 
   1  -4  -7   29.44    1.42 
   1  -4  -7   28.94    1.39 
  -1   4   7   29.38    1.39 
   0  -4  -7    3.77    0.33 
   0  -4  -7    3.52    0.34 
   0  -4  -7    3.75    0.35 
   0   4   7    3.63    0.35 
   0   4   7    3.25    0.32 
   0   4   7    3.82    0.37 
  -1  -4  -7    4.24    0.34 
  -1  -4  -7    3.79    0.35 
  -1  -4  -7    4.36    0.32 
   1   4   7    3.48    0.38 
   1   4   7    4.20    0.36 
   1   4   7    3.71    0.33 
  -2  -4  -7   47.31    2.14 
  -2  -4  -7   48.15    2.13 
   2   4   7   44.50    2.13 
   2   4   7   46.99    2.12 
   2   4   7   44.52    2.14 
  -3  -4  -7   13.91    0.74 
  -3  -4  -7   14.98    0.74 
  -3  -4  -7   14.78    0.74 
   3   4   7   14.03    0.72 
   3   4   7   14.05    0.73 
   3   4   7   13.89    0.74 
  -4  -4  -7    2.72    0.30 
  -4  -4  -7    2.04    0.28 
  -4  -4  -7    2.01    0.29 
   4   4   7    2.26    0.28 
   4   4   7    2.01    0.29 
   4   4   7    2.41    0.28 
  -5  -4  -7    0.24    0.15 
  -5  -4  -7   -0.11    0.17 
  -5  -4  -7   -0.20    0.16 
   5   4   7   -0.13    0.18 
   5   4   7   -0.35    0.18 
  -6  -4  -7    2.20    0.28 
  -6  -4  -7    2.75    0.28 
  -6  -4  -7    2.38    0.27 
   6   4   7    2.45    0.28 
   6   4   7    2.28    0.27 
  -7  -4  -7   -0.30    0.23 
  -7  -4  -7    0.12    0.12 
  -7  -4  -7    0.09    0.20 
   7   4   7    0.24    0.23 
   7   4   7   -0.10    0.18 
  -8  -4  -7   -0.06    0.33 
  -8  -4  -7    0.07    0.25 
   8   4   7   -0.17    0.21 
   8   4   7   -0.02    0.23 
  -9  -4  -7    0.25    0.47 
  -9  -4  -7    0.07    0.33 
   4  -5  -7   -0.25    0.28 
   4  -5  -7    0.14    0.25 
   4  -5  -7    0.41    0.32 
  -4   5   7    0.12    0.35 
   3  -5  -7   13.38    0.78 
  -3   5   7   12.95    0.87 
  -3   5   7   13.21    0.81 
   1  -5  -7   17.01    0.90 
   1  -5  -7   16.73    0.88 
  -1   5   7   17.90    0.93 
   0  -5  -7    2.33    0.33 
   0  -5  -7    2.01    0.34 
  -1  -5  -7   71.08    3.19 
  -1  -5  -7   66.61    3.19 
   1   5   7   72.90    3.19 
   1   5   7   69.25    3.19 
  -2  -5  -7   38.66    1.87 
  -2  -5  -7   41.35    1.89 
  -2  -5  -7   41.21    1.86 
   2   5   7   38.94    1.86 
   2   5   7   39.96    1.86 
  -3  -5  -7   18.67    0.95 
  -3  -5  -7   19.19    0.95 
   3   5   7   18.76    0.93 
   3   5   7   18.63    0.94 
  -4  -5  -7    4.33    0.37 
   4   5   7    3.84    0.38 
   4   5   7    3.78    0.35 
  -5  -5  -7   24.94    1.22 
  -5  -5  -7   25.65    1.23 
  -5  -5  -7   24.87    1.22 
   5   5   7   25.01    1.21 
   5   5   7   25.56    1.21 
  -6  -5  -7   17.98    0.91 
  -6  -5  -7   16.12    0.87 
  -6  -5  -7   18.12    0.89 
   6   5   7   15.67    0.86 
   6   5   7   17.78    0.87 
  -7  -5  -7    2.87    0.45 
  -7  -5  -7    2.56    0.39 
  -7  -5  -7    2.42    0.30 
   7   5   7    2.35    0.34 
   7   5   7    3.43    0.35 
  -8  -5  -7    7.07    0.63 
  -8  -5  -7    6.57    0.53 
  -8  -5  -7    5.49    0.38 
   8   5   7    5.92    0.43 
   8   5   7    5.92    0.42 
  -9  -5  -7   -0.14    0.32 
  -9  -5  -7    0.40    0.30 
   3  -6  -7    0.87    0.34 
   3  -6  -7    1.72    0.42 
   3  -6  -7    1.03    0.29 
  -3   6   7    0.22    0.35 
   2  -6  -7    0.08    0.30 
   2  -6  -7    0.04    0.25 
   2  -6  -7   -0.25    0.27 
  -2   6   7   -0.33    0.26 
  -2   6   7    0.31    0.34 
   1  -6  -7    0.13    0.25 
  -1   6   7    0.34    0.29 
   0  -6  -7   -0.08    0.20 
   0  -6  -7   -0.20    0.31 
  -1  -6  -7   12.88    0.75 
   1   6   7   13.62    0.76 
  -2  -6  -7    0.65    0.21 
  -2  -6  -7    0.21    0.14 
   2   6   7    0.51    0.20 
  -3  -6  -7    2.12    0.33 
  -3  -6  -7    2.36    0.34 
  -3  -6  -7    2.52    0.37 
   3   6   7    1.99    0.33 
  -4  -6  -7    5.02    0.43 
  -4  -6  -7    5.78    0.46 
  -4  -6  -7    5.96    0.42 
   4   6   7    6.02    0.44 
  -5  -6  -7    0.68    0.25 
  -5  -6  -7    0.56    0.21 
  -5  -6  -7    0.50    0.21 
   5   6   7    0.43    0.21 
  -6  -6  -7    4.06    0.41 
  -6  -6  -7    2.89    0.34 
  -6  -6  -7    3.09    0.40 
   6   6   7    2.87    0.35 
   6   6   7    3.07    0.39 
  -7  -6  -7    2.97    0.36 
  -7  -6  -7    2.81    0.41 
  -7  -6  -7    2.00    0.29 
   7   6   7    2.94    0.34 
   7   6   7    2.87    0.33 
  -8  -6  -7    1.29    0.28 
  -8  -6  -7    0.84    0.21 
   2  -7  -7    0.84    0.31 
   2  -7  -7    0.97    0.34 
   2  -7  -7    1.12    0.29 
  -2   7   7    1.48    0.36 
   1  -7  -7    0.85    0.33 
   1  -7  -7    0.24    0.25 
   1  -7  -7    0.52    0.30 
  -1   7   7    0.38    0.32 
   0  -7  -7    4.45    0.51 
   0  -7  -7    3.60    0.53 
   0  -7  -7    4.38    0.45 
   0   7   7    4.30    0.54 
   0   7   7    5.57    0.68 
  -1  -7  -7    3.59    0.45 
   1   7   7    3.05    0.44 
  -2  -7  -7    5.83    0.52 
   2   7   7    6.63    0.53 
  -3  -7  -7    1.21    0.25 
  -3  -7  -7    0.93    0.23 
  -3  -7  -7    1.21    0.25 
   3   7   7    1.39    0.26 
  -4  -7  -7    2.09    0.31 
  -4  -7  -7    2.40    0.37 
  -4  -7  -7    2.14    0.29 
   4   7   7    2.09    0.32 
  -5  -7  -7    7.90    0.54 
  -5  -7  -7    8.34    0.56 
   5   7   7    6.89    0.50 
  -6  -7  -7    3.00    0.40 
  -6  -7  -7    3.53    0.47 
  -6  -7  -7    2.42    0.40 
   6   7   7    2.85    0.38 
  -7  -7  -7   -0.13    0.33 
  -7  -7  -7   -0.24    0.21 
  -7  -7  -7   -0.27    0.23 
   7   7   7    0.03    0.19 
   7   7   7    0.14    0.21 
  -8  -7  -7    0.91    0.34 
  -8  -7  -7    0.74    0.29 
   8   7   7    0.77    0.19 
   1  -8  -7    0.32    0.31 
  -1   8   7   -0.37    0.34 
   0  -8  -7    5.10    0.65 
   0  -8  -7    5.68    0.54 
   0   8   7    4.21    0.55 
  -1  -8  -7    0.61    0.29 
  -1  -8  -7   -0.02    0.29 
  -1  -8  -7    0.10    0.24 
   1   8   7    0.47    0.38 
   1   8   7    0.26    0.27 
  -2  -8  -7   -0.09    0.22 
  -2  -8  -7    0.45    0.33 
  -2  -8  -7    0.30    0.27 
   2   8   7    0.07    0.30 
   2   8   7    0.18    0.27 
  -3  -8  -7    5.00    0.49 
  -3  -8  -7    4.93    0.47 
  -3  -8  -7    5.36    0.56 
   3   8   7    4.73    0.50 
  -4  -8  -7    5.63    0.54 
  -4  -8  -7    6.33    0.51 
  -4  -8  -7    5.90    0.58 
   4   8   7    5.97    0.54 
  -5  -8  -7    1.09    0.29 
  -5  -8  -7    1.07    0.32 
  -5  -8  -7    1.07    0.27 
   5   8   7    0.78    0.22 
  -6  -8  -7    0.82    0.28 
  -6  -8  -7    0.20    0.27 
   6   8   7    0.13    0.22 
  -7  -8  -7    0.75    0.27 
  -7  -8  -7    0.52    0.27 
  -7  -8  -7    0.70    0.32 
   7   8   7    0.76    0.24 
   7   8   7    0.57    0.22 
  -8  -8  -7    1.03    0.29 
  -8  -8  -7    1.23    0.31 
  -8  -8  -7    1.62    0.38 
  -1  -9  -7    3.80    0.58 
   1   9   7    5.02    0.61 
  -2  -9  -7    1.10    0.32 
   2   9   7    1.03    0.36 
   2   9   7    0.74    0.33 
  -3  -9  -7    1.84    0.48 
  -3  -9  -7    1.43    0.31 
  -3  -9  -7    2.54    0.36 
   3   9   7    2.07    0.43 
   3   9   7    1.87    0.33 
  -4  -9  -7    0.00    0.24 
  -4  -9  -7    0.19    0.28 
  -4  -9  -7    0.41    0.27 
   4   9   7    0.60    0.36 
   4   9   7    0.12    0.24 
  -5  -9  -7    9.66    0.70 
  -5  -9  -7    9.67    0.68 
  -5  -9  -7   10.52    0.71 
   5   9   7   10.09    0.71 
  -6  -9  -7    1.12    0.31 
  -6  -9  -7    0.96    0.30 
  -6  -9  -7    1.01    0.31 
   6   9   7    0.50    0.23 
  -7  -9  -7   -0.03    0.39 
  -7  -9  -7    0.11    0.30 
   7   9   7    0.32    0.30 
   7   9   7    1.16    0.39 
   3  10   7    1.86    0.39 
  -4 -10  -7    2.71    0.42 
   4  10   7    2.63    0.37 
  -5 -10  -7    1.58    0.34 
   5  10   7    1.42    0.39 
  -5  -9   8    1.06    0.36 
  -5  -9   8    1.50    0.26 
  -4  -9   8    2.15    0.41 
  -4  -9   8    2.28    0.33 
  -4  -9   8    2.14    0.31 
  -3  -9   8    0.28    0.27 
  -3  -9   8    0.20    0.33 
  -3  -9   8    0.04    0.33 
  -2  -9   8   -0.56    0.33 
  -2  -9   8    0.20    0.31 
  -2  -9   8    0.11    0.30 
  -1  -9   8    0.29    0.35 
  -6  -8   8    0.02    0.15 
  -6  -8   8    0.23    0.37 
  -5  -8   8    0.66    0.20 
  -5  -8   8    1.14    0.37 
  -5  -8   8    0.73    0.23 
  -4  -8   8    4.75    0.45 
  -4  -8   8    5.13    0.40 
  -3  -8   8    0.61    0.26 
  -3  -8   8    0.81    0.22 
  -3  -8   8    1.14    0.35 
  -2  -8   8    0.74    0.24 
  -2  -8   8    0.87    0.29 
  -2  -8   8    0.60    0.33 
   1   8  -8    2.14    0.35 
   1   8  -8    2.54    0.35 
  -1  -8   8    2.97    0.45 
  -1  -8   8    3.09    0.42 
  -1  -8   8    2.06    0.42 
   0   8  -8    2.05    0.32 
   0  -8   8    3.47    0.52 
   0  -8   8    2.04    0.40 
   0  -8   8    2.69    0.35 
  -1   8  -8    0.14    0.36 
  -1   8  -8    0.20    0.30 
   1  -8   8   -0.37    0.33 
   1  -8   8   -0.46    0.33 
  -7  -7   8    0.27    0.40 
  -6  -7   8    0.81    0.15 
  -6  -7   8    1.08    0.37 
  -6  -7   8    0.79    0.13 
  -5  -7   8    0.07    0.15 
  -5  -7   8    0.29    0.36 
  -5  -7   8    0.04    0.13 
  -4  -7   8    2.38    0.37 
  -4  -7   8    2.43    0.26 
  -4  -7   8    2.41    0.30 
  -3  -7   8    0.77    0.19 
  -3  -7   8    1.04    0.35 
   2   7  -8    0.38    0.12 
  -2  -7   8    0.17    0.31 
  -2  -7   8    0.32    0.17 
  -2  -7   8    0.60    0.24 
   1   7  -8    0.50    0.15 
   1   7  -8    0.54    0.16 
  -1  -7   8    0.20    0.25 
  -1  -7   8    0.51    0.31 
  -1  -7   8    0.18    0.21 
   0   7  -8    0.32    0.21 
   0  -7   8    0.58    0.25 
   0  -7   8    0.29    0.29 
   0  -7   8    0.37    0.37 
  -1   7  -8    0.29    0.28 
   1  -7   8    0.09    0.30 
   1  -7   8    0.53    0.30 
   1  -7   8    0.05    0.26 
  -2   7  -8    0.44    0.29 
  -2   7  -8   -0.13    0.32 
   2  -7   8   -0.37    0.30 
   2  -7   8   -0.14    0.31 
  -7  -6   8    0.43    0.33 
  -6  -6   8    0.56    0.10 
  -6  -6   8    0.57    0.11 
  -6  -6   8    0.34    0.29 
  -5  -6   8    0.78    0.13 
  -5  -6   8    0.76    0.14 
  -5  -6   8    0.28    0.29 
  -4  -6   8    3.00    0.42 
  -4  -6   8    2.93    0.25 
  -4  -6   8    2.60    0.27 
  -3  -6   8    0.17    0.25 
  -3  -6   8    0.21    0.14 
  -3  -6   8    0.25    0.16 
  -2  -6   8   -0.14    0.18 
  -2  -6   8   -0.11    0.23 
  -2  -6   8   -0.18    0.16 
   1   6  -8    5.83    0.36 
   1   6  -8    6.09    0.37 
  -1  -6   8    5.96    0.41 
  -1  -6   8    5.34    0.50 
   0   6  -8   12.63    0.68 
   0   6  -8   12.86    0.69 
   0  -6   8   12.72    0.79 
   0  -6   8   12.51    0.73 
   0  -6   8   12.30    0.70 
  -1   6  -8    0.93    0.22 
  -1   6  -8    1.07    0.26 
   1  -6   8    0.76    0.24 
   1  -6   8    1.07    0.31 
   1  -6   8    1.01    0.30 
  -2   6  -8    0.33    0.26 
  -2   6  -8    0.07    0.29 
   2  -6   8   -0.05    0.26 
   2  -6   8   -0.25    0.30 
   2  -6   8    0.29    0.25 
  -3   6  -8    0.56    0.35 
  -3   6  -8    0.26    0.30 
   3  -6   8    0.70    0.33 
   3  -6   8    0.36    0.29 
  -7  -5   8    0.99    0.11 
  -7  -5   8    1.17    0.15 
  -6  -5   8    0.95    0.14 
  -6  -5   8    1.17    0.14 
  -5  -5   8    2.07    0.17 
  -5  -5   8    1.61    0.19 
  -4  -5   8    0.34    0.23 
  -4  -5   8    0.30    0.11 
  -4  -5   8    0.34    0.12 
  -3  -5   8    0.78    0.14 
  -3  -5   8    0.93    0.15 
  -2  -5   8    0.22    0.22 
  -2  -5   8    0.22    0.15 
  -2  -5   8    0.39    0.17 
   1   5  -8    0.14    0.12 
  -1  -5   8   -0.31    0.16 
   0   5  -8    5.41    0.38 
   0   5  -8    5.26    0.37 
   0  -5   8    5.40    0.46 
   0  -5   8    5.60    0.41 
   0  -5   8    5.06    0.39 
  -1   5  -8    2.96    0.33 
   1  -5   8    2.30    0.38 
   1  -5   8    2.00    0.30 
   1  -5   8    1.94    0.30 
  -2   5  -8    0.13    0.18 
  -2   5  -8   -0.06    0.23 
   2  -5   8    0.04    0.25 
   2  -5   8    0.34    0.22 
   2  -5   8    0.30    0.25 
  -3   5  -8    1.31    0.35 
  -3   5  -8    1.76    0.30 
   3  -5   8    1.63    0.30 
   3  -5   8    1.78    0.30 
   3  -5   8    1.80    0.33 
  -4   5  -8    0.38    0.31 
   4  -5   8    0.62    0.31 
   4  -5   8    0.48    0.32 
  -7  -4   8    0.36    0.15 
  -7  -4   8    0.32    0.13 
  -6  -4   8    1.05    0.17 
  -5  -4   8   -0.04    0.08 
  -5  -4   8    0.07    0.09 
  -3  -4   8    0.70    0.13 
   1   4  -8    4.68    0.26 
   1   4  -8    4.13    0.27 
  -1  -4   8    3.92    0.31 
  -1  -4   8    3.97    0.33 
   0   4  -8    1.73    0.19 
   0   4  -8    1.48    0.19 
   0  -4   8    1.20    0.21 
   0  -4   8    1.46    0.23 
  -1   4  -8    1.04    0.23 
  -1   4  -8    0.74    0.23 
   1  -4   8    1.20    0.22 
   1  -4   8    1.01    0.21 
   1  -4   8    1.16    0.22 
  -2   4  -8    9.90    0.58 
  -2   4  -8    9.68    0.59 
   2  -4   8   10.81    0.59 
   2  -4   8    8.87    0.56 
   2  -4   8    9.04    0.58 
   3  -4   8    2.84    0.36 
   3  -4   8    2.54    0.34 
  -4   4  -8    1.22    0.38 
  -4   4  -8    0.93    0.30 
   4  -4   8   -0.22    0.31 
   4  -4   8    0.47    0.26 
   4  -4   8    0.52    0.26 
  -5   4  -8    0.10    0.35 
   5  -4   8    0.02    0.27 
   5  -4   8    0.28    0.29 
  -7  -3   8    0.16    0.15 
  -7  -3   8    0.23    0.19 
  -6  -3   8    1.09    0.15 
  -6  -3   8    1.22    0.16 
  -5  -3   8    3.15    0.26 
  -5  -3   8    4.01    0.37 
  -4  -3   8    1.93    0.20 
  -4  -3   8    1.71    0.24 
  -4  -3   8    2.05    0.18 
  -3  -3   8    6.30    0.34 
  -3  -3   8    6.06    0.35 
  -3  -3   8    6.31    0.44 
  -2  -3   8    0.16    0.11 
  -2  -3   8   -0.13    0.19 
  -2  -3   8    0.30    0.11 
   1   3  -8    3.82    0.23 
   1   3  -8    3.64    0.23 
  -1  -3   8    3.52    0.37 
  -1  -3   8    3.74    0.28 
  -1  -3   8    3.43    0.27 
   0   3  -8   -0.17    0.12 
  -1   3  -8    6.98    0.44 
  -1   3  -8    7.67    0.44 
   1  -3   8    7.85    0.48 
   1  -3   8    7.10    0.46 
   1  -3   8    6.69    0.45 
  -2   3  -8    9.77    0.59 
  -2   3  -8   11.28    0.58 
   2  -3   8    8.51    0.56 
   2  -3   8    9.81    0.59 
   2  -3   8   10.43    0.58 
  -3   3  -8    0.75    0.24 
   3  -3   8    0.98    0.26 
  -5   3  -8    3.10    0.47 
  -5   3  -8    4.16    0.58 
   5  -3   8    4.03    0.58 
   5  -3   8    4.08    0.48 
  -6   3  -8    1.26    0.38 
   6  -3   8    2.39    0.42 
  -7  -2   8    1.43    0.22 
  -7  -2   8    1.75    0.27 
  -7  -2   8    1.57    0.27 
  -6  -2   8    0.40    0.16 
  -6  -2   8    0.30    0.16 
  -6  -2   8    0.13    0.21 
   5   2  -8    0.61    0.23 
  -5  -2   8    1.22    0.23 
  -5  -2   8    1.40    0.18 
  -5  -2   8    1.11    0.14 
   4   2  -8   14.16    0.76 
  -4  -2   8   14.18    0.68 
  -4  -2   8   13.81    0.69 
  -4  -2   8   14.40    0.76 
   3   2  -8    2.24    0.29 
  -3  -2   8    2.76    0.23 
  -3  -2   8    2.63    0.21 
  -3  -2   8    2.32    0.30 
   2   2  -8   -0.26    0.14 
  -2  -2   8   -0.08    0.09 
  -2  -2   8    0.01    0.11 
  -2  -2   8    0.03    0.15 
   1   2  -8    3.82    0.24 
   1   2  -8    3.50    0.32 
  -1  -2   8    3.91    0.28 
  -1  -2   8    4.11    0.32 
  -1  -2   8    4.05    0.27 
   0   2  -8   16.86    0.82 
   0   2  -8   15.69    0.78 
   0   2  -8   16.73    0.78 
   0  -2   8   16.12    0.83 
   0  -2   8   15.88    0.79 
   0  -2   8   16.41    0.80 
  -1   2  -8   -0.24    0.13 
  -1   2  -8   -0.09    0.14 
   1  -2   8   -0.16    0.15 
   1  -2   8    0.04    0.17 
   1  -2   8   -0.11    0.14 
  -2   2  -8    4.98    0.38 
  -2   2  -8    5.06    0.38 
   2  -2   8    4.58    0.37 
   2  -2   8    4.84    0.37 
   2  -2   8    5.00    0.38 
  -3   2  -8    3.60    0.36 
  -3   2  -8    3.60    0.34 
   3  -2   8    4.03    0.36 
  -4   2  -8    0.07    0.27 
   4  -2   8    0.15    0.19 
   4  -2   8   -0.06    0.14 
   4  -2   8    0.20    0.24 
  -5   2  -8    1.55    0.34 
   5  -2   8    1.56    0.27 
   5  -2   8    1.60    0.32 
   5  -2   8    1.14    0.24 
  -6   2  -8    0.16    0.30 
  -6   2  -8    0.08    0.29 
   6  -2   8    0.44    0.20 
   6  -2   8    0.76    0.29 
   6  -2   8    0.56    0.40 
  -7  -1   8    1.82    0.27 
  -7  -1   8    1.70    0.28 
   6   1  -8   -0.04    0.22 
  -6  -1   8   -0.05    0.20 
  -6  -1   8   -0.06    0.19 
  -6  -1   8   -0.21    0.21 
  -5  -1   8   -0.08    0.15 
  -5  -1   8   -0.13    0.21 
  -5  -1   8    0.12    0.15 
   4   1  -8    0.72    0.20 
  -4  -1   8    1.10    0.16 
  -4  -1   8    1.24    0.17 
  -4  -1   8    1.03    0.22 
   3   1  -8   10.28    0.58 
  -3  -1   8   11.17    0.60 
  -3  -1   8   10.28    0.54 
  -3  -1   8   10.29    0.53 
   2   1  -8   -0.02    0.06 
   2   1  -8   -0.15    0.15 
   2   1  -8   -0.04    0.06 
  -2  -1   8    0.00    0.10 
  -2  -1   8    0.07    0.16 
  -2  -1   8   -0.04    0.11 
   1   1  -8    0.91    0.15 
   1   1  -8    0.94    0.15 
   1   1  -8    1.37    0.19 
  -1  -1   8    1.25    0.19 
  -1  -1   8    1.67    0.17 
  -1  -1   8    1.37    0.15 
   0   1  -8   -0.14    0.10 
   0   1  -8   -0.14    0.09 
   0   1  -8   -0.21    0.14 
   0  -1   8    0.03    0.14 
  -1   1  -8    3.68    0.31 
  -1   1  -8    3.62    0.28 
  -1   1  -8    3.94    0.28 
   1  -1   8    3.57    0.27 
   1  -1   8    3.49    0.29 
   1  -1   8    3.63    0.29 
  -2   1  -8    0.79    0.18 
  -2   1  -8    0.72    0.17 
  -2   1  -8    0.76    0.16 
   2  -1   8    0.81    0.17 
   2  -1   8    0.68    0.17 
   2  -1   8    0.90    0.18 
  -3   1  -8    0.46    0.19 
  -3   1  -8    0.40    0.21 
   3  -1   8    0.58    0.16 
   3  -1   8    0.43    0.23 
  -4   1  -8    3.10    0.42 
   4  -1   8    4.99    0.40 
   4  -1   8    3.58    0.37 
   4  -1   8    3.98    0.33 
  -5   1  -8    8.67    0.64 
   5  -1   8   10.50    0.63 
   5  -1   8    9.57    0.54 
  -6   1  -8    0.32    0.34 
  -6   1  -8    0.53    0.28 
   6  -1   8    0.23    0.25 
   6  -1   8    0.56    0.16 
   6  -1   8    0.50    0.31 
  -7   1  -8    0.56    0.34 
   7  -1   8    0.59    0.31 
   7  -1   8    0.13    0.16 
   7  -1   8    1.48    0.43 
   7   0  -8    1.29    0.31 
  -7   0   8    0.95    0.29 
  -7   0   8    0.75    0.40 
  -6   0   8   -0.02    0.21 
   5   0  -8   23.00    1.14 
  -5   0   8   20.50    1.11 
  -5   0   8   24.18    1.14 
  -5   0   8   23.51    1.11 
   4   0  -8   16.40    0.85 
  -4   0   8   16.36    0.81 
  -4   0   8   15.74    0.85 
  -4   0   8   16.32    0.81 
   3   0  -8    0.41    0.07 
   3   0  -8    0.39    0.07 
   3   0  -8    0.45    0.17 
  -3   0   8    0.31    0.18 
  -3   0   8    0.28    0.14 
   2   0  -8    6.82    0.42 
   2   0  -8    5.57    0.32 
   2   0  -8    5.81    0.32 
  -2   0   8    6.14    0.36 
  -2   0   8    5.60    0.37 
  -2   0   8    6.26    0.40 
   1   0  -8   18.89    0.89 
   1   0  -8   19.19    0.93 
   1   0  -8   18.31    0.88 
  -1   0   8   19.16    0.91 
  -1   0   8   19.05    0.90 
  -1   0   8   18.97    0.93 
   0   0  -8   21.35    0.95 
   0   0  -8   19.57    0.95 
   0   0  -8   21.13    0.98 
   0   0   8   19.90    0.96 
   0   0   8   19.28    0.96 
   0   0   8   20.29    0.98 
  -1   0  -8   12.43    0.63 
  -1   0  -8   11.74    0.60 
  -1   0  -8   11.77    0.60 
   1   0   8   11.67    0.60 
   1   0   8   12.67    0.61 
   1   0   8   11.66    0.63 
  -2   0  -8    0.25    0.15 
  -2   0  -8    0.24    0.13 
  -2   0  -8    0.19    0.14 
   2   0   8    0.08    0.13 
   2   0   8    0.23    0.15 
   2   0   8    0.33    0.15 
  -3   0  -8    8.45    0.50 
  -3   0  -8    8.48    0.48 
  -3   0  -8    7.90    0.50 
   3   0   8    8.26    0.48 
   3   0   8    8.36    0.51 
   3   0   8    8.67    0.50 
  -4   0  -8    2.05    0.30 
  -4   0  -8    2.13    0.27 
   4   0   8    2.24    0.26 
   4   0   8    1.60    0.26 
   5   0   8    1.80    0.25 
   5   0   8    2.86    0.37 
  -6   0  -8    1.01    0.27 
  -6   0  -8    0.79    0.31 
   6   0   8    1.26    0.29 
   6   0   8    1.16    0.19 
  -7   0  -8    0.42    0.30 
  -7   0  -8    0.69    0.32 
   7   0   8    0.84    0.36 
   7   0   8   -0.05    0.26 
   6  -1  -8    0.55    0.24 
  -6   1   8    0.34    0.35 
  -6   1   8    0.74    0.27 
   5  -1  -8    3.51    0.47 
  -5   1   8    2.94    0.43 
   4  -1  -8    2.85    0.21 
   4  -1  -8    2.87    0.22 
   4  -1  -8    3.57    0.39 
  -4   1   8    2.84    0.35 
  -4   1   8    3.44    0.35 
   3  -1  -8    9.35    0.64 
   3  -1  -8   11.27    0.55 
   3  -1  -8   10.94    0.55 
  -3   1   8   11.75    0.61 
  -3   1   8   11.66    0.64 
  -3   1   8   11.09    0.61 
   2  -1  -8    0.36    0.12 
   2  -1  -8    0.28    0.11 
   2  -1  -8    0.33    0.17 
  -2   1   8    0.32    0.16 
  -2   1   8    0.26    0.17 
  -2   1   8    0.01    0.14 
   1  -1  -8   47.56    2.17 
   1  -1  -8   48.09    2.17 
   1  -1  -8   48.69    2.21 
  -1   1   8   47.80    2.20 
  -1   1   8   46.73    2.18 
  -1   1   8   47.71    2.18 
   0  -1  -8   12.64    0.65 
   0  -1  -8   13.04    0.63 
   0  -1  -8   12.46    0.62 
   0   1   8   12.40    0.63 
   0   1   8   12.35    0.65 
   0   1   8   12.25    0.63 
  -1  -1  -8   32.30    1.49 
  -1  -1  -8   31.92    1.49 
  -1  -1  -8   31.93    1.51 
   1   1   8   32.09    1.51 
   1   1   8   33.39    1.49 
   1   1   8   31.78    1.49 
  -2  -1  -8    0.94    0.17 
  -2  -1  -8    1.06    0.17 
  -2  -1  -8    0.88    0.16 
   2   1   8    0.95    0.17 
   2   1   8    0.93    0.16 
   2   1   8    0.86    0.16 
  -3  -1  -8   30.63    1.42 
  -3  -1  -8   29.50    1.42 
  -3  -1  -8   30.83    1.42 
   3   1   8   29.44    1.41 
   3   1   8   29.46    1.42 
   3   1   8   31.20    1.42 
  -4  -1  -8    1.57    0.19 
  -4  -1  -8    1.02    0.20 
   4   1   8    1.50    0.24 
   4   1   8    1.25    0.19 
   4   1   8    1.22    0.21 
  -5  -1  -8    5.85    0.39 
  -5  -1  -8    6.45    0.45 
   5   1   8    5.92    0.43 
   5   1   8    5.70    0.43 
   5   1   8    6.29    0.41 
  -6  -1  -8    5.43    0.52 
  -6  -1  -8    5.39    0.46 
   6   1   8    5.78    0.38 
   6   1   8    5.35    0.49 
  -7  -1  -8    1.01    0.30 
  -7  -1  -8    1.36    0.36 
   7   1   8    0.91    0.16 
   7   1   8    0.80    0.31 
  -8  -1  -8    0.93    0.33 
   8   1   8    0.50    0.36 
   8   1   8    0.39    0.30 
   6  -2  -8   -0.23    0.24 
  -6   2   8    0.48    0.40 
  -6   2   8   -0.02    0.30 
   5  -2  -8   -0.04    0.15 
   5  -2  -8   -0.31    0.23 
   5  -2  -8   -0.17    0.13 
  -5   2   8   -0.04    0.25 
  -5   2   8    0.24    0.33 
   4  -2  -8    3.10    0.29 
   4  -2  -8    2.90    0.39 
   4  -2  -8    2.85    0.28 
  -4   2   8    2.95    0.38 
  -4   2   8    2.76    0.43 
  -4   2   8    3.48    0.38 
   3  -2  -8   17.37    0.89 
   3  -2  -8   18.35    0.97 
   3  -2  -8   16.96    0.89 
  -3   2   8   20.82    0.93 
  -3   2   8   17.38    0.95 
  -3   2   8   20.16    0.94 
   2  -2  -8    0.53    0.16 
   2  -2  -8    0.24    0.16 
   2  -2  -8    0.54    0.20 
  -2   2   8    0.41    0.19 
  -2   2   8    0.24    0.20 
   1  -2  -8    4.91    0.33 
   1  -2  -8    4.99    0.33 
   1  -2  -8    4.68    0.37 
  -1   2   8    4.84    0.37 
  -1   2   8    4.79    0.36 
  -1   2   8    4.26    0.35 
   0  -2  -8   40.35    1.86 
   0  -2  -8   40.38    1.84 
   0  -2  -8   39.71    1.84 
   0   2   8   40.43    1.84 
   0   2   8   38.85    1.86 
   0   2   8   40.61    1.85 
  -1  -2  -8   15.23    0.77 
  -1  -2  -8   16.41    0.76 
  -1  -2  -8   15.19    0.75 
   1   2   8   14.32    0.75 
   1   2   8   15.07    0.77 
   1   2   8   15.15    0.75 
  -2  -2  -8    0.43    0.16 
  -2  -2  -8    0.24    0.14 
  -2  -2  -8    0.16    0.14 
   2   2   8    0.15    0.14 
   2   2   8    0.26    0.16 
   2   2   8    0.32    0.16 
  -3  -2  -8    0.06    0.16 
  -3  -2  -8    0.14    0.14 
  -3  -2  -8   -0.02    0.15 
   3   2   8    0.21    0.14 
   3   2   8    0.10    0.16 
   3   2   8    0.09    0.19 
  -4  -2  -8   11.73    0.68 
  -4  -2  -8   12.76    0.65 
   4   2   8   12.52    0.65 
   4   2   8   13.24    0.67 
   4   2   8   12.17    0.68 
  -5  -2  -8    1.58    0.20 
  -5  -2  -8    1.57    0.27 
  -5  -2  -8    1.27    0.23 
   5   2   8    1.73    0.21 
   5   2   8    1.68    0.24 
  -6  -2  -8    1.30    0.27 
  -6  -2  -8    1.16    0.26 
  -6  -2  -8    1.18    0.17 
   6   2   8    1.00    0.22 
   6   2   8    1.26    0.18 
  -7  -2  -8    1.61    0.34 
  -7  -2  -8    2.16    0.32 
   7   2   8    1.73    0.26 
   7   2   8    1.85    0.31 
  -8  -2  -8    0.88    0.37 
  -8  -2  -8    0.24    0.31 
   8   2   8    1.25    0.35 
   5  -3  -8    1.02    0.24 
   5  -3  -8    1.39    0.23 
   5  -3  -8    1.13    0.30 
  -5   3   8    1.27    0.33 
  -5   3   8    1.95    0.40 
   4  -3  -8    1.64    0.26 
   4  -3  -8    1.39    0.23 
  -4   3   8    1.55    0.35 
  -4   3   8    1.27    0.30 
   3  -3  -8    0.12    0.22 
   3  -3  -8    0.03    0.19 
   3  -3  -8   -0.15    0.18 
  -3   3   8    0.01    0.22 
  -3   3   8   -0.04    0.25 
   2  -3  -8   10.67    0.68 
   2  -3  -8   11.24    0.63 
   2  -3  -8   10.21    0.62 
  -2   3   8   13.58    0.65 
  -2   3   8   11.89    0.66 
   1  -3  -8   12.72    0.74 
   1  -3  -8   12.74    0.68 
   1  -3  -8   12.58    0.67 
  -1   3   8   13.63    0.69 
  -1   3   8   13.91    0.70 
  -1   3   8   11.71    0.68 
   0  -3  -8    2.62    0.34 
   0  -3  -8    2.59    0.28 
   0  -3  -8    2.86    0.29 
   0   3   8    2.97    0.34 
   0   3   8    3.04    0.30 
   0   3   8    2.23    0.26 
  -1  -3  -8    1.52    0.20 
  -1  -3  -8    0.87    0.20 
  -1  -3  -8    1.32    0.19 
   1   3   8    1.07    0.18 
   1   3   8    1.34    0.21 
   1   3   8    1.03    0.22 
  -2  -3  -8   13.36    0.72 
  -2  -3  -8   14.66    0.72 
  -2  -3  -8   13.11    0.73 
   2   3   8   13.46    0.72 
   2   3   8   14.99    0.73 
   2   3   8   15.00    0.73 
  -3  -3  -8   16.22    0.80 
  -3  -3  -8   16.54    0.80 
  -3  -3  -8   15.90    0.80 
   3   3   8   15.45    0.80 
   3   3   8   13.09    0.79 
   3   3   8   17.65    0.81 
  -4  -3  -8    9.37    0.60 
  -4  -3  -8   10.38    0.57 
  -4  -3  -8   12.03    0.57 
   4   3   8    9.62    0.60 
   4   3   8   10.33    0.58 
   4   3   8   10.12    0.57 
  -5  -3  -8    0.45    0.16 
  -5  -3  -8    0.35    0.20 
  -5  -3  -8    0.42    0.23 
   5   3   8    0.44    0.16 
   5   3   8    0.55    0.22 
  -6  -3  -8    0.03    0.24 
  -6  -3  -8   -0.12    0.20 
  -6  -3  -8    0.16    0.15 
   6   3   8   -0.38    0.18 
   6   3   8    0.20    0.17 
  -7  -3  -8    0.36    0.25 
  -7  -3  -8    0.34    0.30 
  -7  -3  -8    0.58    0.15 
   7   3   8    0.07    0.21 
  -8  -3  -8   -0.24    0.29 
  -8  -3  -8   -0.09    0.28 
   8   3   8    0.13    0.19 
   5  -4  -8    6.97    0.58 
  -5   4   8    5.64    0.69 
  -4   4   8    3.51    0.57 
  -4   4   8    3.23    0.50 
   3  -4  -8   10.02    0.58 
   3  -4  -8    8.70    0.56 
  -3   4   8    8.32    0.65 
  -3   4   8    8.72    0.62 
   2  -4  -8   11.58    0.64 
   2  -4  -8   11.46    0.64 
  -2   4   8   10.53    0.69 
   1  -4  -8   42.40    1.99 
   1  -4  -8   45.65    1.96 
   1  -4  -8   44.20    1.96 
  -1   4   8   41.39    1.96 
  -1   4   8   43.26    1.98 
  -1   4   8   35.55    1.97 
   0  -4  -8   28.54    1.33 
   0  -4  -8   30.53    1.32 
   0  -4  -8   27.13    1.35 
   0   4   8   25.37    1.32 
   0   4   8   26.52    1.34 
   0   4   8   27.52    1.32 
  -1  -4  -8    2.93    0.36 
  -1  -4  -8    2.99    0.30 
  -1  -4  -8    2.14    0.33 
   1   4   8    2.99    0.36 
  -2  -4  -8    8.78    0.54 
  -2  -4  -8    9.38    0.54 
   2   4   8    8.30    0.56 
   2   4   8    9.27    0.55 
   2   4   8    9.09    0.53 
  -3  -4  -8    4.67    0.43 
  -3  -4  -8    5.73    0.44 
   3   4   8    5.77    0.41 
   3   4   8    5.80    0.42 
   3   4   8    5.28    0.44 
  -4  -4  -8   21.89    1.04 
  -4  -4  -8   19.91    1.04 
  -4  -4  -8   21.09    1.05 
   4   4   8   21.86    1.05 
   4   4   8   20.90    1.04 
   4   4   8   21.12    1.06 
  -5  -4  -8    0.11    0.21 
  -5  -4  -8    0.09    0.17 
  -5  -4  -8   -0.04    0.19 
   5   4   8    0.08    0.17 
   5   4   8    0.39    0.20 
  -6  -4  -8    3.53    0.40 
  -6  -4  -8    3.84    0.43 
  -6  -4  -8    3.50    0.34 
   6   4   8    3.58    0.37 
  -7  -4  -8    1.02    0.32 
  -7  -4  -8    0.57    0.17 
  -7  -4  -8    0.71    0.25 
   7   4   8    0.82    0.23 
   4  -5  -8    4.13    0.58 
   4  -5  -8    5.10    0.51 
   4  -5  -8    4.39    0.59 
  -4   5   8    4.20    0.59 
   3  -5  -8    0.32    0.25 
   3  -5  -8   -0.06    0.27 
  -3   5   8    0.15    0.29 
  -3   5   8    0.01    0.31 
   2  -5  -8    0.53    0.26 
  -2   5   8    0.50    0.30 
   1  -5  -8   13.94    0.81 
  -1   5   8   15.32    0.82 
  -1   5   8   15.16    0.83 
   0  -5  -8   21.82    1.14 
   0  -5  -8   23.60    1.15 
   0   5   8   23.90    1.17 
  -1  -5  -8    5.80    0.44 
  -1  -5  -8    3.92    0.41 
   1   5   8    5.60    0.44 
  -2  -5  -8    0.18    0.21 
  -2  -5  -8   -0.07    0.11 
   2   5   8    0.05    0.19 
   2   5   8    0.34    0.21 
  -3  -5  -8   62.07    2.84 
   3   5   8   58.68    2.81 
   3   5   8   63.84    2.82 
  -4  -5  -8   33.36    1.63 
  -4  -5  -8   33.18    1.61 
  -4  -5  -8   33.13    1.61 
   4   5   8   34.19    1.61 
   4   5   8   36.69    1.61 
  -5  -5  -8    5.30    0.45 
  -5  -5  -8    4.73    0.44 
  -5  -5  -8    4.59    0.42 
   5   5   8    5.08    0.41 
  -6  -5  -8    1.11    0.26 
  -6  -5  -8    0.76    0.23 
  -6  -5  -8    0.84    0.23 
   6   5   8    0.70    0.21 
  -7  -5  -8    4.95    0.47 
  -7  -5  -8    4.03    0.39 
  -7  -5  -8    4.38    0.54 
   7   5   8    4.58    0.41 
  -8  -5  -8    5.14    0.57 
  -8  -5  -8    4.25    0.39 
  -8  -5  -8    5.35    0.53 
   8   5   8    6.10    0.45 
   3  -6  -8    0.78    0.30 
   3  -6  -8    1.04    0.35 
   3  -6  -8    0.74    0.33 
  -3   6   8    0.53    0.35 
   2  -6  -8    1.04    0.31 
   2  -6  -8    0.66    0.27 
   2  -6  -8    1.21    0.34 
  -2   6   8    1.79    0.34 
   1  -6  -8    0.01    0.22 
   1  -6  -8   -0.03    0.26 
   1  -6  -8   -0.06    0.27 
  -1   6   8   -0.09    0.31 
  -1   6   8    0.29    0.28 
   0  -6  -8    3.15    0.35 
   0   6   8    3.28    0.37 
  -1  -6  -8    0.09    0.24 
   1   6   8    0.13    0.25 
  -2  -6  -8   -0.13    0.22 
  -2  -6  -8   -0.18    0.16 
   2   6   8    0.03    0.24 
   2   6   8    0.06    0.14 
  -3  -6  -8   -0.26    0.20 
  -3  -6  -8   -0.05    0.14 
  -3  -6  -8   -0.28    0.20 
   3   6   8   -0.44    0.23 
   3   6   8   -0.15    0.18 
  -4  -6  -8    1.32    0.25 
  -4  -6  -8    0.84    0.23 
   4   6   8    1.25    0.22 
  -5  -6  -8   -0.13    0.20 
  -5  -6  -8    0.15    0.25 
  -5  -6  -8   -0.29    0.19 
   5   6   8   -0.19    0.19 
   5   6   8   -0.36    0.18 
  -6  -6  -8   -0.02    0.21 
  -6  -6  -8   -0.08    0.23 
  -6  -6  -8    0.00    0.26 
   6   6   8    0.03    0.21 
  -7  -6  -8    2.17    0.32 
  -7  -6  -8    3.85    0.56 
   7   6   8    3.28    0.37 
  -8  -6  -8    0.85    0.33 
  -8  -6  -8    1.23    0.31 
  -8  -6  -8    1.39    0.27 
   8   6   8    1.07    0.26 
   2  -7  -8    2.39    0.38 
  -2   7   8    1.89    0.40 
   1  -7  -8    3.87    0.52 
   1  -7  -8    3.96    0.50 
   1  -7  -8    4.30    0.52 
  -1   7   8    4.30    0.54 
   0  -7  -8    0.18    0.32 
   0  -7  -8   -0.34    0.25 
   0  -7  -8    0.43    0.27 
   0   7   8   -0.05    0.37 
   0   7   8    0.48    0.29 
  -1  -7  -8    2.46    0.48 
  -1  -7  -8    2.57    0.37 
   1   7   8    2.45    0.35 
   1   7   8    1.85    0.38 
  -2  -7  -8    6.83    0.53 
   2   7   8    6.02    0.54 
  -3  -7  -8   19.63    1.00 
  -3  -7  -8   19.16    1.03 
  -3  -7  -8   18.91    1.02 
   3   7   8   18.35    1.00 
  -4  -7  -8    0.90    0.26 
  -4  -7  -8    0.70    0.27 
  -4  -7  -8    0.65    0.24 
   4   7   8    0.84    0.29 
  -5  -7  -8    0.44    0.25 
  -5  -7  -8    0.43    0.24 
   5   7   8   -0.03    0.18 
  -6  -7  -8    5.05    0.48 
  -6  -7  -8    4.31    0.46 
  -6  -7  -8    4.95    0.57 
   6   7   8    3.57    0.42 
  -7  -7  -8    6.65    0.62 
  -7  -7  -8    5.07    0.53 
  -7  -7  -8    5.60    0.50 
   7   7   8    5.05    0.45 
  -8  -7  -8   -0.16    0.23 
  -8  -7  -8   -0.06    0.30 
  -8  -7  -8    0.64    0.33 
   8   7   8    0.66    0.28 
   8   7   8   -0.01    0.21 
   0  -8  -8    0.24    0.29 
   0   8   8   -0.38    0.34 
  -1  -8  -8    5.67    0.52 
  -1  -8  -8    6.15    0.65 
  -1  -8  -8    5.11    0.56 
   1   8   8    6.77    0.59 
   1   8   8    6.08    0.57 
  -2  -8  -8    7.51    0.63 
  -2  -8  -8    7.54    0.59 
  -2  -8  -8    7.32    0.58 
   2   8   8    7.30    0.59 
   2   8   8    8.86    0.69 
  -3  -8  -8    2.10    0.33 
  -3  -8  -8    1.91    0.35 
  -3  -8  -8    2.01    0.30 
   3   8   8    2.88    0.43 
   3   8   8    2.31    0.38 
  -4  -8  -8    0.40    0.31 
  -4  -8  -8    0.52    0.28 
  -4  -8  -8    0.98    0.27 
   4   8   8    0.89    0.31 
  -5  -8  -8    1.71    0.32 
  -5  -8  -8    1.83    0.31 
  -5  -8  -8    1.81    0.34 
   5   8   8    2.45    0.33 
  -6  -8  -8    3.88    0.49 
  -6  -8  -8    4.68    0.52 
  -1  -9  -8    0.03    0.45 
   1   9   8    0.07    0.34 
  -2  -9  -8    0.04    0.28 
   2   9   8    0.20    0.35 
  -3  -9  -8    0.13    0.29 
   3   9   8   -0.50    0.27 
   3   9   8    0.22    0.33 
  -4  -9  -8   -0.01    0.28 
   4   9   8    0.15    0.29 
   4   9   8    0.45    0.37 
  -5  -9  -8    0.21    0.31 
  -5  -9  -8    0.04    0.31 
   5   9   8    0.92    0.33 
   5   9   8    0.11    0.27 
  -6  -9  -8    1.08    0.34 
  -6  -9  -8    1.09    0.34 
   6   9   8    0.10    0.31 
  -5  -8   9   -0.01    0.36 
  -5  -8   9   -0.07    0.19 
  -4  -8   9    0.03    0.18 
  -4  -8   9    0.04    0.31 
  -3  -8   9    3.06    0.36 
  -3  -8   9    2.51    0.39 
  -3  -8   9    3.15    0.39 
  -2  -8   9    1.36    0.27 
  -2  -8   9    2.00    0.37 
  -2  -8   9    1.65    0.38 
   1   8  -9    0.51    0.20 
   1   8  -9    0.38    0.18 
  -1  -8   9    0.36    0.27 
  -1  -8   9    0.74    0.30 
  -1  -8   9    0.75    0.40 
   0   8  -9   -0.09    0.22 
   0   8  -9   -0.44    0.27 
   0  -8   9   -0.54    0.31 
   0  -8   9   -0.58    0.29 
  -6  -7   9    0.11    0.15 
  -6  -7   9    0.10    0.15 
  -6  -7   9    1.10    0.40 
  -5  -7   9    0.95    0.40 
  -5  -7   9    0.07    0.15 
  -5  -7   9    0.37    0.16 
  -4  -7   9    0.05    0.15 
  -4  -7   9    0.27    0.20 
  -4  -7   9    1.05    0.38 
  -3  -7   9    1.28    0.21 
  -3  -7   9    1.73    0.39 
  -2  -7   9    0.23    0.33 
  -2  -7   9   -0.20    0.18 
  -2  -7   9   -0.13    0.23 
   1   7  -9    2.00    0.27 
   1   7  -9    1.95    0.27 
  -1  -7   9    1.55    0.33 
  -1  -7   9    1.82    0.25 
  -1  -7   9    2.27    0.35 
   0   7  -9    0.40    0.22 
   0  -7   9    0.83    0.38 
   0  -7   9    0.18    0.25 
   0  -7   9    0.23    0.31 
  -1   7  -9    0.09    0.32 
   1  -7   9    0.18    0.29 
   1  -7   9   -0.12    0.26 
   1  -7   9    0.43    0.29 
  -2   7  -9    0.47    0.31 
  -2   7  -9    0.53    0.36 
   2  -7   9    0.65    0.35 
   2  -7   9    0.25    0.32 
  -7  -6   9   -0.14    0.38 
  -6  -6   9   -0.06    0.11 
  -6  -6   9    0.01    0.13 
  -6  -6   9   -0.22    0.34 
  -5  -6   9   -0.06    0.12 
  -5  -6   9   -0.23    0.30 
  -5  -6   9   -0.10    0.14 
  -4  -6   9    2.27    0.26 
  -4  -6   9    1.75    0.26 
  -4  -6   9    2.63    0.37 
  -3  -6   9   -0.42    0.28 
  -3  -6   9   -0.35    0.15 
  -3  -6   9   -0.35    0.19 
  -2  -6   9    1.49    0.31 
  -2  -6   9    2.48    0.34 
   1   6  -9    1.63    0.18 
   1   6  -9    1.55    0.23 
  -1  -6   9    1.24    0.30 
  -1  -6   9    1.51    0.23 
  -1  -6   9    1.35    0.27 
   0   6  -9    0.35    0.19 
   0   6  -9    0.06    0.18 
   0  -6   9    0.11    0.28 
   0  -6   9    0.25    0.26 
   0  -6   9    0.22    0.19 
  -1   6  -9    3.82    0.46 
   1  -6   9    3.64    0.51 
   1  -6   9    3.45    0.53 
   1  -6   9    3.17    0.40 
  -2   6  -9    0.06    0.26 
  -2   6  -9    0.28    0.32 
   2  -6   9   -0.18    0.25 
   2  -6   9    0.44    0.27 
   2  -6   9    0.79    0.36 
  -3   6  -9    0.14    0.31 
  -3   6  -9   -0.07    0.36 
   3  -6   9    0.43    0.32 
   3  -6   9    0.19    0.30 
  -7  -5   9    0.60    0.33 
  -6  -5   9    2.11    0.20 
  -6  -5   9    2.66    0.37 
  -6  -5   9    2.24    0.24 
  -5  -5   9    0.18    0.11 
  -5  -5   9    0.13    0.12 
  -5  -5   9    0.09    0.28 
  -4  -5   9    0.36    0.14 
  -4  -5   9    0.15    0.12 
  -4  -5   9    0.15    0.25 
  -3  -5   9   -0.34    0.23 
  -3  -5   9   -0.20    0.13 
  -3  -5   9   -0.29    0.14 
  -2  -5   9    3.55    0.43 
  -2  -5   9    3.68    0.32 
  -2  -5   9    3.85    0.35 
  -1  -5   9    0.22    0.19 
   0   5  -9    0.91    0.18 
   0   5  -9    1.10    0.20 
   0  -5   9    0.87    0.28 
   0  -5   9    1.22    0.25 
   0  -5   9    1.05    0.21 
  -1   5  -9    1.22    0.22 
  -1   5  -9    1.25    0.22 
   1  -5   9    1.23    0.25 
   1  -5   9    1.10    0.28 
   1  -5   9    1.10    0.25 
  -2   5  -9    4.20    0.47 
   2  -5   9    4.76    0.51 
   2  -5   9    4.10    0.42 
   2  -5   9    4.18    0.52 
  -3   5  -9    1.87    0.33 
  -3   5  -9    1.25    0.38 
   3  -5   9    2.00    0.36 
   3  -5   9    1.45    0.29 
   3  -5   9    2.55    0.35 
  -4   5  -9    0.25    0.34 
   4  -5   9    0.29    0.34 
   4  -5   9   -0.12    0.34 
  -7  -4   9    0.96    0.21 
  -7  -4   9    1.13    0.19 
  -7  -4   9    0.82    0.33 
  -6  -4   9    1.41    0.21 
  -6  -4   9    1.63    0.24 
  -6  -4   9    1.63    0.31 
  -5  -4   9    0.00    0.11 
  -5  -4   9    0.18    0.12 
  -5  -4   9   -0.12    0.25 
  -4  -4   9    2.22    0.22 
  -4  -4   9    2.73    0.23 
  -3  -4   9    2.37    0.25 
  -3  -4   9    2.85    0.26 
  -2  -4   9   11.11    0.60 
  -2  -4   9   12.63    0.68 
  -2  -4   9   11.81    0.62 
   1   4  -9   -0.08    0.10 
  -1  -4   9    0.34    0.24 
   0   4  -9    6.31    0.40 
   0   4  -9    6.00    0.40 
   0  -4   9    7.23    0.46 
   0  -4   9    6.44    0.55 
  -1   4  -9    3.96    0.38 
  -1   4  -9    2.63    0.33 
   1  -4   9    2.91    0.37 
   1  -4   9    3.24    0.35 
   1  -4   9    3.26    0.39 
  -2   4  -9    3.57    0.41 
   2  -4   9    4.27    0.39 
   2  -4   9    4.44    0.40 
   2  -4   9    3.60    0.46 
  -3   4  -9   -0.17    0.25 
   3  -4   9    0.43    0.28 
   3  -4   9    0.22    0.24 
  -4   4  -9    0.90    0.29 
  -4   4  -9    0.89    0.31 
   4  -4   9    1.53    0.31 
   4  -4   9    0.79    0.26 
   4  -4   9    1.67    0.38 
  -5   4  -9    0.34    0.34 
   5  -4   9   -0.28    0.31 
   5  -4   9    0.37    0.27 
  -5  -3   9    1.58    0.24 
  -5  -3   9    1.33    0.21 
  -4  -3   9    0.70    0.12 
  -4  -3   9    0.76    0.21 
  -4  -3   9    0.78    0.14 
  -3  -3   9    2.40    0.24 
  -3  -3   9    2.07    0.22 
  -2  -3   9    0.09    0.13 
  -2  -3   9    0.18    0.14 
   1   3  -9    6.43    0.35 
   1   3  -9    6.93    0.34 
  -1  -3   9    5.74    0.40 
  -1  -3   9    6.09    0.39 
   0   3  -9    2.57    0.26 
   0   3  -9    2.13    0.26 
   0  -3   9    2.30    0.30 
   0  -3   9    2.41    0.32 
  -1   3  -9    5.97    0.43 
  -1   3  -9    5.77    0.43 
   1  -3   9    7.94    0.44 
   1  -3   9    6.30    0.45 
  -2   3  -9    2.01    0.25 
  -2   3  -9    2.33    0.27 
   2  -3   9    2.35    0.32 
   2  -3   9    3.17    0.31 
   2  -3   9    2.16    0.30 
  -3   3  -9   13.86    0.79 
   3  -3   9   13.14    0.79 
   3  -3   9   15.01    0.77 
  -4   3  -9    8.21    0.59 
  -4   3  -9    7.48    0.62 
   4  -3   9    8.26    0.69 
   4  -3   9    9.83    0.59 
  -5   3  -9    0.00    0.28 
  -5   3  -9    0.05    0.28 
   5  -3   9   -0.01    0.26 
   5  -3   9    0.60    0.31 
   6  -3   9    1.10    0.37 
  -7  -2   9    5.37    0.51 
  -6  -2   9    1.81    0.23 
  -6  -2   9    1.74    0.21 
   5   2  -9    0.67    0.23 
  -5  -2   9    0.74    0.17 
   4   2  -9    6.15    0.49 
  -4  -2   9    5.21    0.36 
  -4  -2   9    5.11    0.33 
   3   2  -9   10.83    0.63 
  -3  -2   9    9.69    0.54 
  -3  -2   9   12.08    0.61 
  -3  -2   9    9.75    0.53 
   2   2  -9   20.99    1.04 
  -2  -2   9   20.26    0.98 
  -2  -2   9   21.24    1.04 
  -2  -2   9   20.52    0.98 
   1   2  -9    0.14    0.19 
   1   2  -9    0.48    0.11 
  -1  -2   9    0.37    0.15 
  -1  -2   9    0.35    0.19 
  -1  -2   9    0.47    0.14 
   0   2  -9    6.58    0.37 
   0   2  -9    5.99    0.37 
   0   2  -9    5.43    0.42 
   0  -2   9    6.13    0.40 
   0  -2   9    5.91    0.40 
   0  -2   9    6.11    0.43 
  -1   2  -9    1.28    0.19 
  -1   2  -9    1.13    0.22 
  -1   2  -9    1.23    0.20 
   1  -2   9    1.65    0.25 
   1  -2   9    1.20    0.21 
   1  -2   9    1.14    0.22 
  -2   2  -9   -0.37    0.16 
  -2   2  -9   -0.41    0.19 
   2  -2   9   -0.23    0.18 
  -3   2  -9   -0.16    0.18 
  -3   2  -9   -0.16    0.22 
   3  -2   9   -0.01    0.22 
   3  -2   9   -0.04    0.17 
  -4   2  -9    1.99    0.31 
   4  -2   9    1.83    0.31 
  -5   2  -9    0.42    0.28 
  -5   2  -9    0.16    0.39 
   5  -2   9    0.34    0.32 
  -6   2  -9    0.13    0.34 
   6  -2   9    0.13    0.30 
   6  -2   9    0.65    0.32 
   7   1  -9    0.11    0.25 
  -7  -1   9    0.58    0.33 
  -7  -1   9   -0.09    0.24 
  -6  -1   9    3.13    0.39 
   5   1  -9    0.59    0.24 
  -5  -1   9    0.84    0.21 
  -5  -1   9    0.87    0.20 
  -4  -1   9    3.32    0.30 
  -4  -1   9    3.75    0.31 
   3   1  -9   13.14    0.74 
  -3  -1   9   13.58    0.67 
  -3  -1   9   13.13    0.71 
  -3  -1   9   12.52    0.66 
   2   1  -9    2.79    0.32 
   2   1  -9    2.53    0.18 
   2   1  -9    2.49    0.17 
  -2  -1   9    2.61    0.26 
  -2  -1   9    2.16    0.24 
  -2  -1   9    3.08    0.35 
   1   1  -9    8.90    0.44 
   1   1  -9    8.63    0.44 
   1   1  -9    7.57    0.52 
  -1  -1   9    8.47    0.47 
  -1  -1   9    9.00    0.52 
  -1  -1   9    8.28    0.46 
   0   1  -9   23.75    1.10 
   0   1  -9   22.82    1.14 
   0   1  -9   23.94    1.10 
   0  -1   9   22.89    1.14 
   0  -1   9   23.73    1.11 
   0  -1   9   23.21    1.11 
  -1   1  -9   29.12    1.37 
  -1   1  -9   28.09    1.33 
  -1   1  -9   29.58    1.33 
   1  -1   9   27.71    1.34 
   1  -1   9   28.35    1.34 
   1  -1   9   27.89    1.36 
  -2   1  -9    2.58    0.32 
  -2   1  -9    3.03    0.33 
   2  -1   9    3.30    0.36 
   2  -1   9    3.51    0.33 
   2  -1   9    2.91    0.35 
  -3   1  -9    5.65    0.44 
  -3   1  -9    6.27    0.42 
  -3   1  -9    5.41    0.44 
   3  -1   9    6.74    0.45 
   3  -1   9    6.32    0.46 
  -4   1  -9    4.31    0.47 
   4  -1   9    4.53    0.44 
   4  -1   9    4.48    0.40 
  -5   1  -9    0.25    0.28 
   5  -1   9    0.16    0.22 
   5  -1   9    0.55    0.30 
  -6   1  -9    5.19    0.48 
  -6   1  -9    4.72    0.54 
   6  -1   9    4.08    0.42 
   6  -1   9    3.77    0.44 
   6  -1   9    4.87    0.60 
  -7   1  -9    1.83    0.38 
   7  -1   9    0.95    0.38 
  -6   0   9    0.28    0.30 
  -6   0   9    0.43    0.25 
  -5   0   9    2.46    0.40 
   4   0  -9    2.67    0.37 
  -4   0   9    1.47    0.24 
   3   0  -9   21.75    1.08 
   3   0  -9   21.19    0.97 
   3   0  -9   19.91    0.97 
  -3   0   9   21.22    1.03 
  -3   0   9   20.62    1.03 
  -3   0   9   23.92    1.07 
   2   0  -9   15.81    0.76 
   2   0  -9   17.30    0.85 
   2   0  -9   15.56    0.76 
  -2   0   9   15.73    0.79 
  -2   0   9   16.34    0.85 
  -2   0   9   16.16    0.80 
   1   0  -9    1.45    0.21 
   1   0  -9    1.05    0.22 
   1   0  -9    1.47    0.19 
  -1   0   9    1.45    0.23 
  -1   0   9    1.56    0.23 
  -1   0   9    1.01    0.17 
   0   0  -9    6.28    0.37 
   0   0  -9    6.33    0.44 
   0   0  -9    6.34    0.37 
   0   0   9    6.11    0.38 
   0   0   9    5.78    0.39 
   0   0   9    6.21    0.43 
  -1   0  -9    0.03    0.14 
  -1   0  -9    0.11    0.17 
  -1   0  -9   -0.04    0.13 
   1   0   9    0.23    0.19 
   1   0   9    0.13    0.16 
   1   0   9   -0.08    0.16 
  -2   0  -9   29.85    1.39 
  -2   0  -9   29.56    1.37 
  -2   0  -9   29.04    1.38 
   2   0   9   28.65    1.39 
   2   0   9   28.60    1.39 
   2   0   9   29.83    1.39 
  -3   0  -9    8.97    0.57 
  -3   0  -9    9.66    0.55 
   3   0   9   11.20    0.56 
   3   0   9    8.32    0.55 
   3   0   9    9.31    0.55 
  -4   0  -9    8.70    0.57 
  -4   0  -9    8.67    0.53 
   4   0   9    9.45    0.57 
   4   0   9    8.42    0.52 
   4   0   9    8.43    0.54 
  -5   0  -9    7.69    0.58 
   5   0   9    8.17    0.56 
   5   0   9    8.01    0.51 
  -6   0  -9   10.42    0.66 
  -6   0  -9   10.23    0.70 
   6   0   9   10.45    0.70 
   6   0   9    9.48    0.64 
   6   0   9   10.44    0.59 
  -7   0  -9    4.31    0.57 
   7   0   9    3.32    0.47 
   6  -1  -9   -0.13    0.22 
  -6   1   9    0.67    0.39 
  -6   1   9    0.19    0.27 
   5  -1  -9    0.45    0.24 
  -5   1   9   -0.04    0.24 
  -5   1   9    0.41    0.29 
  -5   1   9    0.32    0.26 
   4  -1  -9    3.01    0.21 
   4  -1  -9    3.90    0.40 
   4  -1  -9    3.35    0.22 
  -4   1   9    3.20    0.37 
   3  -1  -9    9.45    0.49 
   3  -1  -9    9.56    0.59 
   3  -1  -9    8.84    0.49 
  -3   1   9   10.41    0.56 
   2  -1  -9    0.35    0.22 
   2  -1  -9    0.23    0.13 
   2  -1  -9    0.17    0.13 
  -2   1   9   -0.14    0.16 
  -2   1   9    0.21    0.19 
   1  -1  -9    0.16    0.14 
   1  -1  -9    0.33    0.14 
   1  -1  -9    0.22    0.17 
  -1   1   9    0.19    0.19 
  -1   1   9   -0.03    0.16 
  -1   1   9    0.01    0.16 
   0  -1  -9   21.50    1.16 
   0  -1  -9   25.00    1.13 
   0  -1  -9   24.70    1.12 
   0   1   9   24.95    1.14 
   0   1   9   23.50    1.16 
   0   1   9   23.03    1.13 
  -1  -1  -9   44.13    2.01 
  -1  -1  -9   44.62    2.03 
  -1  -1  -9   44.35    2.01 
   1   1   9   41.98    2.01 
   1   1   9   44.15    2.02 
   1   1   9   44.02    2.04 
  -2  -1  -9    5.35    0.37 
  -2  -1  -9    5.10    0.39 
  -2  -1  -9    5.14    0.38 
   2   1   9    4.09    0.36 
   2   1   9    5.40    0.38 
   2   1   9    5.27    0.39 
  -3  -1  -9    2.08    0.34 
  -3  -1  -9    1.84    0.30 
   3   1   9    2.09    0.30 
   3   1   9    1.97    0.30 
  -4  -1  -9    3.10    0.33 
  -4  -1  -9    4.24    0.37 
   4   1   9    3.15    0.33 
   4   1   9    2.09    0.34 
  -5  -1  -9    5.89    0.42 
  -5  -1  -9    5.55    0.47 
   5   1   9    5.83    0.41 
   5   1   9    5.40    0.48 
  -6  -1  -9    0.51    0.31 
  -6  -1  -9    0.63    0.25 
   6   1   9    0.66    0.17 
   6   1   9    0.88    0.31 
  -7  -1  -9    1.31    0.34 
  -7  -1  -9    2.08    0.35 
   7   1   9    2.62    0.41 
   7   1   9    2.36    0.31 
   7   1   9    1.52    0.28 
   8   1   9    1.04    0.34 
   8   1   9    1.48    0.44 
   5  -2  -9    0.51    0.26 
   5  -2  -9    0.37    0.12 
  -5   2   9    0.59    0.39 
  -5   2   9    0.68    0.29 
   4  -2  -9    0.70    0.17 
   4  -2  -9    0.56    0.16 
   4  -2  -9    0.04    0.20 
  -4   2   9    0.47    0.27 
  -4   2   9    0.75    0.29 
  -4   2   9    0.45    0.24 
   3  -2  -9    4.23    0.31 
   3  -2  -9    3.73    0.42 
   3  -2  -9    4.18    0.33 
   2  -2  -9    9.75    0.54 
   2  -2  -9    9.82    0.54 
   2  -2  -9    9.73    0.62 
  -2   2   9    9.91    0.59 
  -2   2   9    9.82    0.59 
   1  -2  -9   -0.07    0.16 
   1  -2  -9    0.10    0.24 
   1  -2  -9    0.11    0.16 
  -1   2   9   -0.28    0.18 
  -1   2   9    0.07    0.18 
   0  -2  -9    4.01    0.32 
   0  -2  -9    3.59    0.34 
   0  -2  -9    3.61    0.32 
   0   2   9    3.46    0.34 
   0   2   9    3.20    0.33 
   0   2   9    3.57    0.32 
  -1  -2  -9    4.51    0.40 
  -1  -2  -9    5.22    0.37 
  -1  -2  -9    6.47    0.38 
   1   2   9    5.92    0.41 
   1   2   9    5.71    0.41 
   1   2   9    4.92    0.38 
  -2  -2  -9   51.52    2.30 
  -2  -2  -9   46.67    2.28 
  -2  -2  -9   50.49    2.28 
   2   2   9   50.81    2.30 
   2   2   9   48.08    2.28 
   2   2   9   50.61    2.29 
  -3  -2  -9    3.91    0.39 
  -3  -2  -9    3.79    0.36 
   3   2   9    4.39    0.41 
   3   2   9    3.78    0.37 
  -4  -2  -9    5.68    0.42 
  -4  -2  -9    5.17    0.39 
   4   2   9    4.66    0.42 
   4   2   9    5.37    0.41 
   4   2   9    4.89    0.41 
  -5  -2  -9   -0.51    0.22 
  -5  -2  -9   -0.27    0.16 
  -5  -2  -9   -0.13    0.17 
   5   2   9    0.17    0.25 
   5   2   9   -0.17    0.16 
  -6  -2  -9    0.42    0.28 
  -6  -2  -9    0.95    0.18 
  -6  -2  -9    1.28    0.26 
   6   2   9    1.38    0.31 
   6   2   9    1.15    0.19 
  -7  -2  -9    0.28    0.29 
  -7  -2  -9   -0.19    0.28 
   7   2   9    0.19    0.18 
   7   2   9    0.31    0.31 
  -8  -2  -9   -0.22    0.30 
   8   2   9    0.35    0.28 
   8   2   9    0.50    0.38 
   5  -3  -9    2.98    0.41 
   5  -3  -9    3.06    0.48 
  -5   3   9    3.21    0.42 
  -5   3   9    3.76    0.55 
   4  -3  -9    8.99    0.55 
   4  -3  -9    8.44    0.55 
  -4   3   9    9.18    0.70 
  -4   3   9    7.86    0.62 
   3  -3  -9    0.42    0.19 
   3  -3  -9    0.01    0.19 
   3  -3  -9    0.29    0.20 
  -3   3   9    0.56    0.28 
  -3   3   9    0.55    0.29 
   2  -3  -9    0.54    0.18 
   2  -3  -9    0.61    0.19 
  -2   3   9    0.64    0.25 
  -2   3   9    0.14    0.24 
  -2   3   9    0.70    0.22 
   1  -3  -9    1.07    0.19 
   1  -3  -9    0.68    0.24 
   1  -3  -9    1.01    0.21 
  -1   3   9    1.25    0.23 
   0  -3  -9   29.87    1.46 
   0  -3  -9   29.45    1.46 
   0  -3  -9   31.62    1.50 
   0   3   9   33.54    1.47 
   0   3   9   31.88    1.48 
   0   3   9   29.44    1.47 
  -1  -3  -9   35.52    1.91 
  -1  -3  -9   44.18    1.90 
  -1  -3  -9   42.23    1.90 
   1   3   9   41.31    1.91 
   1   3   9   42.49    1.90 
   1   3   9   39.22    1.90 
  -2  -3  -9    2.67    0.33 
  -2  -3  -9    2.80    0.33 
  -2  -3  -9    3.44    0.30 
   2   3   9    3.22    0.33 
   2   3   9    2.36    0.32 
  -4  -3  -9    9.30    0.61 
  -4  -3  -9   11.93    0.62 
   4   3   9   10.07    0.61 
   4   3   9   10.14    0.61 
   4   3   9   10.54    0.61 
  -5  -3  -9    6.75    0.46 
  -5  -3  -9    6.32    0.48 
  -5  -3  -9    6.86    0.49 
   5   3   9    7.00    0.47 
   5   3   9    6.59    0.47 
  -6  -3  -9    4.23    0.38 
  -6  -3  -9    3.64    0.43 
  -6  -3  -9    4.07    0.48 
   6   3   9    4.26    0.47 
   6   3   9    4.28    0.38 
  -7  -3  -9    0.17    0.17 
  -7  -3  -9   -0.02    0.26 
  -7  -3  -9    0.54    0.36 
   7   3   9    0.01    0.30 
   7   3   9    0.20    0.26 
  -8  -3  -9    0.00    0.34 
   8   3   9   -0.11    0.34 
   4  -4  -9    8.47    0.61 
   4  -4  -9    7.44    0.68 
  -4   4   9    8.58    0.67 
  -4   4   9    8.20    0.66 
   3  -4  -9    8.01    0.53 
  -3   4   9    6.35    0.63 
  -3   4   9    5.92    0.56 
   1  -4  -9   20.50    1.05 
   1  -4  -9   23.07    1.04 
  -1   4   9   20.96    1.06 
  -1   4   9   20.18    1.07 
  -1   4   9   20.29    1.08 
   0  -4  -9    7.33    0.48 
   0  -4  -9    7.08    0.46 
   0   4   9    5.78    0.47 
   0   4   9    6.91    0.51 
   0   4   9    6.43    0.47 
  -1  -4  -9   18.86    0.90 
  -1  -4  -9   18.29    0.90 
   1   4   9   17.32    0.91 
   1   4   9   15.82    0.91 
  -2  -4  -9    6.02    0.49 
  -2  -4  -9    5.86    0.43 
   2   4   9    5.80    0.47 
   2   4   9    7.05    0.46 
  -3  -4  -9    7.21    0.53 
  -3  -4  -9    8.27    0.50 
   3   4   9    7.65    0.51 
   3   4   9    8.28    0.51 
  -4  -4  -9    3.31    0.41 
  -4  -4  -9    4.48    0.43 
   4   4   9    3.42    0.38 
  -5  -4  -9    4.07    0.41 
  -5  -4  -9    5.40    0.44 
  -5  -4  -9    5.28    0.43 
   5   4   9    4.83    0.40 
   5   4   9    4.29    0.42 
  -6  -4  -9    1.46    0.26 
  -6  -4  -9    1.87    0.29 
  -6  -4  -9    2.03    0.30 
   6   4   9    1.37    0.23 
  -7  -4  -9   -0.16    0.24 
  -7  -4  -9    0.51    0.33 
  -7  -4  -9   -0.06    0.18 
   7   4   9    0.16    0.28 
   7   4   9   -0.16    0.19 
  -8  -4  -9    1.70    0.22 
  -8  -4  -9    1.32    0.41 
  -8  -4  -9    2.50    0.38 
   8   4   9    2.48    0.39 
   8   4   9    1.73    0.44 
   3  -5  -9    2.60    0.33 
   3  -5  -9    2.10    0.39 
   3  -5  -9    2.16    0.35 
  -3   5   9    2.28    0.37 
   2  -5  -9    2.40    0.36 
   2  -5  -9    2.98    0.44 
  -2   5   9    2.69    0.41 
   1  -5  -9    0.92    0.25 
  -1   5   9    1.13    0.30 
  -1   5   9    1.60    0.28 
   0  -5  -9   -0.13    0.22 
   0  -5  -9    0.01    0.14 
   0   5   9    0.15    0.25 
  -1  -5  -9   19.07    0.95 
   1   5   9   17.58    0.94 
   1   5   9   17.07    0.95 
  -2  -5  -9   14.08    0.82 
   2   5   9   14.66    0.85 
   2   5   9   15.40    0.81 
  -3  -5  -9    0.02    0.21 
   3   5   9    0.19    0.23 
   3   5   9    0.40    0.24 
   3   5   9   -0.03    0.17 
  -4  -5  -9    0.12    0.21 
  -4  -5  -9    0.48    0.24 
  -4  -5  -9    0.23    0.19 
   4   5   9    0.21    0.24 
   4   5   9    0.04    0.20 
  -5  -5  -9   17.73    0.96 
  -5  -5  -9   18.79    0.96 
  -5  -5  -9   17.37    0.96 
   5   5   9   19.62    0.96 
  -6  -5  -9    7.13    0.52 
  -6  -5  -9    8.17    0.55 
  -6  -5  -9    7.41    0.59 
  -7  -5  -9    2.29    0.34 
  -7  -5  -9    3.83    0.43 
  -7  -5  -9    3.12    0.42 
  -8  -5  -9   -0.03    0.19 
  -8  -5  -9   -0.23    0.32 
  -8  -5  -9    0.44    0.32 
   8   5   9   -0.28    0.21 
   2  -6  -9    6.24    0.58 
   2  -6  -9    8.14    0.68 
   2  -6  -9    7.00    0.61 
  -2   6   9    6.47    0.60 
   1  -6  -9    6.61    0.64 
   1  -6  -9    8.39    0.64 
   1  -6  -9    6.83    0.58 
  -1   6   9    8.33    0.61 
  -1   6   9    7.49    0.64 
   0  -6  -9    0.92    0.27 
   0  -6  -9    0.41    0.24 
   0  -6  -9    0.89    0.28 
   0   6   9    1.00    0.32 
  -1  -6  -9    1.34    0.30 
   1   6   9    0.65    0.31 
  -2  -6  -9    0.52    0.26 
  -2  -6  -9    0.62    0.26 
   2   6   9    0.11    0.25 
  -3  -6  -9    5.72    0.48 
  -3  -6  -9    5.38    0.49 
   3   6   9    4.03    0.43 
   3   6   9    5.87    0.48 
  -4  -6  -9    0.97    0.26 
  -4  -6  -9    0.78    0.23 
   4   6   9    0.33    0.26 
  -5  -6  -9   -0.10    0.22 
  -5  -6  -9   -0.46    0.22 
  -5  -6  -9   -0.37    0.25 
   5   6   9    0.10    0.17 
   5   6   9   -0.48    0.24 
  -6  -6  -9    0.35    0.32 
  -6  -6  -9    0.35    0.23 
  -6  -6  -9    0.47    0.26 
   6   6   9    0.51    0.27 
   6   6   9   -0.06    0.18 
  -7  -6  -9    7.37    0.57 
  -7  -6  -9    8.38    0.66 
  -7  -6  -9    7.79    0.61 
   7   6   9    9.96    0.62 
   1  -7  -9    0.45    0.27 
   1  -7  -9    0.31    0.45 
  -1   7   9    0.40    0.34 
   0  -7  -9    2.32    0.35 
   0  -7  -9    1.40    0.33 
   0  -7  -9    1.59    0.30 
   0   7   9    1.61    0.41 
   0   7   9    1.48    0.34 
  -1  -7  -9    0.08    0.31 
  -1  -7  -9    0.18    0.28 
  -1  -7  -9   -0.25    0.25 
   1   7   9    0.25    0.38 
   1   7   9   -0.06    0.27 
  -2  -7  -9    6.08    0.59 
  -2  -7  -9    5.91    0.56 
   2   7   9    6.40    0.53 
   2   7   9    6.21    0.60 
  -3  -7  -9    0.21    0.28 
  -3  -7  -9   -0.38    0.25 
  -3  -7  -9    0.18    0.31 
   3   7   9    0.14    0.24 
   3   7   9    0.07    0.28 
  -4  -7  -9   11.48    0.73 
  -4  -7  -9   11.10    0.75 
  -4  -7  -9   11.51    0.71 
   4   7   9   10.90    0.72 
  -5  -7  -9    3.19    0.44 
  -5  -7  -9    3.10    0.44 
   5   7   9    3.46    0.48 
  -6  -7  -9   -0.14    0.25 
  -6  -7  -9    0.41    0.25 
  -6  -7  -9    0.38    0.32 
   6   7   9   -0.07    0.28 
  -7  -7  -9    0.70    0.31 
  -7  -7  -9    0.04    0.28 
  -7  -7  -9   -0.21    0.25 
   7   7   9   -0.05    0.27 
   7   7   9   -0.30    0.22 
   0  -8  -9    0.96    0.32 
   0   8   9    1.65    0.41 
  -1  -8  -9    1.16    0.32 
   1   8   9    0.92    0.35 
  -2  -8  -9    0.77    0.29 
  -2  -8  -9   -0.20    0.37 
   2   8   9    0.81    0.30 
   2   8   9    0.97    0.34 
  -3  -8  -9    7.37    0.57 
  -3  -8  -9    6.78    0.55 
  -3  -8  -9    6.02    0.63 
   3   8   9    7.79    0.59 
   3   8   9    7.20    0.66 
  -4  -8  -9    0.62    0.28 
  -4  -8  -9    0.40    0.29 
   4   8   9    0.23    0.33 
   4   8   9    0.50    0.26 
  -5  -8  -9    0.70    0.28 
  -5  -8  -9    0.74    0.27 
  -5  -8  -9    0.56    0.30 
   5   8   9    0.82    0.33 
   5   8   9    0.66    0.27 
  -6  -8  -9    0.23    0.29 
  -6  -8  -9   -0.05    0.41 
   6   8   9    0.01    0.29 
  -7  -8  -9    2.12    0.40 
  -7  -8  -9    1.72    0.34 
   7   8   9    2.52    0.37 
   2   9   9    2.05    0.40 
  -3  -9  -9    0.31    0.30 
   3   9   9   -0.03    0.33 
  -4  -9  -9    0.04    0.28 
   4   9   9   -0.26    0.32 
   4   9   9   -0.24    0.29 
  -5  -9  -9    0.37    0.32 
   5   9   9    0.60    0.37 
   5   9   9    0.17    0.28 
  -4  -8  10    0.03    0.19 
  -4  -8  10   -0.04    0.34 
  -4  -8  10    0.01    0.28 
  -3  -8  10    1.78    0.37 
  -3  -8  10    1.38    0.35 
  -3  -8  10    1.50    0.25 
  -2  -8  10    0.22    0.24 
  -2  -8  10    1.43    0.40 
  -2  -8  10   -0.02    0.31 
  -1  -8  10    0.24    0.40 
  -1  -8  10    0.96    0.33 
  -1  -8  10    1.15    0.31 
  -5  -7  10   -0.07    0.31 
  -5  -7  10    0.01    0.18 
  -5  -7  10    0.04    0.20 
  -3  -7  10    0.01    0.31 
  -3  -7  10   -0.18    0.18 
  -3  -7  10   -0.12    0.23 
  -2  -7  10   -0.09    0.28 
  -2  -7  10   -0.14    0.19 
  -2  -7  10    0.09    0.27 
   1   7 -10    0.00    0.16 
   1   7 -10    0.04    0.16 
  -1  -7  10    0.05    0.26 
  -1  -7  10   -0.09    0.32 
  -1  -7  10    0.16    0.20 
   0   7 -10    0.41    0.23 
   0  -7  10    0.80    0.32 
   0  -7  10    0.49    0.25 
   0  -7  10    0.47    0.31 
  -1   7 -10    1.49    0.31 
  -1   7 -10    1.80    0.34 
   1  -7  10    1.49    0.34 
   1  -7  10    1.94    0.36 
  -6  -6  10    4.89    0.35 
  -5  -6  10    0.10    0.14 
  -5  -6  10   -0.11    0.14 
  -5  -6  10    0.58    0.39 
  -4  -6  10    0.02    0.16 
  -4  -6  10    0.19    0.32 
  -4  -6  10   -0.11    0.17 
  -3  -6  10    2.91    0.41 
  -3  -6  10    2.23    0.24 
  -2  -6  10    0.95    0.26 
  -2  -6  10   -0.02    0.31 
  -2  -6  10    0.35    0.19 
   1   6 -10    4.49    0.32 
   1   6 -10    4.61    0.31 
  -1  -6  10    4.18    0.41 
  -1  -6  10    4.94    0.46 
  -1  -6  10    4.53    0.55 
   0   6 -10    0.03    0.18 
   0   6 -10    0.24    0.23 
   0  -6  10    0.02    0.34 
   0  -6  10    0.12    0.28 
   0  -6  10    0.31    0.21 
  -1   6 -10    0.11    0.22 
  -1   6 -10    0.09    0.25 
   1  -6  10    0.47    0.30 
   1  -6  10    0.19    0.29 
   1  -6  10    0.10    0.23 
  -2   6 -10    0.41    0.30 
  -2   6 -10   -0.44    0.33 
   2  -6  10   -0.24    0.31 
   2  -6  10   -0.15    0.29 
  -6  -5  10   -0.06    0.12 
  -6  -5  10    0.55    0.37 
  -6  -5  10    0.06    0.16 
  -5  -5  10    1.05    0.17 
  -5  -5  10    1.40    0.35 
  -5  -5  10    0.71    0.15 
  -4  -5  10    2.72    0.37 
  -4  -5  10    2.33    0.26 
  -4  -5  10    2.01    0.28 
  -3  -5  10    2.97    0.37 
  -3  -5  10    2.21    0.31 
  -3  -5  10    2.31    0.32 
  -2  -5  10    1.84    0.33 
  -2  -5  10    2.09    0.24 
   1   5 -10    4.83    0.30 
   1   5 -10    4.65    0.31 
  -1  -5  10    4.46    0.49 
  -1  -5  10    4.15    0.38 
   0   5 -10    1.61    0.22 
   0   5 -10    1.42    0.20 
   0  -5  10    1.25    0.32 
   0  -5  10    1.76    0.27 
   0  -5  10    1.69    0.25 
  -1   5 -10    2.58    0.35 
   1  -5  10    2.27    0.37 
   1  -5  10    2.52    0.38 
   1  -5  10    2.71    0.34 
  -2   5 -10    0.07    0.29 
   2  -5  10    0.22    0.29 
   2  -5  10   -0.14    0.23 
   2  -5  10    0.09    0.33 
  -3   5 -10    1.27    0.34 
  -3   5 -10    0.85    0.30 
   3  -5  10    1.05    0.32 
   3  -5  10    1.49    0.37 
  -4   5 -10    0.06    0.34 
   4  -5  10    0.87    0.34 
  -7  -4  10    0.04    0.37 
  -6  -4  10   -0.02    0.12 
  -6  -4  10    0.11    0.32 
  -6  -4  10    0.25    0.18 
  -5  -4  10   10.35    0.56 
  -5  -4  10   11.23    0.71 
  -5  -4  10   10.10    0.54 
  -4  -4  10   19.84    0.96 
  -4  -4  10   20.72    0.96 
  -4  -4  10   19.85    1.05 
  -3  -4  10    4.78    0.50 
  -3  -4  10    3.88    0.34 
  -3  -4  10    4.62    0.33 
  -2  -4  10    0.02    0.24 
  -2  -4  10   -0.05    0.18 
  -2  -4  10    0.28    0.18 
   1   4 -10   12.12    0.62 
   1   4 -10   12.41    0.62 
  -1  -4  10   11.94    0.68 
  -1  -4  10   11.75    0.76 
  -1  -4  10   14.79    0.68 
   0   4 -10   14.41    0.73 
   0   4 -10   14.42    0.74 
   0  -4  10   16.21    0.78 
   0  -4  10   13.05    0.75 
   0  -4  10   14.13    0.85 
  -1   4 -10    4.03    0.37 
   1  -4  10    3.71    0.42 
   1  -4  10    3.02    0.46 
   1  -4  10    3.34    0.38 
  -2   4 -10    1.38    0.27 
   2  -4  10    1.77    0.31 
   2  -4  10    1.41    0.28 
   2  -4  10    1.56    0.26 
  -3   4 -10    0.32    0.31 
  -3   4 -10    0.04    0.28 
   3  -4  10    0.15    0.29 
   3  -4  10    0.31    0.28 
   3  -4  10   -0.12    0.23 
  -4   4 -10    1.34    0.34 
  -4   4 -10    1.58    0.33 
   4  -4  10    2.36    0.38 
   4  -4  10    2.05    0.35 
  -6  -3  10   -0.03    0.18 
  -6  -3  10   -0.16    0.16 
  -6  -3  10   -0.18    0.29 
  -5  -3  10    1.17    0.18 
  -5  -3  10    1.29    0.31 
  -5  -3  10    1.15    0.17 
  -4  -3  10   -0.23    0.13 
  -4  -3  10    0.00    0.26 
  -4  -3  10    0.19    0.15 
   3   3 -10    0.31    0.20 
  -3  -3  10    0.67    0.24 
  -3  -3  10    0.59    0.16 
  -3  -3  10    0.80    0.15 
  -2  -3  10   -0.31    0.21 
  -2  -3  10   -0.22    0.15 
   1   3 -10    0.87    0.14 
   1   3 -10    1.29    0.19 
  -1  -3  10    1.27    0.22 
  -1  -3  10    1.51    0.28 
  -1  -3  10    0.77    0.20 
   0   3 -10    5.76    0.39 
   0   3 -10    6.00    0.40 
   0  -3  10    6.95    0.47 
   0  -3  10    6.35    0.52 
  -1   3 -10   -0.22    0.17 
  -1   3 -10   -0.17    0.16 
   1  -3  10   -0.28    0.17 
   1  -3  10    0.07    0.21 
   1  -3  10   -0.23    0.20 
  -2   3 -10    2.08    0.26 
   2  -3  10    2.76    0.32 
   2  -3  10    2.09    0.29 
   2  -3  10    2.04    0.31 
  -3   3 -10    0.14    0.23 
   3  -3  10    0.68    0.27 
   3  -3  10    0.16    0.25 
  -4   3 -10    0.54    0.35 
  -4   3 -10    0.42    0.26 
   4  -3  10    0.54    0.27 
   4  -3  10    1.00    0.27 
   4  -3  10    0.83    0.34 
  -5   3 -10    1.85    0.39 
   5  -3  10    2.37    0.36 
   5  -3  10    2.19    0.37 
  -6  -2  10    6.26    0.46 
  -6  -2  10    6.32    0.58 
  -5  -2  10    5.82    0.41 
  -5  -2  10    5.13    0.38 
  -5  -2  10    6.01    0.55 
   4   2 -10    0.70    0.23 
  -4  -2  10    0.11    0.23 
  -4  -2  10    0.31    0.16 
  -4  -2  10   -0.03    0.15 
   3   2 -10    1.01    0.23 
  -3  -2  10    0.81    0.16 
  -3  -2  10    0.67    0.16 
   2   2 -10   46.34    2.13 
  -2  -2  10   45.23    2.08 
  -2  -2  10   44.62    2.12 
  -2  -2  10   45.25    2.07 
   1   2 -10    0.10    0.12 
   1   2 -10    0.09    0.21 
  -1  -2  10    0.52    0.21 
  -1  -2  10    0.03    0.17 
  -1  -2  10   -0.13    0.17 
   0   2 -10    0.04    0.13 
   0   2 -10   -0.03    0.15 
   0   2 -10    0.34    0.15 
   0  -2  10    0.20    0.20 
   0  -2  10    0.39    0.19 
   0  -2  10    0.19    0.18 
  -1   2 -10    5.62    0.44 
  -1   2 -10    6.49    0.45 
  -1   2 -10    6.10    0.51 
   1  -2  10    7.13    0.48 
   1  -2  10    7.88    0.45 
   1  -2  10    6.93    0.47 
  -2   2 -10   12.49    0.71 
  -2   2 -10   14.25    0.70 
   2  -2  10   12.36    0.73 
   2  -2  10   13.92    0.72 
   2  -2  10   12.79    0.72 
  -3   2 -10    3.05    0.41 
   3  -2  10    3.41    0.42 
  -4   2 -10    0.56    0.25 
  -4   2 -10    0.39    0.27 
   4  -2  10    0.50    0.33 
  -5   2 -10    1.06    0.33 
  -5   2 -10    0.61    0.27 
   5  -2  10    0.94    0.30 
   5  -2  10    0.67    0.25 
  -6   2 -10    1.43    0.41 
   6  -2  10    1.72    0.40 
  -6  -1  10    1.48    0.33 
   5   1 -10    0.14    0.20 
  -5  -1  10    1.22    0.31 
   4   1 -10    1.08    0.25 
  -4  -1  10    0.41    0.19 
  -4  -1  10    0.59    0.22 
   3   1 -10    0.44    0.21 
   2   1 -10   19.31    0.92 
   2   1 -10   20.25    0.93 
   2   1 -10   21.17    1.03 
  -2  -1  10   19.31    0.97 
  -2  -1  10   19.42    0.98 
  -2  -1  10   21.15    1.03 
   1   1 -10   67.45    3.07 
   1   1 -10   65.99    3.02 
   1   1 -10   64.68    3.02 
  -1  -1  10   70.02    3.08 
  -1  -1  10   65.50    3.04 
  -1  -1  10   68.51    3.04 
   0   1 -10    5.74    0.36 
   0   1 -10    5.23    0.36 
   0  -1  10    5.33    0.40 
   0  -1  10    4.81    0.40 
  -1   1 -10   23.11    1.19 
  -1   1 -10   22.87    1.14 
  -1   1 -10   23.24    1.14 
   1  -1  10   23.24    1.16 
   1  -1  10   24.56    1.17 
   1  -1  10   25.81    1.15 
  -2   1 -10   51.01    2.36 
  -2   1 -10   53.39    2.33 
  -2   1 -10   49.63    2.34 
   2  -1  10   50.78    2.35 
   2  -1  10   50.44    2.34 
   2  -1  10   49.25    2.34 
  -3   1 -10   32.68    1.58 
  -3   1 -10   33.84    1.59 
   3  -1  10   34.62    1.57 
   3  -1  10   31.05    1.57 
  -4   1 -10    8.42    0.60 
   4  -1  10    9.66    0.63 
  -5   1 -10    5.65    0.65 
  -5   1 -10    6.78    0.70 
   5  -1  10    6.56    0.61 
   5  -1  10    6.16    0.49 
  -6   1 -10    5.15    0.57 
   6  -1  10    3.63    0.47 
   6  -1  10    4.96    0.55 
   6   0 -10    0.34    0.31 
  -6   0  10   -0.11    0.33 
  -6   0  10    0.32    0.31 
  -6   0  10    0.32    0.26 
  -5   0  10    1.09    0.31 
  -5   0  10    1.71    0.29 
   4   0 -10    1.64    0.27 
  -4   0  10    1.84    0.31 
  -4   0  10    1.84    0.24 
   3   0 -10    0.08    0.06 
   3   0 -10    0.38    0.21 
   3   0 -10    0.20    0.08 
  -3   0  10   -0.11    0.17 
  -3   0  10   -0.10    0.18 
   2   0 -10    0.00    0.12 
   2   0 -10    0.04    0.11 
   2   0 -10   -0.25    0.21 
  -2   0  10    0.12    0.19 
  -2   0  10   -0.23    0.20 
   1   0 -10    9.28    0.50 
   1   0 -10    9.04    0.49 
   1   0 -10    9.37    0.59 
  -1   0  10    8.61    0.52 
  -1   0  10    9.19    0.54 
   0   0 -10   41.15    2.20 
   0   0 -10   48.39    2.17 
   0   0  10   47.02    2.18 
   0   0  10   50.54    2.21 
   0   0  10   50.09    2.18 
  -1   0 -10    8.51    0.51 
  -1   0 -10    8.95    0.51 
  -1   0 -10    8.92    0.59 
   1   0  10    9.12    0.53 
   1   0  10    8.76    0.53 
  -2   0 -10    7.69    0.57 
  -2   0 -10    9.19    0.54 
  -2   0 -10    8.25    0.51 
   2   0  10    8.62    0.52 
   2   0  10    9.16    0.53 
   2   0  10    8.27    0.54 
  -3   0 -10    1.70    0.24 
  -3   0 -10    1.44    0.24 
   3   0  10    1.48    0.23 
  -4   0 -10   17.03    0.86 
  -4   0 -10   15.91    0.88 
   4   0  10   15.78    0.87 
   4   0  10   15.10    0.83 
  -5   0 -10    0.75    0.30 
   5   0  10    0.67    0.28 
   5   0  10    0.93    0.39 
   5   0  10    0.59    0.20 
  -6   0 -10    4.86    0.52 
  -6   0 -10    3.96    0.48 
   6   0  10    4.43    0.61 
   6   0  10    4.20    0.46 
   6   0  10    4.45    0.43 
  -7   0 -10    0.57    0.33 
   7   0  10    0.69    0.29 
   7   0  10    0.84    0.35 
  -5   1  10    0.64    0.26 
  -5   1  10    0.55    0.33 
  -5   1  10    0.85    0.32 
   4  -1 -10    1.12    0.15 
   4  -1 -10    1.34    0.14 
  -4   1  10    1.35    0.29 
  -4   1  10    1.36    0.29 
   3  -1 -10    0.34    0.20 
   3  -1 -10    1.01    0.15 
   3  -1 -10    0.72    0.13 
  -3   1  10    0.79    0.25 
   2  -1 -10   26.64    1.27 
   2  -1 -10   28.30    1.34 
   2  -1 -10   26.55    1.27 
  -2   1  10   27.43    1.30 
  -2   1  10   30.01    1.30 
  -2   1  10   24.30    1.32 
   1  -1 -10    6.64    0.39 
   1  -1 -10    6.65    0.41 
   1  -1 -10    5.79    0.49 
  -1   1  10    5.91    0.45 
  -1   1  10    6.63    0.44 
  -1   1  10    6.41    0.43 
   0  -1 -10    1.16    0.18 
   0  -1 -10    0.53    0.20 
   0  -1 -10    0.96    0.19 
   0   1  10    0.70    0.20 
   0   1  10    1.40    0.23 
  -1  -1 -10   21.30    1.05 
  -1  -1 -10   20.65    1.09 
  -1  -1 -10   21.31    1.05 
   1   1  10   21.04    1.06 
   1   1  10   22.60    1.06 
   1   1  10   23.16    1.08 
  -2  -1 -10   22.29    1.14 
  -2  -1 -10   23.63    1.18 
  -2  -1 -10   23.42    1.15 
   2   1  10   24.13    1.17 
   2   1  10   24.78    1.15 
  -3  -1 -10    0.12    0.19 
  -3  -1 -10    0.37    0.20 
  -3  -1 -10   -0.21    0.19 
   3   1  10   -0.18    0.12 
   3   1  10   -0.16    0.19 
  -4  -1 -10    8.56    0.52 
  -4  -1 -10    7.85    0.56 
   4   1  10    8.26    0.53 
   4   1  10    8.16    0.57 
  -5  -1 -10    2.19    0.32 
  -5  -1 -10    2.20    0.36 
   5   1  10    2.59    0.35 
   5   1  10    2.65    0.37 
  -6  -1 -10   -0.13    0.25 
  -6  -1 -10    0.62    0.34 
   6   1  10    0.42    0.26 
   6   1  10    0.11    0.31 
   6   1  10    0.33    0.24 
  -7  -1 -10   -0.63    0.30 
   7   1  10    0.29    0.19 
   7   1  10   -0.15    0.26 
   7   1  10    0.29    0.41 
   5  -2 -10   -0.10    0.34 
  -5   2  10    0.59    0.30 
  -5   2  10    1.34    0.42 
   4  -2 -10    1.78    0.21 
   4  -2 -10    2.21    0.27 
  -4   2  10    2.10    0.33 
  -4   2  10    1.54    0.34 
   3  -2 -10    9.08    0.51 
   3  -2 -10    9.07    0.51 
  -3   2  10    8.70    0.64 
  -3   2  10   10.07    0.58 
  -3   2  10    8.87    0.61 
   2  -2 -10   -0.15    0.15 
   2  -2 -10   -0.18    0.15 
  -2   2  10    0.12    0.24 
  -2   2  10   -0.42    0.21 
  -2   2  10   -0.20    0.19 
   1  -2 -10    6.94    0.45 
   1  -2 -10    7.30    0.46 
   1  -2 -10    6.56    0.49 
  -1   2  10    7.35    0.48 
  -1   2  10    7.92    0.53 
  -1   2  10    7.99    0.48 
   0   2  10    1.82    0.31 
   0   2  10    2.58    0.30 
   0   2  10    1.69    0.24 
  -1  -2 -10    3.66    0.36 
   1   2  10    5.22    0.38 
   1   2  10    4.51    0.37 
  -3  -2 -10    6.74    0.45 
  -3  -2 -10    6.40    0.49 
  -3  -2 -10    6.59    0.47 
   3   2  10    7.06    0.47 
  -4  -2 -10    2.11    0.29 
  -4  -2 -10    2.44    0.36 
   4   2  10    1.84    0.25 
   4   2  10    2.42    0.29 
   4   2  10    1.98    0.33 
  -5  -2 -10   -0.34    0.24 
   5   2  10   -0.27    0.20 
   5   2  10   -0.22    0.26 
  -6  -2 -10    0.90    0.28 
  -6  -2 -10    0.92    0.25 
  -6  -2 -10    1.54    0.32 
   6   2  10    1.55    0.26 
   6   2  10    1.05    0.33 
  -7  -2 -10    1.32    0.33 
  -7  -2 -10    1.47    0.34 
   7   2  10    1.19    0.22 
   7   2  10    1.44    0.29 
   7   2  10    2.51    0.44 
   4  -3 -10    0.74    0.23 
   4  -3 -10    0.48    0.31 
  -4   3  10    1.84    0.39 
   3  -3 -10    3.03    0.40 
   3  -3 -10    2.35    0.33 
  -3   3  10    1.39    0.35 
  -3   3  10    2.09    0.36 
   2  -3 -10    2.18    0.39 
  -2   3  10    2.46    0.38 
  -2   3  10    2.11    0.33 
  -2   3  10    2.83    0.42 
  -1   3  10    1.87    0.30 
  -1   3  10    2.33    0.35 
  -1   3  10    2.29    0.38 
   0  -3 -10    0.03    0.17 
   0  -3 -10    0.60    0.19 
   0   3  10    0.33    0.20 
   0   3  10    0.49    0.23 
   0   3  10    0.13    0.21 
   1   3  10    0.87    0.21 
   1   3  10    0.94    0.21 
  -2  -3 -10    9.01    0.57 
  -2  -3 -10    8.18    0.54 
  -2  -3 -10    8.72    0.54 
   2   3  10    9.70    0.58 
   2   3  10   10.16    0.58 
  -3  -3 -10   46.98    2.12 
  -3  -3 -10   45.82    2.14 
   3   3  10   46.13    2.13 
   3   3  10   42.26    2.11 
   3   3  10   46.92    2.13 
  -4  -3 -10    2.81    0.38 
  -4  -3 -10    2.46    0.38 
   4   3  10    2.78    0.41 
  -5  -3 -10   10.16    0.61 
  -5  -3 -10    8.75    0.62 
   5   3  10    8.72    0.62 
  -6  -3 -10    5.74    0.57 
  -6  -3 -10    5.82    0.48 
  -6  -3 -10    6.12    0.51 
   6   3  10    6.54    0.54 
   6   3  10    6.30    0.47 
  -7  -3 -10    3.99    0.50 
  -7  -3 -10    4.07    0.52 
  -7  -3 -10    4.00    0.42 
   7   3  10    3.78    0.47 
   7   3  10    4.51    0.58 
   7   3  10    4.03    0.44 
  -8  -3 -10    0.13    0.34 
   8   3  10    0.14    0.41 
   8   3  10    0.39    0.29 
   4  -4 -10    0.83    0.35 
  -4   4  10    0.45    0.38 
   3  -4 -10    8.03    0.60 
   3  -4 -10    9.48    0.70 
  -3   4  10    9.38    0.68 
   2  -4 -10    7.56    0.57 
   2  -4 -10    7.31    0.54 
  -2   4  10    7.24    0.64 
  -2   4  10    6.76    0.63 
  -2   4  10    7.87    0.55 
   1  -4 -10    0.42    0.18 
   1  -4 -10    0.58    0.22 
  -1   4  10    0.95    0.24 
  -1   4  10    0.48    0.27 
  -1   4  10    0.78    0.31 
   0  -4 -10    0.67    0.22 
   0  -4 -10    0.50    0.19 
   0   4  10    0.99    0.25 
   0   4  10    0.61    0.27 
   0   4  10    0.62    0.27 
  -1  -4 -10   12.29    0.70 
  -1  -4 -10   11.73    0.67 
   1   4  10   12.04    0.71 
   1   4  10   12.04    0.73 
  -2  -4 -10    4.26    0.43 
  -2  -4 -10    4.23    0.41 
   2   4  10    4.27    0.42 
   2   4  10    3.31    0.43 
  -3  -4 -10    0.33    0.24 
  -3  -4 -10    0.35    0.22 
   3   4  10    0.45    0.26 
   3   4  10    0.39    0.23 
   3   4  10   -0.06    0.14 
  -4  -4 -10    0.23    0.22 
  -4  -4 -10    0.56    0.25 
   4   4  10    0.34    0.26 
  -5  -4 -10   18.76    1.01 
  -5  -4 -10   17.52    1.00 
  -5  -4 -10   19.76    1.03 
   5   4  10   19.89    1.03 
   5   4  10   21.65    1.01 
  -6  -4 -10    1.10    0.33 
  -6  -4 -10    0.87    0.27 
  -6  -4 -10    0.89    0.23 
   6   4  10    0.89    0.30 
  -7  -4 -10   -0.09    0.30 
  -7  -4 -10   -0.08    0.27 
   7   4  10   -0.14    0.37 
   7   4  10    0.03    0.32 
  -8  -4 -10   -0.04    0.31 
   8   4  10    0.59    0.39 
   8   4  10    0.06    0.28 
   3  -5 -10   -0.27    0.32 
   3  -5 -10    0.21    0.28 
   3  -5 -10    0.17    0.36 
  -3   5  10    0.08    0.31 
   2  -5 -10    0.23    0.28 
   2  -5 -10    0.25    0.30 
   2  -5 -10    0.63    0.26 
  -2   5  10    0.69    0.31 
  -2   5  10    0.54    0.30 
   1  -5 -10   -0.08    0.26 
   1  -5 -10   -0.01    0.25 
  -1   5  10    0.18    0.27 
  -1   5  10    0.29    0.33 
   0  -5 -10    1.81    0.32 
   0  -5 -10    2.03    0.30 
   0   5  10    1.57    0.34 
   0   5  10    1.78    0.29 
  -1  -5 -10   -0.37    0.23 
   1   5  10   -0.27    0.26 
   1   5  10   -0.28    0.25 
  -2  -5 -10    3.73    0.40 
  -2  -5 -10    3.78    0.44 
   2   5  10    4.11    0.45 
   2   5  10    3.03    0.45 
  -3  -5 -10   -0.11    0.21 
   3   5  10   -0.42    0.27 
   3   5  10   -0.32    0.23 
   3   5  10   -0.32    0.23 
  -4  -5 -10   -0.42    0.21 
  -4  -5 -10   -0.58    0.26 
   4   5  10   -0.22    0.24 
   4   5  10   -0.07    0.33 
  -5  -5 -10    5.09    0.50 
  -5  -5 -10    4.33    0.47 
  -5  -5 -10    5.36    0.46 
   5   5  10    5.25    0.50 
  -6  -5 -10    1.86    0.37 
  -6  -5 -10    2.43    0.38 
  -6  -5 -10    1.50    0.29 
   6   5  10    2.15    0.35 
  -7  -5 -10    2.41    0.40 
  -7  -5 -10    1.79    0.32 
  -7  -5 -10    2.80    0.38 
   7   5  10    3.47    0.52 
  -8  -5 -10    0.57    0.33 
   8   5  10    0.93    0.32 
   8   5  10    0.88    0.35 
   2  -6 -10   -0.08    0.26 
   2  -6 -10   -0.01    0.30 
  -2   6  10   -0.24    0.33 
   1  -6 -10    0.79    0.35 
   1  -6 -10    0.03    0.30 
   1  -6 -10    0.01    0.24 
  -1   6  10    0.01    0.31 
  -1   6  10    0.00    0.30 
   0  -6 -10    7.14    0.59 
   0  -6 -10    7.78    0.63 
   0  -6 -10    7.09    0.59 
   0   6  10    7.68    0.60 
   0   6  10    7.85    0.61 
  -1  -6 -10    9.11    0.67 
  -1  -6 -10    8.38    0.60 
   1   6  10    8.68    0.69 
  -2  -6 -10    0.92    0.29 
  -2  -6 -10    1.11    0.28 
   2   6  10    0.28    0.30 
   2   6  10    1.48    0.28 
  -3  -6 -10    0.07    0.26 
  -3  -6 -10    0.57    0.29 
   3   6  10    0.90    0.29 
   3   6  10    0.76    0.27 
  -4  -6 -10    1.93    0.30 
  -4  -6 -10    1.81    0.31 
   4   6  10    1.28    0.31 
  -5  -6 -10    3.81    0.57 
  -5  -6 -10    4.07    0.48 
  -5  -6 -10    4.99    0.46 
   5   6  10    4.17    0.50 
  -6  -6 -10    0.43    0.31 
  -6  -6 -10    0.19    0.25 
  -6  -6 -10    0.23    0.26 
   6   6  10    0.92    0.30 
  -7  -6 -10    0.80    0.36 
  -7  -6 -10    1.69    0.30 
   7   6  10    2.56    0.49 
  -1   7  10    1.74    0.48 
   0  -7 -10    6.35    0.58 
   0   7  10    5.07    0.64 
  -1  -7 -10    0.15    0.32 
  -1  -7 -10   -0.15    0.25 
  -1  -7 -10    0.32    0.28 
   1   7  10    0.19    0.31 
   1   7  10   -0.09    0.29 
  -2  -7 -10   -0.13    0.23 
  -2  -7 -10    0.01    0.25 
  -2  -7 -10   -0.20    0.27 
   2   7  10    0.06    0.26 
   2   7  10   -0.02    0.31 
  -3  -7 -10    0.68    0.29 
  -3  -7 -10    1.10    0.29 
  -3  -7 -10    0.93    0.28 
   3   7  10    1.29    0.33 
   3   7  10    1.49    0.31 
  -4  -7 -10    1.12    0.31 
  -4  -7 -10    1.18    0.30 
  -4  -7 -10    0.55    0.27 
   4   7  10    0.67    0.31 
   4   7  10    0.88    0.27 
  -5  -7 -10   -0.38    0.25 
  -5  -7 -10    0.23    0.26 
   5   7  10   -0.20    0.31 
   5   7  10    0.18    0.26 
  -6  -7 -10    1.24    0.31 
  -6  -7 -10    1.54    0.37 
  -6  -7 -10    1.84    0.35 
   6   7  10    1.23    0.32 
   6   7  10    1.62    0.35 
  -7  -7 -10    0.77    0.31 
  -7  -7 -10    1.57    0.38 
   7   7  10    1.23    0.35 
   7   7  10    0.92    0.30 
  -1  -8 -10    2.23    0.37 
   1   8  10    2.27    0.38 
  -2  -8 -10    0.26    0.30 
   2   8  10    0.22    0.32 
  -3  -8 -10    3.15    0.47 
   3   8  10    3.26    0.51 
   3   8  10    2.44    0.40 
  -4  -8 -10    0.25    0.31 
  -4  -8 -10    0.53    0.32 
   4   8  10   -0.21    0.27 
   4   8  10    0.91    0.31 
  -5  -8 -10    6.36    0.59 
  -5  -8 -10    4.53    0.59 
   5   8  10    7.49    0.68 
   5   8  10    5.85    0.56 
  -6  -8 -10    0.34    0.30 
   6   8  10    0.23    0.32 
   6   8  10    0.12    0.36 
  -4  -7  11    0.06    0.20 
  -4  -7  11    0.23    0.33 
  -4  -7  11    0.30    0.24 
  -3  -7  11    2.52    0.36 
  -3  -7  11    2.80    0.35 
  -3  -7  11    3.48    0.45 
  -2  -7  11    0.72    0.23 
  -2  -7  11    0.42    0.36 
  -2  -7  11    1.35    0.33 
   1   7 -11   -0.28    0.15 
   1   7 -11    0.60    0.18 
  -1  -7  11   -0.01    0.32 
  -1  -7  11    1.11    0.35 
  -1  -7  11    0.19    0.24 
   0   7 -11    0.53    0.23 
   0  -7  11    0.01    0.33 
   0  -7  11    0.25    0.32 
   0  -7  11   -0.08    0.28 
  -5  -6  11    0.78    0.35 
  -5  -6  11    0.64    0.21 
  -5  -6  11    0.80    0.20 
  -4  -6  11    1.65    0.36 
  -4  -6  11    0.96    0.23 
  -3  -6  11    2.44    0.33 
  -3  -6  11    2.13    0.38 
  -2  -6  11    1.09    0.23 
  -2  -6  11    1.00    0.26 
  -2  -6  11    0.77    0.32 
   1   6 -11   -0.14    0.13 
  -1  -6  11   -0.44    0.24 
  -1  -6  11    0.04    0.30 
  -1  -6  11    0.04    0.21 
   0   6 -11    0.91    0.28 
   0  -6  11   -0.17    0.22 
   0  -6  11    1.28    0.34 
   0  -6  11   -0.28    0.29 
  -1   6 -11    0.54    0.27 
   1  -6  11    0.10    0.27 
   1  -6  11    0.31    0.29 
   1  -6  11    0.37    0.26 
  -2   6 -11    1.54    0.37 
  -2   6 -11    0.49    0.31 
   2  -6  11    0.37    0.31 
   2  -6  11    1.14    0.35 
  -6  -5  11    5.04    0.69 
  -6  -5  11    3.14    0.33 
  -5  -5  11    4.65    0.36 
  -5  -5  11    4.20    0.36 
  -4  -5  11    1.89    0.24 
  -4  -5  11    1.48    0.23 
  -4  -5  11    2.47    0.41 
  -3  -5  11    0.78    0.36 
  -3  -5  11    0.41    0.20 
   1   5 -11    2.59    0.25 
   1   5 -11    2.63    0.24 
  -1  -5  11    2.29    0.38 
  -1  -5  11    2.62    0.34 
  -1  -5  11    2.45    0.39 
   0   5 -11    0.00    0.19 
   0   5 -11   -0.27    0.20 
   0  -5  11    0.03    0.26 
   0  -5  11   -0.09    0.20 
   0  -5  11   -0.08    0.31 
  -1   5 -11    0.21    0.19 
  -1   5 -11   -0.08    0.23 
   1  -5  11   -0.01    0.24 
   1  -5  11    0.13    0.35 
   1  -5  11    0.04    0.31 
  -2   5 -11    0.01    0.27 
  -2   5 -11   -0.07    0.28 
   2  -5  11   -0.11    0.26 
   2  -5  11    0.00    0.25 
   2  -5  11    0.35    0.33 
  -3   5 -11   -0.34    0.30 
  -3   5 -11   -0.46    0.27 
   3  -5  11   -0.08    0.27 
   3  -5  11    0.23    0.34 
  -6  -4  11    0.94    0.20 
  -6  -4  11    0.50    0.42 
  -6  -4  11    0.77    0.20 
  -5  -4  11    0.59    0.18 
  -5  -4  11    0.93    0.38 
  -5  -4  11    0.32    0.16 
  -4  -4  11    1.09    0.19 
  -4  -4  11    1.57    0.35 
  -4  -4  11    2.00    0.30 
  -3  -4  11   -0.06    0.19 
  -3  -4  11    0.10    0.29 
  -3  -4  11   -0.25    0.17 
  -2  -4  11    9.75    0.62 
  -2  -4  11   12.77    0.60 
  -2  -4  11   10.22    0.73 
   1   4 -11    1.45    0.21 
   1   4 -11    1.72    0.21 
  -1  -4  11    1.79    0.33 
  -1  -4  11    1.43    0.24 
   0   4 -11    0.17    0.17 
   0   4 -11    0.12    0.16 
   0  -4  11    0.41    0.23 
   0  -4  11    0.25    0.31 
   0  -4  11    0.16    0.21 
  -1   4 -11   -0.27    0.19 
  -1   4 -11    0.11    0.17 
   1  -4  11   -0.02    0.21 
   1  -4  11   -0.04    0.26 
   1  -4  11   -0.19    0.26 
  -2   4 -11    2.24    0.32 
   2  -4  11    2.65    0.38 
   2  -4  11    1.75    0.33 
   2  -4  11    1.92    0.29 
  -3   4 -11   -0.31    0.27 
  -3   4 -11    0.33    0.30 
   3  -4  11    0.23    0.25 
   3  -4  11   -0.09    0.30 
   3  -4  11    0.46    0.28 
  -4   4 -11    0.23    0.34 
   4  -4  11    0.58    0.32 
   4  -4  11    0.74    0.34 
  -6  -3  11    1.66    0.25 
  -6  -3  11    2.09    0.27 
  -6  -3  11    2.64    0.45 
  -5  -3  11    0.57    0.16 
  -5  -3  11    0.09    0.32 
  -5  -3  11    0.44    0.20 
  -4  -3  11    1.48    0.21 
  -4  -3  11    1.43    0.19 
  -4  -3  11    1.58    0.32 
  -3  -3  11   21.98    1.19 
  -3  -3  11   26.41    1.20 
  -3  -3  11   26.81    1.29 
   2   3 -11    4.70    0.57 
  -2  -3  11    6.32    0.44 
  -2  -3  11    6.22    0.42 
  -2  -3  11    5.98    0.50 
   1   3 -11    8.18    0.45 
  -1  -3  11    7.90    0.58 
  -1  -3  11    8.98    0.56 
   0   3 -11    0.91    0.18 
   0   3 -11    1.01    0.19 
   0  -3  11    1.29    0.28 
   0  -3  11    1.24    0.23 
  -1   3 -11   18.83    0.89 
   1  -3  11   16.73    0.91 
   1  -3  11   16.92    0.90 
   1  -3  11   16.23    0.92 
  -2   3 -11   -0.14    0.15 
  -2   3 -11    0.09    0.24 
   2  -3  11    0.02    0.24 
   2  -3  11   -0.04    0.20 
   2  -3  11   -0.27    0.23 
  -3   3 -11    0.81    0.26 
  -3   3 -11    0.87    0.29 
   3  -3  11    1.02    0.34 
   3  -3  11    0.56    0.27 
   3  -3  11    0.67    0.27 
  -4   3 -11    0.75    0.30 
  -4   3 -11    0.08    0.27 
   4  -3  11    0.89    0.30 
   4  -3  11    0.78    0.33 
   4  -3  11    0.69    0.28 
  -5   3 -11    0.12    0.32 
   5  -3  11    0.16    0.31 
   5  -3  11   -0.04    0.33 
  -6  -2  11    4.23    0.48 
  -6  -2  11    6.09    0.49 
  -5  -2  11    2.46    0.34 
  -5  -2  11    3.13    0.51 
  -4  -2  11   10.72    0.60 
  -4  -2  11   11.30    0.70 
  -4  -2  11   10.63    0.63 
  -3  -2  11   13.69    0.76 
  -3  -2  11   15.51    0.86 
  -3  -2  11   14.43    0.74 
  -2  -2  11    4.11    0.47 
  -2  -2  11    2.94    0.35 
  -2  -2  11    2.66    0.32 
   1   2 -11   20.65    0.98 
   1   2 -11   19.92    0.99 
  -1  -2  11   22.57    1.02 
  -1  -2  11   20.25    1.09 
  -1  -2  11   21.04    1.03 
   0   2 -11   26.41    1.26 
   0   2 -11   26.67    1.26 
   0  -2  11   28.08    1.30 
   0  -2  11   26.49    1.34 
   0  -2  11   26.15    1.28 
  -1   2 -11    7.42    0.49 
  -1   2 -11    8.29    0.54 
  -1   2 -11    8.64    0.52 
   1  -2  11    7.78    0.55 
   1  -2  11    7.93    0.52 
   1  -2  11    7.77    0.53 
  -2   2 -11    2.67    0.34 
   2  -2  11    2.80    0.43 
   2  -2  11    3.25    0.40 
   2  -2  11    2.63    0.37 
  -3   2 -11    0.75    0.26 
   3  -2  11    1.43    0.29 
   3  -2  11    0.65    0.26 
  -4   2 -11    3.21    0.44 
  -4   2 -11    2.23    0.35 
   4  -2  11    2.97    0.42 
   4  -2  11    1.99    0.31 
   4  -2  11    2.83    0.44 
  -5   2 -11    0.08    0.29 
   5  -2  11    0.24    0.32 
   5  -2  11   -0.18    0.27 
   6   1 -11    2.27    0.42 
  -6  -1  11    1.88    0.34 
  -6  -1  11    1.89    0.38 
  -6  -1  11    2.08    0.30 
   4   1 -11   13.84    1.01 
  -4  -1  11   15.54    0.81 
  -4  -1  11   16.43    0.90 
   3   1 -11    0.31    0.19 
  -3  -1  11    0.63    0.21 
  -3  -1  11    0.68    0.28 
   2   1 -11   14.77    0.68 
   2   1 -11   14.07    0.67 
  -2  -1  11   14.71    0.83 
  -2  -1  11   14.49    0.74 
  -2  -1  11   13.65    0.74 
   1   1 -11   16.54    0.84 
   1   1 -11   17.11    0.84 
  -1  -1  11   16.78    0.88 
  -1  -1  11   18.80    0.88 
  -1  -1  11   18.17    0.95 
   0   1 -11   55.40    2.57 
   0   1 -11   57.40    2.57 
   0  -1  11   58.24    2.60 
   0  -1  11   53.72    2.62 
   0  -1  11   58.08    2.59 
  -1   1 -11    0.58    0.23 
  -1   1 -11    0.55    0.18 
  -1   1 -11    0.31    0.19 
   1  -1  11    0.61    0.21 
  -2   1 -11    4.01    0.44 
  -2   1 -11    4.43    0.40 
   2  -1  11    5.02    0.45 
   2  -1  11    4.91    0.42 
   2  -1  11    5.52    0.44 
  -3   1 -11    1.62    0.26 
  -3   1 -11    1.49    0.27 
   3  -1  11    2.69    0.40 
  -4   1 -11    9.33    0.62 
  -4   1 -11    9.52    0.66 
   4  -1  11    9.79    0.71 
   4  -1  11    9.04    0.63 
  -5   1 -11    1.44    0.31 
  -5   1 -11    1.98    0.34 
   5  -1  11    1.06    0.28 
   5  -1  11    1.36    0.33 
   5  -1  11    1.79    0.30 
  -6   1 -11    0.62    0.37 
   6  -1  11    0.01    0.25 
   6  -1  11    0.59    0.33 
  -5   0  11    2.26    0.38 
  -5   0  11    2.77    0.41 
  -5   0  11    2.68    0.36 
  -4   0  11   -0.17    0.20 
  -4   0  11   -0.18    0.23 
  -4   0  11   -0.54    0.28 
   3   0 -11    0.10    0.20 
   3   0 -11   -0.07    0.07 
   3   0 -11   -0.18    0.09 
  -3   0  11   -0.13    0.25 
  -3   0  11    0.35    0.18 
   2   0 -11    0.33    0.13 
   2   0 -11    0.72    0.13 
  -2   0  11    0.44    0.28 
  -2   0  11    0.40    0.19 
   1   0 -11   -0.05    0.20 
   1   0 -11    0.17    0.14 
   1   0 -11    0.40    0.17 
  -1   0  11    0.49    0.24 
  -1   0  11    0.48    0.21 
   0   0 -11    3.33    0.34 
   0   0  11    4.86    0.36 
   0   0  11    4.57    0.41 
   0   0  11    4.13    0.40 
  -1   0 -11   17.45    0.95 
  -1   0 -11   17.41    0.92 
  -1   0 -11   18.12    0.93 
   1   0  11   19.49    0.94 
   1   0  11   18.84    0.95 
   1   0  11   19.99    0.98 
  -2   0 -11   19.19    0.95 
  -2   0 -11   18.47    0.94 
  -2   0 -11   20.01    0.97 
   2   0  11   17.06    0.95 
   2   0  11   18.62    0.96 
  -3   0 -11    0.83    0.25 
  -3   0 -11    0.88    0.25 
   3   0  11    0.90    0.26 
  -4   0 -11   11.14    0.69 
  -4   0 -11   10.93    0.67 
   4   0  11   11.94    0.66 
   4   0  11   10.27    0.72 
  -5   0 -11    2.18    0.43 
  -5   0 -11    1.89    0.33 
   5   0  11    1.61    0.36 
   5   0  11    1.18    0.29 
  -6   0 -11    3.60    0.49 
   6   0  11    3.73    0.55 
   6   0  11    3.60    0.47 
   5  -1 -11    0.86    0.33 
  -5   1  11    1.11    0.39 
  -5   1  11    1.18    0.39 
  -4   1  11    0.66    0.25 
  -4   1  11   -0.05    0.28 
  -4   1  11   -0.02    0.29 
   3  -1 -11    0.02    0.12 
   3  -1 -11   -0.22    0.13 
  -3   1  11   -0.19    0.24 
  -3   1  11    0.21    0.21 
  -3   1  11   -0.44    0.26 
   2  -1 -11    0.12    0.17 
   2  -1 -11   -0.04    0.15 
   2  -1 -11   -0.10    0.14 
  -2   1  11   -0.33    0.23 
  -2   1  11    0.00    0.19 
   1  -1 -11   -0.33    0.15 
   1  -1 -11   -0.24    0.15 
   1  -1 -11    0.20    0.16 
  -1   1  11   -0.27    0.17 
   0  -1 -11    1.98    0.31 
   0  -1 -11    2.06    0.32 
   0   1  11    2.34    0.32 
   0   1  11    2.76    0.32 
  -1  -1 -11   27.16    1.37 
  -1  -1 -11   30.05    1.38 
   1   1  11   30.49    1.39 
   1   1  11   30.04    1.42 
   1   1  11   26.57    1.38 
  -2  -1 -11    3.16    0.41 
  -2  -1 -11    3.61    0.36 
  -2  -1 -11    3.42    0.36 
   2   1  11    3.59    0.41 
   2   1  11    4.64    0.39 
  -3  -1 -11    2.53    0.38 
  -3  -1 -11    2.30    0.37 
   3   1  11    2.21    0.36 
  -4  -1 -11    2.64    0.33 
  -4  -1 -11    2.51    0.30 
   4   1  11    2.91    0.35 
  -5  -1 -11    4.05    0.47 
  -5  -1 -11    3.63    0.43 
   5   1  11    3.93    0.44 
   5   1  11    3.21    0.52 
  -6  -1 -11    0.73    0.30 
  -6  -1 -11   -0.01    0.29 
   6   1  11    0.21    0.41 
   6   1  11    0.67    0.30 
  -7  -1 -11    0.01    0.31 
   7   1  11    0.04    0.31 
   4  -2 -11    0.36    0.30 
   4  -2 -11    0.07    0.15 
   4  -2 -11    0.47    0.15 
  -4   2  11    0.20    0.37 
  -4   2  11    0.30    0.35 
  -4   2  11    0.77    0.28 
   3  -2 -11   -0.08    0.15 
   3  -2 -11    0.12    0.18 
  -3   2  11    0.09    0.28 
  -3   2  11    0.20    0.24 
  -3   2  11   -0.46    0.29 
   2  -2 -11    1.24    0.20 
   2  -2 -11    0.98    0.21 
  -2   2  11    0.59    0.26 
  -2   2  11    1.41    0.26 
  -2   2  11    1.18    0.26 
   1  -2 -11   20.65    1.00 
   1  -2 -11   20.95    0.99 
  -1   2  11   18.84    1.05 
  -1   2  11   20.14    1.00 
  -1   2  11   19.62    1.02 
   0  -2 -11    0.44    0.24 
   0  -2 -11   -0.22    0.16 
   0   2  11   -0.35    0.19 
  -1  -2 -11    7.75    0.48 
   1   2  11    6.90    0.53 
   1   2  11    7.40    0.50 
   1   2  11    7.88    0.48 
  -2  -2 -11    2.18    0.32 
  -2  -2 -11    1.49    0.27 
   2   2  11    1.75    0.27 
  -3  -2 -11   40.62    1.86 
  -3  -2 -11   37.55    1.86 
   3   2  11   40.30    1.87 
   3   2  11   38.98    1.86 
  -4  -2 -11    1.75    0.31 
  -4  -2 -11    1.48    0.26 
   4   2  11    1.91    0.32 
  -5  -2 -11    0.19    0.29 
  -5  -2 -11    0.54    0.22 
   5   2  11    0.93    0.29 
   5   2  11    0.89    0.28 
  -6  -2 -11    2.61    0.37 
  -6  -2 -11    2.92    0.37 
  -6  -2 -11    3.10    0.41 
   6   2  11    3.61    0.46 
   6   2  11    2.51    0.41 
  -7  -2 -11    1.66    0.36 
   7   2  11    2.32    0.41 
   4  -3 -11   -0.22    0.34 
   4  -3 -11   -0.02    0.23 
   4  -3 -11    0.56    0.25 
  -4   3  11    0.13    0.33 
  -4   3  11    0.21    0.32 
   3  -3 -11    0.08    0.20 
  -3   3  11   -0.29    0.38 
  -3   3  11    0.17    0.28 
  -3   3  11    0.63    0.35 
   2  -3 -11    3.62    0.44 
   2  -3 -11    3.43    0.38 
  -2   3  11    3.58    0.41 
  -2   3  11    4.74    0.45 
  -2   3  11    3.28    0.50 
   1  -3 -11   -0.19    0.17 
   1  -3 -11   -0.31    0.16 
  -1   3  11   -0.45    0.23 
  -1   3  11   -0.31    0.21 
   0  -3 -11    2.22    0.26 
   0   3  11    1.81    0.29 
   0   3  11    1.78    0.26 
   0   3  11    2.40    0.32 
  -1  -3 -11   -0.22    0.17 
  -1  -3 -11    0.39    0.22 
   1   3  11   -0.23    0.22 
   1   3  11   -0.29    0.19 
  -2  -3 -11    0.19    0.23 
  -2  -3 -11    0.05    0.16 
   2   3  11    0.18    0.26 
   2   3  11    0.18    0.25 
  -3  -3 -11    7.34    0.50 
  -3  -3 -11    6.14    0.51 
   3   3  11    6.65    0.53 
   3   3  11    7.19    0.55 
  -4  -3 -11    5.39    0.49 
  -4  -3 -11    4.69    0.45 
   4   3  11    5.44    0.50 
   4   3  11    5.11    0.47 
  -5  -3 -11    1.07    0.31 
  -5  -3 -11    1.15    0.24 
   5   3  11    1.69    0.32 
  -6  -3 -11    0.14    0.22 
  -6  -3 -11    0.21    0.25 
  -6  -3 -11    0.13    0.29 
   6   3  11    0.50    0.33 
   6   3  11    0.05    0.25 
  -7  -3 -11    0.22    0.31 
  -7  -3 -11    0.16    0.23 
   7   3  11    0.82    0.41 
   7   3  11    0.05    0.29 
   3  -4 -11    0.02    0.30 
   3  -4 -11   -0.22    0.29 
   3  -4 -11    0.08    0.27 
  -3   4  11    0.20    0.32 
  -3   4  11    0.26    0.32 
   2  -4 -11    2.06    0.36 
   2  -4 -11    2.41    0.32 
   2  -4 -11    1.25    0.27 
  -2   4  11    1.58    0.35 
  -2   4  11    1.79    0.33 
  -2   4  11    3.18    0.53 
   1  -4 -11    2.09    0.29 
   1  -4 -11    1.78    0.32 
  -1   4  11    2.26    0.39 
  -1   4  11    2.06    0.35 
  -1   4  11    2.01    0.32 
   0  -4 -11   -0.21    0.24 
   0  -4 -11   -0.05    0.16 
   0   4  11    0.14    0.25 
   0   4  11   -0.37    0.24 
   0   4  11   -0.32    0.21 
  -1  -4 -11    2.62    0.39 
   1   4  11    2.87    0.41 
   1   4  11    2.67    0.41 
  -2  -4 -11    0.70    0.23 
  -2  -4 -11    0.36    0.22 
  -2  -4 -11    0.85    0.25 
   2   4  11    1.03    0.27 
   2   4  11    0.99    0.25 
  -3  -4 -11   -0.20    0.23 
   3   4  11    0.02    0.25 
  -4  -4 -11    0.11    0.26 
  -4  -4 -11    0.18    0.24 
   4   4  11    0.27    0.26 
   4   4  11    0.31    0.26 
  -5  -4 -11   14.28    0.82 
  -5  -4 -11   15.09    0.88 
  -5  -4 -11   14.09    0.81 
   5   4  11   14.25    0.84 
   5   4  11   15.30    1.04 
   5   4  11   13.69    0.84 
  -6  -4 -11    0.26    0.22 
  -6  -4 -11    0.55    0.27 
  -6  -4 -11    0.13    0.29 
   6   4  11    0.18    0.27 
   6   4  11    0.06    0.27 
   6   4  11    0.71    0.33 
  -7  -4 -11   -0.24    0.22 
  -7  -4 -11    0.28    0.33 
   7   4  11   -0.18    0.29 
   7   4  11    0.10    0.39 
   2  -5 -11    1.44    0.30 
   2  -5 -11    1.50    0.37 
   2  -5 -11    1.26    0.36 
  -2   5  11    1.99    0.39 
   1  -5 -11   -0.03    0.28 
   1  -5 -11    0.23    0.24 
   1  -5 -11    0.35    0.30 
  -1   5  11    0.48    0.29 
  -1   5  11    0.22    0.33 
   0  -5 -11    1.50    0.33 
   0  -5 -11    1.64    0.29 
   0  -5 -11    1.89    0.32 
   0   5  11    1.94    0.31 
   0   5  11    1.60    0.37 
   0   5  11    1.61    0.38 
  -1  -5 -11    6.41    0.55 
  -1  -5 -11    7.14    0.65 
   1   5  11    6.65    0.60 
   1   5  11    6.17    0.58 
  -2  -5 -11    1.79    0.30 
  -2  -5 -11    2.40    0.39 
  -2  -5 -11    2.36    0.32 
   2   5  11    1.78    0.33 
   2   5  11    2.23    0.37 
  -3  -5 -11   -0.09    0.23 
   3   5  11   -0.40    0.22 
   3   5  11    0.10    0.27 
   3   5  11   -0.29    0.28 
  -4  -5 -11    1.87    0.30 
  -4  -5 -11    1.77    0.35 
   4   5  11    1.93    0.34 
   4   5  11    2.07    0.33 
   4   5  11    2.55    0.40 
  -5  -5 -11    0.03    0.26 
  -5  -5 -11    0.00    0.24 
  -5  -5 -11    0.34    0.33 
   5   5  11   -0.17    0.25 
   5   5  11    0.50    0.31 
   5   5  11   -0.01    0.26 
  -6  -5 -11    1.02    0.31 
  -6  -5 -11    1.62    0.29 
  -6  -5 -11    1.36    0.28 
   6   5  11    1.94    0.37 
   6   5  11    1.42    0.30 
  -7  -5 -11    0.56    0.27 
  -7  -5 -11    0.55    0.33 
   7   5  11    0.95    0.39 
   7   5  11    0.76    0.30 
   1  -6 -11    0.39    0.31 
   1  -6 -11    0.25    0.28 
  -1   6  11    0.14    0.30 
   0  -6 -11    0.84    0.31 
   0  -6 -11    0.61    0.29 
   0  -6 -11    0.74    0.33 
   0   6  11    0.28    0.33 
   0   6  11    1.06    0.33 
  -1  -6 -11    0.11    0.36 
  -1  -6 -11    0.06    0.27 
  -1  -6 -11   -0.14    0.27 
   1   6  11   -0.07    0.26 
   1   6  11   -0.18    0.29 
  -2  -6 -11    0.21    0.27 
  -2  -6 -11    0.46    0.26 
  -2  -6 -11    0.58    0.33 
   2   6  11    0.09    0.27 
   2   6  11    0.44    0.36 
  -3  -6 -11    4.39    0.53 
  -3  -6 -11    4.26    0.49 
  -3  -6 -11    4.24    0.55 
   3   6  11    4.13    0.46 
   3   6  11    4.32    0.57 
  -4  -6 -11    0.25    0.29 
  -4  -6 -11    0.64    0.27 
   4   6  11    0.93    0.35 
   4   6  11    0.74    0.28 
  -5  -6 -11    2.77    0.46 
  -5  -6 -11    2.14    0.34 
  -5  -6 -11    2.34    0.38 
   5   6  11    1.64    0.32 
   5   6  11    3.02    0.41 
  -6  -6 -11    0.72    0.29 
  -6  -6 -11    1.24    0.36 
   6   6  11    0.86    0.36 
   6   6  11    0.49    0.30 
  -7  -6 -11    8.74    0.65 
  -7  -6 -11    8.39    0.70 
   7   6  11    8.32    0.75 
   7   6  11    8.12    0.65 
   0  -7 -11    4.71    0.59 
   0   7  11    3.69    0.57 
  -1  -7 -11    7.47    0.60 
   1   7  11    6.28    0.63 
  -2  -7 -11    3.29    0.45 
   2   7  11    3.44    0.49 
   2   7  11    2.04    0.47 
  -3  -7 -11    0.73    0.31 
  -3  -7 -11    0.97    0.31 
  -3  -7 -11    0.10    0.31 
   3   7  11    0.88    0.30 
   3   7  11    0.39    0.34 
  -4  -7 -11   -0.16    0.27 
  -4  -7 -11   -0.13    0.30 
   4   7  11   -0.28    0.27 
   4   7  11   -0.35    0.30 
  -5  -7 -11    4.94    0.55 
   5   7  11    6.67    0.64 
   5   7  11    5.56    0.55 
  -6  -7 -11    0.02    0.31 
  -6  -7 -11   -0.05    0.29 
   6   7  11    0.67    0.40 
   6   7  11    0.10    0.30 
  -2  -8 -11    0.57    0.31 
   2   8  11    0.04    0.35 
  -3  -8 -11    0.56    0.35 
   3   8  11    0.59    0.31 
  -4  -8 -11    1.35    0.34 
   4   8  11    1.91    0.35 
  -5  -8 -11    0.58    0.34 
   5   8  11    0.86    0.33 
   5   8  11    0.18    0.48 
  -3  -7  12   -0.16    0.34 
  -3  -7  12    0.00    0.24 
  -3  -7  12    0.53    0.32 
  -2  -7  12    0.04    0.37 
  -2  -7  12    0.21    0.26 
  -1  -7  12   -0.27    0.27 
  -1  -7  12   -0.12    0.25 
  -4  -6  12    0.84    0.23 
  -4  -6  12    1.24    0.38 
  -3  -6  12    0.91    0.23 
  -3  -6  12    1.03    0.26 
  -3  -6  12    1.03    0.35 
  -2  -6  12    0.12    0.31 
  -2  -6  12   -0.40    0.20 
  -2  -6  12    0.24    0.29 
   1   6 -12    0.18    0.13 
   1   6 -12   -0.10    0.12 
  -1  -6  12   -0.14    0.23 
  -1  -6  12    0.37    0.33 
  -1  -6  12   -0.38    0.31 
   0   6 -12    3.92    0.46 
  -1   6 -12   -0.08    0.27 
   1  -6  12    0.51    0.32 
   1  -6  12   -0.48    0.28 
  -5  -5  12    7.49    0.47 
  -5  -5  12    5.80    0.68 
  -4  -5  12   -0.08    0.21 
  -4  -5  12    0.13    0.31 
  -3  -5  12   -0.08    0.31 
  -2  -5  12    0.79    0.22 
  -2  -5  12    0.84    0.31 
  -2  -5  12    1.09    0.26 
   1   5 -12    0.61    0.14 
   1   5 -12    0.38    0.13 
  -1  -5  12    0.60    0.27 
  -1  -5  12    0.46    0.30 
  -1  -5  12    0.57    0.24 
   0   5 -12   -0.02    0.21 
   0   5 -12   -0.03    0.20 
   0  -5  12   -0.27    0.24 
   0  -5  12   -0.37    0.32 
   0  -5  12   -0.01    0.30 
  -1   5 -12    0.46    0.21 
  -1   5 -12    0.28    0.25 
   1  -5  12    0.28    0.25 
   1  -5  12    0.26    0.29 
   1  -5  12    0.90    0.32 
  -2   5 -12   -0.09    0.28 
  -2   5 -12    0.58    0.35 
   2  -5  12    0.12    0.31 
   2  -5  12   -0.10    0.28 
  -5  -4  12    5.21    0.70 
  -5  -4  12    7.01    0.46 
  -4  -4  12    1.79    0.40 
  -3  -4  12    6.59    0.43 
  -3  -4  12    6.42    0.50 
  -3  -4  12    5.46    0.61 
  -2  -4  12    3.54    0.57 
  -2  -4  12    3.57    0.38 
   1   4 -12    2.03    0.22 
  -1  -4  12    1.55    0.35 
  -1  -4  12    1.97    0.27 
  -1  -4  12    1.81    0.27 
   0   4 -12    0.74    0.20 
   0   4 -12    0.73    0.21 
   0  -4  12    0.70    0.37 
   0  -4  12    0.73    0.26 
   0  -4  12    0.43    0.22 
  -1   4 -12    0.39    0.24 
  -1   4 -12   -0.48    0.21 
   1  -4  12   -0.22    0.23 
   1  -4  12   -0.14    0.31 
   1  -4  12    0.29    0.31 
  -2   4 -12    2.83    0.43 
  -2   4 -12    3.36    0.49 
   2  -4  12    2.61    0.38 
   2  -4  12    3.08    0.44 
   2  -4  12    3.14    0.44 
  -3   4 -12    0.06    0.29 
  -3   4 -12   -0.14    0.28 
   3  -4  12   -0.19    0.29 
   3  -4  12   -0.19    0.28 
  -5  -3  12    0.78    0.39 
  -5  -3  12   -0.09    0.21 
  -4  -3  12    1.43    0.40 
  -4  -3  12    0.83    0.22 
   3   3 -12    9.28    0.65 
  -3  -3  12    9.57    0.57 
  -3  -3  12    8.29    0.68 
   2   3 -12    0.68    0.27 
  -2  -3  12    0.40    0.28 
  -2  -3  12    0.58    0.21 
   1   3 -12    0.33    0.13 
  -1  -3  12    0.33    0.21 
  -1  -3  12    0.46    0.27 
  -1  -3  12    0.34    0.21 
   0   3 -12    0.98    0.18 
   0   3 -12    0.94    0.19 
   0  -3  12    1.07    0.25 
   0  -3  12    0.73    0.29 
   0  -3  12    0.95    0.24 
  -1   3 -12    0.57    0.18 
  -1   3 -12    0.76    0.22 
   1  -3  12    0.79    0.30 
   1  -3  12    0.88    0.28 
   1  -3  12    0.57    0.23 
  -2   3 -12    1.18    0.26 
   2  -3  12    1.47    0.35 
   2  -3  12    1.08    0.31 
   2  -3  12    1.18    0.28 
  -3   3 -12    1.32    0.34 
  -3   3 -12    1.33    0.31 
   3  -3  12    1.64    0.33 
   3  -3  12    1.43    0.34 
   3  -3  12    1.49    0.29 
  -4   3 -12   -0.20    0.27 
   4  -3  12    0.12    0.33 
   4  -3  12    0.68    0.31 
   4   2 -12    6.25    0.59 
  -4  -2  12    8.53    0.53 
  -4  -2  12    6.99    0.64 
  -4  -2  12    8.40    0.51 
   3   2 -12    0.06    0.42 
  -3  -2  12    0.28    0.18 
  -3  -2  12    0.61    0.22 
  -3  -2  12    0.05    0.29 
  -2  -2  12    9.05    0.67 
  -2  -2  12    8.64    0.52 
  -2  -2  12    8.04    0.55 
   1   2 -12    4.40    0.31 
   1   2 -12    4.25    0.32 
  -1  -2  12    4.13    0.47 
  -1  -2  12    4.31    0.40 
   0   2 -12    0.65    0.18 
   0   2 -12    0.37    0.17 
   0  -2  12    0.46    0.23 
   0  -2  12    0.49    0.25 
   0  -2  12    0.80    0.23 
  -1   2 -12    0.35    0.24 
   1  -2  12    0.35    0.25 
  -2   2 -12    0.05    0.22 
  -2   2 -12   -0.07    0.16 
   2  -2  12   -0.11    0.20 
   2  -2  12    0.11    0.25 
   2  -2  12    0.00    0.24 
  -3   2 -12    0.07    0.26 
  -3   2 -12    0.29    0.24 
   3  -2  12    0.50    0.33 
   3  -2  12    0.25    0.26 
   3  -2  12    0.08    0.30 
  -4   2 -12    0.62    0.28 
  -4   2 -12    0.54    0.30 
   4  -2  12    0.79    0.27 
   4  -2  12    0.59    0.31 
   4  -2  12    0.41    0.27 
  -5   2 -12    0.40    0.32 
   5  -2  12    0.73    0.33 
   5  -2  12    0.26    0.32 
   5   1 -12   -0.20    0.32 
  -5  -1  12    0.27    0.24 
  -5  -1  12    0.24    0.38 
  -5  -1  12    0.34    0.28 
   4   1 -12    4.40    0.53 
  -4  -1  12    4.22    0.60 
  -4  -1  12    4.67    0.46 
  -4  -1  12    4.40    0.41 
   2   1 -12   14.32    0.69 
   2   1 -12   13.67    0.68 
  -2  -1  12   15.87    0.77 
  -2  -1  12   14.85    0.77 
  -2  -1  12   13.93    0.84 
   1   1 -12   11.97    0.65 
   1   1 -12   12.39    0.64 
  -1  -1  12   13.56    0.71 
  -1  -1  12   12.99    0.69 
  -1  -1  12   12.46    0.77 
   0   1 -12    7.67    0.45 
   0   1 -12    6.57    0.44 
   0  -1  12    6.52    0.50 
   0  -1  12    7.10    0.48 
   0  -1  12    7.28    0.58 
  -1   1 -12    0.35    0.23 
   1  -1  12    0.11    0.24 
   1  -1  12    0.32    0.22 
   1  -1  12    0.10    0.25 
  -2   1 -12   13.81    0.78 
  -2   1 -12   13.67    0.76 
   2  -1  12   13.61    0.76 
   2  -1  12   13.85    0.81 
   2  -1  12   13.87    0.78 
  -3   1 -12    0.90    0.25 
  -3   1 -12    0.59    0.25 
   3  -1  12    1.01    0.31 
   3  -1  12    0.96    0.30 
  -4   1 -12    0.76    0.32 
  -4   1 -12    0.38    0.27 
   4  -1  12    0.89    0.27 
   4  -1  12    0.70    0.35 
   4  -1  12    0.83    0.30 
  -5   1 -12    1.19    0.33 
   5  -1  12    0.16    0.28 
   5  -1  12    0.56    0.29 
   6  -1  12   -0.06    0.33 
   5   0 -12   -0.46    0.32 
  -5   0  12    1.06    0.42 
  -5   0  12    0.40    0.36 
  -5   0  12    0.33    0.27 
   4   0 -12   -0.04    0.31 
  -4   0  12    0.06    0.23 
  -4   0  12   -0.15    0.34 
  -4   0  12    0.10    0.27 
   3   0 -12    7.47    0.71 
  -3   0  12    6.77    0.55 
  -3   0  12    7.33    0.50 
  -3   0  12    7.22    0.64 
   2   0 -12    1.43    0.17 
   2   0 -12    1.30    0.21 
  -2   0  12    1.04    0.21 
  -2   0  12    1.32    0.26 
  -2   0  12    1.19    0.31 
   1   0 -12    1.70    0.20 
   1   0 -12    1.89    0.21 
  -1   0  12    1.56    0.24 
  -1   0  12    1.29    0.22 
  -1   0  12    1.53    0.31 
   0   0 -12    0.27    0.18 
   0   0 -12    0.17    0.20 
   0   0  12    0.13    0.20 
   0   0  12    0.40    0.21 
   0   0  12   -0.16    0.24 
  -1   0 -12   16.08    0.81 
  -1   0 -12   15.51    0.85 
   1   0  12   16.02    0.87 
   1   0  12   15.81    0.85 
   1   0  12   14.61    0.82 
  -2   0 -12    0.29    0.21 
  -2   0 -12    0.15    0.24 
  -2   0 -12    0.06    0.16 
   2   0  12    0.18    0.23 
   2   0  12    0.67    0.24 
   2   0  12    0.20    0.23 
  -3   0 -12   -0.11    0.23 
  -3   0 -12   -0.01    0.23 
   3   0  12    0.08    0.23 
   3   0  12    0.26    0.25 
  -4   0 -12   -0.05    0.25 
  -4   0 -12   -0.29    0.28 
  -4   0 -12   -0.19    0.23 
   4   0  12   -0.25    0.34 
   4   0  12    0.14    0.25 
  -5   0 -12   -0.21    0.26 
  -5   0 -12   -0.06    0.31 
   5   0  12    0.44    0.27 
   5   0  12   -0.29    0.27 
   5   0  12   -0.16    0.29 
  -6   0 -12   -0.15    0.36 
   6   0  12    0.00    0.35 
   6   0  12    0.54    0.28 
   4  -1 -12   -0.04    0.31 
  -4   1  12   -0.02    0.32 
  -4   1  12    0.00    0.33 
  -4   1  12    0.29    0.25 
   3  -1 -12    0.09    0.12 
   3  -1 -12    0.15    0.14 
   3  -1 -12    0.16    0.29 
  -3   1  12    0.33    0.25 
  -3   1  12   -0.04    0.34 
  -3   1  12   -0.20    0.28 
   2  -1 -12    1.89    0.26 
   2  -1 -12    1.64    0.27 
  -2   1  12    1.46    0.32 
  -2   1  12    1.55    0.30 
  -2   1  12    1.36    0.24 
   1  -1 -12    2.69    0.33 
   1  -1 -12    2.49    0.32 
  -1   1  12    2.52    0.40 
  -1   1  12    2.65    0.35 
  -1   1  12    3.10    0.35 
   0  -1 -12    1.91    0.30 
   0   1  12    2.38    0.32 
   0   1  12    1.93    0.25 
   0   1  12    1.79    0.30 
  -1  -1 -12    5.33    0.41 
  -1  -1 -12    5.95    0.42 
   1   1  12    5.48    0.51 
   1   1  12    5.47    0.45 
   1   1  12    5.58    0.44 
  -2  -1 -12    1.11    0.23 
  -2  -1 -12    1.38    0.28 
   2   1  12    1.32    0.24 
   2   1  12    1.25    0.26 
   2   1  12    1.33    0.28 
  -3  -1 -12    0.45    0.26 
  -3  -1 -12    0.63    0.26 
   3   1  12    0.56    0.26 
   3   1  12    0.52    0.27 
  -4  -1 -12    1.68    0.28 
  -4  -1 -12    1.75    0.29 
  -4  -1 -12    2.14    0.35 
   4   1  12    1.70    0.30 
   4   1  12    1.89    0.35 
  -5  -1 -12   -0.19    0.24 
  -5  -1 -12    0.23    0.30 
  -5  -1 -12    0.38    0.28 
   5   1  12    0.47    0.35 
   5   1  12    0.26    0.28 
   5   1  12    0.18    0.27 
  -6  -1 -12   -0.52    0.29 
   6   1  12   -0.22    0.29 
   6   1  12   -0.20    0.29 
   4  -2 -12    1.59    0.36 
  -4   2  12    1.43    0.36 
  -4   2  12    2.40    0.36 
   3  -2 -12    2.40    0.32 
   3  -2 -12    2.50    0.30 
   3  -2 -12    1.97    0.36 
  -3   2  12    2.69    0.44 
  -3   2  12    3.75    0.63 
  -3   2  12    2.77    0.41 
   2  -2 -12    0.34    0.22 
   2  -2 -12    0.46    0.28 
   2  -2 -12    0.48    0.20 
  -2   2  12    0.72    0.29 
  -2   2  12    0.18    0.31 
  -2   2  12    0.42    0.25 
  -1   2  12    2.46    0.37 
  -1   2  12    1.87    0.30 
  -1   2  12    2.14    0.34 
   0  -2 -12    4.93    0.41 
   0  -2 -12    5.54    0.40 
   0   2  12    4.42    0.48 
   0   2  12    4.90    0.42 
   0   2  12    5.54    0.45 
  -1  -2 -12   -0.17    0.18 
   1   2  12   -0.31    0.23 
   1   2  12   -0.34    0.25 
   1   2  12   -0.28    0.19 
  -2  -2 -12    2.37    0.30 
  -2  -2 -12    2.28    0.31 
   2   2  12    2.46    0.33 
   2   2  12    2.61    0.33 
  -3  -2 -12    7.47    0.55 
  -3  -2 -12    7.66    0.52 
   3   2  12    7.54    0.55 
   3   2  12    7.03    0.58 
  -4  -2 -12    4.73    0.48 
  -4  -2 -12    5.22    0.46 
  -4  -2 -12    4.83    0.52 
   4   2  12    4.74    0.50 
   4   2  12    4.23    0.46 
   4   2  12    4.63    0.48 
  -5  -2 -12    1.00    0.28 
  -5  -2 -12    0.81    0.26 
  -5  -2 -12    0.61    0.36 
   5   2  12    0.48    0.28 
   5   2  12    1.25    0.35 
   5   2  12    1.30    0.29 
  -6  -2 -12    0.06    0.32 
  -6  -2 -12    0.31    0.26 
   6   2  12    0.29    0.32 
   6   2  12    0.29    0.28 
   6   2  12    0.57    0.28 
   7   2  12   -0.01    0.35 
   7   2  12    0.12    0.28 
   3  -3 -12    0.48    0.23 
   3  -3 -12    0.53    0.34 
  -3   3  12    0.81    0.33 
  -3   3  12    0.74    0.33 
  -3   3  12    1.05    0.37 
   2  -3 -12    1.28    0.34 
   2  -3 -12    1.07    0.24 
  -2   3  12    1.80    0.38 
  -2   3  12    0.97    0.29 
  -2   3  12    0.95    0.37 
   1  -3 -12    0.38    0.27 
   1  -3 -12    0.43    0.21 
  -1   3  12    0.34    0.33 
  -1   3  12   -0.15    0.31 
  -1   3  12    0.07    0.23 
   0  -3 -12    3.40    0.42 
   0   3  12    3.69    0.47 
   0   3  12    3.64    0.46 
   0   3  12    2.78    0.40 
  -1  -3 -12    3.06    0.35 
   1   3  12    2.51    0.42 
   1   3  12    3.19    0.38 
   1   3  12    2.17    0.32 
  -2  -3 -12    0.79    0.25 
   2   3  12    0.68    0.27 
   2   3  12    0.50    0.27 
  -3  -3 -12    0.23    0.26 
  -3  -3 -12    0.57    0.25 
   3   3  12    0.00    0.28 
   3   3  12    0.46    0.26 
  -4  -3 -12    2.74    0.42 
  -4  -3 -12    3.10    0.39 
   4   3  12    2.53    0.35 
   4   3  12    3.05    0.46 
   4   3  12    2.25    0.36 
  -5  -3 -12    0.46    0.26 
  -5  -3 -12    0.50    0.25 
  -5  -3 -12    0.53    0.32 
   5   3  12    0.49    0.27 
   5   3  12    0.56    0.34 
   5   3  12    0.53    0.28 
  -6  -3 -12    0.92    0.32 
  -6  -3 -12    1.28    0.30 
   6   3  12    0.85    0.32 
   6   3  12    1.75    0.37 
   6   3  12    1.20    0.31 
  -7  -3 -12    0.47    0.35 
  -7  -3 -12   -0.14    0.26 
   7   3  12    0.32    0.36 
   7   3  12   -0.21    0.35 
   7   3  12    0.17    0.30 
   3  -4 -12   -0.12    0.28 
  -3   4  12   -0.03    0.35 
   2  -4 -12    0.20    0.35 
   2  -4 -12    0.70    0.28 
  -2   4  12    0.78    0.32 
  -2   4  12    0.37    0.32 
  -2   4  12    0.63    0.32 
   1  -4 -12    1.71    0.35 
   1  -4 -12    1.61    0.28 
  -1   4  12    1.43    0.33 
  -1   4  12    2.40    0.36 
  -1   4  12    1.47    0.34 
   0  -4 -12    1.82    0.31 
   0  -4 -12    1.29    0.32 
   0   4  12    1.91    0.36 
   0   4  12    2.25    0.38 
   0   4  12    1.58    0.31 
  -1  -4 -12    0.09    0.26 
   1   4  12   -0.46    0.29 
   1   4  12   -0.26    0.28 
  -2  -4 -12    3.74    0.47 
  -2  -4 -12    3.32    0.43 
   2   4  12    3.13    0.48 
   2   4  12    3.55    0.47 
  -3  -4 -12   -0.30    0.23 
  -3  -4 -12   -0.23    0.23 
   3   4  12    0.19    0.26 
   3   4  12   -0.38    0.29 
  -4  -4 -12    2.52    0.39 
   4   4  12    1.91    0.36 
   4   4  12    1.94    0.31 
   4   4  12    3.05    0.49 
  -5  -4 -12    2.83    0.39 
  -5  -4 -12    3.48    0.41 
  -5  -4 -12    3.28    0.45 
   5   4  12    2.38    0.39 
   5   4  12    3.29    0.50 
   5   4  12    3.29    0.48 
  -6  -4 -12    0.21    0.25 
  -6  -4 -12    0.06    0.30 
   6   4  12    0.30    0.29 
   6   4  12    0.32    0.28 
  -7  -4 -12    0.52    0.33 
  -7  -4 -12   -0.47    0.26 
   7   4  12    0.35    0.37 
   7   4  12   -0.03    0.31 
   7   4  12    0.05    0.31 
   2  -5 -12    5.48    0.57 
   2  -5 -12    7.79    0.72 
  -2   5  12    7.89    0.67 
   1  -5 -12    6.18    0.65 
   1  -5 -12    4.39    0.51 
  -1   5  12    5.64    0.58 
   0  -5 -12    0.64    0.26 
   0  -5 -12    0.98    0.33 
   0  -5 -12    0.59    0.33 
   0   5  12    1.03    0.32 
   0   5  12    0.74    0.31 
   0   5  12    0.72    0.31 
  -1  -5 -12    0.31    0.29 
  -1  -5 -12    0.74    0.32 
  -1  -5 -12    0.34    0.26 
   1   5  12    0.80    0.29 
   1   5  12    0.10    0.27 
   1   5  12    0.31    0.29 
  -2  -5 -12    1.22    0.34 
  -2  -5 -12    0.91    0.26 
  -2  -5 -12    1.05    0.31 
   2   5  12    0.90    0.38 
   2   5  12    1.42    0.39 
   2   5  12    1.31    0.35 
  -3  -5 -12   12.51    0.77 
  -3  -5 -12   13.23    0.84 
  -3  -5 -12   12.99    0.82 
   3   5  12   13.61    0.84 
   3   5  12   12.79    0.87 
   3   5  12   12.61    0.77 
  -4  -5 -12    0.50    0.27 
  -4  -5 -12   -0.26    0.31 
  -4  -5 -12    0.28    0.27 
   4   5  12    0.12    0.34 
   4   5  12   -0.24    0.32 
   4   5  12    0.26    0.28 
  -5  -5 -12    3.67    0.50 
  -5  -5 -12    3.37    0.46 
  -5  -5 -12    3.05    0.48 
   5   5  12    3.25    0.46 
   5   5  12    3.21    0.44 
  -6  -5 -12    0.19    0.28 
  -6  -5 -12    0.48    0.33 
   6   5  12    1.25    0.37 
   6   5  12    0.17    0.29 
  -7  -5 -12    2.08    0.53 
  -7  -5 -12    3.02    0.50 
   7   5  12    3.21    0.44 
   7   5  12    3.26    0.51 
   0  -6 -12    0.03    0.29 
   0  -6 -12    0.22    0.27 
   0   6  12    0.68    0.32 
  -1  -6 -12    0.27    0.29 
  -1  -6 -12    0.70    0.31 
   1   6  12    0.11    0.32 
  -2  -6 -12    2.03    0.37 
  -2  -6 -12    2.46    0.34 
  -2  -6 -12    3.34    0.40 
   2   6  12    2.37    0.35 
   2   6  12    2.22    0.34 
  -3  -6 -12    0.03    0.27 
  -3  -6 -12    0.13    0.29 
  -3  -6 -12   -0.34    0.25 
   3   6  12   -0.22    0.26 
   3   6  12    0.03    0.30 
  -4  -6 -12   -0.11    0.26 
  -4  -6 -12   -0.18    0.30 
   4   6  12   -0.16    0.27 
   4   6  12   -0.22    0.27 
  -5  -6 -12    0.74    0.33 
  -5  -6 -12    0.04    0.28 
   5   6  12    0.17    0.29 
   5   6  12    0.80    0.30 
  -6  -6 -12    0.82    0.35 
  -6  -6 -12    0.38    0.31 
   6   6  12    0.89    0.37 
   6   6  12    0.43    0.32 
  -1  -7 -12    1.33    0.33 
   1   7  12    0.94    0.33 
  -2  -7 -12    1.33    0.35 
   2   7  12    1.75    0.37 
  -3  -7 -12    7.68    0.64 
   3   7  12    5.98    0.62 
  -4  -7 -12    0.26    0.27 
   4   7  12   -0.28    0.33 
   5   7  12    0.78    0.31 
  -3  -6  13   -0.32    0.32 
  -3  -6  13   -0.06    0.28 
  -3  -6  13    0.03    0.24 
  -2  -6  13    0.50    0.27 
  -2  -6  13    0.37    0.33 
  -2  -6  13    0.67    0.36 
  -1  -6  13    0.28    0.28 
  -1  -6  13    0.06    0.33 
  -1  -6  13    0.06    0.30 
   0  -6  13    1.84    0.37 
   0  -6  13    1.62    0.56 
  -4  -5  13   -0.21    0.26 
  -4  -5  13    0.18    0.23 
  -4  -5  13   -0.07    0.34 
  -3  -5  13    0.42    0.24 
  -3  -5  13    0.51    0.27 
  -3  -5  13    0.18    0.33 
  -2  -5  13    0.18    0.34 
  -2  -5  13    0.13    0.24 
  -2  -5  13    0.56    0.28 
   1   5 -13   -0.13    0.11 
  -1  -5  13   -0.26    0.25 
  -1  -5  13   -0.23    0.32 
  -1  -5  13    0.14    0.33 
   0   5 -13    0.87    0.27 
   0   5 -13   -0.03    0.21 
   0  -5  13    0.11    0.30 
   0  -5  13   -0.03    0.25 
   0  -5  13    0.27    0.33 
  -1   5 -13    0.14    0.27 
   1  -5  13    0.77    0.33 
   1  -5  13    0.83    0.33 
   2  -5  13   -0.02    0.49 
  -4  -4  13    0.32    0.34 
  -4  -4  13    0.45    0.24 
  -4  -4  13    0.26    0.22 
  -3  -4  13    1.18    0.34 
  -3  -4  13    0.63    0.23 
  -3  -4  13    0.78    0.27 
  -2  -4  13    0.62    0.32 
  -2  -4  13    1.21    0.29 
  -2  -4  13    1.27    0.26 
   1   4 -13    0.49    0.14 
  -1  -4  13    0.51    0.30 
  -1  -4  13    0.18    0.24 
  -1  -4  13    0.37    0.28 
   0   4 -13    0.48    0.23 
   0   4 -13    0.25    0.20 
   0  -4  13    0.52    0.33 
   0  -4  13    0.15    0.24 
   0  -4  13    0.63    0.32 
  -1   4 -13   -0.21    0.20 
  -1   4 -13    0.43    0.27 
   1  -4  13   -0.36    0.29 
   1  -4  13   -0.47    0.23 
   1  -4  13    0.12    0.29 
  -2   4 -13    0.70    0.34 
  -2   4 -13    0.15    0.28 
   2  -4  13    0.08    0.31 
   2  -4  13   -0.27    0.27 
  -3   4 -13    0.75    0.30 
  -3   4 -13   -0.03    0.57 
   3  -4  13    0.33    0.35 
   3  -4  13    0.01    0.32 
  -5  -3  13    0.07    0.29 
  -5  -3  13   -0.16    0.20 
  -5  -3  13    0.10    0.32 
  -4  -3  13   -0.26    0.20 
  -4  -3  13   -0.10    0.23 
  -4  -3  13    0.02    0.35 
  -3  -3  13    0.25    0.21 
  -3  -3  13    0.11    0.24 
  -3  -3  13   -0.03    0.32 
  -2  -3  13    0.59    0.35 
  -2  -3  13    0.29    0.22 
  -2  -3  13   -0.06    0.25 
   1   3 -13    2.71    0.27 
   1   3 -13    3.22    0.27 
  -1  -3  13    2.90    0.43 
  -1  -3  13    2.42    0.40 
  -1  -3  13    2.47    0.40 
   0   3 -13    2.65    0.34 
   0   3 -13    2.42    0.36 
   0  -3  13    2.21    0.32 
   0  -3  13    2.29    0.44 
   0  -3  13    2.41    0.40 
  -1   3 -13    0.40    0.21 
   1  -3  13    0.76    0.26 
   1  -3  13    0.99    0.31 
   1  -3  13    1.11    0.37 
  -2   3 -13    1.43    0.31 
  -2   3 -13    1.39    0.33 
   2  -3  13    1.52    0.36 
   2  -3  13    1.11    0.33 
   2  -3  13    1.22    0.30 
  -3   3 -13    1.88    0.35 
   3  -3  13    2.45    0.39 
   3  -3  13    2.04    0.36 
  -4   3 -13    0.52    0.32 
   4  -3  13    1.09    0.36 
   5   2 -13    1.25    0.40 
  -5  -2  13    1.51    0.41 
  -5  -2  13    1.74    0.33 
  -5  -2  13    1.70    0.27 
   4   2 -13    0.81    0.36 
  -4  -2  13    0.81    0.23 
  -4  -2  13    0.86    0.28 
  -4  -2  13    1.23    0.34 
   3   2 -13   -0.14    0.29 
  -3  -2  13    0.13    0.24 
  -3  -2  13    0.83    0.38 
  -3  -2  13   -0.20    0.19 
   2   2 -13    1.85    0.33 
  -2  -2  13    2.00    0.36 
  -2  -2  13    2.23    0.36 
  -2  -2  13    1.97    0.29 
   1   2 -13    1.90    0.27 
   1   2 -13    2.11    0.26 
  -1  -2  13    2.09    0.29 
  -1  -2  13    1.94    0.27 
  -1  -2  13    1.91    0.37 
   0   2 -13    0.01    0.19 
   0   2 -13    0.18    0.19 
   0  -2  13    0.02    0.29 
   0  -2  13   -0.15    0.24 
   0  -2  13    0.00    0.23 
  -1   2 -13    0.71    0.30 
  -1   2 -13    0.79    0.23 
   1  -2  13    0.83    0.29 
   1  -2  13    0.40    0.24 
   1  -2  13    0.83    0.33 
  -2   2 -13   -0.31    0.24 
   2  -2  13    0.19    0.33 
   2  -2  13   -0.20    0.34 
   2  -2  13   -0.26    0.25 
  -3   2 -13   -0.21    0.28 
  -3   2 -13   -0.03    0.30 
   3  -2  13    0.06    0.31 
   3  -2  13    0.17    0.25 
   3  -2  13   -0.24    0.27 
  -4   2 -13    0.23    0.29 
   4  -2  13    0.04    0.32 
   4  -2  13    0.11    0.37 
   4   1 -13    0.26    0.33 
  -4  -1  13    0.24    0.34 
  -4  -1  13    0.02    0.23 
  -4  -1  13    0.41    0.28 
   3   1 -13    0.68    0.32 
  -3  -1  13    1.20    0.38 
  -3  -1  13    0.45    0.27 
  -3  -1  13    0.59    0.21 
   2   1 -13    0.71    0.12 
   2   1 -13    0.81    0.30 
   2   1 -13    0.64    0.11 
  -2  -1  13    0.54    0.24 
  -2  -1  13    0.45    0.22 
  -2  -1  13    0.35    0.33 
   1   1 -13    0.82    0.17 
   1   1 -13    0.80    0.46 
   1   1 -13    0.93    0.18 
  -1  -1  13    0.67    0.25 
  -1  -1  13    0.53    0.24 
  -1  -1  13    0.26    0.32 
   0   1 -13    0.32    0.18 
   0  -1  13   -0.10    0.24 
   0  -1  13   -0.39    0.29 
   0  -1  13   -0.12    0.22 
  -1   1 -13    0.61    0.20 
  -1   1 -13   -0.10    0.26 
  -1   1 -13   -0.16    0.19 
   1  -1  13   -0.32    0.25 
   1  -1  13   -0.03    0.27 
   1  -1  13    0.07    0.24 
  -2   1 -13   -0.09    0.24 
  -2   1 -13    0.04    0.25 
   2  -1  13   -0.18    0.24 
   2  -1  13    0.08    0.29 
   2  -1  13    0.11    0.30 
  -3   1 -13   -0.01    0.26 
  -3   1 -13   -0.15    0.26 
  -3   1 -13   -0.16    0.28 
   3  -1  13   -0.22    0.24 
   3  -1  13   -0.34    0.29 
   3  -1  13   -0.27    0.29 
  -4   1 -13   -0.63    0.28 
  -4   1 -13    0.18    0.29 
   4  -1  13   -0.35    0.33 
   4  -1  13    0.00    0.34 
   4  -1  13    0.15    0.27 
  -5   1 -13    0.07    0.32 
   5  -1  13    0.09    0.36 
   5  -1  13    0.06    0.31 
   4   0 -13    0.18    0.34 
  -4   0  13    0.42    0.27 
  -4   0  13    0.60    0.36 
  -4   0  13    0.14    0.34 
   3   0 -13    1.55    0.35 
  -3   0  13    1.14    0.33 
  -3   0  13    1.26    0.41 
  -3   0  13    1.65    0.27 
   2   0 -13    0.04    0.27 
   2   0 -13    0.12    0.13 
   2   0 -13    0.04    0.14 
  -2   0  13   -0.02    0.25 
  -2   0  13    0.01    0.21 
  -2   0  13    0.33    0.32 
   1   0 -13   -0.05    0.26 
   1   0 -13    0.55    0.18 
   1   0 -13    0.21    0.16 
  -1   0  13    0.55    0.26 
  -1   0  13    0.15    0.30 
  -1   0  13    0.04    0.21 
   0   0 -13    0.05    0.19 
   0   0  13   -0.22    0.27 
   0   0  13   -0.06    0.22 
   0   0  13    0.18    0.23 
  -1   0 -13    1.14    0.23 
  -1   0 -13    0.57    0.25 
   1   0  13    1.07    0.29 
   1   0  13    0.70    0.28 
   1   0  13    0.65    0.25 
  -2   0 -13    2.46    0.40 
  -2   0 -13    1.82    0.32 
  -2   0 -13    2.51    0.39 
   2   0  13    2.37    0.34 
   2   0  13    2.37    0.34 
   2   0  13    2.69    0.32 
  -3   0 -13    2.08    0.32 
  -3   0 -13    2.22    0.33 
  -3   0 -13    1.93    0.29 
   3   0  13    1.86    0.32 
   3   0  13    1.72    0.35 
   3   0  13    1.91    0.32 
  -4   0 -13   -0.10    0.26 
  -4   0 -13    0.85    0.34 
  -4   0 -13    0.29    0.28 
   4   0  13    0.09    0.33 
   4   0  13    0.68    0.31 
   4   0  13   -0.15    0.27 
  -5   0 -13   -0.22    0.31 
   5   0  13   -0.47    0.30 
   5   0  13    0.54    0.31 
   4  -1 -13    3.59    0.60 
  -4   1  13    3.26    0.56 
  -4   1  13    4.61    0.57 
  -4   1  13    3.38    0.52 
   3  -1 -13    1.27    0.33 
   3  -1 -13    0.58    0.14 
  -3   1  13    1.15    0.35 
  -3   1  13    1.08    0.37 
  -3   1  13    0.81    0.27 
   2  -1 -13    0.19    0.18 
   2  -1 -13    0.15    0.16 
   2  -1 -13    0.12    0.28 
  -2   1  13   -0.03    0.28 
  -2   1  13    0.20    0.36 
  -2   1  13    0.07    0.23 
   1  -1 -13    1.05    0.29 
   1  -1 -13    1.71    0.25 
   1  -1 -13    2.36    0.35 
  -1   1  13    1.36    0.26 
  -1   1  13    1.17    0.30 
  -1   1  13    1.39    0.34 
   0  -1 -13    5.44    0.40 
   0   1  13    4.59    0.56 
   0   1  13    4.90    0.51 
   0   1  13    4.46    0.43 
  -1  -1 -13    0.83    0.26 
  -1  -1 -13    0.48    0.18 
   1   1  13    0.84    0.25 
   1   1  13    0.95    0.27 
   1   1  13    0.83    0.33 
  -2  -1 -13    0.07    0.25 
  -2  -1 -13    0.20    0.25 
   2   1  13    0.28    0.27 
   2   1  13    0.31    0.25 
   2   1  13    0.34    0.26 
  -3  -1 -13    0.38    0.23 
  -3  -1 -13    0.50    0.25 
  -3  -1 -13    0.31    0.27 
   3   1  13   -0.07    0.29 
   3   1  13    0.29    0.28 
  -4  -1 -13    0.97    0.29 
  -4  -1 -13    1.08    0.30 
  -4  -1 -13    1.08    0.36 
   4   1  13    0.88    0.31 
   4   1  13    0.92    0.30 
   4   1  13    0.88    0.33 
  -5  -1 -13    1.50    0.33 
  -5  -1 -13    0.24    0.34 
  -5  -1 -13    1.16    0.31 
   5   1  13    1.36    0.33 
   5   1  13    0.63    0.30 
   5   1  13    1.04    0.32 
  -6  -1 -13    0.44    0.36 
   6   1  13    0.24    0.35 
   3  -2 -13    0.16    0.19 
   3  -2 -13    0.11    0.32 
   3  -2 -13   -0.03    0.16 
  -3   2  13    0.11    0.35 
  -3   2  13    0.31    0.32 
  -3   2  13    0.43    0.29 
   2  -2 -13    3.17    0.37 
   2  -2 -13    1.72    0.36 
  -2   2  13    2.39    0.40 
  -2   2  13    1.81    0.35 
  -2   2  13    2.25    0.33 
   1  -2 -13    0.12    0.19 
   1  -2 -13    0.27    0.27 
   1  -2 -13   -0.06    0.19 
  -1   2  13   -0.14    0.24 
  -1   2  13    0.00    0.31 
  -1   2  13    0.12    0.34 
   0   2  13    3.86    0.51 
   0   2  13    4.18    0.43 
   0   2  13    3.97    0.51 
  -1  -2 -13    0.76    0.44 
  -1  -2 -13    1.28    0.29 
  -1  -2 -13    0.38    0.19 
   1   2  13    0.59    0.24 
   1   2  13    1.00    0.33 
   1   2  13    1.04    0.29 
  -2  -2 -13    4.66    0.46 
  -2  -2 -13    4.80    0.46 
   2   2  13    5.06    0.53 
   2   2  13    4.27    0.46 
   2   2  13    4.41    0.50 
  -3  -2 -13    0.11    0.28 
  -3  -2 -13   -0.01    0.23 
  -3  -2 -13    0.01    0.24 
   3   2  13    0.10    0.27 
   3   2  13   -0.23    0.32 
  -4  -2 -13    1.24    0.28 
  -4  -2 -13    0.77    0.29 
  -4  -2 -13    1.47    0.35 
   4   2  13    0.66    0.30 
   4   2  13    0.70    0.35 
   4   2  13    1.12    0.30 
  -5  -2 -13    0.74    0.29 
  -5  -2 -13    0.29    0.29 
  -5  -2 -13    0.41    0.27 
   5   2  13    0.67    0.31 
   5   2  13    0.21    0.30 
   5   2  13    0.35    0.31 
  -6  -2 -13    0.54    0.29 
  -6  -2 -13    0.15    0.32 
   6   2  13    0.50    0.35 
   6   2  13    0.49    0.32 
   3  -3 -13    0.60    0.29 
  -3   3  13    0.47    0.37 
  -3   3  13    0.80    0.34 
   2  -3 -13    0.09    0.20 
   2  -3 -13    0.34    0.25 
   2  -3 -13    0.08    0.33 
  -2   3  13    0.10    0.28 
  -2   3  13    0.02    0.31 
  -2   3  13    0.13    0.28 
   1  -3 -13    1.25    0.34 
   1  -3 -13    1.10    0.30 
  -1   3  13    1.23    0.34 
  -1   3  13    1.15    0.30 
  -1   3  13    1.17    0.32 
   0  -3 -13    2.80    0.38 
   0  -3 -13    3.22    0.44 
   0   3  13    3.16    0.42 
   0   3  13    3.01    0.43 
   0   3  13    3.60    0.52 
  -1  -3 -13    4.90    0.51 
  -1  -3 -13    5.42    0.60 
   1   3  13    4.85    0.48 
   1   3  13    5.03    0.55 
   1   3  13    4.03    0.53 
  -2  -3 -13    0.38    0.28 
  -2  -3 -13    0.37    0.24 
   2   3  13    0.52    0.33 
   2   3  13    0.61    0.26 
   2   3  13    0.26    0.29 
  -3  -3 -13    0.12    0.25 
  -3  -3 -13    0.05    0.29 
  -3  -3 -13    0.26    0.25 
   3   3  13    0.06    0.31 
   3   3  13   -0.19    0.34 
  -4  -3 -13    0.19    0.24 
  -4  -3 -13    0.60    0.31 
  -4  -3 -13    0.07    0.26 
   4   3  13    0.55    0.33 
   4   3  13    0.14    0.31 
   4   3  13    0.07    0.28 
  -5  -3 -13    1.14    0.31 
  -5  -3 -13    1.10    0.32 
  -5  -3 -13    0.96    0.28 
   5   3  13    1.49    0.35 
   5   3  13    1.36    0.31 
   5   3  13    1.04    0.35 
  -6  -3 -13    0.96    0.35 
  -6  -3 -13    0.55    0.30 
   6   3  13    1.15    0.33 
   6   3  13    1.09    0.37 
   2  -4 -13    0.15    0.32 
   2  -4 -13    0.31    0.27 
  -2   4  13    0.88    0.38 
  -2   4  13    1.20    0.33 
   1  -4 -13    3.08    0.38 
   1  -4 -13    2.66    0.34 
  -1   4  13    3.21    0.51 
  -1   4  13    2.78    0.38 
   0  -4 -13    1.81    0.34 
   0  -4 -13    1.33    0.32 
   0  -4 -13    1.80    0.30 
   0   4  13    2.13    0.36 
   0   4  13    2.74    0.36 
   0   4  13    1.31    0.31 
  -1  -4 -13    0.96    0.32 
  -1  -4 -13    1.02    0.28 
  -1  -4 -13    0.91    0.30 
   1   4  13    0.88    0.29 
   1   4  13    0.71    0.29 
   1   4  13    0.97    0.32 
  -2  -4 -13    0.47    0.27 
  -2  -4 -13    0.19    0.27 
  -2  -4 -13    0.54    0.33 
   2   4  13   -0.01    0.29 
   2   4  13    0.22    0.33 
   2   4  13   -0.01    0.26 
  -3  -4 -13    1.19    0.29 
  -3  -4 -13    1.36    0.31 
   3   4  13    1.66    0.36 
   3   4  13    1.48    0.30 
   3   4  13    1.64    0.34 
  -4  -4 -13    1.88    0.34 
  -4  -4 -13    1.59    0.29 
  -4  -4 -13    2.65    0.36 
   4   4  13    2.01    0.35 
   4   4  13    1.93    0.33 
   4   4  13    2.10    0.37 
  -5  -4 -13    0.50    0.34 
  -5  -4 -13    0.39    0.30 
   5   4  13    0.40    0.33 
   5   4  13    0.45    0.35 
   5   4  13   -0.22    0.31 
  -6  -4 -13    1.09    0.32 
  -6  -4 -13    0.71    0.36 
   6   4  13    0.93    0.33 
   6   4  13    0.73    0.39 
   1  -5 -13    0.20    0.27 
  -1   5  13    0.46    0.34 
  -1   5  13    0.37    0.36 
   0  -5 -13    1.23    0.29 
   0   5  13    1.79    0.35 
   0   5  13    1.51    0.34 
  -1  -5 -13    1.71    0.31 
  -1  -5 -13    2.30    0.37 
   1   5  13    1.72    0.35 
  -2  -5 -13   -0.23    0.31 
  -2  -5 -13   -0.14    0.25 
  -2  -5 -13   -0.11    0.27 
   2   5  13   -0.08    0.29 
   2   5  13    0.12    0.29 
  -3  -5 -13    0.38    0.26 
  -3  -5 -13    0.26    0.28 
  -3  -5 -13   -0.21    0.28 
   3   5  13   -0.12    0.28 
   3   5  13    0.65    0.30 
   3   5  13   -0.60    0.30 
  -4  -5 -13    1.02    0.32 
   4   5  13    0.59    0.32 
   4   5  13    0.17    0.32 
   4   5  13    0.87    0.31 
  -5  -5 -13    0.65    0.32 
  -5  -5 -13    0.67    0.32 
   5   5  13    0.60    0.33 
   5   5  13    0.89    0.30 
  -6  -5 -13   -0.21    0.38 
  -6  -5 -13    0.26    0.31 
   6   5  13    1.27    0.40 
   6   5  13    0.46    0.37 
  -1  -6 -13    0.61    0.34 
   1   6  13    0.56    0.36 
  -2  -6 -13    0.72    0.30 
   2   6  13    0.44    0.33 
  -3  -6 -13    5.66    0.60 
   3   6  13    5.56    0.60 
  -4  -6 -13    2.49    0.37 
   4   6  13    2.40    0.40 
  -5  -6 -13    0.33    0.49 
  -5  -6 -13    0.42    0.35 
   5   6  13    0.91    0.36 
  -3  -7 -13    1.13    0.40 
   3   7  13    1.41    0.41 
  -2  -5  14    1.04    0.38 
  -2  -5  14   -0.18    0.32 
  -2  -5  14   -0.08    0.26 
  -1  -5  14    0.02    0.28 
  -1  -5  14    0.31    0.34 
  -1  -5  14   -0.10    0.32 
   0  -5  14    0.18    0.36 
   0  -5  14    0.73    0.35 
  -3  -4  14   -0.01    0.32 
  -3  -4  14   -0.01    0.26 
  -3  -4  14    0.48    0.30 
  -2  -4  14    0.21    0.32 
  -2  -4  14    0.49    0.27 
  -2  -4  14    0.04    0.31 
   1   4 -14    2.95    0.25 
  -1  -4  14    2.64    0.42 
  -1  -4  14    2.49    0.34 
  -1  -4  14    4.48    0.58 
   0   4 -14    0.47    0.22 
   0  -4  14    0.17    0.27 
   0  -4  14    0.17    0.34 
   0  -4  14    0.82    0.30 
  -1   4 -14    0.11    0.28 
   1  -4  14    0.47    0.34 
   1  -4  14    0.51    0.32 
  -2   4 -14    1.04    0.37 
  -2   4 -14    0.74    0.30 
   2  -4  14   -0.02    0.34 
   2  -4  14    0.70    0.33 
  -4  -3  14   -0.26    0.28 
  -4  -3  14   -0.09    0.25 
  -4  -3  14    0.39    0.37 
  -3  -3  14    0.19    0.34 
  -3  -3  14    0.16    0.28 
  -3  -3  14    0.08    0.25 
  -2  -3  14    0.63    0.31 
  -2  -3  14    0.94    0.27 
  -2  -3  14    0.53    0.29 
   1   3 -14    0.31    0.15 
   1   3 -14    0.17    0.15 
  -1  -3  14    0.49    0.32 
  -1  -3  14    0.55    0.29 
  -1  -3  14   -0.04    0.25 
   0   3 -14    2.80    0.36 
   0  -3  14    1.36    0.37 
   0  -3  14    2.00    0.36 
   0  -3  14    1.68    0.31 
  -1   3 -14    0.50    0.24 
  -1   3 -14    0.86    0.28 
   1  -3  14    1.16    0.31 
   1  -3  14    1.04    0.32 
   1  -3  14    0.85    0.28 
  -2   3 -14    0.55    0.33 
  -2   3 -14    0.24    0.28 
   2  -3  14    0.58    0.32 
   2  -3  14    0.61    0.32 
  -3   3 -14    3.11    0.50 
  -3   3 -14    1.43    0.40 
   3  -3  14    1.98    0.39 
   3  -3  14    1.40    0.41 
  -4  -2  14    0.15    0.37 
  -4  -2  14    0.13    0.25 
  -4  -2  14   -0.01    0.31 
   3   2 -14    0.01    0.56 
  -3  -2  14    0.45    0.29 
  -3  -2  14    0.27    0.23 
  -3  -2  14    0.13    0.32 
   2   2 -14   -0.65    0.31 
  -2  -2  14    0.29    0.24 
  -2  -2  14   -0.13    0.29 
  -2  -2  14    0.18    0.29 
   1   2 -14    0.02    0.17 
   1   2 -14   -0.28    0.29 
   1   2 -14   -0.18    0.16 
  -1  -2  14   -0.03    0.25 
  -1  -2  14    0.00    0.31 
  -1  -2  14    0.09    0.30 
   0   2 -14    1.90    0.35 
   0  -2  14    1.06    0.29 
   0  -2  14    1.69    0.35 
   0  -2  14    1.55    0.35 
  -1   2 -14    1.27    0.26 
  -1   2 -14    1.78    0.36 
   1  -2  14    1.90    0.36 
   1  -2  14    1.23    0.31 
   1  -2  14    1.28    0.33 
  -2   2 -14   -0.04    0.27 
  -2   2 -14   -0.27    0.28 
   2  -2  14    0.14    0.30 
   2  -2  14   -0.09    0.26 
   2  -2  14   -0.54    0.27 
  -3   2 -14    0.43    0.29 
  -3   2 -14    0.58    0.28 
   3  -2  14   -0.03    0.31 
   3  -2  14   -0.27    0.31 
  -4   2 -14    0.42    0.33 
   4  -2  14    0.51    0.31 
  -4  -1  14   -0.38    0.35 
  -4  -1  14    0.17    0.35 
  -4  -1  14    0.35    0.26 
   3   1 -14    0.16    0.40 
  -3  -1  14   -0.14    0.28 
  -3  -1  14    0.23    0.33 
  -3  -1  14    0.39    0.24 
   2   1 -14    1.83    0.19 
   2   1 -14    1.50    0.34 
  -2  -1  14    1.15    0.27 
  -2  -1  14    1.67    0.34 
  -2  -1  14    1.25    0.36 
   1   1 -14    1.94    0.36 
   1   1 -14    2.01    0.29 
   1   1 -14    2.18    0.30 
  -1  -1  14    2.14    0.34 
  -1  -1  14    1.68    0.35 
  -1  -1  14    1.47    0.30 
   0   1 -14    0.29    0.29 
   0   1 -14    1.00    0.22 
   0  -1  14    0.39    0.30 
   0  -1  14    0.67    0.26 
   0  -1  14    0.84    0.34 
  -1   1 -14    0.43    0.29 
  -1   1 -14    0.15    0.23 
  -1   1 -14    0.11    0.18 
   1  -1  14    0.26    0.31 
   1  -1  14    0.19    0.27 
   1  -1  14    0.28    0.33 
  -2   1 -14    5.36    0.48 
  -2   1 -14    4.43    0.55 
  -2   1 -14    4.20    0.51 
   2  -1  14    5.22    0.63 
   2  -1  14    3.86    0.52 
   2  -1  14    4.62    0.51 
  -3   1 -14    1.72    0.37 
  -3   1 -14    0.97    0.34 
  -3   1 -14    0.78    0.28 
   3  -1  14    0.58    0.33 
   3  -1  14    0.88    0.37 
   3  -1  14    1.61    0.34 
  -4   1 -14    0.15    0.31 
   4  -1  14   -0.43    0.31 
   4  -1  14   -0.15    0.30 
   3   0 -14    0.03    0.55 
  -3   0  14   -0.50    0.26 
  -3   0  14    0.33    0.35 
  -3   0  14    0.04    0.33 
   2   0 -14    0.02    0.15 
   2   0 -14    0.33    0.31 
   2   0 -14    0.07    0.15 
  -2   0  14    0.11    0.33 
  -2   0  14    0.22    0.24 
  -2   0  14    0.00    0.32 
   1   0 -14    1.11    0.23 
   1   0 -14    2.09    0.34 
   1   0 -14    1.19    0.32 
  -1   0  14    0.71    0.25 
  -1   0  14    1.57    0.37 
  -1   0  14    1.36    0.33 
   0   0 -14    0.64    0.32 
   0   0 -14    0.82    0.21 
   0   0  14    1.02    0.35 
   0   0  14    0.70    0.28 
   0   0  14    0.55    0.30 
  -1   0 -14    0.00    0.29 
  -1   0 -14   -0.04    0.24 
  -1   0 -14    0.17    0.18 
   1   0  14    0.32    0.36 
   1   0  14   -0.11    0.26 
   1   0  14    0.43    0.31 
  -2   0 -14   -0.01    0.27 
  -2   0 -14    0.35    0.29 
   2   0  14   -0.19    0.35 
   2   0  14   -0.03    0.29 
   2   0  14   -0.07    0.26 
  -3   0 -14    0.79    0.32 
  -3   0 -14    0.44    0.31 
  -3   0 -14    0.20    0.26 
   3   0  14    0.58    0.30 
   3   0  14    0.63    0.31 
   3   0  14    1.05    0.38 
  -4   0 -14    0.33    0.31 
  -4   0 -14    0.00    0.30 
  -4   0 -14    0.44    0.29 
   4   0  14   -0.05    0.32 
  -5   0 -14   -0.11    0.31 
   5   0  14   -0.25    0.33 
  -3   1  14    0.82    0.30 
  -3   1  14    1.20    0.37 
  -3   1  14    1.13    0.37 
   2  -1 -14    3.48    0.58 
   2  -1 -14    3.84    0.36 
   2  -1 -14    3.30    0.33 
  -2   1  14    2.89    0.46 
  -2   1  14    3.49    0.50 
  -2   1  14    4.42    0.56 
   1  -1 -14    0.73    0.30 
   1  -1 -14    1.23    0.22 
  -1   1  14    1.53    0.36 
  -1   1  14    1.22    0.35 
  -1   1  14    0.99    0.27 
   0  -1 -14    0.17    0.29 
   0  -1 -14    0.08    0.19 
   0   1  14    0.05    0.29 
   0   1  14   -0.06    0.31 
   0   1  14   -0.38    0.25 
  -1  -1 -14    1.30    0.37 
  -1  -1 -14    0.56    0.29 
   1   1  14    0.66    0.27 
   1   1  14    1.29    0.37 
   1   1  14    0.86    0.40 
  -2  -1 -14    0.88    0.31 
  -2  -1 -14    0.79    0.28 
  -2  -1 -14    0.66    0.25 
   2   1  14    0.42    0.28 
   2   1  14    0.97    0.32 
   2   1  14    0.86    0.35 
  -3  -1 -14    0.99    0.28 
  -3  -1 -14    1.01    0.30 
  -3  -1 -14    0.82    0.30 
   3   1  14    1.31    0.36 
   3   1  14    1.29    0.32 
   3   1  14    1.23    0.32 
  -4  -1 -14    1.77    0.35 
  -4  -1 -14    1.28    0.32 
  -4  -1 -14    1.33    0.33 
   4   1  14    2.43    0.42 
   4   1  14    1.87    0.39 
  -5  -1 -14    0.05    0.31 
  -5  -1 -14    0.30    0.32 
   5   1  14    0.17    0.32 
   5   1  14    1.27    0.43 
   2  -2 -14    2.66    0.40 
   1  -2 -14    0.11    0.19 
   1  -2 -14    0.29    0.32 
  -1   2  14   -0.12    0.27 
  -1   2  14   -0.07    0.26 
   0  -2 -14    0.31    0.30 
   0  -2 -14    0.06    0.24 
   0  -2 -14    0.05    0.26 
   0   2  14    0.10    0.31 
   0   2  14   -0.06    0.30 
   0   2  14    0.30    0.27 
  -1  -2 -14    0.45    0.29 
  -1  -2 -14    0.75    0.27 
   1   2  14    0.41    0.27 
   1   2  14    0.41    0.33 
   1   2  14    0.62    0.33 
  -2  -2 -14    1.25    0.27 
  -2  -2 -14    1.04    0.30 
   2   2  14    0.97    0.29 
   2   2  14    1.70    0.35 
   2   2  14    1.33    0.36 
  -3  -2 -14   -0.12    0.26 
  -3  -2 -14    0.43    0.33 
  -3  -2 -14    0.16    0.30 
   3   2  14    0.39    0.36 
   3   2  14   -0.14    0.30 
   3   2  14    0.06    0.27 
  -4  -2 -14    1.13    0.30 
  -4  -2 -14    0.98    0.33 
  -4  -2 -14    1.00    0.33 
   4   2  14    1.13    0.33 
   4   2  14    0.72    0.46 
   4   2  14    1.40    0.42 
  -5  -2 -14    0.32    0.32 
  -5  -2 -14    0.09    0.30 
   5   2  14    0.87    0.41 
   5   2  14   -0.15    0.31 
   2  -3 -14    1.65    0.31 
   2  -3 -14    1.27    0.30 
  -2   3  14    1.45    0.39 
  -2   3  14    1.04    0.34 
   1  -3 -14    0.26    0.28 
  -1   3  14    0.03    0.32 
  -1   3  14    0.41    0.34 
  -1   3  14    0.73    0.34 
   0  -3 -14    0.55    0.25 
   0  -3 -14    0.17    0.34 
   0  -3 -14    0.52    0.33 
   0   3  14    0.03    0.28 
   0   3  14    0.27    0.28 
   0   3  14    0.56    0.31 
  -1  -3 -14    0.44    0.26 
  -1  -3 -14   -0.07    0.28 
  -1  -3 -14    0.13    0.31 
   1   3  14    0.45    0.29 
   1   3  14    0.14    0.26 
   1   3  14    0.24    0.28 
  -2  -3 -14    3.79    0.56 
  -2  -3 -14    3.79    0.49 
  -2  -3 -14    4.24    0.48 
   2   3  14    3.40    0.56 
   2   3  14    3.37    0.49 
   2   3  14    3.45    0.40 
  -3  -3 -14    2.00    0.31 
  -3  -3 -14    1.72    0.33 
  -3  -3 -14    2.36    0.37 
   3   3  14    2.31    0.37 
   3   3  14    1.79    0.33 
   3   3  14    2.13    0.35 
  -4  -3 -14    0.32    0.29 
  -4  -3 -14    0.00    0.27 
  -4  -3 -14    0.26    0.40 
   4   3  14    0.61    0.33 
   4   3  14    0.54    0.32 
  -5  -3 -14    0.39    0.34 
  -5  -3 -14    0.28    0.30 
   5   3  14    0.80    0.36 
   5   3  14    0.12    0.32 
   1  -4 -14   -0.17    0.29 
   1  -4 -14    0.01    0.35 
  -1   4  14    0.03    0.36 
  -1   4  14   -0.28    0.31 
   0  -4 -14    0.42    0.29 
   0  -4 -14    1.44    0.38 
   0   4  14    1.04    0.34 
   0   4  14    0.81    0.32 
  -1  -4 -14    3.75    0.49 
   1   4  14    3.14    0.43 
   1   4  14    2.68    0.39 
  -2  -4 -14    0.65    0.40 
  -2  -4 -14    0.02    0.29 
  -2  -4 -14    1.06    0.32 
   2   4  14    0.36    0.29 
   2   4  14    0.39    0.29 
  -3  -4 -14    0.05    0.29 
  -3  -4 -14   -0.56    0.30 
   3   4  14    0.11    0.29 
   3   4  14    0.61    0.37 
  -4  -4 -14    0.16    0.30 
  -4  -4 -14   -0.14    0.29 
   4   4  14    0.06    0.32 
   4   4  14   -0.10    0.30 
  -5  -4 -14    1.13    0.34 
  -5  -4 -14    1.03    0.33 
   5   4  14    1.55    0.38 
   5   4  14    2.20    0.39 
   0  -5 -14    0.32    0.32 
   0  -5 -14    0.92    0.31 
  -1  -5 -14    0.77    0.31 
  -1  -5 -14   -0.14    0.35 
   1   5  14    0.99    0.34 
   1   5  14    1.51    0.37 
  -2  -5 -14    0.87    0.30 
   2   5  14    0.58    0.33 
   2   5  14    0.78    0.33 
  -3  -5 -14   -0.31    0.28 
   3   5  14    0.17    0.31 
   3   5  14    0.31    0.32 
   4   5  14    0.41    0.32 
   4   5  14    0.71    0.35 
  -5  -5 -14   -0.08    0.34 
   5   5  14    0.49    0.36 
   5   5  14    0.64    0.32 
  -3  -6 -14    1.05    0.34 
   3   6  14    0.66    0.38 
   3   6  14    1.33    0.57 
  -1  -4  15    0.94    0.32 
  -1  -4  15    0.63    0.32 
   0  -4  15    0.27    0.31 
  -2  -3  15    1.00    0.35 
  -2  -3  15    0.58    0.35 
  -2  -3  15   -0.19    0.30 
  -1  -3  15    0.51    0.32 
  -1  -3  15    0.50    0.32 
  -1  -3  15    0.34    0.30 
   0  -3  15    2.08    0.35 
   0  -3  15    2.14    0.34 
   0  -3  15    1.57    0.45 
  -1   3 -15    0.12    0.27 
   1  -3  15    1.06    0.34 
   1  -3  15    0.30    0.32 
  -3  -2  15    0.05    0.35 
  -2  -2  15    0.90    0.36 
  -2  -2  15    0.16    0.31 
  -2  -2  15   -0.44    0.28 
   1   2 -15   -0.08    0.16 
   1   2 -15   -0.02    0.17 
  -1  -2  15    0.41    0.32 
  -1  -2  15    0.07    0.31 
  -1  -2  15    0.25    0.31 
   0   2 -15    0.81    0.24 
   0  -2  15    1.51    0.34 
   0  -2  15    1.14    0.33 
   0  -2  15    0.77    0.33 
  -1   2 -15    0.00    0.26 
   1  -2  15   -0.04    0.33 
   1  -2  15    0.07    0.30 
   1  -2  15    0.74    0.34 
  -2   2 -15    0.60    0.38 
  -2   2 -15    0.78    0.31 
   2  -2  15    0.23    0.32 
   2  -2  15    0.81    0.35 
  -2  -1  15   -0.33    0.28 
  -2  -1  15    0.68    0.36 
  -2  -1  15    0.41    0.32 
   1   1 -15    0.38    0.20 
   1   1 -15    0.16    0.18 
  -1  -1  15    0.36    0.29 
  -1  -1  15    0.28    0.33 
  -1  -1  15    0.45    0.32 
   0   1 -15    0.90    0.23 
   0  -1  15    0.65    0.30 
   0  -1  15    0.69    0.29 
   0  -1  15    0.53    0.33 
  -1   1 -15    2.16    0.32 
   1  -1  15    2.22    0.36 
   1  -1  15    1.66    0.36 
   1  -1  15    1.71    0.35 
  -2   1 -15    0.91    0.30 
  -2   1 -15    1.14    0.34 
   2  -1  15    1.07    0.34 
   2  -1  15    0.79    0.34 
  -3   1 -15    0.35    0.30 
  -3   1 -15   -0.04    0.31 
   3  -1  15    0.50    0.33 
   3  -1  15    0.37    0.33 
  -2   0  15   -0.16    0.28 
  -2   0  15    0.10    0.34 
  -2   0  15   -0.27    0.31 
   1   0 -15    0.29    0.24 
  -1   0  15    0.01    0.31 
  -1   0  15   -0.30    0.28 
  -1   0  15    0.07    0.33 
   0   0  15    0.01    0.27 
   0   0  15   -0.18    0.30 
   0   0  15    0.08    0.29 
  -1   0 -15   -0.05    0.35 
   1   0  15   -0.10    0.27 
   1   0  15    0.22    0.28 
   1   0  15    0.16    0.29 
  -2   0 -15    0.38    0.31 
  -2   0 -15    0.56    0.39 
  -2   0 -15    0.51    0.26 
   2   0  15    0.53    0.32 
   2   0  15    0.53    0.31 
  -3   0 -15    0.26    0.35 
  -3   0 -15    0.43    0.32 
  -3   0 -15    0.02    0.27 
   3   0  15    0.41    0.33 
   3   0  15    0.75    0.32 
  -4   0 -15   -0.55    0.31 
  -4   0 -15   -0.08    0.55 
   4   0  15   -0.10    0.32 
   4   0  15   -0.13    0.30 
   2  -1 -15    0.40    0.23 
  -2   1  15   -0.25    0.30 
  -2   1  15   -0.02    0.33 
  -2   1  15    0.53    0.34 
   1  -1 -15    0.22    0.21 
  -1   1  15    0.24    0.28 
  -1   1  15    0.06    0.27 
  -1   1  15   -0.23    0.30 
   0  -1 -15    0.44    0.28 
   0  -1 -15    0.61    0.25 
   0   1  15    0.55    0.30 
   0   1  15    0.37    0.31 
   0   1  15    0.22    0.31 
  -1  -1 -15    1.09    0.27 
  -1  -1 -15    0.64    0.34 
  -1  -1 -15    1.49    0.37 
   1   1  15    0.97    0.36 
   1   1  15    0.70    0.30 
   1   1  15    0.96    0.32 
  -2  -1 -15   -0.44    0.32 
  -2  -1 -15   -0.43    0.30 
  -2  -1 -15   -0.28    0.25 
   2   1  15   -0.41    0.27 
   2   1  15    0.25    0.46 
   2   1  15   -0.06    0.31 
  -3  -1 -15    0.67    0.34 
  -3  -1 -15    0.49    0.28 
  -3  -1 -15    1.08    0.32 
   3   1  15    0.74    0.33 
   3   1  15    0.78    0.32 
  -4  -1 -15    1.38    0.38 
  -4  -1 -15    1.76    0.38 
   4   1  15    1.36    0.41 
   4   1  15    1.53    0.34 
   1  -2 -15    1.13    0.30 
   1  -2 -15    0.78    0.27 
  -1   2  15    0.97    0.33 
  -1   2  15    0.71    0.33 
   0  -2 -15    0.09    0.28 
   0   2  15    0.11    0.31 
   0   2  15   -0.06    0.30 
  -1  -2 -15   -0.24    0.34 
  -1  -2 -15   -0.24    0.25 
   1   2  15   -0.72    0.33 
   1   2  15   -0.62    0.27 
   1   2  15   -0.05    0.33 
  -2  -2 -15    0.51    0.27 
   2   2  15    0.41    0.32 
   2   2  15    0.18    0.31 
  -3  -2 -15    1.16    0.32 
  -3  -2 -15    1.06    0.33 
  -3  -2 -15    1.11    0.53 
   3   2  15    0.60    0.33 
   3   2  15    1.24    0.34 
  -4  -2 -15    0.10    0.31 
  -4  -2 -15    0.29    0.38 
   4   2  15   -0.23    0.28 
   4   2  15   -0.18    0.32 
   0  -3 -15    0.46    0.38 
   0  -3 -15    0.44    0.28 
   0   3  15    0.40    0.31 
   0   3  15    0.48    0.31 
  -1  -3 -15    0.86    0.39 
   1   3  15    0.40    0.32 
   1   3  15   -0.09    0.31 
  -2  -3 -15    1.00    0.33 
  -2  -3 -15    0.78    0.28 
   2   3  15    0.79    0.33 
   2   3  15    0.95    0.33 
  -3  -3 -15    0.64    0.30 
   3   3  15    0.55    0.31 
   3   3  15    0.33    0.33 
  -4  -3 -15    1.99    0.38 
   4   3  15    1.54    0.36 
   4   3  15    1.63    0.38 
  -1  -4 -15    0.33    0.32 
  -1  -4 -15   -0.08    0.33 
   1   4  15    0.22    0.31 
   1   4  15    0.10    0.39 
  -2  -4 -15    0.50    0.33 
   2   4  15    0.20    0.33 
   2   4  15    0.86    0.34 
  -3  -4 -15    0.57    0.34 
   3   4  15    0.34    0.31 
   3   4  15    0.24    0.41 
  -4  -4 -15    0.43    0.34 
   4   4  15    0.30    0.37 
   4   4  15   -0.02    0.32 
   0   2 -16    0.63    0.26 
   0  -2  16    0.50    0.33 
  -1  -1  16   -0.03    0.31 
  -1  -1  16    0.26    0.44 
   0  -1  16    0.69    0.34 
   0  -1  16    0.61    0.36 
  -1   1 -16    0.03    0.28 
   1  -1  16    0.25    0.35 
   1  -1  16   -0.13    0.30 
  -2   1 -16   -0.22    0.29 
  -1   0  16   -0.13    0.34 
   0   0 -16   -0.09    0.26 
   0   0 -16   -0.33    0.29 
   0   0  16   -0.32    0.36 
   0   0  16   -0.16    0.32 
  -1   0 -16    0.38    0.34 
  -1   0 -16    0.08    0.27 
   1   0  16    0.06    0.28 
   1   0  16   -0.61    0.30 
  -2   0 -16    0.15    0.30 
  -2   0 -16    1.11    0.36 
   2   0  16    0.37    0.35 
   2   0  16    0.65    0.35 
   0  -1 -16    0.94    0.32 
   0   1  16    1.12    0.41 
   0   1  16    0.68    0.33 
  -1  -1 -16    0.35    0.27 
  -1  -1 -16   -0.02    0.36 
   1   1  16    0.46    0.37 
   1   1  16    0.60    0.33 
  -2  -1 -16    1.02    0.30 
   2   1  16    1.10    0.37 
   2   1  16    1.21    0.36 
   3   1  16   -0.20    0.33 
  -1  -2 -16    0.98    0.42 
  -1  -2 -16    0.21    0.30 
   1   2  16    0.64    0.35 
   1   2  16   -0.24    0.43 
  -2  -2 -16    1.50    0.37 
  -2  -2 -16    0.99    0.32 
   2   2  16    1.45    0.37 
   2   2  16    0.95    0.35 
   0   0   0    0.00    0.00 
;
_shelx_hkl_checksum              59219
loop_
_space_group_symop_operation_xyz
'x, y, z'
'-x, -y, -z'
loop_
_atom_site_label
_atom_site_type_symbol
_atom_site_fract_x
_atom_site_fract_y
_atom_site_fract_z
_atom_site_U_iso_or_equiv
_atom_site_adp_type
_atom_site_occupancy
_atom_site_site_symmetry_order
_atom_site_calc_flag
_atom_site_refinement_flags_posn
_atom_site_refinement_flags_adp
S1 S 0.26939(15) 0.72177(13) 0.38550(9) 0.0700(3) Uani 1 1 d . .
O1 O 0.2171(4) 1.0766(4) 0.32362(18) 0.0758(8) Uani 1 1 d . .
H1A H 0.2236 0.9811 0.3185 0.16(3) Uiso 1 1 calc R .
C1 C 0.2752(4) 0.8168(4) 0.4895(2) 0.0425(7) Uani 1 1 d . .
C2 C 0.3026(6) 0.7398(5) 0.5941(3) 0.0610(9) Uani 1 1 d . .
H2B H 0.4253 0.6393 0.5932 0.073 Uiso 1 1 calc R U
H2C H 0.1994 0.7077 0.6157 0.073 Uiso 1 1 calc R U
C3 C 0.2994(6) 0.8731(5) 0.6661(3) 0.0641(10) Uani 1 1 d . .
H3A H 0.1955 0.9006 0.7203 0.077 Uiso 1 1 calc R U
H3B H 0.4214 0.8340 0.6963 0.077 Uiso 1 1 calc R U
C4 C 0.2666(4) 1.0250(4) 0.5995(2) 0.0432(7) Uani 1 1 d . .
C5 C 0.2502(5) 1.1823(5) 0.6252(3) 0.0615(10) Uani 1 1 d . .
H5A H 0.2588 1.2081 0.6921 0.074 Uiso 1 1 calc R U
C6 C 0.2206(5) 1.3015(5) 0.5488(4) 0.0697(12) Uani 1 1 d . .
H6A H 0.2086 1.4083 0.5658 0.084 Uiso 1 1 calc R U
C7 C 0.2083(5) 1.2680(4) 0.4497(3) 0.0646(10) Uani 1 1 d . .
H7A H 0.1881 1.3514 0.4007 0.077 Uiso 1 1 calc R U
C8 C 0.2259(4) 1.1094(4) 0.4217(2) 0.0473(7) Uani 1 1 d . .
C9 C 0.2541(4) 0.9873(3) 0.4985(2) 0.0335(6) Uani 1 1 d . .
S2 S 0.51053(15) 0.18842(12) -0.11841(8) 0.0661(3) Uani 1 1 d . .
O2 O 0.2169(5) 0.5151(4) -0.20461(19) 0.0709(8) Uani 1 1 d . .
H2A H 0.311(8) 0.410(7) -0.201(4) 0.11(2) Uiso 1 1 d . .
C10 C 0.4032(4) 0.3177(4) -0.0204(2) 0.0393(6) Uani 1 1 d . .
C11 C 0.4459(5) 0.2774(4) 0.0885(3) 0.0523(8) Uani 1 1 d . .
H11A H 0.5799 0.2509 0.0963 0.063 Uiso 1 1 calc R U
H11B H 0.4227 0.1806 0.1104 0.063 Uiso 1 1 calc R U
C12 C 0.3108(6) 0.4348(5) 0.1517(2) 0.0588(9) Uani 1 1 d . .
H12A H 0.2262 0.4090 0.2014 0.071 Uiso 1 1 calc R U
H12B H 0.3840 0.4792 0.1874 0.071 Uiso 1 1 calc R U
C13 C 0.1958(4) 0.5599(4) 0.0748(2) 0.0430(7) Uani 1 1 d . .
C14 C 0.0528(5) 0.7236(5) 0.0886(3) 0.0605(9) Uani 1 1 d . .
H14A H 0.0145 0.7738 0.1534 0.073 Uiso 1 1 calc R U
C15 C -0.0331(5) 0.8121(4) 0.0032(4) 0.0650(11) Uani 1 1 d . .
H15A H -0.1306 0.9222 0.0123 0.078 Uiso 1 1 calc R U
C16 C 0.0202(5) 0.7437(4) -0.0938(3) 0.0583(10) Uani 1 1 d . .
H16A H -0.0406 0.8069 -0.1489 0.070 Uiso 1 1 calc R U
C17 C 0.1642(4) 0.5806(4) -0.1093(2) 0.0445(7) Uani 1 1 d . .
C18 C 0.2527(4) 0.4882(3) -0.0235(2) 0.0331(6) Uani 1 1 d . .
loop_
_atom_site_aniso_label
_atom_site_aniso_U_11
_atom_site_aniso_U_22
_atom_site_aniso_U_33
_atom_site_aniso_U_23
_atom_site_aniso_U_13
_atom_site_aniso_U_12
S1 0.0630(6) 0.0634(6) 0.0811(7) -0.0305(5) -0.0004(5) -0.0246(5)
O1 0.086(2) 0.080(2) 0.0401(14) 0.0138(12) -0.0130(13) -0.0156(15)
C1 0.0273(14) 0.0415(16) 0.0539(18) -0.0033(13) 0.0007(12) -0.0112(12)
C2 0.058(2) 0.049(2) 0.072(2) 0.0159(17) -0.0034(18) -0.0217(17)
C3 0.064(2) 0.087(3) 0.0423(19) 0.0150(18) -0.0088(16) -0.033(2)
C4 0.0305(14) 0.0548(18) 0.0411(16) -0.0027(13) -0.0019(12) -0.0157(13)
C5 0.051(2) 0.071(2) 0.065(2) -0.027(2) 0.0009(17) -0.0282(18)
C6 0.049(2) 0.043(2) 0.114(4) -0.021(2) 0.009(2) -0.0191(16)
C7 0.053(2) 0.0376(18) 0.089(3) 0.0183(18) 0.0031(19) -0.0100(16)
C8 0.0379(16) 0.0438(17) 0.0480(18) 0.0086(14) -0.0018(13) -0.0073(13)
C9 0.0236(12) 0.0352(14) 0.0371(14) -0.0008(11) -0.0004(10) -0.0089(11)
S2 0.0630(6) 0.0524(5) 0.0745(7) -0.0160(5) 0.0100(5) -0.0193(5)
O2 0.094(2) 0.084(2) 0.0404(14) 0.0158(13) -0.0161(13) -0.0425(19)
C10 0.0369(15) 0.0381(15) 0.0508(17) 0.0037(12) -0.0051(12) -0.0235(13)
C11 0.057(2) 0.0490(19) 0.062(2) 0.0177(16) -0.0242(16) -0.0295(16)
C12 0.076(2) 0.072(2) 0.0392(17) 0.0051(16) -0.0154(16) -0.041(2)
C13 0.0475(17) 0.0437(16) 0.0477(17) -0.0010(13) -0.0034(13) -0.0289(14)
C14 0.055(2) 0.052(2) 0.076(3) -0.0205(18) 0.0088(18) -0.0269(17)
C15 0.0431(19) 0.0341(17) 0.119(4) 0.003(2) -0.007(2) -0.0182(15)
C16 0.0498(19) 0.0470(19) 0.088(3) 0.0318(19) -0.0252(18) -0.0283(16)
C17 0.0461(17) 0.0486(18) 0.0485(18) 0.0156(14) -0.0118(13) -0.0292(15)
C18 0.0342(14) 0.0323(13) 0.0401(15) 0.0056(11) -0.0060(11) -0.0210(11)
loop_
_atom_type_symbol
_atom_type_description
_atom_type_scat_dispersion_real
_atom_type_scat_dispersion_imag
_atom_type_scat_source
C C 0.0033 0.0016 'International Tables Vol C Tables 4.2.6.8 and 6.1.1.4'
H H 0.0000 0.0000 'International Tables Vol C Tables 4.2.6.8 and 6.1.1.4'
O O 0.0106 0.0060 'International Tables Vol C Tables 4.2.6.8 and 6.1.1.4'
S S 0.1246 0.1234 'International Tables Vol C Tables 4.2.6.8 and 6.1.1.4'
loop_
_geom_angle_atom_site_label_1
_geom_angle_atom_site_label_2
_geom_angle_atom_site_label_3
_geom_angle
C8 O1 H1A 109.5
C9 C1 C2 107.6(3)
C9 C1 S1 126.8(2)
C2 C1 S1 125.5(3)
C1 C2 C3 107.0(3)
C1 C2 H2B 110.3
C3 C2 H2B 110.3
C1 C2 H2C 110.3
C3 C2 H2C 110.3
H2B C2 H2C 108.6
C4 C3 C2 104.5(3)
C4 C3 H3A 110.8
C2 C3 H3A 110.8
C4 C3 H3B 110.8
C2 C3 H3B 110.8
H3A C3 H3B 108.9
C5 C4 C9 120.4(3)
C5 C4 C3 129.6(3)
C9 C4 C3 110.1(3)
C4 C5 C6 118.4(3)
C4 C5 H5A 120.8
C6 C5 H5A 120.8
C7 C6 C5 122.5(3)
C7 C6 H6A 118.8
C5 C6 H6A 118.8
C6 C7 C8 120.2(3)
C6 C7 H7A 119.9
C8 C7 H7A 119.9
O1 C8 C7 119.8(3)
O1 C8 C9 122.1(3)
C7 C8 C9 118.1(3)
C4 C9 C8 120.5(3)
C4 C9 C1 110.8(3)
C8 C9 C1 128.8(3)
C17 O2 H2A 108(3)
C18 C10 C11 108.2(3)
C18 C10 S2 126.4(2)
C11 C10 S2 125.4(2)
C10 C11 C12 106.6(3)
C10 C11 H11A 110.4
C12 C11 H11A 110.4
C10 C11 H11B 110.4
C12 C11 H11B 110.4
H11A C11 H11B 108.6
C13 C12 C11 104.6(3)
C13 C12 H12A 110.8
C11 C12 H12A 110.8
C13 C12 H12B 110.8
C11 C12 H12B 110.8
H12A C12 H12B 108.9
C14 C13 C18 119.8(3)
C14 C13 C12 130.1(3)
C18 C13 C12 110.1(3)
C13 C14 C15 118.4(3)
C13 C14 H14A 120.8
C15 C14 H14A 120.8
C16 C15 C14 122.7(3)
C16 C15 H15A 118.6
C14 C15 H15A 118.6
C15 C16 C17 119.7(3)
C15 C16 H16A 120.1
C17 C16 H16A 120.1
O2 C17 C16 119.3(3)
O2 C17 C18 122.2(3)
C16 C17 C18 118.5(3)
C13 C18 C17 121.0(3)
C13 C18 C10 110.5(3)
C17 C18 C10 128.5(3)
loop_
_geom_bond_atom_site_label_1
_geom_bond_atom_site_label_2
_geom_bond_distance
S1 C1 1.634(3)
O1 C8 1.343(4)
O1 H1A 0.8200
C1 C9 1.436(4)
C1 C2 1.505(5)
C2 C3 1.513(5)
C2 H2B 0.9700
C2 H2C 0.9700
C3 C4 1.510(5)
C3 H3A 0.9700
C3 H3B 0.9700
C4 C5 1.375(5)
C4 C9 1.398(4)
C5 C6 1.387(6)
C5 H5A 0.9300
C6 C7 1.363(6)
C6 H6A 0.9300
C7 C8 1.391(5)
C7 H7A 0.9300
C8 C9 1.409(4)
S2 C10 1.640(3)
O2 C17 1.343(4)
O2 H2A 0.89(5)
C10 C18 1.439(4)
C10 C11 1.497(4)
C11 C12 1.524(5)
C11 H11A 0.9700
C11 H11B 0.9700
C12 C13 1.506(5)
C12 H12A 0.9700
C12 H12B 0.9700
C13 C14 1.379(5)
C13 C18 1.397(4)
C14 C15 1.394(6)
C14 H14A 0.9300
C15 C16 1.372(6)
C15 H15A 0.9300
C16 C17 1.380(5)
C16 H16A 0.9300
C17 C18 1.416(4)
loop_
_geom_torsion_atom_site_label_1
_geom_torsion_atom_site_label_2
_geom_torsion_atom_site_label_3
_geom_torsion_atom_site_label_4
_geom_torsion
C9 C1 C2 C3 -0.7(4)
S1 C1 C2 C3 179.6(2)
C1 C2 C3 C4 0.9(4)
C2 C3 C4 C5 179.6(3)
C2 C3 C4 C9 -0.7(4)
C9 C4 C5 C6 0.2(5)
C3 C4 C5 C6 179.8(3)
C4 C5 C6 C7 -0.4(5)
C5 C6 C7 C8 -0.1(6)
C6 C7 C8 O1 -178.8(3)
C6 C7 C8 C9 0.8(5)
C5 C4 C9 C8 0.4(4)
C3 C4 C9 C8 -179.2(3)
C5 C4 C9 C1 180.0(3)
C3 C4 C9 C1 0.3(3)
O1 C8 C9 C4 178.6(3)
C7 C8 C9 C4 -0.9(4)
O1 C8 C9 C1 -0.8(5)
C7 C8 C9 C1 179.6(3)
C2 C1 C9 C4 0.3(3)
S1 C1 C9 C4 179.9(2)
C2 C1 C9 C8 179.8(3)
S1 C1 C9 C8 -0.6(4)
C18 C10 C11 C12 0.1(3)
S2 C10 C11 C12 -179.8(2)
C10 C11 C12 C13 -0.2(3)
C11 C12 C13 C14 -179.8(3)
C11 C12 C13 C18 0.2(3)
C18 C13 C14 C15 0.9(5)
C12 C13 C14 C15 -179.1(3)
C13 C14 C15 C16 -0.7(5)
C14 C15 C16 C17 0.1(5)
C15 C16 C17 O2 -179.3(3)
C15 C16 C17 C18 0.2(4)
C14 C13 C18 C17 -0.6(4)
C12 C13 C18 C17 179.4(3)
C14 C13 C18 C10 179.9(3)
C12 C13 C18 C10 -0.1(3)
O2 C17 C18 C13 179.6(3)
C16 C17 C18 C13 0.0(4)
O2 C17 C18 C10 -1.0(5)
C16 C17 C18 C10 179.5(3)
C11 C10 C18 C13 0.0(3)
S2 C10 C18 C13 179.9(2)
C11 C10 C18 C17 -179.5(3)
S2 C10 C18 C17 0.4(4)
