#------------------------------------------------------------------------------
#$Date: 2019-11-03 13:38:51 +0200 (Sun, 03 Nov 2019) $
#$Revision: 221544 $
#$URL: file:///home/coder/svn-repositories/cod/cif/4/12/84/4128440.cif $
#------------------------------------------------------------------------------
#
# This file is available in the Crystallography Open Database (COD),
# http://www.crystallography.net/
#
# All data on this site have been placed in the public domain by the
# contributors.
#
data_4128440
loop_
_publ_author_name
'Li, Weipeng'
'Yuan, Dandan'
'Wang, Guoqiang'
'Zhao, Yue'
'Xie, Jin'
'Li, Shuhua'
'Zhu, Chengjian'
_publ_section_title
;
 Cooperative Au/Ag Dual-Catalyzed Cross-Dehydrogenative Biaryl Coupling:
 Reaction Development and Mechanistic Insight.
;
_journal_issue                   7
_journal_name_full               'Journal of the American Chemical Society'
_journal_page_first              3187
_journal_page_last               3197
_journal_paper_doi               10.1021/jacs.8b12929
_journal_volume                  141
_journal_year                    2019
_chemical_formula_sum            'C11 H11 Au Cl2 N4'
_chemical_formula_weight         467.10
_space_group_crystal_system      triclinic
_space_group_IT_number           2
_space_group_name_Hall           '-P 1'
_space_group_name_H-M_alt        'P -1'
_atom_sites_solution_hydrogens   geom
_audit_creation_method           SHELXL-2018/3
_cell_angle_alpha                66.667(2)
_cell_angle_beta                 86.471(3)
_cell_angle_gamma                89.021(2)
_cell_formula_units_Z            2
_cell_length_a                   6.5749(7)
_cell_length_b                   9.8918(9)
_cell_length_c                   11.4738(12)
_cell_measurement_reflns_used    3810
_cell_measurement_temperature    293(2)
_cell_measurement_theta_max      27.55
_cell_measurement_theta_min      3.11
_cell_volume                     683.88(12)
_computing_structure_refinement  'SHELXL-2018/3 (Sheldrick, 2018)'
_diffrn_ambient_temperature      293(2)
_diffrn_measured_fraction_theta_full 0.975
_diffrn_measured_fraction_theta_max 0.975
_diffrn_measurement_device_type  'Bruker APEX-II CCD'
_diffrn_measurement_method       '\f and \w scans'
_diffrn_radiation_type           MoK\a
_diffrn_radiation_wavelength     0.71073
_diffrn_reflns_av_R_equivalents  0.0609
_diffrn_reflns_av_unetI/netI     0.0607
_diffrn_reflns_Laue_measured_fraction_full 0.975
_diffrn_reflns_Laue_measured_fraction_max 0.975
_diffrn_reflns_limit_h_max       7
_diffrn_reflns_limit_h_min       -7
_diffrn_reflns_limit_k_max       11
_diffrn_reflns_limit_k_min       -10
_diffrn_reflns_limit_l_max       13
_diffrn_reflns_limit_l_min       0
_diffrn_reflns_number            2982
_diffrn_reflns_point_group_measured_fraction_full 0.975
_diffrn_reflns_point_group_measured_fraction_max 0.975
_diffrn_reflns_theta_full        25.004
_diffrn_reflns_theta_max         25.004
_diffrn_reflns_theta_min         3.104
_exptl_absorpt_coefficient_mu    11.133
_exptl_absorpt_correction_T_max  0.4517
_exptl_absorpt_correction_T_min  0.2451
_exptl_absorpt_correction_type   multi-scan
_exptl_absorpt_process_details   sadabs
_exptl_crystal_colour
;
;
_exptl_crystal_density_diffrn    2.268
_exptl_crystal_description       block
_exptl_crystal_F_000             436
_exptl_crystal_size_max          0.260
_exptl_crystal_size_mid          0.230
_exptl_crystal_size_min          0.080
_refine_diff_density_max         2.639
_refine_diff_density_min         -4.571
_refine_diff_density_rms         0.344
_refine_ls_extinction_coef       0.044(9)
_refine_ls_extinction_expression Fc^*^=kFc[1+0.001xFc^2^\l^3^/sin(2\q)]^-1/4^
_refine_ls_extinction_method     'SHELXL-2018/3 (Sheldrick 2018)'
_refine_ls_goodness_of_fit_ref   1.077
_refine_ls_hydrogen_treatment    constr
_refine_ls_matrix_type           full
_refine_ls_number_parameters     172
_refine_ls_number_reflns         2354
_refine_ls_number_restraints     30
_refine_ls_restrained_S_all      1.143
_refine_ls_R_factor_all          0.0862
_refine_ls_R_factor_gt           0.0846
_refine_ls_shift/su_max          0.002
_refine_ls_shift/su_mean         0.000
_refine_ls_structure_factor_coef Fsqd
_refine_ls_weighting_details
'w=1/[\s^2^(Fo^2^)+(0.1633P)^2^+8.1630P] where P=(Fo^2^+2Fc^2^)/3'
_refine_ls_weighting_scheme      calc
_refine_ls_wR_factor_gt          0.2274
_refine_ls_wR_factor_ref         0.2288
_reflns_Friedel_coverage         0.000
_reflns_number_gt                2245
_reflns_number_total             2354
_reflns_threshold_expression     'I > 2\s(I)'
_cod_data_source_file            ja8b12929_si_002.cif
_cod_data_source_block           20180313XJ_0m_5
_cod_database_code               4128440
_shelx_shelxl_version_number     2018/3
_shelx_space_group_comment
;
The symmetry employed for this shelxl refinement is uniquely defined
by the following loop, which should always be used as a source of
symmetry information in preference to the above space-group names.
They are only intended as comments.
;
_shelx_estimated_absorpt_t_min   0.160
_shelx_estimated_absorpt_t_max   0.470
_shelx_res_file
;
TITL 20180313XJ_0m_4_b.res in P1      New: P-1
    20180313XJ_0m_5.res
    created by SHELXL-2018/3 at 09:56:34 on 07-Sep-2018
CELL  0.71073    6.5749    9.8918   11.4738    66.667    86.471    89.021
ZERR        2    0.0007    0.0009    0.0012     0.002     0.003     0.002
LATT 1
SFAC C  H  Au Cl N  O
UNIT 22 22 2 4 8 0
OMIT  -3.00  50.02
L.S. 20
ACTA
BOND $H
FMAP 2
PLAN 0
CONF
isor .001 c8 n3
isor .01 $Au
WGHT    0.163300    8.163001
EXTI    0.043933
FVAR       0.79710
RESI 0
size .26 .23 .08
PART 1
AU1   3    0.240604    0.281004    0.126792    10.75000    0.04187    0.02464 =
         0.04313   -0.01136   -0.00333    0.00182
PART 0
CL1   4    0.221548    0.103267    0.337882    11.00000    0.09157    0.04535 =
         0.06599   -0.00875   -0.00236    0.00016
CL2   4    0.256635    0.108539    0.043065    11.00000    0.11574    0.04175 =
         0.07981   -0.02981   -0.00296    0.00154
N2    5    0.274778    0.616092   -0.235644    11.00000    0.07847    0.05780 =
         0.05216   -0.02083   -0.00458    0.00257
C8    1    0.270733    0.465186   -0.171640    11.00000    0.06212    0.06197 =
         0.06208   -0.02457   -0.00384    0.00039
AFIX  43
H8    2    0.277022    0.394674   -0.206420    11.00000   -1.20000
AFIX  66
N1    5    0.230905    0.459173    0.175932    11.00000    0.07941    0.03682 =
         0.04453   -0.00995   -0.00830    0.00460
C1    1    0.218339    0.449197    0.300459    11.00000    0.07783    0.04524 =
         0.06696   -0.02072   -0.00185   -0.00324
AFIX  43
H1    2    0.212585    0.357375    0.367783    11.00000   -1.20000
AFIX  65
C2    1    0.214373    0.576458    0.324362    11.00000    0.09781    0.06363 =
         0.06293   -0.03669   -0.00616    0.00073
AFIX  43
H2    2    0.205965    0.569783    0.407679    11.00000   -1.20000
AFIX  65
C3    1    0.222973    0.713697    0.223738    11.00000    0.08451    0.04319 =
         0.07000   -0.02514   -0.00488    0.00059
AFIX  43
H3    2    0.220319    0.798843    0.239732    11.00000   -1.20000
AFIX  65
C4    1    0.235539    0.723675    0.099211    11.00000    0.07264    0.03798 =
         0.07086   -0.02561   -0.00383    0.00202
AFIX  43
H4    2    0.241293    0.815497    0.031887    11.00000   -1.20000
AFIX  65
C5    1    0.239505    0.596414    0.075306    11.00000    0.05430    0.05649 =
         0.06885   -0.02999   -0.00159    0.00607
AFIX   0
C6    1    0.249350    0.582364   -0.045357    11.00000    0.06173    0.05315 =
         0.05959   -0.03297   -0.00392    0.00324
C7    1    0.255457    0.441971   -0.045893    11.00000    0.06671    0.03852 =
         0.03409   -0.01335   -0.01262    0.00246
N3    5    0.265593    0.687360   -0.163673    11.00000    0.05365    0.05263 =
         0.05278   -0.02211   -0.00277    0.00063

C9    1    0.289512    0.700306   -0.375876    11.00000    0.08918    0.04682 =
         0.06429   -0.01243    0.00045    0.00392
AFIX 137
H9A   2    0.328084    0.635198   -0.416967    11.00000   -1.50000
H9B   2    0.390163    0.776933   -0.397683    11.00000   -1.50000
H9C   2    0.159796    0.743120   -0.403455    11.00000   -1.50000
AFIX   0
N4    5    0.283160    0.324716    0.601760    11.00000    0.19370    0.05759 =
         0.04513   -0.01113   -0.00692   -0.02164
C10   1    0.277574    0.200021    0.654387    11.00000    0.11429    0.04899 =
         0.06076   -0.01810    0.00094    0.00270
C11   1    0.265575    0.044071    0.722795    11.00000    0.14523    0.03792 =
         0.12406   -0.01093    0.02437    0.00511
AFIX 137
H11A  2    0.158417    0.020361    0.788617    11.00000   -1.50000
H11B  2    0.392831    0.008638    0.760133    11.00000   -1.50000
H11C  2    0.237413   -0.001621    0.665621    11.00000   -1.50000
PART 2
AFIX   0
AU1A  3    0.389631    0.279836    0.127770    10.15000    0.22950    0.03822 =
         0.03610   -0.01874   -0.00055    0.01189
PART 3
AU1B  3    0.094121    0.282659    0.125711    10.10000    0.14230    0.04037 =
         0.03339   -0.01704    0.00103    0.00355
PART 0
HKLF 4




REM  20180313XJ_0m_4_b.res in P1      New: P-1
REM wR2 = 0.2288, GooF = S = 1.077, Restrained GooF = 1.143 for all data
REM R1 = 0.0846 for 2245 Fo > 4sig(Fo) and 0.0862 for all 2354 data
REM 172 parameters refined using 30 restraints

END

WGHT      0.1676      7.8742

REM Highest difference peak  2.639,  deepest hole -4.571,  1-sigma level  0.344
Q1    1   0.4070  0.1021  0.3407  11.00000  0.05    2.64
Q2    1   0.2725  0.7951 -0.1591  11.00000  0.05    2.47
Q3    1   0.5551  0.2620  0.1412  11.00000  0.05    2.13
Q4    1   0.2599  0.6440 -0.0978  11.00000  0.05    1.87
Q5    1  -0.0080  0.2741  0.1263  11.00000  0.05    1.83
Q6    1   0.0782  0.1170  0.0447  11.00000  0.05    1.78
Q7    1  -0.0964  0.2024  0.1589  11.00000  0.05    1.73
Q8    1   0.4425  0.1059  0.0567  11.00000  0.05    1.47
Q9    1   0.0883  0.6583 -0.1279  11.00000  0.05    1.45
Q10   1   0.0409  0.0981  0.3405  11.00000  0.05    1.32
Q11   1   0.2226  0.1145  0.1980  11.00000  0.05    1.31
Q12   1   0.3135  0.0549  0.1806  11.00000  0.05    1.10
Q13   1   0.2940 -0.0201  0.6205  11.00000  0.05    1.07
Q14   1   0.2310  0.1594  0.0975  11.00000  0.05    1.04
Q15   1   0.0703  0.6164 -0.2356  11.00000  0.05    1.01
Q16   1   0.3945  0.4443  0.1977  11.00000  0.05    0.99
Q17   1   0.2483  0.4558  0.0566  11.00000  0.05    0.99
Q18   1   0.2138  0.1996  0.4606  11.00000  0.05    0.98
Q19   1   0.3554  0.8984  0.0798  11.00000  0.05    0.97
Q20   1   0.2225  0.4644 -0.0942  11.00000  0.05    0.96
;
_shelx_res_checksum              21359
_shelx_hkl_file
;
   1   0   0 19.3714 0.82491   2
   3   0   0 144.849 9.99348   2
   5   0   0 146.594 10.7102   2
   6   0   0 1529.93 93.3663   2
   7   0   0 88.5365 7.74697   2
   8   0   0 338.199 22.1919   2
  -8   1   0 102.154 8.58183   2
  -7   1   0 332.125 21.7816   2
  -6   1   0 284.646 18.8676   2
  -5   1   0 1096.95 67.3178   2
  -3   1   0 3220.91 194.401   2
  -2   1   0 1179.54 50.5716   2
   2   1   0 424.382 12.1034   2
   3   1   0 3319.80 106.903   2
   4   1   0 17.6940 1.19845   2
   5   1   0 1297.54 54.4464   2
   6   1   0 4.16435 2.40126   2
   7   1   0 415.617 26.6892   2
   8   1   0 12.6099 3.13463   2
  -8   2   0 77.8163 7.19209   2
  -7   2   0 89.0511 7.73559   2
  -6   2   0 332.946 21.7014   2
  -5   2   0 74.0096 6.66632   2
  -4   2   0 1161.33 71.0620   2
  -3   2   0 16.5770 3.20773   2
  -2   2   0 2486.66 106.035   2
   1   2   0 376.996 10.7389   2
   1   2   0 667.055 38.4576  -1
  -1   2   0 667.055 38.4576   2
   2   2   0 2516.18 62.4973   2
   3   2   0 74.0194 2.84496   2
   4   2   0 1367.30 44.3116   2
   5   2   0 16.3631 1.96706   2
   6   2   0 548.302 23.6520   2
   7   2   0 5.74642 2.58155   2
   8   2   0 188.889 13.3361   2
  -8   3   0 112.741 9.04155   2
  -7   3   0 91.9816 7.77168   2
  -6   3   0 255.771 17.1176   2
  -4   3   0 586.074 36.5490   2
  -3   3   0 664.930 40.9900   2
  -2   3   0 1085.27 46.5275   2
  -1   3   0 706.936 24.2478   2
   0   3   0 3334.44 134.943  -1
   0   3   0 3334.44 134.943   2
   1   3   0 659.385 18.6968   2
   2   3   0 819.465 23.5179   2
   3   3   0 662.249 18.2939   2
   4   3   0 240.526 8.22581   2
   5   3   0 438.891 19.0879   2
   6   3   0 55.6011 3.82586   2
   7   3   0 221.416 15.1170   2
   8   3   0 4.80353 2.67651   2
  -8   4   0 6.17297 2.83183   2
  -7   4   0 265.299 17.7310   2
  -6   4   0 41.3255 4.97192   2
  -5   4   0 641.310 39.8757   2
  -4   4   0 145.263 10.3771   2
  -3   4   0 1381.03 83.8808   2
  -2   4   0 415.923 14.4821   2
  -1   4   0 1883.77 80.1777   2
   0   4   0 2196.46 89.0193  -1
   0   4   0 2196.46 89.0193   2
   1   4   0 1773.60 57.3358   2
   2   4   0 997.873 28.6061   2
   3   4   0 737.705 24.1357   2
   4   4   0 754.950 24.7121   2
   5   4   0 221.189 10.2047   2
   6   4   0 414.742 18.1830   2
   7   4   0 51.0370 3.78225   2
  -7   5   0 4.39226 2.56249   2
  -6   5   0 573.726 35.8882   2
  -5   5   0 70.5143 6.24873   2
  -3   5   0 335.911 14.4499   2
  -2   5   0 2726.74 93.0354   2
  -1   5   0 2359.28 143.013  -1
   1   5   0 2359.28 143.013   2
   1   5   0 2426.39 100.912  -1
  -1   5   0 2426.39 100.912   2
   2   5   0 2474.68 70.4446   2
   3   5   0 1101.33 35.8667   2
   4   5   0 1024.94 33.4166   2
   5   5   0 632.503 27.0669   2
   6   5   0 272.552 12.4031   2
   7   5   0 274.644 12.5407   2
  -7   6   0 412.323 26.2875   2
  -6   6   0 10.7821 2.69481   2
  -4   6   0 125.042 8.15968   2
  -3   6   0 2248.80 93.3155   2
  -2   6   0 461.399 16.0143   2
  -1   6   0 6204.62 354.333  -1
   1   6   0 6204.62 354.333   2
   0   6   0 2000.51 76.8014  -1
   0   6   0 2000.51 76.8014   2
   1   6   0 5643.61 322.017  -1
  -1   6   0 5643.61 322.017   2
   2   6   0 1074.17 30.8438   2
   3   6   0 1203.90 39.2268   2
   4   6   0 744.084 24.4747   2
   5   6   0 398.881 13.4254   2
   5   6   0 654.712 37.9669  -1
   5  -6   1 654.712 37.9669   2
   6   6   0 342.416 15.2529   2
   7   6   0 117.010 6.31637   2
  -6   7   0 506.809 21.6734   2
  -5   7   0 73.9069 8.27558  -1
   5   7   1 73.9069 8.27558   2
  -4   7   0 1133.76 47.3778   2
  -3   7   0 2.27471 1.67604   2
  -2   7   0 1875.25 77.7983   2
  -1   7   0 180.848 8.22705  -1
   1   7   0 180.848 8.22705   2
   0   7   0 4158.96 158.873  -1
   0   7   0 4158.96 158.873   2
   1   7   0 202.376 12.7762  -1
  -1   7   0 202.376 12.7762   2
   2   7   0 1512.24 43.2572   2
   3   7   0 206.227 7.37854   2
   4   7   0 713.000 23.5542   2
   5   7   0 386.622 22.9816  -1
   5  -7   1 386.622 22.9816   2
   5   7   0 144.257 5.45483   2
   6   7   0 254.273 11.7282   2
  -6   8   0 10.6725 1.66261   2
  -4   8   0 9.71179 1.47236   2
  -3   8   0 255.275 11.1345   2
  -2   8   0 6.75115 1.89464   2
  -1   8   0 587.363 23.3226  -1
   1   8   0 587.363 23.3226   2
   0   8   0 3.25263 1.30390  -1
   0   8   0 3.25263 1.30390   2
   1   8   0 574.939 22.7340  -1
  -1   8   0 574.939 22.7340   2
   2   8   0 2.80604 1.43919   2
   3   8   0 196.562 7.11133   2
   4   8   0 7.21233 1.24236   2
   5   8   0 119.693 4.75191   2
   5   8   0 214.220 13.3803  -1
   5  -8   1 214.220 13.3803   2
   6   8   0 9.18140 1.88013   2
  -4   9   0 234.988 14.5264   2
  -3   9   0 19.6567 2.40519   2
  -2   9   0 324.440 13.1730   2
  -1   9   0 8.77911 3.22238  -1
   1   9   0 8.77911 3.22238   2
   0   9   0 826.689 32.2410  -1
   0   9   0 826.689 32.2410   2
   1   9   0 11.2012 2.87406  -1
  -1   9   0 11.2012 2.87406   2
   2   9   0 379.192 15.4541   2
   3   9   0 1.74204 1.08079   2
   4   9   0 251.903 8.91262   2
   5   9   0 24.6571 3.65641  -1
   5  -9   1 24.6571 3.65641   2
  -3  10   0 224.042 9.45055   2
  -2  10   0 249.563 10.3452   2
  -1  10   0 817.836 32.0517  -1
   1  10   0 817.836 32.0517   2
   0  10   0 483.706 19.2570  -1
   0  10   0 483.706 19.2570   2
   1  10   0 760.311 29.7625  -1
  -1  10   0 760.311 29.7625   2
   2  10   0 138.253 6.53029   2
   3  10   0 333.659 13.8668   2
   4  10   0 28.1634 2.95041   2
  -3  11   0 216.397 9.18777   2
  -2  11   0 244.762 10.2105   2
  -1  11   0 402.442 16.3895  -1
   1  11   0 402.442 16.3895   2
   0  11   0 735.469 28.7724  -1
   0  11   0 735.469 28.7724   2
   1  11   0 382.111 15.5311  -1
  -1  11   0 382.111 15.5311   2
   2  11   0 391.599 15.8910   2
   3  11   0 60.7065 4.00683   2
  -2 -11   1 302.176 12.5585   2
  -1 -11   1 93.4964 5.22295  -1
   1 -11   1 93.4964 5.22295   2
   0 -11   1 838.191 32.6860  -1
   0 -11   1 838.191 32.6860   2
   1 -11   1 85.4514 5.09211  -1
  -1 -11   1 85.4514 5.09211   2
   2 -11   1 391.592 15.7245   2
  -3 -10   1 253.512 10.8640   2
  -2 -10   1 93.7896 4.96819   2
  -1 -10   1 914.128 35.6003  -1
   1 -10   1 914.128 35.6003   2
   0 -10   1 121.080 5.70934  -1
   0 -10   1 121.080 5.70934   2
   1 -10   1 944.614 36.8588  -1
  -1 -10   1 944.614 36.8588   2
   2 -10   1 18.6723 2.16252   2
   3 -10   1 351.382 14.1894   2
   4 -10   1 1.78568 1.40212   2
  -5  -9   1 163.355 6.24369   2
  -4  -9   1 163.709 6.20229   2
  -3  -9   1 229.064 8.19619   2
  -2  -9   1 365.048 14.9176   2
  -1  -9   1 389.008 15.7711  -1
   1  -9   1 389.008 15.7711   2
   0  -9   1 920.910 35.8298  -1
   0  -9   1 920.910 35.8298   2
   1  -9   1 404.980 16.5283  -1
  -1  -9   1 404.980 16.5283   2
   2  -9   1 387.737 15.5483   2
   3  -9   1 60.8014 3.50546   2
   4  -9   1 270.355 11.2002   2
   5  -9   1 38.2840 7.60592  -1
   5   9   0 38.2840 7.60592   2
  -5  -8   1 72.8888 3.39990   2
  -5  -8   1 98.9594 7.31111  -1
   5  -8   2 98.9594 7.31111   2
  -4  -8   1 293.418 10.2192   2
  -3  -8   1 165.252 6.13734   2
  -2  -8   1 377.922 15.3714   2
  -1  -8   1 420.604 16.9268  -1
   1  -8   1 420.604 16.9268   2
   0  -8   1 650.493 25.5668  -1
   0  -8   1 650.493 25.5668   2
   1  -8   1 418.029 14.1352  -1
  -1  -8   1 418.029 14.1352   2
   2  -8   1 164.062 5.89294   2
   3  -8   1 111.181 4.33341   2
   4  -8   1 57.5884 3.50439   2
   6  -8   1 16.8640 1.54444   2
  -6  -7   1 28.0444 3.06262   2
  -5  -7   1 437.074 14.7273   2
  -5  -7   1 962.103 55.4120  -1
   5  -7   2 962.103 55.4120   2
  -4  -7   1 94.5669 3.94472   2
  -3  -7   1 892.223 29.2782   2
  -2  -7   1 225.033 7.95364   2
  -1  -7   1 2419.57 78.2631  -1
   1  -7   1 2419.57 78.2631   2
   0  -7   1 677.399 26.5661  -1
   0  -7   1 677.399 26.5661   2
   1  -7   1 2451.64 79.4220  -1
  -1  -7   1 2451.64 79.4220   2
   2  -7   1 355.028 11.9899   2
   3  -7   1 558.966 18.5367   2
   4  -7   1 315.730 13.7083   2
   6  -7   1 207.255 7.44271   2
  -7  -6   1 0.98720 1.58569   2
  -6  -6   1 348.710 15.5210   2
  -5  -6   1 22.3249 3.82013  -1
   5  -6   2 22.3249 3.82013   2
  -5  -6   1 4.33048 1.09675   2
  -4  -6   1 969.148 31.7098   2
  -3  -6   1 28.7198 2.05816   2
  -2  -6   1 2087.03 67.5398   2
  -1  -6   1 296.345 12.7680  -1
   1  -6   1 296.345 12.7680   2
   0  -6   1 5350.67 274.569  -1
   0  -6   1 5350.67 274.569   2
   1  -6   1 241.354 10.7262  -1
  -1  -6   1 241.354 10.7262   2
   2  -6   1 2281.09 77.9059   2
   3  -6   1 215.257 9.51329   2
   4  -6   1 1323.44 55.2168   2
   6  -6   1 479.544 20.5630   2
   7  -6   1 128.702 5.03436   2
  -7  -5   1 209.921 9.92120   2
  -6  -5   1 8.99338 1.89379   2
  -5  -5   1 697.834 29.7569   2
  -4  -5   1 0.58368 0.86633   2
  -3  -5   1 1892.56 61.2646   2
  -2  -5   1 42.6430 2.23066   2
  -1  -5   1 6762.89 280.097  -1
   1  -5   1 6762.89 280.097   2
   0  -5   1 508.057 14.7991  -1
   0  -5   1 508.057 14.7991   2
   1  -5   1 8509.12 513.449  -1
  -1  -5   1 8509.12 513.449   2
   2  -5   1 388.109 16.3772   2
   3  -5   1 2119.80 88.0061   2
   4  -5   1 370.882 16.0335   2
   5  -5   1 934.758 57.5020   2
   7  -5   1 296.701 12.5259   2
  -7  -4   1 45.3561 3.61931   2
  -6  -4   1 421.747 18.4756   2
  -5  -4   1 71.4661 4.33548   2
  -4  -4   1 1225.75 39.8449   2
  -3  -4   1 59.1061 2.63545   2
  -2  -4   1 2589.60 83.5622   2
  -1  -4   1 50.5944 2.99905  -1
   1  -4   1 50.5944 2.99905   2
   1  -4   1 72.6381 5.35204  -1
  -1  -4   1 72.6381 5.35204   2
   2  -4   1 2515.63 85.8706   2
   3  -4   1 96.5496 7.26202   2
   4  -4   1 1376.34 83.8766   2
   5  -4   1 92.6983 7.90800   2
   7  -4   1 45.6435 5.33177   2
  -8  -3   1 84.6306 7.54194   2
  -7  -3   1 301.951 19.7937   2
  -6  -3   1 156.276 7.70728   2
  -5  -3   1 811.590 26.5606   2
  -4  -3   1 220.365 7.61068   2
  -3  -3   1 1538.96 42.1414   2
  -2  -3   1 176.368 4.70013   2
  -1  -3   1 1816.31 46.2694   2
   0  -3   1 70.0235 2.70623  -1
   0  -3   1 70.0235 2.70623   2
   1  -3   1 1277.70 43.7026   2
   2  -3   1 15.9588 1.17309   2
   3  -3   1 938.046 57.4252   2
   4  -3   1 47.1103 5.16371   2
   5  -3   1 508.559 32.1856   2
   7  -3   1 172.153 12.3079   2
   8  -3   1 16.0576 3.20652   2
  -8  -2   1 101.905 8.52798   2
  -7  -2   1 213.693 14.7120   2
  -6  -2   1 395.545 25.3364   2
  -5  -2   1 471.550 15.6640   2
  -4  -2   1 1136.19 36.9355   2
  -3  -2   1 853.421 27.8004   2
  -2  -2   1 2054.42 51.1106   2
  -1  -2   1 1109.16 25.3601   2
   1  -2   1 740.263 25.3869   2
   2  -2   1 2091.19 89.2715   2
   3  -2   1 305.176 19.5693   2
   4  -2   1 1243.40 76.0147   2
   5  -2   1 86.1510 7.54128   2
   7  -2   1 11.4915 2.79330   2
   8  -2   1 155.681 11.4367   2
  -8  -1   1 161.866 11.8512   2
  -7  -1   1 134.885 10.2388   2
  -6  -1   1 449.416 28.6216   2
  -5  -1   1 465.553 18.6973   2
  -4  -1   1 1134.32 36.8694   2
  -3  -1   1 1139.05 36.9455   2
  -2  -1   1 1810.79 46.1373   2
  -1  -1   1 2288.33 97.4749   2
   0  -1   1 3025.33 184.346  -1
   0  -1   1 3025.33 184.346   2
   1  -1   1 2387.04 101.622   2
   2  -1   1 705.011 24.3517   2
   3  -1   1 1705.07 103.478   2
   4  -1   1 186.221 12.8686   2
   5  -1   1 898.095 55.5406   2
   7  -1   1 306.205 20.2202   2
   8  -1   1 1.70182 2.33452   2
  -8   0   1 9.46648 2.90992   2
  -7   0   1 372.382 24.1774   2
  -6   0   1 71.0134 6.66088   2
  -5   0   1 1016.26 62.4816   2
  -4   0   1 375.927 23.9450   2
  -3   0   1 2635.71 159.234   2
  -2   0   1 1616.50 67.1798   2
   3   0   1 1630.92 67.9298   2
   4   0   1 4554.38 274.714   2
   5   0   1 529.324 33.4372   2
   6   0   1 1691.36 103.036   2
   7   0   1 86.2438 7.55857   2
   8   0   1 518.998 32.9412   2
  -8   1   1 223.243 15.4469   2
  -7   1   1 14.6445 3.22046   2
  -6   1   1 733.764 45.6515   2
  -5   1   1 102.045 8.17031   2
  -4   1   1 2026.24 122.894   2
  -3   1   1 439.701 27.5062   2
  -2   1   1 4347.19 261.619   2
  -1   1   1 1157.29 49.4102   2
   1   1   1 1921.03 65.5455   2
   3   1   1 1698.53 70.7504   2
   4   1   1 2065.32 86.0288   2
   5   1   1 924.943 53.6768   2
   6   1   1 578.794 36.3441   2
   7   1   1 314.649 20.6795   2
   8   1   1 126.625 9.86804   2
  -8   2   1 4.22525 2.52249   2
  -7   2   1 540.458 34.1907   2
  -6   2   1 1.40654 2.28612   2
  -5   2   1 1435.32 87.6039   2
  -4   2   1 33.0060 4.32825   2
  -3   2   1 2824.69 170.584   2
  -2   2   1 194.587 8.80039   2
   0   2   1 1255.21 51.1709  -1
   0   2   1 1255.21 51.1709   2
   1   2   1 1717.72 50.3376   2
   2   2   1 1052.41 31.0462   2
   3   2   1 683.505 28.8795   2
   4   2   1 740.896 43.1847   2
   5   2   1 233.077 10.6664   2
   6   2   1 315.792 14.1006   2
   7   2   1 63.5460 6.26403   2
   8   2   1 113.026 9.08341   2
  -8   3   1 231.303 15.8699   2
  -7   3   1 7.30113 2.77659   2
  -6   3   1 608.558 38.1329   2
  -5   3   1 1.28886 2.08230   2
  -4   3   1 1264.69 77.1545   2
  -3   3   1 27.7265 3.47023   2
  -2   3   1 1878.38 80.1821   2
   0   3   1 3957.14 226.161  -1
   0   3   1 3957.14 226.161   2
   1   3   1 700.745 23.7257   2
   1   3   1 926.576 53.2448  -1
  -1   3   1 926.576 53.2448   2
   2   3   1 1480.96 47.8698   2
   3   3   1 397.611 23.6132   2
   4   3   1 802.517 33.9371   2
   5   3   1 196.719 9.18795   2
   6   3   1 303.808 13.6291   2
   7   3   1 86.7081 5.04098   2
   8   3   1 106.944 8.63196   2
  -8   4   1 41.5880 5.57637   2
  -7   4   1 375.680 24.2717   2
  -6   4   1 67.7135 6.39426   2
  -5   4   1 1034.23 63.4450   2
  -4   4   1 101.650 7.81448   2
  -3   4   1 1992.70 120.546   2
  -2   4   1 138.444 5.10620   2
   1   4   1 4897.08 279.614  -1
  -1   4   1 4897.08 279.614   2
   1   4   1 2535.22 86.5581   2
   2   4   1 25.9496 1.35778   2
   3   4   1 1484.25 48.0612   2
   4   4   1 2.16412 1.19507   2
   5   4   1 598.548 25.6577   2
   6   4   1 9.00573 1.73664   2
   7   4   1 200.842 9.53006   2
   8   4   1 12.9442 3.02051   2
  -7   5   1 118.507 9.20940   2
  -6   5   1 284.934 18.7101   2
  -5   5   1 271.745 17.8017   2
  -4   5   1 834.904 51.2353   2
  -3   5   1 467.497 19.8616   2
  -2   5   1 1637.96 56.0099   2
  -1   5   1 924.926 54.0146  -1
   1   5   1 924.926 54.0146   2
   1   5   1 915.520 52.9141  -1
  -1   5   1 915.520 52.9141   2
   2   5   1 2350.01 66.9065   2
   3   5   1 61.6333 2.72484   2
   4   5   1 1428.83 46.3458   2
   5   5   1 1.67674 1.45667   2
   6   5   1 604.618 25.9989   2
   7   5   1 4.34190 1.65640   2
  -7   6   1 140.373 10.3168   2
  -6   6   1 149.517 10.7158   2
  -5   6   1 533.403 33.2537   2
  -4   6   1 317.331 13.8010   2
  -3   6   1 1548.70 64.4242   2
  -2   6   1 416.086 14.4602   2
  -1   6   1 8613.41 491.571  -1
   1   6   1 8613.41 491.571   2
   0   6   1 865.767 50.2441  -1
   0   6   1 865.767 50.2441   2
   1   6   1 7537.28 429.877  -1
  -1   6   1 7537.28 429.877   2
   2   6   1 174.131 5.45859   2
   3   6   1 2732.07 88.2528   2
   4   6   1 30.5703 2.05732   2
   5   6   1 1195.98 50.3302   2
   5   6   1 2588.16 147.990  -1
  -5   6   0 2588.16 147.990   2
   6   6   1 1.05865 1.56415   2
   7   6   1 413.716 18.2868   2
  -7   7   1 154.289 7.37176   2
  -6   7   1 152.018 7.26516   2
  -4   7   1 539.384 22.8882   2
  -3   7   1 568.077 23.9702   2
  -2   7   1 1294.21 74.3923   2
  -1   7   1 1304.01 50.4890  -1
   1   7   1 1304.01 50.4890   2
   0   7   1 4765.22 272.114  -1
   0   7   1 4765.22 272.114   2
   1   7   1 1287.87 74.1988  -1
  -1   7   1 1287.87 74.1988   2
   2   7   1 2207.44 62.9257   2
   3   7   1 249.990 8.75961   2
   4   7   1 1355.82 44.1556   2
   5   7   1 89.1900 7.01634  -1
  -5   7   0 89.1900 7.01634   2
   6   7   1 563.122 24.3544   2
   7   7   1 9.26179 1.94083   2
  -6   8   1 189.526 8.71118   2
  -5   8   1 173.450 13.5088  -1
   5   8   2 173.450 13.5088   2
  -4   8   1 258.655 11.3623   2
  -3   8   1 329.988 14.1636   2
  -2   8   1 250.488 15.3174   2
  -1   8   1 1226.07 47.5058  -1
   1   8   1 1226.07 47.5058   2
   0   8   1 485.083 28.6387  -1
   0   8   1 485.083 28.6387   2
   1   8   1 1166.87 67.2668  -1
  -1   8   1 1166.87 67.2668   2
   2   8   1 167.713 7.52996   2
   3   8   1 385.933 13.1076   2
   4   8   1 89.9578 3.91695   2
   5   8   1 175.323 6.47477   2
   5   8   1 405.457 24.1487  -1
  -5   8   0 405.457 24.1487   2
   6   8   1 30.7605 3.25019   2
  -4   9   1 50.2673 3.69862   2
  -3   9   1 364.280 21.8388   2
  -2   9   1 121.608 8.13578   2
  -1   9   1 643.612 25.4611  -1
   1   9   1 643.612 25.4611   2
   0   9   1 422.641 16.9225  -1
   0   9   1 422.641 16.9225   2
   1   9   1 613.593 35.8524  -1
  -1   9   1 613.593 35.8524   2
   2   9   1 217.281 9.37690   2
   3   9   1 113.097 4.50600   2
   4   9   1 143.433 5.56477   2
   5   9   1 68.0818 6.33177  -1
  -5   9   0 68.0818 6.33177   2
   5   9   1 32.8904 3.07527   2
  -4  10   1 309.026 18.8515   2
  -3  10   1 11.2685 2.43283   2
  -2  10   1 444.234 26.1364   2
  -1  10   1 103.046 5.58151  -1
   1  10   1 103.046 5.58151   2
   0  10   1 1122.45 43.4590  -1
   0  10   1 1122.45 43.4590   2
   1  10   1 92.7382 5.07001  -1
  -1  10   1 92.7382 5.07001   2
   2  10   1 513.979 20.5168   2
   3  10   1 72.8702 4.34036   2
   4  10   1 283.688 12.0989   2
   4  10   1 498.548 29.5534  -1
  -4  10   0 498.548 29.5534   2
  -3  11   1 397.399 15.9921   2
  -2  11   1 -0.5358 1.19873   2
  -1  11   1 1327.29 51.3334  -1
   1  11   1 1327.29 51.3334   2
   0  11   1 9.72707 1.59243  -1
   0  11   1 9.72707 1.59243   2
   1  11   1 1279.83 49.4430  -1
  -1  11   1 1279.83 49.4430   2
   2  11   1 19.7174 2.36467   2
   3  11   1 461.941 18.6647   2
  -1  12   1 9.44744 3.22817  -1
   1  12   1 9.44744 3.22817   2
   0  12   1 695.752 27.2596  -1
   0  12   1 695.752 27.2596   2
   1  12   1 10.8827 2.96938  -1
  -1  12   1 10.8827 2.96938   2
   0 -11   2 86.2345 4.58598  -1
   0 -11   2 86.2345 4.58598   2
  -3 -10   2 2.40741 1.55233   2
  -2 -10   2 191.331 8.48385   2
  -1 -10   2 71.8600 4.42565  -1
   1 -10   2 71.8600 4.42565   2
   0 -10   2 472.334 18.8492  -1
   0 -10   2 472.334 18.8492   2
   1 -10   2 80.1114 4.92817  -1
  -1 -10   2 80.1114 4.92817   2
   2 -10   2 211.348 8.93930   2
   3 -10   2 67.6438 3.66609   2
  -4  -9   2 16.3196 2.15138   2
  -3  -9   2 486.202 19.5575   2
  -2  -9   2 4.28384 1.64726   2
  -1  -9   2 1348.51 52.0926  -1
   1  -9   2 1348.51 52.0926   2
   0  -9   2 7.10865 1.53780  -1
   0  -9   2 7.10865 1.53780   2
   1  -9   2 1377.13 53.2876  -1
  -1  -9   2 1377.13 53.2876   2
   2  -9   2 26.9508 2.34247   2
   3  -9   2 398.834 15.9457   2
   4  -9   2 56.3797 3.46333   2
  -5  -8   2 199.773 12.6162  -1
   5  -8   3 199.773 12.6162   2
  -5  -8   2 60.5151 3.13386   2
  -4  -8   2 464.163 15.6655   2
  -3  -8   2 48.4599 2.80420   2
  -2  -8   2 819.400 32.0856   2
  -1  -8   2 11.6410 1.99462  -1
   1  -8   2 11.6410 1.99462   2
   0  -8   2 1875.91 72.1030  -1
   0  -8   2 1875.91 72.1030   2
   1  -8   2 12.7466 2.03795  -1
  -1  -8   2 12.7466 2.03795   2
   2  -8   2 732.027 24.0397   2
   3  -8   2 11.7512 1.59069   2
   4  -8   2 382.299 12.9272   2
  -6  -7   2 30.6553 3.12841   2
  -5  -7   2 367.473 12.5408   2
  -5  -7   2 639.311 36.9787  -1
   5  -7   3 639.311 36.9787   2
  -4  -7   2 35.8597 2.37220   2
  -3  -7   2 826.282 27.1704   2
  -2  -7   2 19.5206 1.70703   2
  -1  -7   2 2867.22 92.6832  -1
   1  -7   2 2867.22 92.6832   2
   0  -7   2 7.40817 0.79811  -1
   0  -7   2 7.40817 0.79811   2
   1  -7   2 2851.65 92.2317  -1
  -1  -7   2 2851.65 92.2317   2
   2  -7   2 1.94602 0.92477   2
   3  -7   2 906.975 29.7004   2
   4  -7   2 4.44984 1.10816   2
   6  -7   2 6.89660 1.45865   2
  -6  -6   2 191.292 9.10553   2
  -5  -6   2 114.621 4.51046   2
  -5  -6   2 389.087 22.9371  -1
   5  -6   3 389.087 22.9371   2
  -4  -6   2 462.187 15.4914   2
  -3  -6   2 145.988 5.45337   2
  -2  -6   2 895.732 29.3376   2
  -1  -6   2 224.513 9.95571  -1
   1  -6   2 224.513 9.95571   2
   0  -6   2 2469.13 70.3965  -1
   0  -6   2 2469.13 70.3965   2
   1  -6   2 207.578 9.04509  -1
  -1  -6   2 207.578 9.04509   2
   2  -6   2 1133.13 36.9174   2
   3  -6   2 39.8468 2.28628   2
   4  -6   2 767.728 25.2384   2
   6  -6   2 424.678 14.3303   2
   7  -6   2 1.35933 1.06338   2
  -7  -5   2 16.9728 2.19139   2
  -6  -5   2 200.439 9.45384   2
  -5  -5   2 73.2752 4.40957   2
  -4  -5   2 368.988 12.4678   2
  -3  -5   2 248.834 8.62054   2
  -2  -5   2 534.051 17.6910   2
  -1  -5   2 1910.97 65.4307  -1
   1  -5   2 1910.97 65.4307   2
   0  -5   2 1056.06 30.3338  -1
   0  -5   2 1056.06 30.3338   2
   1  -5   2 2103.37 87.5033  -1
  -1  -5   2 2103.37 87.5033   2
   2  -5   2 331.427 14.2148   2
   3  -5   2 1006.88 32.8613   2
   4  -5   2 146.046 5.45989   2
   5  -5   2 630.690 25.4579   2
   6  -5   2 32.5338 3.09329   2
   7  -5   2 283.314 15.6601   2
  -7  -4   2 168.661 11.8493   2
  -6  -4   2 24.4260 2.91595   2
  -5  -4   2 461.134 20.0026   2
  -4  -4   2 89.0878 3.62392   2
  -3  -4   2 918.087 29.9783   2
  -2  -4   2 319.538 10.7750   2
  -1  -4   2 2757.26 117.723  -1
   1  -4   2 2757.26 117.723   2
   0  -4   2 1490.75 48.3708  -1
   0  -4   2 1490.75 48.3708   2
   1  -4   2 3274.77 197.822  -1
  -1  -4   2 3274.77 197.822   2
   2  -4   2 991.771 32.3090   2
   3  -4   2 717.298 23.5553   2
   4  -4   2 872.740 34.7984   2
   5  -4   2 240.529 10.3906   2
   6  -4   2 451.585 18.5188   2
   7  -4   2 57.5540 4.51733   2
  -7  -3   2 5.84424 2.49869   2
  -6  -3   2 748.959 44.0048   2
  -5  -3   2 75.9984 4.49682   2
  -4  -3   2 1544.24 64.5096   2
  -3  -3   2 439.555 14.6086   2
  -2  -3   2 2906.76 93.7181   2
  -1  -3   2 3621.45 218.063  -1
   1  -3   2 3621.45 218.063   2
   0  -3   2 7715.76 464.578  -1
   0  -3   2 7715.76 464.578   2
   1  -3   2 3364.44 203.135  -1
  -1  -3   2 3364.44 203.135   2
   2  -3   2 1837.42 59.3913   2
   3  -3   2 1154.88 45.6549   2
   4  -3   2 689.398 42.8650   2
   5  -3   2 568.684 23.0145   2
   6  -3   2 180.674 8.13324   2
   7  -3   2 228.881 12.6089   2
   8  -3   2 26.4749 4.71587   2
  -8  -2   2 1.71841 2.59167   2
  -7  -2   2 536.770 33.8156   2
  -6  -2   2 0.50657 2.21951   2
  -5  -2   2 1556.89 65.1492   2
  -4  -2   2 39.2581 3.02033   2
  -3  -2   2 3430.18 142.247   2
  -2  -2   2 403.049 11.2742   2
  -1  -2   2 5422.08 326.183   2
   0  -2   2 2162.98 66.4229  -1
   0  -2   2 2162.98 66.4229   2
   1  -2   2 4898.62 294.820   2
   2  -2   2 937.178 37.0341   2
   3  -2   2 2080.03 81.5447   2
   4  -2   2 558.255 35.0630   2
   5  -2   2 656.228 26.3277   2
   6  -2   2 266.388 11.2571   2
   7  -2   2 165.136 9.21258   2
   8  -2   2 96.5943 8.10948   2
  -8  -1   2 240.983 16.4634   2
  -7  -1   2 2.01158 2.38170   2
  -6  -1   2 801.674 49.6482   2
  -5  -1   2 1.19849 1.99717   2
  -4  -1   2 2104.38 87.6312   2
  -3  -1   2 59.2334 2.47999   2
  -2  -1   2 4283.20 244.062   2
  -1  -1   2 213.965 5.06937   2
   1  -1   2 308.831 8.76993   2
   2  -1   2 3981.77 135.788   2
   3  -1   2 209.360 8.79705   2
   4  -1   2 1743.76 68.4389   2
   5  -1   2 130.088 5.93438   2
   6  -1   2 533.703 21.5000   2
   7  -1   2 70.5182 4.29601   2
   8  -1   2 123.893 9.66476   2
  -8   0   2 14.8626 3.23037   2
  -7   0   2 276.963 18.4904   2
  -6   0   2 34.7353 4.86881   2
  -5   0   2 928.018 57.1632   2
  -4   0   2 43.9734 4.75611   2
  -3   0   2 2309.48 139.650   2
  -2   0   2 93.7888 3.04364   2
   0   0   2 562.321 17.7520  -1
   0   0   2 562.321 17.7520   2
   2   0   2 129.820 3.54843   2
   3   0   2 3283.11 136.119   2
   4   0   2 5.27083 0.87737   2
   5   0   2 1425.91 56.0100   2
   6   0   2 38.8390 5.54491   2
   8   0   2 44.7583 5.44810   2
  -8   1   2 89.0155 7.93145   2
  -7   1   2 74.3935 6.97263   2
  -6   1   2 323.250 21.1587   2
  -5   1   2 112.910 8.75365   2
  -4   1   2 972.428 59.6612   2
  -3   1   2 92.1623 6.94901   2
  -2   1   2 2629.70 112.183   2
  -1   1   2 32.8868 2.02067   2
   1   1   2 17.3889 0.78292   2
   2   1   2 4175.24 177.768   2
   3   1   2 4.07050 1.08963   2
   4   1   2 2375.70 98.8366   2
   5   1   2 2.49607 1.36171   2
   6   1   2 1100.46 67.7571   2
   7   1   2 4.61319 2.46426   2
   8   1   2 328.662 21.5696   2
  -8   2   2 126.154 9.91520   2
  -7   2   2 132.234 10.1504   2
  -6   2   2 337.200 21.9968   2
  -5   2   2 568.771 35.6782   2
  -4   2   2 738.849 45.6606   2
  -3   2   2 2334.08 141.135   2
  -2   2   2 978.851 42.0833   2
   0   2   2 1724.09 58.3398  -1
   0   2   2 1724.09 58.3398   2
   2   2   2 458.088 13.7083   2
   3   2   2 3881.43 160.852   2
   4   2   2 84.9770 4.62015   2
   5   2   2 1533.55 64.2006   2
   6   2   2 4.26909 2.13506   2
   7   2   2 431.194 27.5581   2
   8   2   2 3.27688 2.32686   2
  -8   3   2 54.8402 6.27247   2
  -7   3   2 348.293 22.7318   2
  -6   3   2 263.313 17.6566   2
  -5   3   2 848.272 52.3824   2
  -4   3   2 978.000 59.9616   2
  -3   3   2 1572.18 95.3742   2
  -2   3   2 2185.20 93.2219   2
  -1   3   2 2065.09 70.4717   2
   0   3   2 5607.44 319.990  -1
   0   3   2 5607.44 319.990   2
   1   3   2 1459.82 62.2441   2
   2   3   2 2217.77 75.8503   2
   3   3   2 406.926 17.5058   2
   4   3   2 1235.40 51.7832   2
   5   3   2 56.4035 5.05040   2
   6   3   2 495.261 21.4728   2
   7   3   2 3.72800 1.61293   2
   8   3   2 172.735 12.3453   2
  -8   4   2 266.707 17.9772   2
  -7   4   2 96.8884 8.11510   2
  -6   4   2 764.263 47.4024   2
  -5   4   2 479.290 30.2474   2
  -4   4   2 1652.55 100.371   2
  -3   4   2 1523.32 92.3711   2
  -2   4   2 2567.78 87.6671   2
  -1   4   2 3189.15 135.575   2
   1   4   2 3463.23 208.231   2
   2   4   2 1440.64 49.4509   2
   3   4   2 1835.70 59.3196   2
   4   4   2 431.730 25.8041   2
   5   4   2 768.711 45.0285   2
   6   4   2 118.915 6.19918   2
   7   4   2 266.231 12.1676   2
   8   4   2 25.5755 2.85018   2
  -7   5   2 281.906 18.6748   2
  -6   5   2 33.6996 4.67830   2
  -5   5   2 773.099 47.7188   2
  -4   5   2 195.225 13.0798   2
  -3   5   2 1728.74 71.8939   2
  -2   5   2 503.807 17.4685   2
  -1   5   2 6201.50 354.327  -1
   1   5   2 6201.50 354.327   2
   0   5   2 1669.37 96.0549  -1
   0   5   2 1669.37 96.0549   2
   1   5   2 6066.51 346.134  -1
  -1   5   2 6066.51 346.134   2
   2   5   2 741.034 25.6991   2
   3   5   2 1505.34 48.7980   2
   4   5   2 443.180 19.1947   2
   5   5   2 501.160 21.6743   2
   6   5   2 224.841 10.4695   2
   7   5   2 134.738 6.93169   2
  -7   6   2 -0.8378 2.04659   2
  -6   6   2 281.977 18.4254   2
  -5   6   2 9.09102 2.33641   2
  -4   6   2 596.431 25.2701   2
  -3   6   2 58.8751 3.31249   2
  -2   6   2 1046.89 35.9005   2
  -1   6   2 731.989 43.2035  -1
   1   6   2 731.989 43.2035   2
   0   6   2 2935.04 168.053  -1
   0   6   2 2935.04 168.053   2
   1   6   2 658.494 38.4478  -1
  -1   6   2 658.494 38.4478   2
   2   6   2 1142.70 32.7840   2
   3   6   2 474.282 15.8213   2
   4   6   2 641.758 21.1644   2
   5   6   2 349.922 15.5189   2
   6   6   2 241.722 11.1824   2
   7   6   2 182.769 8.88196   2
  -7   7   2 126.206 6.33546   2
  -6   7   2 16.0343 1.86786   2
  -5   7   2 661.876 39.9014  -1
   5   7   3 661.876 39.9014   2
  -4   7   2 11.9721 1.54082   2
  -3   7   2 680.338 28.5861   2
  -2   7   2 2.24069 1.82237   2
  -1   7   2 3079.57 176.642  -1
   1   7   2 3079.57 176.642   2
   0   7   2 52.9616 4.79794  -1
   0   7   2 52.9616 4.79794   2
   1   7   2 2665.87 152.626  -1
  -1   7   2 2665.87 152.626   2
   2   7   2 121.249 4.01296   2
   3   7   2 1014.72 33.2156   2
   4   7   2 189.449 6.85499   2
   5   7   2 523.076 22.6771   2
   5   7   2 972.154 56.1085  -1
  -5   7   1 972.154 56.1085   2
   6   7   2 141.873 7.23156   2
   7   7   2 219.047 10.3941   2
  -4   8   2 649.297 27.3825   2
  -3   8   2 36.2174 2.45785   2
  -2   8   2 1033.48 59.7164   2
  -1   8   2 14.7191 5.49952  -1
   1   8   2 14.7191 5.49952   2
   0   8   2 2347.70 134.538  -1
   0   8   2 2347.70 134.538   2
   1   8   2 13.0525 4.22665  -1
  -1   8   2 13.0525 4.22665   2
   2   8   2 820.193 32.0694   2
   3   8   2 34.5918 2.26780   2
   4   8   2 451.469 15.2670   2
   5   8   2 193.597 12.5890  -1
  -5   8   1 193.597 12.5890   2
   6   8   2 194.145 9.38978   2
  -4   9   2 193.735 8.71137   2
  -3   9   2 963.977 55.8409   2
  -2   9   2 181.295 11.6030   2
  -1   9   2 2603.83 99.8083  -1
   1   9   2 2603.83 99.8083   2
   0   9   2 207.632 13.0510  -1
   0   9   2 207.632 13.0510   2
   1   9   2 2519.36 144.196  -1
  -1   9   2 2519.36 144.196   2
   2   9   2 21.7657 2.40661   2
   3   9   2 680.916 22.5516   2
   4   9   2 -0.0698 1.40227   2
   5   9   2 275.362 12.6191   2
   5   9   2 635.481 37.2440  -1
  -5   9   1 635.481 37.2440   2
  -3  10   2 159.652 10.6076   2
  -2  10   2 438.593 25.9363   2
  -1  10   2 283.839 12.0028  -1
   1  10   2 283.839 12.0028   2
   0  10   2 1048.07 60.6081  -1
   0  10   2 1048.07 60.6081   2
   1  10   2 268.272 16.5367  -1
  -1  10   2 268.272 16.5367   2
   2  10   2 463.383 18.5918   2
   3  10   2 33.2626 3.15793   2
   4  10   2 275.985 11.8185   2
   5  10   2 1.60929 3.34208   2
  -3  11   2 206.572 12.9867   2
  -2  11   2 155.992 10.0578   2
  -1  11   2 727.110 28.5861  -1
   1  11   2 727.110 28.5861   2
   0  11   2 293.066 12.0609  -1
   0  11   2 293.066 12.0609   2
   1  11   2 715.196 41.6769  -1
  -1  11   2 715.196 41.6769   2
   2  11   2 106.715 5.37059   2
   3  11   2 317.413 13.2191   2
  -2  12   2 43.8790 3.07364   2
  -1  12   2 297.159 12.3914  -1
   1  12   2 297.159 12.3914   2
   0  12   2 159.647 7.09871  -1
   0  12   2 159.647 7.09871   2
   1  12   2 300.182 12.4776  -1
  -1  12   2 300.182 12.4776   2
   2  12   2 108.679 5.36301   2
  -2 -10   3 89.6489 4.86350   2
  -1 -10   3 95.5856 5.28689  -1
   1 -10   3 95.5856 5.28689   2
   0 -10   3 238.434 10.0838  -1
   0 -10   3 238.434 10.0838   2
   1 -10   3 101.650 5.65457  -1
  -1 -10   3 101.650 5.65457   2
   2 -10   3 108.755 5.21315   2
  -4  -9   3 179.704 8.14746   2
  -3  -9   3 97.5988 5.16860   2
  -2  -9   3 302.249 12.5803   2
  -1  -9   3 493.523 19.6997  -1
   1  -9   3 493.523 19.6997   2
   0  -9   3 660.469 25.9790  -1
   0  -9   3 660.469 25.9790   2
   1  -9   3 515.645 20.6969  -1
  -1  -9   3 515.645 20.6969   2
   2  -9   3 205.214 8.70887   2
   3  -9   3 254.433 10.5194   2
   4  -9   3 82.9637 4.21465   2
  -5  -8   3 315.897 11.0033   2
  -4  -8   3 66.1953 3.32061   2
  -3  -8   3 595.322 19.8662   2
  -2  -8   3 182.982 6.72203   2
  -1  -8   3 1782.41 57.8544  -1
   1  -8   3 1782.41 57.8544   2
   0  -8   3 612.504 20.2777  -1
   0  -8   3 612.504 20.2777   2
   1  -8   3 1756.89 57.0712  -1
  -1  -8   3 1756.89 57.0712   2
   2  -8   3 336.309 11.4109   2
   3  -8   3 408.616 13.7386   2
   4  -8   3 264.799 9.19294   2
  -5  -7   3 26.2916 2.11234   2
  -4  -7   3 524.807 17.5637   2
  -3  -7   3 124.376 4.91993   2
  -2  -7   3 789.044 30.8603   2
  -1  -7   3 848.317 27.8708  -1
   1  -7   3 848.317 27.8708   2
   0  -7   3 1728.71 56.1062  -1
   0  -7   3 1728.71 56.1062   2
   1  -7   3 833.351 27.4292  -1
  -1  -7   3 833.351 27.4292   2
   2  -7   3 543.591 18.0334   2
   3  -7   3 392.430 13.2307   2
   4  -7   3 225.171 7.95630   2
   6  -7   3 74.0980 3.35516   2
  -6  -6   3 23.8192 2.82375   2
  -5  -6   3 403.498 13.6555   2
  -5  -6   3 902.734 51.9071  -1
   5  -6   4 902.734 51.9071   2
  -4  -6   3 140.793 5.33478   2
  -3  -6   3 781.396 25.7023   2
  -2  -6   3 354.815 12.0785   2
  -1  -6   3 2264.95 73.3505  -1
   1  -6   3 2264.95 73.3505   2
   0  -6   3 1124.28 36.6778  -1
   0  -6   3 1124.28 36.6778   2
   1  -6   3 2179.52 83.6672  -1
  -1  -6   3 2179.52 83.6672   2
   2  -6   3 493.514 16.4218   2
   3  -6   3 562.459 18.6522   2
   4  -6   3 294.104 10.1165   2
   6  -6   3 151.316 5.69679   2
  -6  -5   3 302.673 13.5653   2
  -5  -5   3 16.7914 3.12771  -1
   5  -5   4 16.7914 3.12771   2
  -4  -5   3 653.043 21.5684   2
  -3  -5   3 0.00313 0.90151   2
  -2  -5   3 1136.02 37.0109   2
  -1  -5   3 13.7052 2.35996  -1
   1  -5   3 13.7052 2.35996   2
   0  -5   3 2769.30 89.5300  -1
   0  -5   3 2769.30 89.5300   2
   1  -5   3 13.6214 2.77747  -1
  -1  -5   3 13.6214 2.77747   2
   2  -5   3 1029.92 33.5965   2
   3  -5   3 36.0238 2.09678   2
   4  -5   3 563.444 18.6890   2
   5  -5   3 48.5072 2.58900   2
   6  -5   3 250.448 10.8294   2
   7  -5   3 34.9571 3.12616   2
  -7  -4   3 84.6026 7.04723   2
  -6  -4   3 52.2547 3.80218   2
  -5  -4   3 219.283 10.1206   2
  -4  -4   3 73.8248 3.21642   2
  -3  -4   3 442.754 14.7804   2
  -2  -4   3 101.845 3.94516   2
  -1  -4   3 1662.49 100.934  -1
   1  -4   3 1662.49 100.934   2
   0  -4   3 194.470 8.58993  -1
   0  -4   3 194.470 8.58993   2
   1  -4   3 1832.01 111.088  -1
  -1  -4   3 1832.01 111.088   2
   2  -4   3 26.1900 1.72985   2
   3  -4   3 740.134 24.2862   2
   4  -4   3 0.04799 1.26061   2
   5  -4   3 471.968 19.2994   2
   6  -4   3 10.9311 1.70935   2
   7  -4   3 217.509 9.54115   2
  -7  -3   3 108.710 8.47302   2
  -6  -3   3 333.153 21.4910   2
  -5  -3   3 272.185 12.2639   2
  -4  -3   3 1012.01 42.5733   2
  -3  -3   3 501.115 16.6136   2
  -2  -3   3 2287.08 73.8579   2
  -1  -3   3 827.477 51.0608  -1
   1  -3   3 827.477 51.0608   2
   0  -3   3 7829.80 471.078  -1
   0  -3   3 7829.80 471.078   2
   1  -3   3 874.436 53.6530  -1
  -1  -3   3 874.436 53.6530   2
   2  -3   3 2586.23 83.4433   2
   3  -3   3 28.8646 2.54519   2
   4  -3   3 1450.36 57.2163   2
   5  -3   3 3.40871 1.40317   2
   6  -3   3 624.102 25.1431   2
   7  -3   3 10.0262 1.59157   2
  -7  -2   3 160.890 11.5738   2
  -6  -2   3 568.786 35.6283   2
  -5  -2   3 617.607 38.4130   2
  -4  -2   3 1290.51 54.0478   2
  -3  -2   3 1921.44 79.9757   2
  -2  -2   3 2306.49 74.4464   2
  -1  -2   3 7665.21 462.271  -1
   1  -2   3 7665.21 462.271   2
   0  -2   3 6040.09 363.761  -1
   0  -2   3 6040.09 363.761   2
   2  -2   3 919.680 36.4112   2
   3  -2   3 3219.04 103.782   2
   4  -2   3 180.707 7.93841   2
   5  -2   3 1527.94 60.1874   2
   6  -2   3 14.4422 1.99331   2
   7  -2   3 516.144 20.9135   2
  -8  -1   3 61.1245 6.50016   2
  -7  -1   3 242.282 16.4005   2
  -6  -1   3 301.617 19.7947   2
  -5  -1   3 552.367 34.6185   2
  -4  -1   3 1088.10 66.5109   2
  -3  -1   3 999.408 61.0297   2
  -2  -1   3 3046.33 118.940   2
  -1  -1   3 2280.39 97.6834  -1
   1  -1   3 2280.39 97.6834   2
   1  -1   3 1641.65 99.5499  -1
  -1  -1   3 1641.65 99.5499   2
   2  -1   3 3744.35 213.161   2
   3  -1   3 298.354 10.0338   2
   4  -1   3 2062.33 80.8338   2
   5  -1   3 81.5440 4.12676   2
   6  -1   3 781.529 31.1041   2
   7  -1   3 13.3369 3.55943   2
  -8   0   3 169.837 12.4122   2
  -7   0   3 92.1591 7.86070   2
  -6   0   3 418.126 26.7567   2
  -5   0   3 420.959 26.7685   2
  -4   0   3 801.943 49.4092   2
  -3   0   3 1209.70 73.6686   2
  -2   0   3 829.438 32.7101   2
   0   0   3 1099.12 43.3004  -1
   0   0   3 1099.12 43.3004   2
   1   0   3 4149.58 249.994  -1
  -1   0   3 4149.58 249.994   2
   1   0   3 2767.90 90.6939   2
   2   0   3 384.533 9.66034   2
   3   0   3 1784.58 50.1805   2
   4   0   3 263.464 10.8407   2
   5   0   3 901.983 35.6618   2
   6   0   3 106.370 8.92323   2
   7   0   3 350.433 23.2316   2
   8   0   3 24.8499 4.52691   2
  -8   1   3 0.97357 2.47788   2
  -7   1   3 240.222 16.3220   2
  -6   1   3 14.7334 2.87563   2
  -5   1   3 555.659 34.8506   2
  -4   1   3 56.7635 5.38588   2
  -3   1   3 825.196 50.6264   2
  -2   1   3 138.124 9.34525   2
  -1   1   3 498.077 21.6619   2
   0   1   3 708.006 23.1446  -1
   0   1   3 708.006 23.1446   2
   1   1   3 350.132 9.07798   2
   2   1   3 578.372 14.3752   2
   3   1   3 354.873 11.7596   2
   4   1   3 517.201 22.1922   2
   5   1   3 212.071 9.79263   2
   6   1   3 302.234 20.1519   2
   7   1   3 88.3827 8.06079   2
   8   1   3 112.741 8.95648   2
  -8   2   3 175.363 12.7470   2
  -7   2   3 10.1133 2.97142   2
  -6   2   3 515.086 32.5761   2
  -5   2   3 37.5231 4.85459   2
  -4   2   3 1330.17 81.1123   2
  -3   2   3 119.228 8.53390   2
  -2   2   3 2098.41 126.772   2
  -1   2   3 256.109 11.3545   2
   1   2   3 21.4319 1.18553   2
   2   2   3 1865.94 47.5146   2
   3   2   3 280.401 12.2957   2
   4   2   3 1061.57 44.6205   2
   5   2   3 354.052 15.6135   2
   6   2   3 384.333 16.9239   2
   8   2   3 99.7455 8.26332   2
  -8   3   3 31.8848 5.26702   2
  -7   3   3 371.613 24.1225   2
  -6   3   3 62.1938 6.28110   2
  -5   3   3 1094.29 67.1143   2
  -4   3   3 115.179 8.68140   2
  -3   3   3 2634.81 159.152   2
  -2   3   3 100.261 4.96687   2
  -1   3   3 4868.45 292.803   2
   0   3   3 40.4779 2.38710  -1
   0   3   3 40.4779 2.38710   2
   1   3   3 4678.16 193.534   2
   2   3   3 101.378 4.01836   2
   3   3   3 2675.49 111.097   2
   4   3   3 174.052 8.16400   2
   5   3   3 1133.15 47.6685   2
   6   3   3 146.404 7.31429   2
   7   3   3 322.499 14.4270   2
   8   3   3 69.1354 6.67257   2
  -7   4   3 65.9979 6.54950   2
  -6   4   3 927.620 57.1774   2
  -5   4   3 109.618 8.55425   2
  -4   4   3 2733.24 165.214   2
  -3   4   3 104.028 7.57868   2
  -1   4   3 5.35808 1.19807   2
   1   4   3 117.045 4.50782   2
   2   4   3 5782.78 347.805   2
   3   4   3 223.316 10.0364   2
   4   4   3 2329.66 96.9500   2
   5   4   3 165.727 7.95890   2
   6   4   3 723.768 42.5288   2
   7   4   3 83.9198 4.95717   2
   8   4   3 185.415 8.97621   2
  -7   5   3 258.202 17.2406   2
  -6   5   3 153.277 11.0970   2
  -5   5   3 785.568 48.4519   2
  -4   5   3 231.999 15.2584   2
  -3   5   3 1822.43 75.7683   2
  -2   5   3 227.724 8.14600   2
  -1   5   3 7583.78 457.315  -1
   1   5   3 7583.78 457.315   2
   0   5   3 192.432 12.2363  -1
   0   5   3 192.432 12.2363   2
   1   5   3 6859.01 284.956  -1
  -1   5   3 6859.01 284.956   2
   2   5   3 7.87048 1.09233   2
   3   5   3 2377.05 76.7707   2
   4   5   3 2.42092 1.34329   2
   5   5   3 1026.91 59.7929   2
   6   5   3 4.60198 1.65959   2
   7   5   3 354.532 15.7760   2
  -7   6   3 64.0989 6.15199   2
  -6   6   3 216.761 14.6025   2
  -5   6   3 82.6694 6.74411   2
  -4   6   3 564.692 23.9639   2
  -3   6   3 71.5369 3.81110   2
  -2   6   3 1020.51 35.0276   2
  -1   6   3 132.289 6.62979  -1
   1   6   3 132.289 6.62979   2
   0   6   3 2789.30 159.814  -1
   0   6   3 2789.30 159.814   2
   1   6   3 111.578 7.97261  -1
  -1   6   3 111.578 7.97261   2
   2   6   3 1137.01 47.7336   2
   3   6   3 25.6863 2.27722   2
   4   6   3 681.125 29.0610   2
   5   6   3 7.95844 1.70885   2
   6   6   3 290.132 13.1478   2
   7   6   3 0.23899 1.49846   2
  -7   7   3 43.6315 3.37520   2
  -6   7   3 173.423 8.13286   2
  -4   7   3 316.749 13.7577   2
  -3   7   3 264.167 11.4869   2
  -2   7   3 411.230 17.4239   2
  -1   7   3 1268.03 73.6211  -1
   1   7   3 1268.03 73.6211   2
   0   7   3 762.131 44.4500  -1
   0   7   3 762.131 44.4500   2
   1   7   3 1012.65 58.6859  -1
  -1   7   3 1012.65 58.6859   2
   2   7   3 278.600 10.0733   2
   3   7   3 496.385 16.6104   2
   4   7   3 113.588 4.46609   2
   5   7   3 706.420 41.1846  -1
  -5   7   2 706.420 41.1846   2
   6   7   3 29.9120 3.12185   2
   7   7   3 171.436 8.48886   2
  -4   8   3 63.4459 3.65192   2
  -3   8   3 455.133 19.2956   2
  -2   8   3 233.719 14.4915   2
  -1   8   3 1361.46 78.9116  -1
   1   8   3 1361.46 78.9116   2
   0   8   3 1032.23 59.7568  -1
   0   8   3 1032.23 59.7568   2
   1   8   3 1236.84 71.4317  -1
  -1   8   3 1236.84 71.4317   2
   2   8   3 608.959 36.5090   2
   3   8   3 300.985 10.4348   2
   4   8   3 443.800 15.0100   2
   5   8   3 104.334 5.76666   2
   5   8   3 170.407 11.3592  -1
  -5   8   2 170.407 11.3592   2
   6   8   3 598.293 35.1934  -1
  -6   8   2 598.293 35.1934   2
   6   8   3 229.199 10.8754   2
  -4   9   3 628.871 26.5310   2
  -3   9   3 148.318 9.94976   2
  -2   9   3 1104.36 63.8365   2
  -1   9   3 1084.50 63.1568  -1
   1   9   3 1084.50 63.1568   2
   0   9   3 2520.13 144.351  -1
   0   9   3 2520.13 144.351   2
   1   9   3 969.189 56.1616  -1
  -1   9   3 969.189 56.1616   2
   2   9   3 1037.57 40.3476   2
   3   9   3 526.924 17.6313   2
   4   9   3 460.512 15.6241   2
   5   9   3 313.977 14.2278   2
   5   9   3 871.469 50.7162  -1
  -5   9   2 871.469 50.7162   2
   6   9   3 127.284 6.92044   2
  -4  10   3 22.8973 3.41139   2
  -3  10   3 767.028 44.8250   2
  -2  10   3 87.6687 6.67111   2
  -1  10   3 2107.56 121.241  -1
   1  10   3 2107.56 121.241   2
   0  10   3 360.099 21.6187  -1
   0  10   3 360.099 21.6187   2
   1  10   3 1968.61 112.925  -1
  -1  10   3 1968.61 112.925   2
   2  10   3 210.282 9.11851   2
   3  10   3 551.705 22.0700   2
   4  10   3 144.409 6.98395   2
   4  10   3 484.977 29.2121  -1
  -4  10   2 484.977 29.2121   2
   5  10   3 385.665 23.3519  -1
  -5  10   2 385.665 23.3519   2
   5  10   3 222.992 15.7814   2
  -4  11   3 330.239 20.3411   2
  -3  11   3 18.4978 3.00810   2
  -2  11   3 455.611 26.9555   2
  -1  11   3 174.631 8.07141  -1
   1  11   3 174.631 8.07141   2
   0  11   3 1043.47 60.3711  -1
   0  11   3 1043.47 60.3711   2
   1  11   3 180.816 11.8526  -1
  -1  11   3 180.816 11.8526   2
   2  11   3 460.193 18.4377   2
   3  11   3 92.4268 4.96003   2
   4  11   3 257.639 11.1829   2
  -2  12   3 -0.3762 1.70736   2
  -1  12   3 426.111 17.2131  -1
   1  12   3 426.111 17.2131   2
   0  12   3 3.36496 1.32401  -1
   0  12   3 3.36496 1.32401   2
   1  12   3 428.555 25.5153  -1
  -1  12   3 428.555 25.5153   2
   2  12   3 3.24469 1.39208   2
   0 -10   4 63.5539 5.70244  -1
   0 -10   4 63.5539 5.70244   2
  -3  -9   4 4.86838 1.62199   2
  -2  -9   4 250.414 10.6336   2
  -1  -9   4 1.04968 2.70031  -1
   1  -9   4 1.04968 2.70031   2
   0  -9   4 604.633 23.8720  -1
   0  -9   4 604.633 23.8720   2
   1  -9   4 2.67029 3.12260  -1
  -1  -9   4 2.67029 3.12260   2
   2  -9   4 269.089 15.4206   2
   3  -9   4 2.98182 2.33455   2
  -4  -8   4 36.2392 2.71025   2
  -3  -8   4 281.101 11.7957   2
  -2  -8   4 39.1801 2.48645   2
  -1  -8   4 1178.01 38.4589  -1
   1  -8   4 1178.01 38.4589   2
   0  -8   4 55.3842 2.75761  -1
   0  -8   4 55.3842 2.75761   2
   1  -8   4 1178.67 38.4959  -1
  -1  -8   4 1178.67 38.4959   2
   2  -8   4 4.48304 1.08161   2
   3  -8   4 542.427 18.0158   2
   4  -8   4 0.59073 1.37785   2
  -5  -7   4 81.9962 3.76176   2
  -4  -7   4 387.011 13.2005   2
  -3  -7   4 102.128 4.34241   2
  -2  -7   4 699.611 23.1484   2
  -1  -7   4 153.114 5.89320  -1
   1  -7   4 153.114 5.89320   2
   0  -7   4 2124.48 68.8213  -1
   0  -7   4 2124.48 68.8213   2
   1  -7   4 157.155 6.13079  -1
  -1  -7   4 157.155 6.13079   2
   2  -7   4 1025.22 33.4855   2
   3  -7   4 8.25565 1.13839   2
   4  -7   4 598.185 19.8313   2
   5  -7   4 0.60692 1.45629   2
  -6  -6   4 129.133 9.21016   2
  -5  -6   4 140.568 6.99733   2
  -4  -6   4 183.567 6.72661   2
  -3  -6   4 409.154 13.8356   2
  -2  -6   4 126.164 4.98053   2
  -1  -6   4 1977.54 77.7698  -1
   1  -6   4 1977.54 77.7698   2
   0  -6   4 77.9297 3.33614  -1
   0  -6   4 77.9297 3.33614   2
   1  -6   4 2001.50 76.8571  -1
  -1  -6   4 2001.50 76.8571   2
   2  -6   4 3.53984 0.95907   2
   3  -6   4 815.800 26.7659   2
   4  -6   4 8.34893 1.21718   2
   6  -6   4 9.90809 1.27327   2
  -6  -5   4 72.1270 4.43181   2
  -5  -5   4 131.660 6.61116   2
  -5  -5   4 355.510 20.7858  -1
   5  -5   5 355.510 20.7858   2
  -4  -5   4 254.467 8.88501   2
  -3  -5   4 152.618 5.66803   2
  -2  -5   4 658.389 21.7648   2
  -1  -5   4 215.342 14.5028  -1
   1  -5   4 215.342 14.5028   2
   0  -5   4 2145.39 69.4692  -1
   0  -5   4 2145.39 69.4692   2
   1  -5   4 198.863 8.63883  -1
  -1  -5   4 198.863 8.63883   2
   2  -5   4 1061.68 34.6227   2
   3  -5   4 41.0211 2.29666   2
   4  -5   4 637.585 21.0687   2
   5  -5   4 18.2220 5.81805  -1
  -5  -5   3 18.2220 5.81805   2
   6  -5   4 307.813 10.5771   2
  -7  -4   4 26.2349 4.43135   2
  -6  -4   4 271.958 17.7555   2
  -5  -4   4 78.5816 4.55492   2
  -5  -4   4 100.361 6.54615  -1
   5  -4   5 100.361 6.54615   2
  -4  -4   4 527.750 17.5489   2
  -3  -4   4 142.965 5.29843   2
  -2  -4   4 747.376 24.5364   2
  -1  -4   4 497.863 31.2835  -1
   1  -4   4 497.863 31.2835   2
   0  -4   4 1373.66 52.8788  -1
   0  -4   4 1373.66 52.8788   2
   1  -4   4 509.835 20.7833  -1
  -1  -4   4 509.835 20.7833   2
   2  -4   4 433.705 14.4715   2
   3  -4   4 180.248 6.41189   2
   4  -4   4 197.420 7.01672   2
   5  -4   4 138.636 6.59986   2
   6  -4   4 71.1723 4.20593   2
   7  -4   4 80.9205 4.47394   2
  -7  -3   4 186.737 12.9745   2
  -6  -3   4 4.79043 2.37672   2
  -5  -3   4 485.690 30.4355   2
  -4  -3   4 21.7752 2.53429   2
  -3  -3   4 995.343 32.4754   2
  -2  -3   4 106.985 4.09488   2
  -1  -3   4 3435.56 207.783  -1
   1  -3   4 3435.56 207.783   2
   0  -3   4 601.392 23.4240  -1
   0  -3   4 601.392 23.4240   2
   1  -3   4 3203.76 103.421  -1
  -1  -3   4 3203.76 103.421   2
   2  -3   4 450.457 14.9806   2
   3  -3   4 906.501 25.7249   2
   4  -3   4 372.397 15.4397   2
   5  -3   4 382.653 15.8337   2
   6  -3   4 225.018 9.81665   2
   7  -3   4 105.494 5.25614   2
  -7  -2   4 0.48417 2.15280   2
  -6  -2   4 537.301 33.6826   2
  -5  -2   4 3.13083 2.21914   2
  -4  -2   4 1483.64 90.1743   2
  -3  -2   4 36.7027 2.75366   2
  -2  -2   4 3337.62 107.574   2
  -1  -2   4 523.323 33.0515  -1
   1  -2   4 523.323 33.0515   2
   1  -2   4 590.624 24.9792  -1
  -1  -2   4 590.624 24.9792   2
   2  -2   4 3898.83 161.426   2
   3  -2   4 380.276 12.7413   2
   4  -2   4 1986.29 78.0222   2
   5  -2   4 318.684 13.3183   2
   6  -2   4 674.328 27.0664   2
   7  -2   4 172.867 7.71532   2
   8  -2   4 157.535 12.5982   2
  -7  -1   4 294.676 19.4122   2
  -6  -1   4 31.3174 4.73369   2
  -5  -1   4 930.570 57.2107   2
  -4  -1   4 13.2870 2.59338   2
  -3  -1   4 2193.57 132.704   2
  -2  -1   4 6.23203 1.12767   2
  -1  -1   4 3789.59 228.444   2
  -1  -1   4 5033.83 304.254  -1
   1  -1   4 5033.83 304.254   2
   0  -1   4 385.543 20.4385  -1
   0  -1   4 385.543 20.4385   2
   2  -1   4 408.449 13.5592   2
   3  -1   4 2372.00 76.5780   2
   4  -1   4 344.347 14.1697   2
   5  -1   4 981.691 38.9090   2
   6  -1   4 201.022 8.67723   2
   7  -1   4 297.252 20.3014   2
   8  -1   4 90.5755 8.90310   2
  -8   0   4 135.518 10.3552   2
  -7   0   4 54.9688 5.79254   2
  -6   0   4 533.824 33.6273   2
  -5   0   4 33.0323 4.64350   2
  -4   0   4 1495.38 90.9840   2
  -3   0   4 9.34669 2.18650   2
  -2   0   4 3139.62 189.383   2
  -1   0   4 346.855 11.5415   2
  -1   0   4 676.388 42.0668  -1
   1   0   4 676.388 42.0668   2
   0   0   4 9999.99 601.997  -1
   0   0   4 9999.99 601.997   2
   2   0   4 3333.44 81.9692   2
   3   0   4 391.534 11.2959   2
   4   0   4 1275.20 50.2290   2
   5   0   4 202.820 8.59790   2
   6   0   4 474.914 30.6229   2
   7   0   4 90.4365 8.38726   2
   8   0   4 152.397 12.1110   2
  -8   1   4 67.1207 6.79311   2
  -7   1   4 195.868 13.7316   2
  -6   1   4 145.314 10.7497   2
  -5   1   4 674.229 41.9309   2
  -4   1   4 185.079 12.6108   2
  -3   1   4 1729.46 104.892   2
  -2   1   4 225.045 14.5822   2
  -1   1   4 5853.39 228.540  -1
   1   1   4 5853.39 228.540   2
  -1   1   4 2449.49 147.853   2
   0   1   4 353.794 11.7885  -1
   0   1   4 353.794 11.7885   2
   2   1   4 43.2774 1.38037   2
   3   1   4 1661.68 53.7110   2
   4   1   4 1.15923 1.17238   2
   5   1   4 694.352 29.6110   2
   6   1   4 4.41307 2.69462   2
   7   1   4 229.482 16.1000   2
  -8   2   4 68.1819 6.93985   2
  -7   2   4 87.8838 7.69786   2
  -6   2   4 246.609 16.6489   2
  -5   2   4 207.064 14.2010   2
  -4   2   4 643.758 39.9484   2
  -3   2   4 340.629 21.6445   2
  -2   2   4 1427.49 86.5683   2
  -1   2   4 1601.54 97.0260  -1
   1   2   4 1601.54 97.0260   2
   1   2   4 1326.98 80.5243  -1
  -1   2   4 1326.98 80.5243   2
   2   2   4 1808.22 50.8081   2
   3   2   4 471.052 20.1412   2
   4   2   4 999.552 42.0656   2
   5   2   4 111.218 5.79590   2
   6   2   4 448.858 19.5738   2
   7   2   4 8.77839 2.92023   2
  -7   3   4 94.9209 8.04306   2
  -6   3   4 418.785 26.8262   2
  -5   3   4 319.342 20.7663   2
  -4   3   4 1072.53 65.6234   2
  -3   3   4 948.704 57.9975   2
  -2   3   4 1831.67 110.760   2
  -1   3   4 4461.21 190.256  -1
   1   3   4 4461.21 190.256   2
   0   3   4 5768.52 328.829  -1
   0   3   4 5768.52 328.829   2
   1   3   4 4009.15 166.115  -1
  -1   3   4 4009.15 166.115   2
   2   3   4 1738.73 72.3357   2
   3   3   4 1520.63 63.4410   2
   4   3   4 594.090 25.3488   2
   5   3   4 791.670 33.5904   2
   6   3   4 124.207 6.44625   2
   7   3   4 331.556 14.8463   2
   8   3   4 9.81658 2.90642   2
  -7   4   4 268.074 17.9262   2
  -6   4   4 48.0992 5.52317   2
  -5   4   4 754.591 46.6997   2
  -4   4   4 334.750 21.4312   2
  -3   4   4 1759.97 106.595   2
  -2   4   4 1183.49 49.3155   2
   0   4   4 7604.91 458.068  -1
   0   4   4 7604.91 458.068   2
   1   4   4 2692.50 162.179   2
   1   4   4 5874.27 354.535  -1
  -1   4   4 5874.27 354.535   2
   2   4   4 2964.45 123.002   2
   3   4   4 1337.97 55.9432   2
   4   4   4 1815.66 75.7402   2
   5   4   4 390.107 17.0713   2
   6   4   4 794.671 33.7936   2
   7   4   4 76.5615 6.39402   2
   8   4   4 259.908 11.9479   2
  -7   5   4 17.0572 3.24619   2
  -6   5   4 487.027 30.7362   2
  -5   5   4 128.638 9.44559   2
  -4   5   4 1231.74 75.0125   2
  -3   5   4 529.802 22.4594   2
  -2   5   4 2365.71 98.0924   2
  -1   5   4 2797.34 160.591  -1
   1   5   4 2797.34 160.591   2
   0   5   4 7179.65 432.714  -1
   0   5   4 7179.65 432.714   2
   1   5   4 3150.39 130.795  -1
  -1   5   4 3150.39 130.795   2
   2   5   4 2314.26 96.2785   2
   3   5   4 1319.50 55.2482   2
   4   5   4 976.327 41.1665   2
   5   5   4 683.305 29.1549   2
   6   5   4 276.843 17.3514   2
   7   5   4 275.881 12.5388   2
  -7   6   4 252.944 16.7994   2
  -6   6   4 1.35217 2.15657   2
  -5   6   4 1302.61 75.8712  -1
   5   6   5 1302.61 75.8712   2
  -5   6   4 596.069 36.9482   2
  -4   6   4 56.4182 3.42044   2
  -3   6   4 986.908 41.2696   2
  -2   6   4 255.273 9.08669   2
   0   6   4 1306.46 75.5061  -1
   0   6   4 1306.46 75.5061   2
   1   6   4 859.739 51.9851   2
   1   6   4 1845.82 76.9758  -1
  -1   6   4 1845.82 76.9758   2
   2   6   4 600.462 21.0317   2
   3   6   4 442.765 19.2215   2
   4   6   4 430.245 18.7600   2
   5   6   4 197.755 13.1400   2
   6   6   4 191.520 9.16794   2
   7   6   4 74.5221 4.63527   2
  -7   7   4 7.18877 1.66919   2
  -6   7   4 252.439 11.2979   2
  -4   7   4 530.317 22.5284   2
  -3   7   4 6.25643 1.21569   2
  -2   7   4 866.686 29.8118   2
  -1   7   4 162.089 11.5932  -1
   1   7   4 162.089 11.5932   2
   0   7   4 2013.20 115.638  -1
   0   7   4 2013.20 115.638   2
   1   7   4 145.467 9.96439  -1
  -1   7   4 145.467 9.96439   2
   2   7   4 694.501 24.2216   2
   3   7   4 104.313 8.46852   2
   4   7   4 391.205 15.7325   2
   5   7   4 225.121 14.2588  -1
  -5   7   3 225.121 14.2588   2
   5   7   4 79.4876 4.77862   2
   6   7   4 163.327 8.09775   2
   7   7   4 44.2268 3.64744   2
  -6   8   4 64.8926 3.95092   2
  -4   8   4 137.006 6.48370   2
  -3   8   4 569.343 24.0217   2
  -2   8   4 215.471 13.5082   2
  -1   8   4 1751.14 101.066  -1
   1   8   4 1751.14 101.066   2
   0   8   4 404.552 24.1734  -1
   0   8   4 404.552 24.1734   2
   1   8   4 1582.74 91.1172  -1
  -1   8   4 1582.74 91.1172   2
   2   8   4 62.4389 3.67011   2
   3   8   4 452.728 15.2869   2
   4   8   4 3.00834 1.10135   2
   5   8   4 243.201 11.3489   2
   5   8   4 596.448 35.1170  -1
  -5   8   3 596.448 35.1170   2
   6   8   4 3.36444 1.73254   2
   6   8   4 20.7199 4.87219  -1
  -6   8   3 20.7199 4.87219   2
  -4   9   4 331.534 14.3109   2
  -3   9   4 226.811 14.3182   2
  -2   9   4 639.699 37.5372   2
  -1   9   4 418.289 25.5786  -1
   1   9   4 418.289 25.5786   2
   0   9   4 1775.72 102.040  -1
   0   9   4 1775.72 102.040   2
   1   9   4 407.013 24.5310  -1
  -1   9   4 407.013 24.5310   2
   2   9   4 978.957 57.5609   2
   3   9   4 24.7022 1.95047   2
   4   9   4 585.860 19.6320   2
   5   9   4 38.5434 5.62534  -1
  -5   9   3 38.5434 5.62534   2
   5   9   4 2.20587 1.49864   2
   6   9   4 287.048 13.3378   2
  -4  10   4 205.074 13.3054   2
  -3  10   4 642.032 37.8005   2
  -2  10   4 240.380 15.0770   2
  -1  10   4 2404.09 138.068  -1
   1  10   4 2404.09 138.068   2
   0  10   4 405.719 24.2299  -1
   0  10   4 405.719 24.2299   2
   1  10   4 2321.00 133.033  -1
  -1  10   4 2321.00 133.033   2
   2  10   4 109.554 8.78746   2
   3  10   4 830.756 32.6006   2
   4  10   4 34.7309 3.75180   2
   5  10   4 442.063 28.0797   2
   5  10   4 941.121 54.7010  -1
  -5  10   3 941.121 54.7010   2
  -4  11   4 188.290 12.6680   2
  -3  11   4 196.813 12.8207   2
  -2  11   4 345.390 20.8093   2
  -1  11   4 305.017 19.2752  -1
   1  11   4 305.017 19.2752   2
   0  11   4 964.018 55.8637  -1
   0  11   4 964.018 55.8637   2
   1  11   4 299.302 18.4368  -1
  -1  11   4 299.302 18.4368   2
   2  11   4 504.935 20.1282   2
   3  11   4 39.0710 3.19815   2
   4  11   4 351.939 14.6613   2
  -2  12   4 86.8190 6.57160   2
  -1  12   4 298.878 12.4897  -1
   1  12   4 298.878 12.4897   2
   0  12   4 136.078 9.14871  -1
   0  12   4 136.078 9.14871   2
   1  12   4 310.321 18.9521  -1
  -1  12   4 310.321 18.9521   2
   2  12   4 47.4796 3.33934   2
  -1  -9   5 179.930 11.6631  -1
   1  -9   5 179.930 11.6631   2
   0  -9   5 419.516 23.0914  -1
   0  -9   5 419.516 23.0914   2
   1  -9   5 171.473 11.3145  -1
  -1  -9   5 171.473 11.3145   2
   2  -9   5 181.283 11.1791   2
  -3  -8   5 93.6979 4.92674   2
  -2  -8   5 200.086 7.23725   2
  -1  -8   5 320.763 18.3293  -1
   1  -8   5 320.763 18.3293   2
   0  -8   5 468.071 15.6576  -1
   0  -8   5 468.071 15.6576   2
   1  -8   5 313.598 10.8881  -1
  -1  -8   5 313.598 10.8881   2
   2  -8   5 193.407 8.56376   2
   3  -8   5 127.017 6.17507   2
   4  -8   5 104.269 5.41932   2
  -4  -7   5 37.3953 2.71703   2
  -3  -7   5 266.477 11.1858   2
  -2  -7   5 95.8709 4.10816   2
  -1  -7   5 857.072 28.1729  -1
   1  -7   5 857.072 28.1729   2
   0  -7   5 365.208 12.3917  -1
   0  -7   5 365.208 12.3917   2
   1  -7   5 858.604 28.2541  -1
  -1  -7   5 858.604 28.2541   2
   2  -7   5 211.175 7.47876   2
   3  -7   5 295.409 12.5270   2
   4  -7   5 190.146 8.55799   2
   5  -7   5 144.767 6.91143   2
  -5  -6   5 4.29460 1.66831   2
  -4  -6   5 497.593 16.7061   2
  -3  -6   5 2.75599 1.24731   2
  -2  -6   5 883.170 34.3764   2
  -1  -6   5 41.5432 2.96526  -1
   1  -6   5 41.5432 2.96526   2
   0  -6   5 2218.68 71.8409  -1
   0  -6   5 2218.68 71.8409   2
   1  -6   5 46.0086 3.10733  -1
  -1  -6   5 46.0086 3.10733   2
   2  -6   5 886.351 29.0291   2
   3  -6   5 78.5225 3.36339   2
   4  -6   5 430.075 14.4514   2
   5  -6   5 90.4911 4.95738   2
   6  -6   5 152.002 7.16816   2
  -6  -5   5 34.4978 4.24091   2
  -5  -5   5 273.752 12.2963   2
  -4  -5   5 43.6092 2.56531   2
  -3  -5   5 561.982 18.6959   2
  -2  -5   5 22.7879 2.30968   2
  -1  -5   5 1704.71 67.2048  -1
   1  -5   5 1704.71 67.2048   2
   0  -5   5 1.45061 0.91988  -1
   0  -5   5 1.45061 0.91988   2
   1  -5   5 1639.56 63.0853  -1
  -1  -5   5 1639.56 63.0853   2
   2  -5   5 29.1922 2.84531   2
   3  -5   5 478.362 15.9656   2
   4  -5   5 74.8780 3.27027   2
   6  -5   5 74.2605 3.31034   2
  -6  -4   5 249.456 16.3397   2
  -5  -4   5 14.2813 2.76685   2
  -5  -4   5 74.7927 5.01310  -1
   5  -4   6 74.7927 5.01310   2
  -4  -4   5 705.885 23.2736   2
  -3  -4   5 4.95536 1.10207   2
  -2  -4   5 1330.73 43.3033   2
  -1  -4   5 24.0012 3.43030  -1
   1  -4   5 24.0012 3.43030   2
   0  -4   5 3354.44 128.274  -1
   0  -4   5 3354.44 128.274   2
   1  -4   5 26.6245 4.37519  -1
  -1  -4   5 26.6245 4.37519   2
   2  -4   5 1393.53 55.0325   2
   3  -4   5 22.6511 1.66455   2
   4  -4   5 689.659 22.7293   2
   6  -4   5 282.661 12.0775   2
   7  -4   5 10.4872 1.75397   2
  -7  -3   5 163.035 11.5639   2
  -6  -3   5 56.4870 5.56597   2
  -5  -3   5 447.928 28.1506   2
  -4  -3   5 109.585 8.17525   2
  -3  -3   5 1007.80 32.8953   2
  -2  -3   5 195.331 6.90586   2
  -1  -3   5 3781.25 228.733  -1
   1  -3   5 3781.25 228.733   2
   0  -3   5 601.047 37.3775  -1
   0  -3   5 601.047 37.3775   2
   1  -3   5 3461.12 111.723  -1
  -1  -3   5 3461.12 111.723   2
   2  -3   5 113.543 5.55547   2
   3  -3   5 870.094 28.4944   2
   4  -3   5 20.1933 2.29589   2
   5  -3   5 464.516 19.0467   2
   6  -3   5 3.26241 1.32293   2
   7  -3   5 182.986 8.18671   2
  -7  -2   5 78.9012 7.00081   2
  -6  -2   5 174.334 12.1864   2
  -5  -2   5 131.691 9.61102   2
  -4  -2   5 486.213 30.3885   2
  -3  -2   5 177.889 12.0402   2
  -2  -2   5 1033.00 40.8424   2
  -1  -2   5 401.399 26.1443  -1
   1  -2   5 401.399 26.1443   2
   0  -2   5 2798.85 143.933  -1
   0  -2   5 2798.85 143.933   2
   1  -2   5 458.507 19.7201  -1
  -1  -2   5 458.507 19.7201   2
   2  -2   5 1489.52 58.7405   2
   3  -2   5 96.1005 3.78899   2
   4  -2   5 1111.86 44.0867   2
   5  -2   5 36.5110 2.87695   2
   6  -2   5 579.602 23.4544   2
   7  -2   5 1.41925 1.64345   2
  -7  -1   5 51.6455 5.69291   2
  -6  -1   5 250.514 16.6998   2
  -5  -1   5 237.925 15.8289   2
  -4  -1   5 575.713 35.7949   2
  -3  -1   5 638.258 39.4310   2
  -2  -1   5 1179.54 46.5023   2
  -1  -1   5 2697.00 163.702  -1
   1  -1   5 2697.00 163.702   2
   1  -1   5 4049.11 130.516  -1
  -1  -1   5 4049.11 130.516   2
   2  -1   5 903.955 35.9597   2
   3  -1   5 1617.45 52.4157   2
   4  -1   5 354.029 14.6343   2
   5  -1   5 855.971 34.0907   2
   6  -1   5 92.6064 4.61683   2
   7  -1   5 352.908 23.6803   2
  -7   0   5 295.200 19.4638   2
  -6   0   5 22.8434 4.37109   2
  -5   0   5 789.526 48.7819   2
  -4   0   5 109.861 8.30452   2
  -3   0   5 1447.98 88.0207   2
  -2   0   5 395.231 24.8194   2
  -1   0   5 1283.64 78.8659  -1
   1   0   5 1283.64 78.8659   2
   0   0   5 1986.17 76.1582  -1
   0   0   5 1986.17 76.1582   2
   1   0   5 3350.69 139.268  -1
  -1   0   5 3350.69 139.268   2
   2   0   5 1442.58 46.7449   2
   3   0   5 498.584 16.4943   2
   4   0   5 1213.72 47.8918   2
   5   0   5 135.553 6.12810   2
   6   0   5 605.739 24.2886   2
   7   0   5 30.5591 5.52415   2
   8   0   5 214.375 15.7850   2
  -7   1   5 1.07012 2.23787   2
  -6   1   5 441.001 28.0927   2
  -5   1   5 4.71490 2.43403   2
  -4   1   5 1127.34 68.9303   2
  -3   1   5 30.1882 3.94818   2
  -2   1   5 1698.48 102.939   2
   0   1   5 4252.37 257.179  -1
   0   1   5 4252.37 257.179   2
   1   1   5 837.709 32.1167   2
   2   1   5 1321.19 32.6527   2
   3   1   5 966.746 26.6095   2
   4   1   5 568.146 18.7315   2
   5   1   5 586.169 25.1743   2
   6   1   5 170.408 12.6998   2
   7   1   5 232.120 16.3536   2
   8   1   5 44.4867 6.44896   2
  -7   2   5 267.807 17.9142   2
  -6   2   5 1.61743 2.37872   2
  -5   2   5 631.387 39.3766   2
  -4   2   5 14.4539 2.73010   2
  -3   2   5 1094.04 66.7857   2
  -2   2   5 46.9411 4.43477   2
  -1   2   5 2011.18 84.0323  -1
   1   2   5 2011.18 84.0323   2
  -1   2   5 866.049 53.0459   2
   0   2   5 257.892 11.2836  -1
   0   2   5 257.892 11.2836   2
   2   2   5 255.233 7.48353   2
   3   2   5 617.470 20.2558   2
   4   2   5 243.916 11.0038   2
   5   2   5 313.561 13.9744   2
   6   2   5 151.023 7.45779   2
   7   2   5 108.661 9.19996   2
   8   2   5 77.2653 7.78301   2
  -7   3   5 0.34041 2.32788   2
  -6   3   5 585.842 36.7703   2
  -5   3   5 1.80544 2.25394   2
  -4   3   5 1504.17 91.5060   2
  -3   3   5 11.5626 2.36432   2
  -2   3   5 2206.33 133.315   2
  -1   3   5 157.305 10.3644  -1
   1   3   5 157.305 10.3644   2
   0   3   5 3717.07 211.958  -1
   0   3   5 3717.07 211.958   2
   1   3   5 211.398 9.43694  -1
  -1   3   5 211.398 9.43694   2
   2   3   5 2345.16 75.6615   2
   3   3   5 160.842 5.62152   2
   4   3   5 1190.00 49.9232   2
   5   3   5 104.108 5.54794   2
   6   3   5 453.381 19.7746   2
   7   3   5 50.7211 3.77694   2
  -7   4   5 231.158 15.6993   2
  -6   4   5 56.4911 5.92529   2
  -5   4   5 650.924 40.4702   2
  -4   4   5 133.328 9.58987   2
  -3   4   5 1453.86 88.2446   2
  -2   4   5 195.459 8.64017   2
  -1   4   5 2194.82 126.297  -1
   1   4   5 2194.82 126.297   2
   0   4   5 442.837 18.9638  -1
   0   4   5 442.837 18.9638   2
   1   4   5 4973.94 206.116  -1
  -1   4   5 4973.94 206.116   2
   2   4   5 25.8659 2.36498   2
   3   4   5 2015.72 65.1102   2
   4   4   5 1.84282 1.29060   2
   5   4   5 978.963 60.1826   2
   6   4   5 21.9154 2.76535   2
   7   4   5 340.596 15.2049   2
   8   4   5 24.2252 4.04303   2
  -7   5   5 62.7404 6.12230   2
  -6   5   5 199.462 13.7129   2
  -5   5   5 120.996 9.00494   2
  -4   5   5 533.050 33.1288   2
  -3   5   5 118.766 5.67578   2
  -2   5   5 1155.60 48.1773   2
  -1   5   5 31.8151 5.45810  -1
   1   5   5 31.8151 5.45810   2
   0   5   5 4983.12 300.062  -1
   0   5   5 4983.12 300.062   2
   1   5   5 45.9939 3.29720  -1
  -1   5   5 45.9939 3.29720   2
   2   5   5 2078.57 86.5916   2
   3   5   5 9.29094 1.55922   2
   4   5   5 1256.29 52.6888   2
   5   5   5 15.6943 1.98552   2
   6   5   5 630.144 27.0291   2
   7   5   5 13.7434 2.70676   2
  -7   6   5 95.2123 7.67097   2
  -6   6   5 207.218 14.0131   2
  -5   6   5 338.551 21.5917   2
  -4   6   5 341.996 14.8309   2
  -3   6   5 877.036 36.7483   2
  -2   6   5 449.834 19.0765   2
  -1   6   5 3734.22 155.065  -1
   1   6   5 3734.22 155.065   2
   0   6   5 665.700 23.0861  -1
   0   6   5 665.700 23.0861   2
   1   6   5 3845.24 131.492  -1
  -1   6   5 3845.24 131.492   2
   2   6   5 74.6413 4.33778   2
   3   6   5 1367.44 57.3339   2
   4   6   5 6.84970 1.53957   2
   6   6   5 0.08555 1.46602   2
   7   6   5 227.909 10.6059   2
  -6   7   5 63.5846 3.91229   2
  -4   7   5 210.410 9.43178   2
  -3   7   5 683.408 28.7523   2
  -2   7   5 452.203 19.1834   2
  -1   7   5 1412.59 59.2056  -1
   1   7   5 1412.59 59.2056   2
   0   7   5 1442.18 60.2322  -1
   0   7   5 1442.18 60.2322   2
   1   7   5 1105.38 38.1003  -1
  -1   7   5 1105.38 38.1003   2
   2   7   5 643.420 27.5757   2
   3   7   5 115.142 6.03175   2
   4   7   5 513.016 22.2702   2
   5   7   5 20.7475 2.55058   2
   5   7   5 26.4705 4.73703  -1
  -5   7   4 26.4705 4.73703   2
   6   7   5 236.789 11.0544   2
   7   7   5 0.86016 1.60674   2
  -6   8   5 176.017 8.19915   2
  -4   8   5 359.187 15.4812   2
  -3   8   5 276.441 12.0072   2
  -2   8   5 561.559 23.7488   2
  -1   8   5 1354.34 78.5303  -1
   1   8   5 1354.34 78.5303   2
   0   8   5 1420.34 81.9146  -1
   0   8   5 1420.34 81.9146   2
   1   8   5 1233.93 71.3386  -1
  -1   8   5 1233.93 71.3386   2
   2   8   5 556.738 19.5492   2
   3   8   5 341.368 21.8804   2
   4   8   5 291.403 12.1904   2
   5   8   5 221.255 10.5084   2
   5   8   5 613.223 36.1064  -1
  -5   8   4 613.223 36.1064   2
   6   8   5 103.409 5.87901   2
  -4   9   5 105.543 5.20492   2
  -3   9   5 576.272 24.3678   2
  -2   9   5 204.269 13.0426   2
  -1   9   5 1767.97 101.939  -1
   1   9   5 1767.97 101.939   2
   0   9   5 544.884 32.1519  -1
   0   9   5 544.884 32.1519   2
   1   9   5 1633.61 94.0810  -1
  -1   9   5 1633.61 94.0810   2
   2   9   5 252.128 16.6321   2
   3   9   5 434.929 19.1109   2
   4   9   5 151.698 5.87377   2
   5   9   5 376.723 22.8157  -1
  -5   9   4 376.723 22.8157   2
   5   9   5 189.398 9.30999   2
   6   9   5 83.3634 5.33689   2
  -4  10   5 312.478 19.2663   2
  -3  10   5 27.2347 4.53254   2
  -2  10   5 479.493 28.5588   2
  -1  10   5 392.308 24.0954  -1
   1  10   5 392.308 24.0954   2
   0  10   5 1235.59 71.3345  -1
   0  10   5 1235.59 71.3345   2
   1  10   5 374.265 22.6723  -1
  -1  10   5 374.265 22.6723   2
   2  10   5 608.304 36.5386   2
   3  10   5 237.451 10.2423   2
   4  10   5 310.529 10.8375   2
   5  10   5 143.433 7.49539   2
   5  10   5 475.204 28.5521  -1
  -5  10   4 475.204 28.5521   2
  -4  11   5 -1.2131 2.70641   2
  -3  11   5 311.791 19.2598   2
  -2  11   5 5.52307 2.38642   2
  -1  11   5 1126.91 65.4752  -1
   1  11   5 1126.91 65.4752   2
   0  11   5 59.2198 5.21466  -1
   0  11   5 59.2198 5.21466   2
   1  11   5 1108.49 64.1402  -1
  -1  11   5 1108.49 64.1402   2
   2  11   5 57.9729 5.95051   2
   3  11   5 419.441 17.0242   2
   4  11   5 57.6299 3.81034   2
  -2  12   5 242.462 15.0801   2
  -1  12   5 1.31603 5.06622  -1
   1  12   5 1.31603 5.06622   2
   0  12   5 518.052 30.5874  -1
   0  12   5 518.052 30.5874   2
   1  12   5 4.37934 4.24276  -1
  -1  12   5 4.37934 4.24276   2
   2  12   5 231.850 9.85301   2
   3  12   5 17.8506 2.00585   2
  -2  -8   6 272.690 9.54832   2
  -1  -8   6 30.7851 3.39198  -1
   1  -8   6 30.7851 3.39198   2
   0  -8   6 642.644 25.8825  -1
   0  -8   6 642.644 25.8825   2
   1  -8   6 23.2286 3.07982  -1
  -1  -8   6 23.2286 3.07982   2
   2  -8   6 280.747 11.9942   2
   3  -8   6 21.6194 2.43152   2
  -4  -7   6 6.86046 1.52232   2
  -3  -7   6 180.303 7.94866   2
  -2  -7   6 5.00101 1.28057   2
  -1  -7   6 560.276 22.8000  -1
   1  -7   6 560.276 22.8000   2
   0  -7   6 1.54789 1.02658  -1
   0  -7   6 1.54789 1.02658   2
   1  -7   6 592.152 19.7291  -1
  -1  -7   6 592.152 19.7291   2
   2  -7   6 1.31842 1.36762   2
   3  -7   6 260.771 11.2352   2
   4  -7   6 1.03301 1.55284   2
  -4  -6   6 88.5702 3.99684   2
  -3  -6   6 134.282 6.22576   2
  -2  -6   6 186.525 6.88687   2
  -1  -6   6 279.519 12.1117  -1
   1  -6   6 279.519 12.1117   2
   0  -6   6 692.166 22.8249  -1
   0  -6   6 692.166 22.8249   2
   1  -6   6 302.149 10.5446  -1
  -1  -6   6 302.149 10.5446   2
   2  -6   6 449.116 18.4630   2
   3  -6   6 76.2842 4.40962   2
   4  -6   6 391.579 16.3026   2
   5  -6   6 27.6004 2.96059   2
  -5  -5   6 19.5305 3.86162   2
  -4  -5   6 310.903 10.7523   2
  -3  -5   6 65.9189 3.26295   2
  -2  -5   6 484.063 19.1885   2
  -1  -5   6 482.686 19.8061  -1
   1  -5   6 482.686 19.8061   2
   0  -5   6 1117.84 36.4655  -1
   0  -5   6 1117.84 36.4655   2
   1  -5   6 501.867 16.7870  -1
  -1  -5   6 501.867 16.7870   2
   2  -5   6 402.618 16.6535   2
   3  -5   6 295.778 12.5932   2
   4  -5   6 183.478 8.35666   2
   5  -5   6 209.605 9.37500   2
   6  -5   6 52.3608 3.70464   2
  -6  -4   6 2.55925 2.22237   2
  -5  -4   6 333.594 21.3633   2
  -4  -4   6 33.8622 4.41798   2
  -3  -4   6 624.634 20.6951   2
  -2  -4   6 130.735 5.14259   2
  -1  -4   6 1349.73 53.4704  -1
   1  -4   6 1349.73 53.4704   2
   0  -4   6 679.716 27.2862  -1
   0  -4   6 679.716 27.2862   2
   1  -4   6 1274.17 49.1736  -1
  -1  -4   6 1274.17 49.1736   2
   2  -4   6 509.330 20.7533   2
   3  -4   6 234.704 10.2385   2
   4  -4   6 424.121 17.5417   2
   6  -4   6 242.577 10.5952   2
  -6  -3   6 249.464 16.4231   2
  -5  -3   6 56.2022 5.50922   2
  -5  -3   6 58.3862 5.37931  -1
   5  -3   7 58.3862 5.37931   2
  -4  -3   6 521.542 32.5078   2
  -3  -3   6 217.632 9.37032   2
  -2  -3   6 795.299 31.7938   2
  -1  -3   6 1548.93 61.0502  -1
   1  -3   6 1548.93 61.0502   2
   1  -3   6 1385.07 71.7967  -1
  -1  -3   6 1385.07 71.7967   2
   2  -3   6 736.752 29.5623   2
   3  -3   6 617.215 24.9890   2
   4  -3   6 358.201 12.1120   2
   5  -3   6 334.740 14.0954   2
   6  -3   6 133.765 6.47147   2
   7  -3   6 139.257 6.55571   2
  -6  -2   6 12.3959 2.70149   2
  -5  -2   6 1158.64 59.9991  -1
   5  -2   7 1158.64 59.9991   2
  -5  -2   6 519.504 32.4941   2
  -4  -2   6 96.2417 7.53471   2
  -3  -2   6 936.173 57.3068   2
  -2  -2   6 323.305 13.4433   2
  -1  -2   6 2664.24 161.820  -1
   1  -2   6 2664.24 161.820   2
   0  -2   6 1132.98 58.8631  -1
   0  -2   6 1132.98 58.8631   2
   1  -2   6 2463.72 126.934  -1
  -1  -2   6 2463.72 126.934   2
   2  -2   6 452.255 18.5723   2
   3  -2   6 579.410 23.5193   2
   4  -2   6 277.687 9.59027   2
   5  -2   6 251.725 10.8545   2
   6  -2   6 138.473 6.52484   2
   7  -2   6 75.6121 8.16779   2
  -7  -1   6 6.66257 2.58165   2
  -6  -1   6 185.089 12.8312   2
  -5  -1   6 3.36487 2.19705   2
  -4  -1   6 409.221 25.8516   2
  -3  -1   6 4.89876 2.15196   2
  -2  -1   6 908.172 55.7388   2
  -1  -1   6 216.249 15.4082  -1
   1  -1   6 216.249 15.4082   2
   0  -1   6 3401.78 205.949  -1
   0  -1   6 3401.78 205.949   2
   1  -1   6 315.987 10.8140  -1
  -1  -1   6 315.987 10.8140   2
   2  -1   6 1071.05 42.5743   2
   3  -1   6 192.532 8.56458   2
   4  -1   6 753.690 30.2187   2
   5  -1   6 139.364 6.51726   2
   6  -1   6 346.579 14.4266   2
   7  -1   6 64.2292 7.59213   2
  -7   0   6 127.769 9.76295   2
  -6   0   6 47.6632 5.36106   2
  -5   0   6 362.894 23.2397   2
  -4   0   6 87.3397 7.10065   2
  -3   0   6 892.821 54.7504   2
  -2   0   6 128.179 9.27342   2
   0   0   6 190.421 7.68493  -1
   0   0   6 190.421 7.68493   2
   1   0   6 4620.75 191.564  -1
  -1   0   6 4620.75 191.564   2
   2   0   6 40.6653 2.83836   2
   3   0   6 1678.41 54.4006   2
   4   0   6 3.20649 1.04185   2
   5   0   6 788.214 31.4723   2
   6   0   6 10.0913 1.59326   2
   7   0   6 282.693 19.7003   2
  -7   1   6 155.562 11.3865   2
  -6   1   6 190.449 13.2614   2
  -5   1   6 473.637 29.9052   2
  -4   1   6 514.095 32.1771   2
  -3   1   6 846.829 52.0188   2
  -2   1   6 1153.94 70.3763   2
   1   1   6 1192.83 61.5626   2
   1   1   6 1803.79 110.096  -1
  -1   1   6 1803.79 110.096   2
   2   1   6 1924.40 54.1537   2
   3   1   6 356.157 10.3731   2
   4   1   6 1189.47 38.6916   2
   5   1   6 32.5792 1.89388   2
   6   1   6 494.832 32.0312   2
   7   1   6 1.08419 2.53575   2
  -7   2   6 103.804 8.54419   2
  -6   2   6 232.970 15.8254   2
  -5   2   6 383.312 24.5269   2
  -4   2   6 431.635 27.2741   2
  -3   2   6 937.889 57.4473   2
  -2   2   6 555.405 34.4598   2
  -1   2   6 4924.90 198.784  -1
   1   2   6 4924.90 198.784   2
   0   2   6 1139.23 47.7356  -1
   0   2   6 1139.23 47.7356   2
   1   2   6 2708.80 164.243  -1
  -1   2   6 2708.80 164.243   2
   2   2   6 324.071 11.3330   2
   3   2   6 1477.10 47.8685   2
   4   2   6 96.1871 5.12666   2
   5   2   6 615.997 26.3660   2
   6   2   6 9.74215 1.79909   2
   7   2   6 232.609 16.3532   2
   8   2   6 3.36963 2.91113   2
  -7   3   6 142.175 10.6409   2
  -6   3   6 244.788 16.4997   2
  -5   3   6 322.282 20.9387   2
  -4   3   6 884.144 54.3242   2
  -3   3   6 471.753 29.5051   2
  -2   3   6 2087.44 126.277   2
  -1   3   6 655.689 38.4582  -1
   1   3   6 655.689 38.4582   2
   2   3   6 2921.78 121.266   2
   3   3   6 187.143 6.52221   2
   4   3   6 1434.56 60.0355   2
   5   3   6 41.0811 3.25342   2
   6   3   6 530.154 22.9426   2
   7   3   6 6.34314 1.74566   2
  -7   4   6 59.8694 6.03043   2
  -6   4   6 201.982 13.9677   2
  -5   4   6 273.475 17.9898   2
  -4   4   6 393.424 24.9180   2
  -3   4   6 801.964 49.1759   2
  -2   4   6 558.768 23.6064   2
   0   4   6 1971.91 82.1934  -1
   0   4   6 1971.91 82.1934   2
   1   4   6 3401.91 141.229  -1
  -1   4   6 3401.91 141.229   2
   2   4   6 761.201 32.1916   2
   3   4   6 1234.98 40.0829   2
   4   4   6 344.578 15.0820   2
   5   4   6 582.031 24.9641   2
   6   4   6 138.691 6.98882   2
   7   4   6 240.869 11.1248   2
  -7   5   6 150.750 10.9209   2
  -6   5   6 4.75242 2.37641   2
  -5   5   6 347.510 22.2594   2
  -4   5   6 40.0617 4.44865   2
  -3   5   6 666.430 28.0974   2
  -2   5   6 138.367 6.39228   2
   0   5   6 659.902 27.9592  -1
   0   5   6 659.902 27.9592   2
   1   5   6 1745.66 72.8039  -1
  -1   5   6 1745.66 72.8039   2
   2   5   6 330.350 14.5817   2
   3   5   6 577.032 24.6632   2
   4   5   6 306.095 13.5923   2
   5   5   6 235.204 10.7775   2
   6   5   6 186.121 8.84694   2
   7   5   6 68.8146 4.36672   2
  -7   6   6 3.93561 2.31251   2
  -6   6   6 188.010 12.8832   2
  -5   6   6 5.80874 2.24261   2
  -4   6   6 463.982 19.8311   2
  -3   6   6 3.30592 1.15362   2
  -2   6   6 939.470 39.3056   2
  -1   6   6 177.075 8.43707  -1
   1   6   6 177.075 8.43707   2
   0   6   6 2794.79 116.151  -1
   0   6   6 2794.79 116.151   2
   2   6   6 1024.16 62.2299   2
   3   6   6 231.832 10.6380   2
   4   6   6 617.840 26.4603   2
   5   6   6 223.684 10.3568   2
   6   6   6 233.806 10.8427   2
   7   6   6 120.398 6.31838   2
  -6   7   6 30.3911 2.85065   2
  -5   7   6 542.271 23.0973   2
  -4   7   6 50.9516 3.24825   2
  -3   7   6 1250.69 52.1581   2
  -2   7   6 35.4077 2.62935   2
  -1   7   6 4260.14 176.827  -1
   1   7   6 4260.14 176.827   2
   0   7   6 24.0932 1.80465  -1
   0   7   6 24.0932 1.80465   2
   1   7   6 4612.74 191.256  -1
  -1   7   6 4612.74 191.256   2
   2   7   6 5.34652 1.36150   2
   3   7   6 1083.25 45.7537   2
   4   7   6 36.9075 3.19993   2
   5   7   6 524.884 22.7913   2
   5   7   6 1000.04 57.8183  -1
  -5   7   5 1000.04 57.8183   2
   6   7   6 45.7979 3.63128   2
   7   7   6 173.437 12.0786   2
  -6   8   6 207.160 9.44790   2
  -4   8   6 500.644 21.2895   2
  -3   8   6 99.7685 5.00204   2
  -2   8   6 906.104 52.5601   2
  -1   8   6 54.5901 3.72241  -1
   1   8   6 54.5901 3.72241   2
   0   8   6 2095.18 71.7711  -1
   0   8   6 2095.18 71.7711   2
   1   8   6 51.7329 2.66615  -1
  -1   8   6 51.7329 2.66615   2
   2   8   6 753.351 32.1102   2
   3   8   6 5.25105 1.50655   2
   4   8   6 417.903 18.5078   2
   5   8   6 129.036 9.37722  -1
  -5   8   5 129.036 9.37722   2
   5   8   6 19.8017 2.65801   2
   6   8   6 191.430 13.4528   2
  -4   9   6 15.6837 1.93609   2
  -3   9   6 688.604 29.0212   2
  -2   9   6 3.98106 2.25889   2
  -1   9   6 2367.73 136.064  -1
   1   9   6 2367.73 136.064   2
   0   9   6 7.30825 2.36433  -1
   0   9   6 7.30825 2.36433   2
   1   9   6 2160.64 124.065  -1
  -1   9   6 2160.64 124.065   2
   2   9   6 7.25579 3.03261   2
   3   9   6 523.872 32.2901   2
   4   9   6 5.84487 1.65234   2
   5   9   6 317.499 14.5150   2
   5   9   6 714.534 41.8518  -1
  -5   9   5 714.534 41.8518   2
   6   9   6 5.82977 1.96497   2
  -4  10   6 276.266 17.1879   2
  -3  10   6 136.984 9.59646   2
  -2  10   6 459.111 27.4383   2
  -1  10   6 265.822 17.1266  -1
   1  10   6 265.822 17.1266   2
   0  10   6 1114.59 64.4831  -1
   0  10   6 1114.59 64.4831   2
   1  10   6 248.988 15.8415  -1
  -1  10   6 248.988 15.8415   2
   2  10   6 497.124 30.3139   2
   3  10   6 36.1393 2.79658   2
   4  10   6 336.059 13.6885   2
   5  10   6 9.08876 5.47319  -1
  -5  10   5 9.08876 5.47319   2
   5  10   6 5.83186 1.66946   2
  -4  11   6 114.798 8.78687   2
  -3  11   6 60.4957 6.03079   2
  -2  11   6 122.578 8.69393   2
  -1  11   6 306.696 19.2417  -1
   1  11   6 306.696 19.2417   2
   0  11   6 236.548 14.7459  -1
   0  11   6 236.548 14.7459   2
   1  11   6 309.489 19.0419  -1
  -1  11   6 309.489 19.0419   2
   2  11   6 73.6652 6.75028   2
   3  11   6 178.372 7.96610   2
   4  11   6 32.7440 6.21797   2
  -2  12   6 43.9381 4.84117   2
  -1  12   6 405.208 24.8001  -1
   1  12   6 405.208 24.8001   2
   0  12   6 161.257 10.5988  -1
   0  12   6 161.257 10.5988   2
   1  12   6 401.974 24.2533  -1
  -1  12   6 401.974 24.2533   2
   2  12   6 105.772 8.37962   2
   3  12   6 81.1757 4.54858   2
   0  -8   7 308.640 13.0395  -1
   0  -8   7 308.640 13.0395   2
  -2  -7   7 136.822 6.56602   2
  -1  -7   7 240.427 10.6242  -1
   1  -7   7 240.427 10.6242   2
   0  -7   7 275.973 11.7493  -1
   0  -7   7 275.973 11.7493   2
   1  -7   7 251.012 10.9715  -1
  -1  -7   7 251.012 10.9715   2
   2  -7   7 98.1683 5.19728   2
   3  -7   7 122.623 6.12988   2
  -4  -6   7 0.29456 1.66512   2
  -3  -6   7 168.858 10.2779   2
  -2  -6   7 7.28229 1.31935   2
  -1  -6   7 515.677 21.1199  -1
   1  -6   7 515.677 21.1199   2
   0  -6   7 40.4644 3.05157  -1
   0  -6   7 40.4644 3.05157   2
   1  -6   7 527.927 21.5787  -1
  -1  -6   7 527.927 21.5787   2
   2  -6   7 26.5014 2.84032   2
   3  -6   7 184.192 8.34358   2
   4  -6   7 36.7622 3.25914   2
  -5  -5   7 6.11938 2.70140   2
  -4  -5   7 196.636 13.7223   2
  -3  -5   7 5.72687 3.79370   2
  -2  -5   7 330.947 14.0416   2
  -1  -5   7 45.2204 3.99561  -1
   1  -5   7 45.2204 3.99561   2
   0  -5   7 989.359 39.3429  -1
   0  -5   7 989.359 39.3429   2
   1  -5   7 47.9833 4.23730  -1
  -1  -5   7 47.9833 4.23730   2
   2  -5   7 456.100 18.7542   2
   3  -5   7 5.96300 1.69512   2
   4  -5   7 318.585 13.5329   2
   5  -5   7 1.38629 1.46909   2
  -5  -4   7 377.104 20.6773  -1
   5  -4   8 377.104 20.6773   2
  -5  -4   7 216.144 14.4413   2
  -4  -4   7 85.6479 7.39741   2
  -3  -4   7 499.854 20.4322   2
  -2  -4   7 137.245 8.57077   2
  -1  -4   7 2160.50 84.8985  -1
   1  -4   7 2160.50 84.8985   2
   0  -4   7 323.788 13.5600  -1
   0  -4   7 323.788 13.5600   2
   1  -4   7 2295.51 90.0849  -1
  -1  -4   7 2295.51 90.0849   2
   2  -4   7 86.7816 4.76923   2
   3  -4   7 788.292 31.6409   2
   4  -4   7 15.3043 2.06622   2
   5  -4   7 391.383 16.3301   2
   6  -4   7 2.50173 1.52472   2
  -6  -3   7 174.202 12.0946   2
  -5  -3   7 81.7851 6.81533   2
  -5  -3   7 253.574 14.4002  -1
   5  -3   8 253.574 14.4002   2
  -4  -3   7 486.090 30.4711   2
  -3  -3   7 108.185 5.44257   2
  -2  -3   7 858.125 34.3800   2
  -1  -3   7 161.729 7.81935  -1
   1  -3   7 161.729 7.81935   2
   0  -3   7 3173.10 191.836  -1
   0  -3   7 3173.10 191.836   2
   1  -3   7 146.818 9.34236  -1
  -1  -3   7 146.818 9.34236   2
   2  -3   7 1142.68 45.3601   2
   3  -3   7 2.51351 1.50083   2
   4  -3   7 634.399 25.7088   2
   6  -3   7 277.553 11.9091   2
  -6  -2   7 144.591 10.4338   2
  -5  -2   7 517.095 27.3369  -1
   5  -2   8 517.095 27.3369   2
  -5  -2   7 286.464 18.6624   2
  -4  -2   7 201.792 13.6667   2
  -3  -2   7 849.173 52.2534   2
  -2  -2   7 159.627 7.44584   2
  -1  -2   7 3555.76 139.187  -1
   1  -2   7 3555.76 139.187   2
   0  -2   7 141.537 6.62143  -1
   0  -2   7 141.537 6.62143   2
   1  -2   7 2851.44 108.774  -1
  -1  -2   7 2851.44 108.774   2
   2  -2   7 7.25972 1.61816   2
   3  -2   7 1211.72 48.1107   2
   4  -2   7 3.47404 1.44335   2
   6  -2   7 3.93437 1.35368   2
   7  -2   7 212.190 15.9646   2
  -6  -1   7 35.7506 4.59832   2
  -5  -1   7 156.312 11.1097   2
  -4  -1   7 133.376 9.62203   2
  -3  -1   7 249.717 16.4521   2
  -2  -1   7 336.586 22.0023   2
  -1  -1   7 451.147 18.7401  -1
   1  -1   7 451.147 18.7401   2
   1  -1   7 580.411 25.0408  -1
  -1  -1   7 580.411 25.0408   2
   3  -1   7 79.8610 4.49854   2
   4  -1   7 415.961 17.2374   2
   5  -1   7 18.0578 2.09708   2
   6  -1   7 226.279 9.79362   2
   7  -1   7 5.02956 3.60160   2
  -7   0   7 16.1133 3.09539   2
  -6   0   7 122.805 9.21803   2
  -5   0   7 55.6202 5.57593   2
  -5   0   7 101.181 6.43742  -1
   5   0   8 101.181 6.43742   2
  -4   0   7 252.334 16.5944   2
  -3   0   7 118.582 8.75864   2
  -2   0   7 396.108 25.3510   2
  -1   0   7 223.781 15.8299  -1
   1   0   7 223.781 15.8299   2
   0   0   7 869.231 45.3292  -1
   0   0   7 869.231 45.3292   2
   1   0   7 618.363 26.4048  -1
  -1   0   7 618.363 26.4048   2
   2   0   7 316.741 17.0041   2
   3   0   7 329.352 13.8611   2
   4   0   7 184.726 8.24405   2
   5   0   7 288.132 12.2101   2
   6   0   7 77.5983 4.23542   2
   7   0   7 159.084 12.9776   2
  -7   1   7 154.666 11.3072   2
  -6   1   7 -0.0214 2.01000   2
  -5   1   7 439.778 27.8691   2
  -4   1   7 4.92000 2.27074   2
  -3   1   7 879.807 54.0265   2
  -2   1   7 26.6594 4.18924   2
   0   1   7 135.772 8.29480  -1
   0   1   7 135.772 8.29480   2
   1   1   7 3383.77 205.443  -1
  -1   1   7 3383.77 205.443   2
   2   1   7 169.947 5.66586   2
   3   1   7 1276.82 36.1073   2
   4   1   7 193.163 6.88039   2
   5   1   7 628.297 25.2971   2
   6   1   7 149.554 12.1357   2
   7   1   7 201.227 15.0676   2
  -7   2   7 0.69376 2.46970   2
  -6   2   7 404.707 25.8775   2
  -5   2   7 3.95103 2.40491   2
  -4   2   7 956.101 58.6696   2
  -3   2   7 0.07533 1.98128   2
  -2   2   7 1579.77 96.0782   2
  -1   2   7 131.839 8.39899  -1
   1   2   7 131.839 8.39899   2
   0   2   7 4668.35 282.015  -1
   0   2   7 4668.35 282.015   2
   1   2   7 99.9171 6.45095  -1
  -1   2   7 99.9171 6.45095   2
   2   2   7 1555.53 64.9768   2
   3   2   7 189.020 8.81675   2
   4   2   7 835.278 35.4129   2
   5   2   7 180.223 8.71361   2
   6   2   7 294.536 13.3639   2
   7   2   7 92.2489 8.72720   2
  -7   3   7 217.590 14.9808   2
  -6   3   7 31.3387 4.81356   2
  -5   3   7 633.838 39.4894   2
  -4   3   7 46.2598 5.10468   2
  -3   3   7 1218.90 74.3034   2
  -2   3   7 4.56141 2.29646   2
  -1   3   7 3647.65 151.654  -1
   1   3   7 3647.65 151.654   2
   0   3   7 286.588 12.6908  -1
   0   3   7 286.588 12.6908   2
   1   3   7 3419.02 142.154  -1
  -1   3   7 3419.02 142.154   2
   2   3   7 356.878 15.5521   2
   3   3   7 1269.50 53.1864   2
   4   3   7 361.850 12.1903   2
   5   3   7 574.168 24.6932   2
   6   3   7 205.010 9.70451   2
   7   3   7 169.342 8.33739   2
  -7   4   7 21.7598 3.60851   2
  -6   4   7 262.716 17.4805   2
  -5   4   7 12.5285 2.77730   2
  -5   4   7 103.878 7.88911  -1
   5   4   8 103.878 7.88911   2
  -4   4   7 695.221 42.9489   2
  -3   4   7 1.04486 1.80164   2
  -2   4   7 1068.55 44.6943   2
   0   4   7 3436.54 142.763  -1
   0   4   7 3436.54 142.763   2
   1   4   7 268.583 16.0650  -1
  -1   4   7 268.583 16.0650   2
   2   4   7 1261.60 52.8710   2
   3   4   7 251.723 11.2981   2
   4   4   7 679.791 22.3195   2
   5   4   7 150.961 7.41430   2
   6   4   7 303.692 13.6541   2
   7   4   7 63.5964 4.18600   2
  -7   5   7 100.290 8.19371   2
  -6   5   7 92.3712 7.63264   2
  -5   5   7 294.472 19.0890   2
  -5   5   7 599.743 35.4548  -1
   5   5   8 599.743 35.4548   2
  -4   5   7 163.024 11.2076   2
  -3   5   7 595.380 25.1755   2
  -2   5   7 140.278 6.54701   2
  -1   5   7 1325.47 76.8883  -1
   1   5   7 1325.47 76.8883   2
   0   5   7 157.544 7.43519  -1
   0   5   7 157.544 7.43519   2
   1   5   7 2300.17 95.8244  -1
  -1   5   7 2300.17 95.8244   2
   2   5   7 7.16237 2.03573   2
   3   5   7 888.851 37.5280   2
   4   5   7 0.46551 1.31718   2
   5   5   7 441.916 19.2278   2
   6   5   7 1.72017 1.50867   2
   7   5   7 184.759 8.83689   2
  -6   6   7 41.1781 4.81572   2
  -5   6   7 116.387 8.61531   2
  -4   6   7 78.1694 4.19617   2
  -3   6   7 207.027 9.24660   2
  -2   6   7 149.983 6.99781   2
  -1   6   7 717.869 30.5981  -1
   1   6   7 717.869 30.5981   2
   0   6   7 605.610 25.7210  -1
   0   6   7 605.610 25.7210   2
   1   6   7 755.833 31.9668  -1
  -1   6   7 755.833 31.9668   2
   2   6   7 326.367 20.5610   2
   3   6   7 143.765 7.08650   2
   4   6   7 313.307 13.9636   2
   5   6   7 41.4081 3.34098   2
   6   6   7 188.452 9.02037   2
   7   6   7 3.77390 1.64008   2
  -4   7   7 365.054 15.7373   2
  -3   7   7 334.972 14.4742   2
  -2   7   7 491.636 20.9488   2
  -1   7   7 1459.53 61.0440  -1
   1   7   7 1459.53 61.0440   2
   0   7   7 1396.13 58.3218  -1
   0   7   7 1396.13 58.3218   2
   1   7   7 1575.26 65.6714  -1
  -1   7   7 1575.26 65.6714   2
   2   7   7 426.642 26.4099   2
   3   7   7 577.883 24.9308   2
   4   7   7 209.259 9.85973   2
   5   7   7 423.802 18.6126   2
   6   7   7 56.2954 4.01247   2
  -4   8   7 99.4905 5.02163   2
  -3   8   7 874.888 36.7122   2
  -2   8   7 284.857 17.4147   2
  -1   8   7 2545.66 105.878  -1
   1   8   7 2545.66 105.878   2
   0   8   7 1094.49 45.8172  -1
   0   8   7 1094.49 45.8172   2
   1   8   7 2491.29 103.546  -1
  -1   8   7 2491.29 103.546   2
   2   8   7 442.884 19.3632   2
   3   8   7 587.924 36.1338   2
   4   8   7 322.337 14.5782   2
   5   8   7 226.954 10.7513   2
   5   8   7 344.503 20.9075  -1
  -5   8   6 344.503 20.9075   2
   6   8   7 156.724 7.96931   2
  -4   9   7 341.151 14.7710   2
  -3   9   7 143.803 6.80341   2
  -2   9   7 497.995 21.1977   2
  -1   9   7 1021.00 42.8466  -1
   1   9   7 1021.00 42.8466   2
   0   9   7 1053.29 61.0721  -1
   0   9   7 1053.29 61.0721   2
   1   9   7 1010.57 42.3520  -1
  -1   9   7 1010.57 42.3520   2
   2   9   7 300.023 13.4948   2
   3   9   7 443.435 27.3742   2
   4   9   7 136.345 9.32583   2
   5   9   7 631.637 37.2001  -1
  -5   9   6 631.637 37.2001   2
   5   9   7 233.005 16.1082   2
   6   9   7 40.2926 3.87301   2
  -4  10   7 26.4619 4.39950   2
  -3  10   7 282.580 17.5345   2
  -2  10   7 135.465 9.46506   2
  -1  10   7 906.054 53.0284  -1
   1  10   7 906.054 53.0284   2
   0  10   7 561.051 33.1036  -1
   0  10   7 561.051 33.1036   2
   1  10   7 847.027 49.4568  -1
  -1  10   7 847.027 49.4568   2
   2  10   7 310.600 19.9438   2
   3  10   7 244.775 16.5833   2
   4  10   7 252.162 13.7163   2
   5  10   7 151.569 10.3851   2
   5  10   7 281.237 17.7382  -1
  -5  10   6 281.237 17.7382   2
  -4  11   7 127.726 9.43890   2
  -3  11   7 1.99691 2.54489   2
  -2  11   7 190.146 12.4111   2
  -1  11   7 9.19282 4.85427  -1
   1  11   7 9.19282 4.85427   2
   0  11   7 446.777 26.5963  -1
   0  11   7 446.777 26.5963   2
   1  11   7 13.4103 4.49670  -1
  -1  11   7 13.4103 4.49670   2
   2  11   7 208.611 14.0663   2
   3  11   7 7.68952 3.29686   2
   4  11   7 118.324 10.3461   2
  -2  12   7 33.3342 4.42932   2
  -1  12   7 427.191 26.0231  -1
   1  12   7 427.191 26.0231   2
   0  12   7 36.7496 4.29827  -1
   0  12   7 36.7496 4.29827   2
   1  12   7 433.421 26.0379  -1
  -1  12   7 433.421 26.0379   2
   2  12   7 2.93550 2.79099   2
   3  12   7 133.390 10.3947   2
  -1  -7   8 17.4120 3.35946  -1
   1  -7   8 17.4120 3.35946   2
   0  -7   8 362.551 15.1396  -1
   0  -7   8 362.551 15.1396   2
   1  -7   8 15.7578 3.40327  -1
  -1  -7   8 15.7578 3.40327   2
  -3  -6   8 87.3606 5.20810   2
  -2  -6   8 63.0852 4.05524   2
  -1  -6   8 376.164 15.7934  -1
   1  -6   8 376.164 15.7934   2
   0  -6   8 80.5851 4.45696  -1
   0  -6   8 80.5851 4.45696   2
   1  -6   8 383.507 16.0457  -1
  -1  -6   8 383.507 16.0457   2
   2  -6   8 14.9258 1.96568   2
   3  -6   8 173.411 8.00471   2
  -4  -5   8 49.9671 6.61275   2
  -3  -5   8 64.3013 5.22385   2
  -2  -5   8 116.410 5.96903   2
  -1  -5   8 143.140 7.13544  -1
   1  -5   8 143.140 7.13544   2
   0  -5   8 350.115 14.6044  -1
   0  -5   8 350.115 14.6044   2
   1  -5   8 152.253 7.49515  -1
  -1  -5   8 152.253 7.49515   2
   2  -5   8 181.644 8.24186   2
   3  -5   8 48.7405 3.58704   2
   4  -5   8 138.860 6.73956   2
  -4  -4   8 141.335 10.7804   2
  -3  -4   8 75.0790 5.68855   2
  -2  -4   8 207.619 9.50972   2
  -1  -4   8 362.718 15.2708  -1
   1  -4   8 362.718 15.2708   2
   0  -4   8 618.795 24.9695  -1
   0  -4   8 618.795 24.9695   2
   1  -4   8 385.744 16.1293  -1
  -1  -4   8 385.744 16.1293   2
   2  -4   8 268.168 11.5500   2
   3  -4   8 205.733 9.25925   2
   4  -4   8 170.136 7.94579   2
  -5  -3   8 369.225 20.1595  -1
   5  -3   9 369.225 20.1595   2
  -5  -3   8 159.602 11.3690   2
  -4  -3   8 19.3663 3.53493   2
  -3  -3   8 254.781 17.4517   2
  -2  -3   8 68.6707 4.67443   2
  -1  -3   8 1011.12 40.3186  -1
   1  -3   8 1011.12 40.3186   2
   0  -3   8 415.464 17.0923  -1
   0  -3   8 415.464 17.0923   2
   1  -3   8 1091.54 43.3965  -1
  -1  -3   8 1091.54 43.3965   2
   2  -3   8 268.161 11.5725   2
   3  -3   8 355.176 14.9486   2
   4  -3   8 220.129 9.83372   2
   6  -3   8 125.680 6.25511   2
  -6  -2   8 258.134 17.0564   2
  -5  -2   8 3.45425 2.35670   2
  -5  -2   8 28.8803 4.19742  -1
   5  -2   9 28.8803 4.19742   2
  -4  -2   8 619.281 38.5573   2
  -3  -2   8 1.25072 3.01459   2
  -2  -2   8 925.426 37.0862   2
  -1  -2   8 265.662 11.5872  -1
   1  -2   8 265.662 11.5872   2
   0  -2   8 2862.65 112.178  -1
   0  -2   8 2862.65 112.178   2
   1  -2   8 162.249 9.59026  -1
  -1  -2   8 162.249 9.59026   2
   2  -2   8 1018.20 40.5880   2
   3  -2   8 254.502 11.1275   2
   4  -2   8 468.694 19.3622   2
   6  -2   8 159.200 7.44002   2
  -6  -1   8 49.9657 5.44490   2
  -5  -1   8 353.897 19.0539  -1
   5  -1   9 353.897 19.0539   2
  -5  -1   8 175.842 12.1718   2
  -4  -1   8 59.7790 5.94338   2
  -3  -1   8 362.684 23.4578   2
  -2  -1   8 33.6233 6.30462   2
  -1  -1   8 1362.73 53.9967  -1
   1  -1   8 1362.73 53.9967   2
   0  -1   8 7.92445 1.69013  -1
   0  -1   8 7.92445 1.69013   2
   2  -1   8 8.74063 1.63565   2
   3  -1   8 442.774 18.4116   2
   4  -1   8 32.2801 2.68894   2
   5  -1   8 263.978 11.4314   2
   6  -1   8 36.4696 2.89830   2
  -6   0   8 134.832 9.98715   2
  -5   0   8 4.17398 2.34964   2
  -4   0   8 332.368 21.4382   2
  -3   0   8 2.39935 2.35335   2
  -2   0   8 431.646 27.9074   2
  -1   0   8 18.7169 6.04604  -1
   1   0   8 18.7169 6.04604   2
   1   0   8 85.8753 11.7149  -1
  -1   0   8 85.8753 11.7149   2
   2   0   8 562.167 29.5713   2
   3   0   8 12.0929 1.96365   2
   4   0   8 284.767 12.2519   2
   6   0   8 130.244 6.26217   2
   7   0   8 15.9244 4.55128   2
  -6   1   8 54.5231 5.66284   2
  -5   1   8 289.790 18.9426   2
  -4   1   8 96.4216 7.71367   2
  -3   1   8 521.688 32.7115   2
  -2   1   8 103.204 8.73593   2
  -1   1   8 814.712 51.1107  -1
   1   1   8 814.712 51.1107   2
   0   1   8 234.550 14.0091  -1
   0   1   8 234.550 14.0091   2
   1   1   8 2780.53 169.232  -1
  -1   1   8 2780.53 169.232   2
   2   1   8 78.3040 5.12932   2
   3   1   8 748.596 28.8232   2
   4   1   8 19.0417 2.09297   2
   5   1   8 428.042 28.5701   2
   6   1   8 0.81007 3.00248   2
   7   1   8 183.779 14.5364   2
  -6   2   8 111.555 8.67764   2
  -5   2   8 117.876 9.08539   2
  -4   2   8 362.395 23.2061   2
  -3   2   8 181.130 12.5123   2
  -2   2   8 665.178 41.6234   2
   0   2   8 2746.19 114.337  -1
   0   2   8 2746.19 114.337   2
   1   2   8 570.441 24.5773  -1
  -1   2   8 570.441 24.5773   2
   2   2   8 1430.10 57.7341   2
   3   2   8 201.806 9.40238   2
   4   2   8 860.342 36.5129   2
   5   2   8 85.8999 5.01154   2
   6   2   8 389.202 26.0603   2
   7   2   8 15.7807 4.29097   2
  -6   3   8 169.549 11.9736   2
  -5   3   8 322.574 19.4963  -1
   5   3   9 322.574 19.4963   2
  -5   3   8 183.720 12.7505   2
  -4   3   8 437.776 27.6854   2
  -3   3   8 512.433 32.0946   2
  -2   3   8 668.428 28.3411   2
  -1   3   8 2578.05 107.260  -1
   1   3   8 2578.05 107.260   2
   0   3   8 2602.77 108.355  -1
   0   3   8 2602.77 108.355   2
   1   3   8 3132.72 130.097  -1
  -1   3   8 3132.72 130.097   2
   2   3   8 841.200 35.5609   2
   3   3   8 1206.49 50.6575   2
   4   3   8 325.471 14.4638   2
   5   3   8 661.118 28.3375   2
   6   3   8 74.0245 4.61822   2
   7   3   8 267.473 12.3132   2
  -6   4   8 14.2021 2.76633   2
  -5   4   8 342.529 22.0459   2
  -4   4   8 92.9883 7.43269   2
  -3   4   8 490.355 30.7006   2
  -2   4   8 325.488 14.2321   2
  -1   4   8 595.256 35.2137  -1
   1   4   8 595.256 35.2137   2
   0   4   8 1885.44 108.376  -1
   0   4   8 1885.44 108.376   2
   1   4   8 1297.34 54.4452  -1
  -1   4   8 1297.34 54.4452   2
   2   4   8 926.411 39.0898   2
   3   4   8 274.703 12.2835   2
   4   4   8 603.810 25.8102   2
   6   4   8 314.707 14.1367   2
   7   4   8 17.5316 2.20527   2
  -6   5   8 191.260 13.0759   2
  -5   5   8 5.28537 4.45301  -1
   5   5   9 5.28537 4.45301   2
  -5   5   8 2.86309 2.15648   2
  -4   5   8 466.246 29.2128   2
  -3   5   8 56.1472 3.35593   2
  -2   5   8 668.565 28.3002   2
  -1   5   8 399.602 24.3067  -1
   1   5   8 399.602 24.3067   2
   0   5   8 2304.90 95.9901  -1
   0   5   8 2304.90 95.9901   2
   2   5   8 678.810 28.9519   2
   3   5   8 458.786 19.8522   2
   4   5   8 316.273 14.0446   2
   6   5   8 103.659 5.64619   2
   7   5   8 138.949 7.03869   2
  -6   6   8 -0.1959 1.86945   2
  -5   6   8 170.760 11.7375   2
  -4   6   8 0.60349 1.14540   2
  -3   6   8 308.499 13.4326   2
  -2   6   8 1.37548 1.26379   2
  -1   6   8 1027.88 43.3970  -1
   1   6   8 1027.88 43.3970   2
   0   6   8 12.8076 2.01074  -1
   0   6   8 12.8076 2.01074   2
   1   6   8 1173.52 49.2096  -1
  -1   6   8 1173.52 49.2096   2
   2   6   8 3.25253 2.16062   2
   3   6   8 344.073 15.1986   2
   4   6   8 14.8296 1.93396   2
   5   6   8 182.670 8.71214   2
   6   6   8 18.7168 2.36647   2
   7   6   8 75.1767 4.60351   2
  -6   7   8 175.661 8.18661   2
  -4   7   8 405.266 17.4102   2
  -3   7   8 23.4952 2.36542   2
  -2   7   8 556.031 23.6437   2
  -1   7   8 127.603 6.63972  -1
   1   7   8 127.603 6.63972   2
   0   7   8 1970.25 82.0579  -1
   0   7   8 1970.25 82.0579   2
   1   7   8 132.842 6.68456  -1
  -1   7   8 132.842 6.68456   2
   3   7   8 48.8697 3.55026   2
   4   7   8 378.421 16.7249   2
   5   7   8 56.9537 3.97404   2
   5   7   8 207.669 13.2514  -1
  -5   7   7 207.669 13.2514   2
   6   7   8 331.090 20.1954  -1
  -6   7   7 331.090 20.1954   2
   6   7   8 163.419 8.04349   2
  -4   8   8 35.6056 2.78729   2
  -3   8   8 650.498 27.5231   2
  -2   8   8 32.2828 2.90426   2
  -1   8   8 2909.35 120.881  -1
   1   8   8 2909.35 120.881   2
   0   8   8 39.3798 2.83587  -1
   0   8   8 39.3798 2.83587   2
   1   8   8 2884.04 119.773  -1
  -1   8   8 2884.04 119.773   2
   2   8   8 0.09085 1.26362   2
   3   8   8 941.831 57.4137   2
   4   8   8 0.80369 1.52521   2
   5   8   8 529.979 23.0772   2
   5   8   8 1013.64 58.6333  -1
  -5   8   7 1013.64 58.6333   2
   6   8   8 4.81986 1.79483   2
   6   8   8 33.3618 5.45510  -1
  -6   8   7 33.3618 5.45510   2
  -4   9   8 253.001 11.2030   2
  -3   9   8 39.9833 4.34188   2
  -2   9   8 551.249 23.4303   2
  -1   9   8 102.795 5.60907  -1
   1   9   8 102.795 5.60907   2
   0   9   8 1514.52 63.1604  -1
   0   9   8 1514.52 63.1604   2
   1   9   8 106.482 5.61961  -1
  -1   9   8 106.482 5.61961   2
   2   9   8 641.967 27.5022   2
   3   9   8 1.66353 1.41763   2
   4   9   8 404.206 25.2503   2
   5   9   8 0.71862 1.56418   2
   5   9   8 38.7384 5.72322  -1
  -5   9   7 38.7384 5.72322   2
  -4  10   8 115.437 8.38114   2
  -3  10   8 168.363 11.1952   2
  -2  10   8 119.889 8.65090   2
  -1  10   8 750.151 44.2144  -1
   1  10   8 750.151 44.2144   2
   0  10   8 157.388 10.4459  -1
   0  10   8 157.388 10.4459   2
   1  10   8 674.398 39.7038  -1
  -1  10   8 674.398 39.7038   2
   2  10   8 16.5966 2.07283   2
   3  10   8 292.403 18.3314   2
   4  10   8 -0.0986 1.33709   2
   5  10   8 122.480 10.6973   2
  -3  11   8 119.027 8.87746   2
  -2  11   8 92.3757 7.18767   2
  -1  11   8 196.358 13.2156  -1
   1  11   8 196.358 13.2156   2
   0  11   8 271.385 16.7093  -1
   0  11   8 271.385 16.7093   2
   1  11   8 181.215 12.2049  -1
  -1  11   8 181.215 12.2049   2
   2  11   8 153.594 11.0981   2
   3  11   8 18.7449 3.98969   2
   4  11   8 66.1068 7.81195   2
  -2  12   8 176.558 11.7340   2
  -1  12   8 106.623 8.83984  -1
   1  12   8 106.623 8.83984   2
   0  12   8 381.547 22.9539  -1
   0  12   8 381.547 22.9539   2
   1  12   8 103.014 8.25109  -1
  -1  12   8 103.014 8.25109   2
   2  12   8 149.185 10.8008   2
  -1  -6   9 25.1923 3.66121  -1
   1  -6   9 25.1923 3.66121   2
   0  -6   9 542.365 22.0836  -1
   0  -6   9 542.365 22.0836   2
   1  -6   9 24.5867 3.67927  -1
  -1  -6   9 24.5867 3.67927   2
   2  -6   9 216.788 9.66971   2
  -3  -5   9 201.353 9.31711   2
  -2  -5   9 0.32492 1.63760   2
  -1  -5   9 603.627 24.6003  -1
   1  -5   9 603.627 24.6003   2
   0  -5   9 12.3593 2.01934  -1
   0  -5   9 12.3593 2.01934   2
   1  -5   9 631.490 25.6266  -1
  -1  -5   9 631.490 25.6266   2
   2  -5   9 11.2080 1.89891   2
   3  -5   9 160.699 7.57949   2
  -4  -4   9 130.187 10.9349   2
  -3  -4   9 -0.9973 4.20613   2
  -2  -4   9 293.596 12.6165   2
  -1  -4   9 6.74505 3.36652  -1
   1  -4   9 6.74505 3.36652   2
   0  -4   9 789.118 31.6040  -1
   0  -4   9 789.118 31.6040   2
   1  -4   9 4.96884 3.37369  -1
  -1  -4   9 4.96884 3.37369   2
   2  -4   9 323.684 13.7024   2
   3  -4   9 3.54058 1.64610   2
   4  -4   9 199.313 9.00343   2
  -4  -3   9 13.9824 3.65363   2
  -3  -3   9 135.448 11.5101   2
  -2  -3   9 15.0971 2.35153   2
  -1  -3   9 871.196 34.8984  -1
   1  -3   9 871.196 34.8984   2
   0  -3   9 43.3340 3.38754  -1
   0  -3   9 43.3340 3.38754   2
   1  -3   9 893.526 35.7413  -1
  -1  -3   9 893.526 35.7413   2
   2  -3   9 7.19481 1.76800   2
   3  -3   9 315.856 13.4703   2
   4  -3   9 -1.0428 1.48321   2
  -5  -2   9 91.4988 7.84485   2
  -5  -2   9 198.342 11.5781  -1
   5  -2  10 198.342 11.5781   2
  -4  -2   9 114.210 9.20987   2
  -3  -2   9 126.089 10.6194   2
  -2  -2   9 248.941 18.1089   2
  -1  -2   9 498.445 20.5478  -1
   1  -2   9 498.445 20.5478   2
   0  -2   9 1194.79 47.3457  -1
   0  -2   9 1194.79 47.3457   2
   1  -2   9 604.596 38.4271  -1
  -1  -2   9 604.596 38.4271   2
   2  -2   9 652.367 26.4224   2
   3  -2   9 96.8162 5.23134   2
   4  -2   9 505.437 20.8310   2
   6  -2   9 285.081 12.3291   2
  -5  -1   9 17.6477 3.19783   2
  -5  -1   9 22.3214 3.92598  -1
   5  -1  10 22.3214 3.92598   2
  -4  -1   9 270.833 18.0877   2
  -3  -1   9 51.9867 6.76003   2
  -2  -1   9 376.189 25.2671   2
  -1  -1   9 354.407 15.0427  -1
   1  -1   9 354.407 15.0427   2
   0  -1   9 1226.20 63.7296  -1
   0  -1   9 1226.20 63.7296   2
   1  -1   9 550.761 35.5112  -1
  -1  -1   9 550.761 35.5112   2
   2  -1   9 458.071 18.9608   2
   3  -1   9 185.077 8.55155   2
   4  -1   9 208.893 9.50787   2
   6  -1   9 74.2188 4.23959   2
  -6   0   9 4.17583 2.56267   2
  -5   0   9 214.637 14.5298   2
  -4   0   9 40.1729 5.19968   2
  -3   0   9 322.235 21.3313   2
  -2   0   9 108.404 10.4135   2
  -1   0   9 619.426 39.7633  -1
   1   0   9 619.426 39.7633   2
   0   0   9 628.721 39.6203  -1
   0   0   9 628.721 39.6203   2
   1   0   9 967.826 60.5643  -1
  -1   0   9 967.826 60.5643   2
   2   0   9 262.071 14.4031   2
   3   0   9 97.2061 6.11067   2
   4   0   9 183.417 8.51177   2
   5   0   9 19.0773 4.71831   2
   6   0   9 105.419 5.49923   2
  -6   1   9 159.992 11.4871   2
  -5   1   9 44.1571 5.13632   2
  -4   1   9 341.285 22.1007   2
  -3   1   9 127.482 9.97081   2
  -2   1   9 457.628 29.8212   2
  -1   1   9 557.315 35.8787  -1
   1   1   9 557.315 35.8787   2
   0   1   9 1909.53 64.3745  -1
   0   1   9 1909.53 64.3745   2
   1   1   9 721.054 41.4828  -1
  -1   1   9 721.054 41.4828   2
   2   1   9 83.3439 7.84963   2
   3   1   9 211.693 15.7923   2
   4   1   9 212.409 16.1625   2
   5   1   9 200.690 15.5652   2
   6   1   9 79.1558 8.96602   2
  -6   2   9 -0.4213 2.28871   2
  -5   2   9 300.878 19.6943   2
  -4   2   9 14.0935 2.88813   2
  -3   2   9 445.725 28.4727   2
  -2   2   9 47.0685 6.82124   2
   0   2   9 302.275 13.4998  -1
   0   2   9 302.275 13.4998   2
   1   2   9 1214.39 69.7155  -1
  -1   2   9 1214.39 69.7155   2
   2   2   9 182.727 10.8330   2
   3   2   9 369.347 16.3374   2
   4   2   9 161.346 7.96066   2
   5   2   9 215.832 10.1917   2
   6   2   9 104.606 9.87139   2
   7   2   9 75.3939 8.93642   2
  -6   3   9 95.1086 7.88177   2
  -5   3   9 6.95598 2.48655   2
  -4   3   9 219.146 14.8301   2
  -3   3   9 -0.9309 2.30924   2
  -2   3   9 337.545 14.9142   2
  -1   3   9 113.261 6.09685  -1
   1   3   9 113.261 6.09685   2
   0   3   9 1638.54 68.5528  -1
   0   3   9 1638.54 68.5528   2
   1   3   9 101.286 6.88980  -1
  -1   3   9 101.286 6.88980   2
   2   3   9 713.972 30.3761   2
   3   3   9 119.230 6.10535   2
   4   3   9 600.436 25.7994   2
   6   3   9 308.885 13.9874   2
   7   3   9 59.0446 7.63086   2
  -6   4   9 24.2375 4.43087   2
  -5   4   9 221.355 14.9267   2
  -5   4   9 438.735 26.0459  -1
   5   4  10 438.735 26.0459   2
  -4   4   9 80.0891 6.88341   2
  -3   4   9 389.564 16.8733   2
  -2   4   9 93.2430 6.19224   2
   0   4   9 211.806 9.84223  -1
   0   4   9 211.806 9.84223   2
   2   4   9 14.7010 2.16513   2
   3   4   9 745.497 31.6586   2
   4   4   9 1.37041 1.42225   2
   5   4   9 422.382 18.5036   2
   6   4   9 9.88865 1.84298   2
   7   4   9 170.699 8.45266   2
  -6   5   9 75.4645 6.66630   2
  -5   5   9 239.911 15.9693   2
  -4   5   9 168.070 7.79909   2
  -3   5   9 359.036 15.5984   2
  -2   5   9 328.372 19.4493   2
  -1   5   9 458.641 27.7469  -1
   1   5   9 458.641 27.7469   2
   0   5   9 1392.54 58.3388  -1
   0   5   9 1392.54 58.3388   2
   1   5   9 715.878 30.4671  -1
  -1   5   9 715.878 30.4671   2
   2   5   9 618.864 26.5035   2
   3   5   9 45.6668 3.31253   2
   4   5   9 470.247 20.3837   2
   6   5   9 247.637 11.3898   2
  -6   6   9 71.8185 6.34467   2
  -4   6   9 141.149 6.72479   2
  -3   6   9 228.280 10.2730   2
  -2   6   9 165.995 10.4408   2
  -1   6   9 856.776 36.3721  -1
   1   6   9 856.776 36.3721   2
   1   6   9 939.632 39.6020  -1
  -1   6   9 939.632 39.6020   2
   2   6   9 79.2646 4.61735   2
   3   6   9 310.543 13.8632   2
   4   6   9 39.1681 3.22551   2
   5   6   9 179.078 8.58588   2
   6   6   9 12.6548 1.94648   2
  -4   7   9 244.397 10.8835   2
  -3   7   9 193.100 8.86705   2
  -2   7   9 470.776 27.7251   2
  -1   7   9 299.433 13.5539  -1
   1   7   9 299.433 13.5539   2
   0   7   9 1619.70 93.3665  -1
   0   7   9 1619.70 93.3665   2
   1   7   9 301.393 13.4593  -1
  -1   7   9 301.393 13.4593   2
   3   7   9 26.7294 2.83529   2
   4   7   9 328.931 14.6995   2
   5   7   9 2.93184 2.44702   2
   5   7   9 9.58165 3.91191  -1
  -5   7   8 9.58165 3.91191   2
   6   7   9 149.330 7.44238   2
  -4   8   9 156.939 7.37256   2
  -3   8   9 127.049 6.23675   2
  -2   8   9 253.019 11.2927   2
  -1   8   9 932.153 39.3223  -1
   1   8   9 932.153 39.3223   2
   0   8   9 669.569 28.3611  -1
   0   8   9 669.569 28.3611   2
   1   8   9 923.503 38.8253  -1
  -1   8   9 923.503 38.8253   2
   2   8   9 226.536 14.6159   2
   3   8   9 400.730 25.1043   2
   4   8   9 135.325 7.01987   2
   5   8   9 278.520 12.7659   2
   5   8   9 608.643 35.7583  -1
  -5   8   8 608.643 35.7583   2
   6   8   9 53.1816 3.99537   2
  -4   9   9 24.5308 2.63191   2
  -3   9   9 125.164 8.88600   2
  -2   9   9 84.6972 4.61705   2
  -1   9   9 893.181 37.7065  -1
   1   9   9 893.181 37.7065   2
   0   9   9 331.582 14.4252  -1
   0   9   9 331.582 14.4252   2
   1   9   9 876.615 36.8974  -1
  -1   9   9 876.615 36.8974   2
   2   9   9 171.539 8.30665   2
   4   9   9 149.583 10.2982   2
   5   9   9 139.621 7.36067   2
   5   9   9 246.390 15.6207  -1
  -5   9   8 246.390 15.6207   2
  -4  10   9 59.6404 6.92093   2
  -3  10   9 3.47038 1.57020   2
  -2  10   9 284.874 12.5236   2
  -1  10   9 33.5275 3.28785  -1
   1  10   9 33.5275 3.28785   2
   0  10   9 763.040 32.1238  -1
   0  10   9 763.040 32.1238   2
   1  10   9 26.7513 2.94733  -1
  -1  10   9 26.7513 2.94733   2
   2  10   9 336.959 14.9349   2
   3  10   9 38.8413 3.86834   2
  -3  11   9 214.184 13.9426   2
  -2  11   9 2.90375 2.43304   2
  -1  11   9 711.706 41.9950  -1
   1  11   9 711.706 41.9950   2
   0  11   9 2.35684 2.08398  -1
   0  11   9 2.35684 2.08398   2
   1  11   9 655.918 38.6154  -1
  -1  11   9 655.918 38.6154   2
   2  11   9 9.38693 3.07024   2
   3  11   9 185.163 13.2508   2
  -1  12   9 10.8841 5.13300  -1
   1  12   9 10.8841 5.13300   2
   0  12   9 474.511 28.2014  -1
   0  12   9 474.511 28.2014   2
   1  12   9 11.7915 4.99736  -1
  -1  12   9 11.7915 4.99736   2
   2  12   9 230.082 15.2767   2
  -1  -5  10 382.427 16.1540  -1
   1  -5  10 382.427 16.1540   2
   0  -5  10 186.630 8.48016  -1
   0  -5  10 186.630 8.48016   2
   1  -5  10 391.043 16.4701  -1
  -1  -5  10 391.043 16.4701   2
   2  -5  10 53.5077 3.82643   2
  -2  -4  10 96.4793 5.34909   2
  -1  -4  10 319.306 13.7419  -1
   1  -4  10 319.306 13.7419   2
   0  -4  10 367.800 15.3323  -1
   0  -4  10 367.800 15.3323   2
   1  -4  10 339.239 14.5141  -1
  -1  -4  10 339.239 14.5141   2
   2  -4  10 206.031 9.22013   2
   3  -4  10 60.4436 4.04837   2
  -3  -3  10 11.4449 4.82700   2
  -2  -3  10 96.4187 5.31062   2
  -1  -3  10 213.671 9.74081  -1
   1  -3  10 213.671 9.74081   2
   0  -3  10 202.038 9.01917  -1
   0  -3  10 202.038 9.01917   2
   1  -3  10 245.841 17.0917  -1
  -1  -3  10 245.841 17.0917   2
   2  -3  10 81.4071 4.69410   2
   3  -3  10 125.864 6.30746   2
   4  -3  10 50.5413 3.62691   2
  -4  -2  10 3.39507 3.49190   2
  -3  -2  10 53.2913 7.90505   2
  -2  -2  10 0.31094 4.08350   2
  -1  -2  10 412.287 17.2361  -1
   1  -2  10 412.287 17.2361   2
   0  -2  10 25.8302 2.90559  -1
   0  -2  10 25.8302 2.90559   2
   1  -2  10 498.660 31.9831  -1
  -1  -2  10 498.660 31.9831   2
   2  -2  10 27.1440 2.79643   2
   3  -2  10 177.934 8.23338   2
   4  -2  10 39.4949 3.32850   2
  -5  -1  10 7.16797 3.33188   2
  -4  -1  10 116.681 9.65219   2
  -3  -1  10 9.95049 4.35498   2
  -2  -1  10 225.992 16.8215   2
  -1  -1  10 27.5110 7.50772  -1
   1  -1  10 27.5110 7.50772   2
   0  -1  10 771.476 30.9229  -1
   0  -1  10 771.476 30.9229   2
   1  -1  10 29.8191 2.25580  -1
  -1  -1  10 29.8191 2.25580   2
   2  -1  10 356.785 15.0729   2
   3  -1  10 0.82654 1.46996   2
   4  -1  10 264.249 11.6520   2
  -5   0  10 158.265 11.6419   2
  -4   0  10 62.9927 6.77540   2
  -3   0  10 282.098 19.4709   2
  -2   0  10 65.2538 9.35175   2
  -1   0  10 1512.16 93.0782  -1
   1   0  10 1512.16 93.0782   2
   0   0  10 194.989 14.2175  -1
   0   0  10 194.989 14.2175   2
   1   0  10 1163.55 66.6553  -1
  -1   0  10 1163.55 66.6553   2
   2   0  10 19.0885 2.41689   2
   3   0  10 467.397 24.8017   2
   4   0  10 0.95963 1.34672   2
   5   0  10 176.566 14.2452   2
   6   0  10 -1.2356 3.83980   2
  -5   1  10 70.7639 6.77896   2
  -4   1  10 199.309 14.0801   2
  -3   1  10 57.1192 7.11223   2
  -2   1  10 406.770 27.3990   2
  -1   1  10 71.0208 8.91840  -1
   1   1  10 71.0208 8.91840   2
   1   1  10 92.8841 5.16201  -1
  -1   1  10 92.8841 5.16201   2
   2   1  10 57.8335 6.72606   2
   3   1  10 0.45604 2.60474   2
   4   1  10 258.586 19.0220   2
   5   1  10 3.24104 3.40293   2
   6   1  10 172.756 14.7629   2
  -5   2  10 189.005 13.1860   2
  -4   2  10 58.6848 6.39052   2
  -3   2  10 350.022 23.2144   2
  -2   2  10 59.0679 4.27800   2
   0   2  10 117.471 6.17426  -1
   0   2  10 117.471 6.17426   2
   1   2  10 1822.97 104.316  -1
  -1   2  10 1822.97 104.316   2
   2   2  10 9.32714 3.19085   2
   3   2  10 392.551 26.3184   2
   4   2  10 7.21005 1.46706   2
   5   2  10 312.317 22.0262   2
   6   2  10 5.18829 3.96151   2
  -5   3  10 121.108 9.30752   2
  -4   3  10 66.4907 6.59039   2
  -3   3  10 126.393 10.1623   2
  -2   3  10 172.954 10.5350   2
  -1   3  10 418.820 18.3715  -1
   1   3  10 418.820 18.3715   2
   0   3  10 764.992 32.5337  -1
   0   3  10 764.992 32.5337   2
   1   3  10 375.232 22.2114  -1
  -1   3  10 375.232 22.2114   2
   2   3  10 285.059 12.7663   2
   3   3  10 83.5500 4.72073   2
   4   3  10 230.331 10.7195   2
   5   3  10 27.4431 2.83560   2
   6   3  10 137.093 7.07385   2
  -5   4  10 9.84026 2.61755   2
  -5   4  10 22.3930 4.08081  -1
   5   4  11 22.3930 4.08081   2
  -4   4  10 63.3750 6.35967   2
  -3   4  10 50.7768 3.97096   2
  -2   4  10 126.479 8.05349   2
  -1   4  10 429.694 18.7674  -1
   1   4  10 429.694 18.7674   2
   0   4  10 523.399 22.5768  -1
   0   4  10 523.399 22.5768   2
   1   4  10 423.384 24.9521  -1
  -1   4  10 423.384 24.9521   2
   2   4  10 226.636 10.4001   2
   3   4  10 258.876 11.7321   2
   4   4  10 150.763 7.42482   2
   6   4  10 66.8111 4.41356   2
  -5   5  10 422.465 25.2072  -1
   5   5  11 422.465 25.2072   2
  -5   5  10 196.687 13.4977   2
  -4   5  10 9.94933 1.58665   2
  -3   5  10 370.029 16.1722   2
  -2   5  10 31.6395 3.27491   2
  -1   5  10 1896.12 79.1746  -1
   1   5  10 1896.12 79.1746   2
   0   5  10 154.457 7.55768  -1
   0   5  10 154.457 7.55768   2
   1   5  10 2126.64 88.5593  -1
  -1   5  10 2126.64 88.5593   2
   2   5  10 80.0015 4.74222   2
   3   5  10 723.183 30.7686   2
   4   5  10 78.6956 4.58976   2
   5   5  10 326.441 14.5981   2
   6   5  10 57.2900 4.04933   2
  -4   6  10 318.708 13.9881   2
  -3   6  10 0.09906 1.31735   2
  -2   6  10 514.094 30.0974   2
  -1   6  10 40.0911 4.03828  -1
   1   6  10 40.0911 4.03828   2
   0   6  10 1650.33 68.9571  -1
   0   6  10 1650.33 68.9571   2
   1   6  10 49.1876 4.19717  -1
  -1   6  10 49.1876 4.19717   2
   3   6  10 43.7190 3.46173   2
   4   6  10 287.388 12.9332   2
   5   6  10 44.3184 3.52760   2
   5   6  10 143.346 9.64191  -1
  -5   6   9 143.346 9.64191   2
   6   6  10 107.098 5.81033   2
  -4   7  10 -0.0181 1.29282   2
  -2   7  10 18.1387 3.25928   2
  -1   7  10 2052.79 85.6341  -1
   1   7  10 2052.79 85.6341   2
   0   7  10 175.097 8.19376  -1
   0   7  10 175.097 8.19376   2
   1   7  10 2124.84 88.5069  -1
  -1   7  10 2124.84 88.5069   2
   2   7  10 46.4300 5.06368   2
   3   7  10 498.965 21.6392   2
   4   7  10 105.765 5.76714   2
   5   7  10 361.273 21.6528  -1
  -5   7   9 361.273 21.6528   2
   5   7  10 229.254 10.6930   2
   6   7  10 58.6321 4.05286   2
  -4   8  10 174.828 8.18034   2
  -3   8  10 2.87919 1.54292   2
  -2   8  10 383.176 16.6025   2
  -1   8  10 7.43115 3.14254  -1
   1   8  10 7.43115 3.14254   2
   0   8  10 1041.34 43.7191  -1
   0   8  10 1041.34 43.7191   2
   1   8  10 6.95007 3.00843  -1
  -1   8  10 6.95007 3.00843   2
   2   8  10 142.567 10.2501   2
   3   8  10 11.1437 1.86296   2
   4   8  10 238.606 11.1288   2
   5   8  10 21.1632 2.71225   2
   5   8  10 77.9914 6.80764  -1
  -5   8   9 77.9914 6.80764   2
  -4   9  10 8.89629 1.69757   2
  -3   9  10 130.572 6.48068   2
  -2   9  10 3.27103 1.44238   2
  -1   9  10 591.891 25.3228  -1
   1   9  10 591.891 25.3228   2
   0   9  10 1.73756 1.26792  -1
   0   9  10 1.73756 1.26792   2
   1   9  10 560.906 23.9514  -1
  -1   9  10 560.906 23.9514   2
   2   9  10 0.84758 1.35614   2
   4   9  10 2.94564 1.57687   2
   5   9  10 150.324 7.78605   2
  -3  10  10 84.6334 4.64997   2
  -2  10  10 75.7688 4.21942   2
  -1  10  10 260.655 11.8604  -1
   1  10  10 260.655 11.8604   2
   0  10  10 241.005 10.7199  -1
   0  10  10 241.005 10.7199   2
   1  10  10 237.234 10.7963  -1
  -1  10  10 237.234 10.7963   2
   2  10  10 133.360 6.68139   2
   3  10  10 49.0344 4.48380   2
  -2  11  10 140.006 9.82467   2
  -1  11  10 240.177 15.7400  -1
   1  11  10 240.177 15.7400   2
   0  11  10 328.858 19.9943  -1
   0  11  10 328.858 19.9943   2
   1  11  10 215.772 14.1541  -1
  -1  11  10 215.772 14.1541   2
   2  11  10 105.681 8.74226   2
   3  11  10 86.1386 8.06620   2
   0  12  10 176.870 11.5956  -1
   0  12  10 176.870 11.5956   2
   1  12  10 319.894 19.8040   2
   0  -4  11 9.97688 2.20240  -1
   0  -4  11 9.97688 2.20240   2
   1  -4  11 370.227 15.5423   2
  -2  -3  11 150.993 11.4925   2
  -1  -3  11 41.4868 4.23826  -1
   1  -3  11 41.4868 4.23826   2
   0  -3  11 426.540 17.6412  -1
   0  -3  11 426.540 17.6412   2
   1  -3  11 47.2354 7.12258  -1
  -1  -3  11 47.2354 7.12258   2
   2  -3  11 181.893 8.33821   2
   3  -3  11 1.39839 3.08604   2
  -3  -2  11 81.0183 9.41905   2
  -2  -2  11 36.3384 6.21769   2
  -1  -2  11 380.285 25.2272  -1
   1  -2  11 380.285 25.2272   2
   0  -2  11 71.6827 4.30200  -1
   0  -2  11 71.6827 4.30200   2
   1  -2  11 412.731 26.8838  -1
  -1  -2  11 412.731 26.8838   2
   2  -2  11 16.6978 2.12797   2
   3  -2  11 123.461 6.16898   2
   4  -2  11 6.02822 1.59342   2
  -4  -1  11 22.2781 4.83072   2
  -3  -1  11 41.6159 8.11732   2
  -2  -1  11 87.7991 8.97247   2
  -1  -1  11 270.643 19.2628  -1
   1  -1  11 270.643 19.2628   2
   0  -1  11 318.468 21.1576  -1
   0  -1  11 318.468 21.1576   2
   1  -1  11 309.115 21.2025  -1
  -1  -1  11 309.115 21.2025   2
   2  -1  11 110.488 5.81534   2
   3  -1  11 64.9231 4.13886   2
   4  -1  11 80.3965 4.76461   2
   5  -1  11 27.4705 5.42309   2
  -4   0  11 94.7188 9.15198   2
  -3   0  11 11.6016 4.95616   2
  -2   0  11 257.052 18.3847   2
  -1   0  11 242.975 17.8679  -1
   1   0  11 242.975 17.8679   2
   0   0  11 893.186 55.5080  -1
   0   0  11 893.186 55.5080   2
   1   0  11 210.739 12.5697  -1
  -1   0  11 210.739 12.5697   2
   2   0  11 205.424 15.3616   2
   3   0  11 141.585 8.44835   2
   4   0  11 147.862 8.65206   2
   5   0  11 56.3804 8.52977   2
  -4   1  11 -0.0196 3.07406   2
  -3   1  11 157.803 12.9499   2
  -2   1  11 22.5042 2.17739   2
  -1   1  11 991.139 61.8860  -1
   1   1  11 991.139 61.8860   2
   0   1  11 170.735 12.9504  -1
   0   1  11 170.735 12.9504   2
   2   1  11 41.3748 6.19043   2
   3   1  11 29.8393 5.53133   2
   4   1  11 42.7138 6.64251   2
   5   1  11 95.2605 10.2954   2
  -5   2  11 0.09927 2.74215   2
  -4   2  11 163.530 12.3486   2
  -3   2  11 -0.5835 3.76784   2
  -2   2  11 353.373 15.6014   2
  -1   2  11 180.345 14.0961  -1
   1   2  11 180.345 14.0961   2
   0   2  11 1163.08 48.9058  -1
   0   2  11 1163.08 48.9058   2
   1   2  11 192.507 11.8854  -1
  -1   2  11 192.507 11.8854   2
   2   2  11 194.731 14.5173   2
   3   2  11 68.9629 7.54260   2
   4   2  11 124.892 11.2817   2
   5   2  11 117.124 11.0431   2
   6   2  11 77.6992 9.49606   2
  -5   3  11 117.531 9.56575   2
  -4   3  11 4.19545 2.93733   2
  -3   3  11 242.036 14.4824   2
  -2   3  11 2.41554 1.28774   2
  -1   3  11 967.981 40.9040  -1
   1   3  11 967.981 40.9040   2
   0   3  11 18.6706 2.41102  -1
   0   3  11 18.6706 2.41102   2
   1   3  11 1051.10 44.2325  -1
  -1   3  11 1051.10 44.2325   2
   2   3  11 28.1524 2.29940   2
   3   3  11 322.239 14.4285   2
   4   3  11 30.6199 2.71037   2
   5   3  11 181.765 14.2443   2
   6   3  11 23.4905 5.20754   2
  -5   4  11 16.5749 3.56407   2
  -4   4  11 80.1291 4.57367   2
  -3   4  11 23.4137 2.74812   2
  -2   4  11 128.017 8.17476   2
  -1   4  11 35.4877 3.66960  -1
   1   4  11 35.4877 3.66960   2
   0   4  11 371.963 16.3959  -1
   0   4  11 371.963 16.3959   2
   1   4  11 20.8719 4.22855  -1
  -1   4  11 20.8719 4.22855   2
   2   4  11 125.586 6.30171   2
   3   4  11 0.81475 1.30611   2
   4   4  11 88.6344 5.03596   2
   6   4  11 56.4012 4.01895   2
  -5   5  11 144.665 9.81591  -1
   5   5  12 144.665 9.81591   2
  -4   5  11 36.0487 2.97195   2
  -3   5  11 135.399 8.64134   2
  -2   5  11 39.3925 3.25081   2
  -1   5  11 573.684 24.7257  -1
   1   5  11 573.684 24.7257   2
   0   5  11 78.4894 4.70315  -1
   0   5  11 78.4894 4.70315   2
   1   5  11 638.421 27.2606  -1
  -1   5  11 638.421 27.2606   2
   2   5  11 12.2137 1.90407   2
   3   5  11 290.306 12.9872   2
   4   5  11 2.28641 1.51589   2
   6   5  11 -0.5105 1.49672   2
  -5   6  11 233.428 14.8399  -1
   5   6  12 233.428 14.8399   2
  -4   6  11 117.686 6.01063   2
  -3   6  11 152.697 9.70619   2
  -2   6  11 276.623 16.7050   2
  -1   6  11 450.817 19.7557  -1
   1   6  11 450.817 19.7557   2
   0   6  11 1062.78 44.7293  -1
   0   6  11 1062.78 44.7293   2
   1   6  11 509.235 22.0246  -1
  -1   6  11 509.235 22.0246   2
   2   6  11 408.480 17.8832   2
   3   6  11 115.523 6.03480   2
   4   6  11 294.374 13.2403   2
   5   6  11 43.1544 4.76462  -1
  -5   6  10 43.1544 4.76462   2
   5   6  11 41.0893 3.39345   2
  -4   7  11 171.198 10.7803   2
  -3   7  11 110.871 7.55088   2
  -2   7  11 279.519 12.4534   2
  -1   7  11 681.483 29.1458  -1
   1   7  11 681.483 29.1458   2
   0   7  11 651.811 27.7431  -1
   0   7  11 651.811 27.7431   2
   1   7  11 772.269 32.7262  -1
  -1   7  11 772.269 32.7262   2
   2   7  11 97.7354 7.75334   2
   3   7  11 351.652 15.6026   2
   4   7  11 59.3281 4.05209   2
   5   7  11 470.141 27.8312  -1
  -5   7  10 470.141 27.8312   2
   5   7  11 248.284 11.4499   2
  -4   8  11 15.3765 3.16702   2
  -3   8  11 123.895 6.31844   2
  -2   8  11 110.073 5.69207   2
  -1   8  11 390.447 17.2381  -1
   1   8  11 390.447 17.2381   2
   0   8  11 420.771 18.1950  -1
   0   8  11 420.771 18.1950   2
   1   8  11 394.828 17.2629  -1
  -1   8  11 394.828 17.2629   2
   2   8  11 209.479 13.8946   2
   3   8  11 102.756 7.80749   2
   4   8  11 167.709 8.27075   2
   5   8  11 46.8585 3.62403   2
   5   8  11 59.3336 5.88149  -1
  -5   8  10 59.3336 5.88149   2
  -3   9  11 14.9279 1.99610   2
  -2   9  11 158.143 7.49072   2
  -1   9  11 145.922 7.40176  -1
   1   9  11 145.922 7.40176   2
   0   9  11 323.245 14.1354  -1
   0   9  11 323.245 14.1354   2
   1   9  11 141.384 7.03327  -1
  -1   9  11 141.384 7.03327   2
   2   9  11 81.6202 4.84312   2
   4   9  11 38.0100 3.35471   2
  -3  10  11 98.6828 5.19829   2
  -2  10  11 -0.4354 1.26860   2
  -1  10  11 326.181 14.5001  -1
   1  10  11 326.181 14.5001   2
   0  10  11 4.79743 1.35087  -1
   0  10  11 4.79743 1.35087   2
   1  10  11 308.746 13.6566  -1
  -1  10  11 308.746 13.6566   2
   2  10  11 7.36516 1.59371   2
   3  10  11 113.168 8.15162   2
  -2  11  11 128.919 9.22600   2
  -1  11  11 13.4678 5.41411  -1
   1  11  11 13.4678 5.41411   2
   0  11  11 408.165 24.4748  -1
   0  11  11 408.165 24.4748   2
   1  11  11 3.99254 4.88104  -1
  -1  11  11 3.99254 4.88104   2
   2  11  11 193.595 13.3757   2
  -2  -2  12 153.214 11.8360   2
  -1  -2  12 51.5108 7.97494  -1
   1  -2  12 51.5108 7.97494   2
   0  -2  12 381.221 24.6956  -1
   0  -2  12 381.221 24.6956   2
   1  -2  12 53.8918 7.84494  -1
  -1  -2  12 53.8918 7.84494   2
   2  -2  12 136.039 6.78324   2
  -3  -1  12 111.955 10.9189   2
  -2  -1  12 6.18517 3.82397   2
  -1  -1  12 475.673 31.0531  -1
   1  -1  12 475.673 31.0531   2
   0  -1  12 1.36059 4.53617  -1
   0  -1  12 1.36059 4.53617   2
   1  -1  12 526.682 33.7323  -1
  -1  -1  12 526.682 33.7323   2
   2  -1  12 5.41121 1.67660   2
   3  -1  12 129.898 6.43993   2
  -3   0  12 3.95939 5.02058   2
  -2   0  12 147.140 11.8910   2
  -1   0  12 2.72170 6.82149  -1
   1   0  12 2.72170 6.82149   2
   0   0  12 512.386 32.7655  -1
   0   0  12 512.386 32.7655   2
   1   0  12 1.39217 6.88405  -1
  -1   0  12 1.39217 6.88405   2
   2   0  12 179.169 13.7495   2
   3   0  12 -0.6511 2.83582   2
   4   0  12 79.7897 9.42420   2
  -4   1  12 4.51660 4.26164   2
  -3   1  12 94.2285 5.49427   2
  -2   1  12 28.7127 2.53094   2
  -1   1  12 572.294 37.0606  -1
   1   1  12 572.294 37.0606   2
   0   1  12 60.5385 7.15055  -1
   0   1  12 60.5385 7.15055   2
   1   1  12 659.417 41.8189  -1
  -1   1  12 659.417 41.8189   2
   2   1  12 12.8299 3.82706   2
   3   1  12 38.2004 5.81426   2
   4   1  12 3.17673 3.15507   2
  -4   2  12 18.9639 4.65545   2
  -3   2  12 58.8861 4.09430   2
  -2   2  12 92.1003 6.11999   2
  -1   2  12 188.438 14.7832  -1
   1   2  12 188.438 14.7832   2
   0   2  12 535.980 22.9539  -1
   0   2  12 535.980 22.9539   2
   1   2  12 237.380 11.2157  -1
  -1   2  12 237.380 11.2157   2
   2   2  12 156.622 12.4238   2
   3   2  12 8.34204 3.23341   2
   4   2  12 69.4125 8.08291   2
   5   2  12 7.09977 4.14274   2
  -4   3  12 75.1786 5.38055   2
  -3   3  12 49.9622 3.96896   2
  -2   3  12 152.764 7.47659   2
  -1   3  12 375.125 16.5494  -1
   1   3  12 375.125 16.5494   2
   0   3  12 406.063 17.7336  -1
   0   3  12 406.063 17.7336   2
   1   3  12 439.889 19.2353  -1
  -1   3  12 439.889 19.2353   2
   2   3  12 105.578 9.55733   2
   3   3  12 149.235 12.0645   2
   4   3  12 32.9466 6.13130   2
   5   3  12 126.323 11.6654   2
  -4   4  12 27.9218 3.02578   2
  -3   4  12 163.839 10.1918   2
  -2   4  12 74.7254 5.42086   2
  -1   4  12 502.685 21.8004  -1
   1   4  12 502.685 21.8004   2
   0   4  12 351.055 15.5328  -1
   0   4  12 351.055 15.5328   2
   1   4  12 538.666 23.3370  -1
  -1   4  12 538.666 23.3370   2
   2   4  12 136.854 6.76673   2
   3   4  12 127.840 6.51255   2
   4   4  12 86.1702 4.92250   2
   5   4  12 47.9766 7.26829   2
  -4   5  12 149.425 9.44281   2
  -3   5  12 27.7206 3.14131   2
  -2   5  12 263.257 11.8430   2
  -1   5  12 172.997 8.54528  -1
   1   5  12 172.997 8.54528   2
   0   5  12 708.594 30.1847  -1
   0   5  12 708.594 30.1847   2
   1   5  12 204.262 9.87029  -1
  -1   5  12 204.262 9.87029   2
   2   5  12 223.895 10.3206   2
   3   5  12 77.0678 4.47495   2
   4   5  12 105.670 5.64999   2
   5   5  12 114.460 8.04690  -1
  -5   5  11 114.460 8.04690   2
  -4   6  12 0.69488 1.31428   2
  -3   6  12 152.790 9.73012   2
  -2   6  12 15.8484 2.53577   2
  -1   6  12 633.907 27.2005  -1
   1   6  12 633.907 27.2005   2
   0   6  12 120.570 6.23481  -1
   0   6  12 120.570 6.23481   2
   1   6  12 715.324 30.4922  -1
  -1   6  12 715.324 30.4922   2
   2   6  12 62.7137 4.10358   2
   3   6  12 250.456 11.4248   2
   4   6  12 64.0344 4.13233   2
   5   6  12 212.366 13.3463  -1
  -5   6  11 212.366 13.3463   2
  -4   7  12 92.5217 6.54219   2
  -3   7  12 1.17866 1.49095   2
  -2   7  12 239.902 10.8744   2
  -1   7  12 15.0141 3.61078  -1
   1   7  12 15.0141 3.61078   2
   0   7  12 839.354 35.4774  -1
   0   7  12 839.354 35.4774   2
   1   7  12 19.4411 3.64774  -1
  -1   7  12 19.4411 3.64774   2
   2   7  12 342.668 15.2279   2
   3   7  12 15.7628 2.09746   2
   4   7  12 257.609 11.7679   2
   5   7  12 15.1689 3.35817   2
  -3   8  12 142.460 6.98584   2
  -2   8  12 14.9179 1.92720   2
  -1   8  12 566.238 24.4223  -1
   1   8  12 566.238 24.4223   2
   0   8  12 13.4145 2.21317  -1
   0   8  12 13.4145 2.21317   2
   1   8  12 596.554 25.5320  -1
  -1   8  12 596.554 25.5320   2
   2   8  12 -0.3362 1.48352   2
   3   8  12 189.465 9.05029   2
   4   8  12 0.27220 1.51915   2
  -3   9  12 41.1342 3.39665   2
  -2   9  12 121.633 6.10319   2
  -1   9  12 62.5988 4.55594  -1
   1   9  12 62.5988 4.55594   2
   0   9  12 408.652 17.6841  -1
   0   9  12 408.652 17.6841   2
   1   9  12 59.1782 4.29935  -1
  -1   9  12 59.1782 4.29935   2
   2   9  12 156.625 7.74728   2
   3   9  12 2.57215 1.53461   2
   4   9  12 137.371 9.89392   2
  -2  10  12 50.2737 3.50142   2
  -1  10  12 235.553 10.9090  -1
   1  10  12 235.553 10.9090   2
   0  10  12 122.961 6.05879  -1
   0  10  12 122.961 6.05879   2
   1  10  12 223.541 10.2837  -1
  -1  10  12 223.541 10.2837   2
   2  10  12 29.5159 2.96060   2
   3  10  12 82.7489 6.63147   2
   0  11  12 190.486 12.3385  -1
   0  11  12 190.486 12.3385   2
   1  11  12 61.5982 6.03208   2
   0  -1  13 312.627 20.9304  -1
   0  -1  13 312.627 20.9304   2
   1  -1  13 199.901 14.7466   2
  -2   0  13 45.3067 6.95769   2
  -1   0  13 213.437 16.5702  -1
   1   0  13 213.437 16.5702   2
   0   0  13 206.988 14.9675  -1
   0   0  13 206.988 14.9675   2
   1   0  13 241.675 17.6133  -1
  -1   0  13 241.675 17.6133   2
   2   0  13 69.7309 8.35028   2
   3   0  13 34.2109 5.83128   2
  -2   1  13 90.8802 9.00293   2
  -1   1  13 183.301 14.8766  -1
   1   1  13 183.301 14.8766   2
   0   1  13 249.240 17.3184  -1
   0   1  13 249.240 17.3184   2
   1   1  13 220.126 16.3998  -1
  -1   1  13 220.126 16.3998   2
   2   1  13 64.6436 7.97329   2
   3   1  13 35.3773 6.66299   2
  -3   2  13 90.1964 5.26550   2
  -2   2  13 1.63946 3.62180   2
  -1   2  13 337.537 23.2295  -1
   1   2  13 337.537 23.2295   2
   0   2  13 -2.5257 4.62878  -1
   0   2  13 -2.5257 4.62878   2
   1   2  13 437.024 28.7070  -1
  -1   2  13 437.024 28.7070   2
   2   2  13 2.34466 2.93950   2
   3   2  13 72.1146 8.00832   2
   4   2  13 -0.8533 3.18894   2
  -3   3  13 13.8077 2.26467   2
  -2   3  13 99.4152 5.33812   2
  -1   3  13 12.2516 6.35531  -1
   1   3  13 12.2516 6.35531   2
   0   3  13 303.514 20.3977  -1
   0   3  13 303.514 20.3977   2
   1   3  13 21.4745 4.33898  -1
  -1   3  13 21.4745 4.33898   2
   2   3  13 110.484 9.75143   2
   3   3  13 -0.0813 2.87593   2
   4   3  13 84.3464 9.24369   2
  -3   4  13 127.661 6.85470   2
  -2   4  13 25.0104 2.61638   2
  -1   4  13 593.622 37.8273  -1
   1   4  13 593.622 37.8273   2
   0   4  13 28.4571 3.05698  -1
   0   4  13 28.4571 3.05698   2
   1   4  13 683.774 29.3507  -1
  -1   4  13 683.774 29.3507   2
   2   4  13 2.08187 2.92970   2
   3   4  13 201.902 14.9457   2
   4   4  13 -3.8662 3.11847   2
  -3   5  13 40.8641 3.28667   2
  -2   5  13 208.917 9.73596   2
  -1   5  13 65.8052 4.65014  -1
   1   5  13 65.8052 4.65014   2
   0   5  13 654.906 27.9692  -1
   0   5  13 654.906 27.9692   2
   1   5  13 81.4163 5.67613  -1
  -1   5  13 81.4163 5.67613   2
   2   5  13 268.758 12.1254   2
   3   5  13 2.06462 1.38412   2
   4   5  13 203.367 15.0303   2
  -3   6  13 79.8557 4.79856   2
  -2   6  13 45.8323 3.56183   2
  -1   6  13 353.077 15.7638  -1
   1   6  13 353.077 15.7638   2
   0   6  13 96.3285 5.35059  -1
   0   6  13 96.3285 5.35059   2
   1   6  13 398.057 17.6096  -1
  -1   6  13 398.057 17.6096   2
   2   6  13 23.1906 2.68367   2
   3   6  13 149.878 7.33524   2
   4   6  13 5.96230 1.68912   2
  -3   7  13 31.6264 3.03297   2
  -2   7  13 65.0811 4.17020   2
  -1   7  13 64.2949 4.86316  -1
   1   7  13 64.2949 4.86316   2
   0   7  13 204.855 9.49297  -1
   0   7  13 204.855 9.49297   2
   1   7  13 77.1912 5.24998  -1
  -1   7  13 77.1912 5.24998   2
   2   7  13 90.8823 5.16162   2
   3   7  13 13.7772 1.95345   2
   4   7  13 85.0771 4.99499   2
  -2   8  13 100.306 5.34054   2
  -1   8  13 118.873 6.64707  -1
   1   8  13 118.873 6.64707   2
   0   8  13 238.217 10.8011  -1
   0   8  13 238.217 10.8011   2
   1   8  13 134.808 7.06349  -1
  -1   8  13 134.808 7.06349   2
   2   8  13 77.8184 4.73262   2
   3   8  13 70.0051 4.47212   2
  -2   9  13 -1.9705 1.43937   2
  -1   9  13 366.114 16.2600  -1
   1   9  13 366.114 16.2600   2
   0   9  13 6.39115 1.93496  -1
   0   9  13 6.39115 1.93496   2
   1   9  13 377.681 16.5494  -1
  -1   9  13 377.681 16.5494   2
   2   9  13 9.54309 1.83597   2
   0  10  13 298.573 13.1932  -1
   0  10  13 298.573 13.1932   2
   1  10  13 9.67587 1.78920   2
   0   1  14 289.207 19.8118  -1
   0   1  14 289.207 19.8118   2
   1   1  14 -0.7908 3.45946   2
  -1   2  14 188.760 15.2646  -1
   1   2  14 188.760 15.2646   2
   0   2  14 55.4056 7.13910  -1
   0   2  14 55.4056 7.13910   2
   1   2  14 215.067 16.1915  -1
  -1   2  14 215.067 16.1915   2
   2   2  14 12.7372 4.28158   2
  -2   3  14 25.4504 4.53828   2
  -1   3  14 185.768 14.8335  -1
   1   3  14 185.768 14.8335   2
   0   3  14 95.2697 8.87831  -1
   0   3  14 95.2697 8.87831   2
   1   3  14 225.543 16.7136  -1
  -1   3  14 225.543 16.7136   2
   2   3  14 27.6232 4.98986   2
   3   3  14 38.1522 6.81416   2
  -2   4  14 121.694 6.43217   2
  -1   4  14 47.6448 7.91804  -1
   1   4  14 47.6448 7.91804   2
   0   4  14 294.557 19.8183  -1
   0   4  14 294.557 19.8183   2
   1   4  14 72.5777 8.62162  -1
  -1   4  14 72.5777 8.62162   2
   2   4  14 129.284 10.9238   2
   3   4  14 47.5805 7.11090   2
  -2   5  14 21.2535 2.46878   2
  -1   5  14 441.908 28.7953  -1
   1   5  14 441.908 28.7953   2
   0   5  14 91.2423 5.03533  -1
   0   5  14 91.2423 5.03533   2
   1   5  14 529.694 23.0166  -1
  -1   5  14 529.694 23.0166   2
   2   5  14 45.5417 6.36985   2
   3   5  14 153.578 12.2162   2
  -2   6  14 128.450 6.69617   2
  -1   6  14 54.5742 4.39525  -1
   1   6  14 54.5742 4.39525   2
   0   6  14 349.871 15.4079  -1
   0   6  14 349.871 15.4079   2
   1   6  14 65.6982 5.02593  -1
  -1   6  14 65.6982 5.02593   2
   2   6  14 131.032 6.54379   2
   3   6  14 32.6185 5.68484   2
  -1   7  14 261.356 12.0755  -1
   1   7  14 261.356 12.0755   2
   0   7  14 58.4222 3.89733  -1
   0   7  14 58.4222 3.89733   2
   1   7  14 295.167 13.3948  -1
  -1   7  14 295.167 13.3948   2
   2   7  14 27.0991 2.91390   2
  -1   8  14 11.1586 3.42414  -1
   1   8  14 11.1586 3.42414   2
   0   8  14 273.151 12.2074  -1
   0   8  14 273.151 12.2074   2
   1   8  14 11.6923 3.36077  -1
  -1   8  14 11.6923 3.36077   2
   2   8  14 104.743 5.69693   2
   0   0   0    0.00    0.00   0
;
_shelx_hkl_checksum              16396
loop_
_space_group_symop_operation_xyz
'x, y, z'
'-x, -y, -z'
loop_
_atom_site_label
_atom_site_type_symbol
_atom_site_fract_x
_atom_site_fract_y
_atom_site_fract_z
_atom_site_U_iso_or_equiv
_atom_site_adp_type
_atom_site_occupancy
_atom_site_site_symmetry_order
_atom_site_calc_flag
_atom_site_refinement_flags_posn
_atom_site_refinement_flags_adp
_atom_site_refinement_flags_occupancy
_atom_site_disorder_assembly
_atom_site_disorder_group
Au1 Au 0.24060(12) 0.28100(7) 0.12679(7) 0.0372(5) Uani 0.75 1 d . U P A 1
Cl1 Cl 0.2215(8) 0.1033(5) 0.3379(5) 0.0719(13) Uani 1 1 d . . . . .
Cl2 Cl 0.2566(10) 0.1085(5) 0.0431(5) 0.0774(14) Uani 1 1 d . . . . .
N2 N 0.275(2) 0.6161(17) -0.2356(14) 0.063(4) Uani 1 1 d . . . . .
C8 C 0.271(3) 0.465(2) -0.1716(18) 0.062(4) Uani 1 1 d . U . . .
H8 H 0.277022 0.394674 -0.206420 0.074 Uiso 1 1 calc R U . . .
N1 N 0.2309(17) 0.4592(9) 0.1759(9) 0.055(3) Uani 1 1 d G . . . .
C1 C 0.2183(19) 0.4492(9) 0.3005(8) 0.064(4) Uani 1 1 d G . . A .
H1 H 0.212585 0.357375 0.367783 0.077 Uiso 1 1 calc R U . . .
C2 C 0.214(2) 0.5765(12) 0.3244(8) 0.071(5) Uani 1 1 d G . . A .
H2 H 0.205965 0.569783 0.407679 0.085 Uiso 1 1 calc R U . . .
C3 C 0.223(2) 0.7137(10) 0.2237(11) 0.065(4) Uani 1 1 d G . . A .
H3 H 0.220319 0.798843 0.239732 0.078 Uiso 1 1 calc R U . . .
C4 C 0.2355(19) 0.7237(8) 0.0992(9) 0.059(4) Uani 1 1 d G . . A .
H4 H 0.241293 0.815497 0.031887 0.071 Uiso 1 1 calc R U . . .
C5 C 0.2395(18) 0.5964(11) 0.0753(7) 0.058(4) Uani 1 1 d G . . A .
C6 C 0.249(2) 0.5824(19) -0.0454(16) 0.055(4) Uani 1 1 d . . . . .
C7 C 0.255(3) 0.4420(17) -0.0459(13) 0.046(3) Uani 1 1 d . . . . .
N3 N 0.2656(19) 0.6874(15) -0.1637(13) 0.053(3) Uani 1 1 d . U . . .
C9 C 0.290(3) 0.700(2) -0.3759(19) 0.070(5) Uani 1 1 d . . . . .
H9A H 0.328084 0.635198 -0.416967 0.105 Uiso 1 1 calc R U . . .
H9B H 0.390163 0.776933 -0.397683 0.105 Uiso 1 1 calc R U . . .
H9C H 0.159796 0.743120 -0.403455 0.105 Uiso 1 1 calc R U . . .
N4 N 0.283(4) 0.325(2) 0.6018(17) 0.101(7) Uani 1 1 d . . . . .
C10 C 0.278(4) 0.200(3) 0.654(2) 0.076(6) Uani 1 1 d . . . . .
C11 C 0.266(5) 0.044(2) 0.723(3) 0.111(10) Uani 1 1 d . . . . .
H11A H 0.158417 0.020361 0.788617 0.166 Uiso 1 1 calc R U . . .
H11B H 0.392831 0.008638 0.760133 0.166 Uiso 1 1 calc R U . . .
H11C H 0.237413 -0.001621 0.665621 0.166 Uiso 1 1 calc R U . . .
Au1A Au 0.390(2) 0.2798(6) 0.1278(5) 0.100(2) Uani 0.15 1 d . U P A 2
Au1B Au 0.094(2) 0.2827(8) 0.1257(6) 0.072(2) Uani 0.1 1 d . U P A 3
loop_
_atom_site_aniso_label
_atom_site_aniso_U_11
_atom_site_aniso_U_22
_atom_site_aniso_U_33
_atom_site_aniso_U_23
_atom_site_aniso_U_13
_atom_site_aniso_U_12
Au1 0.0419(8) 0.0246(6) 0.0431(6) -0.0114(4) -0.0033(4) 0.0018(4)
Cl1 0.092(3) 0.045(2) 0.066(3) -0.009(2) -0.002(2) 0.000(2)
Cl2 0.116(4) 0.042(2) 0.080(3) -0.030(2) -0.003(3) 0.002(2)
N2 0.078(9) 0.058(9) 0.052(8) -0.021(7) -0.005(6) 0.003(7)
C8 0.062(4) 0.062(4) 0.062(4) -0.0246(18) -0.0038(11) 0.0004(10)
N1 0.079(9) 0.037(7) 0.045(7) -0.010(6) -0.008(6) 0.005(6)
C1 0.078(11) 0.045(9) 0.067(11) -0.021(8) -0.002(8) -0.003(8)
C2 0.098(14) 0.064(11) 0.063(11) -0.037(9) -0.006(9) 0.001(9)
C3 0.085(12) 0.043(9) 0.070(11) -0.025(8) -0.005(9) 0.001(8)
C4 0.073(11) 0.038(8) 0.071(11) -0.026(8) -0.004(8) 0.002(7)
C5 0.054(8) 0.056(10) 0.069(10) -0.030(8) -0.002(7) 0.006(7)
C6 0.062(9) 0.053(9) 0.060(9) -0.033(8) -0.004(7) 0.003(7)
C7 0.067(9) 0.039(8) 0.034(7) -0.013(6) -0.013(6) 0.002(6)
N3 0.054(3) 0.053(3) 0.053(3) -0.0221(15) -0.0028(10) 0.0006(10)
C9 0.089(13) 0.047(10) 0.064(11) -0.012(8) 0.000(9) 0.004(8)
N4 0.19(2) 0.058(12) 0.045(9) -0.011(8) -0.007(11) -0.022(12)
C10 0.114(17) 0.049(11) 0.061(11) -0.018(9) 0.001(10) 0.003(10)
C11 0.15(2) 0.038(11) 0.12(2) -0.011(12) 0.024(18) 0.005(12)
Au1A 0.230(8) 0.038(3) 0.036(2) -0.019(2) -0.001(4) 0.012(4)
Au1B 0.142(7) 0.040(3) 0.033(3) -0.017(3) 0.001(4) 0.004(4)
loop_
_atom_type_symbol
_atom_type_description
_atom_type_scat_dispersion_real
_atom_type_scat_dispersion_imag
_atom_type_scat_source
C C 0.0033 0.0016 'International Tables Vol C Tables 4.2.6.8 and 6.1.1.4'
H H 0.0000 0.0000 'International Tables Vol C Tables 4.2.6.8 and 6.1.1.4'
Au Au -2.0133 8.8022 'International Tables Vol C Tables 4.2.6.8 and 6.1.1.4'
Cl Cl 0.1484 0.1585 'International Tables Vol C Tables 4.2.6.8 and 6.1.1.4'
N N 0.0061 0.0033 'International Tables Vol C Tables 4.2.6.8 and 6.1.1.4'
O O 0.0106 0.0060 'International Tables Vol C Tables 4.2.6.8 and 6.1.1.4'
loop_
_geom_angle_atom_site_label_1
_geom_angle_atom_site_label_2
_geom_angle_atom_site_label_3
_geom_angle
_geom_angle_site_symmetry_1
_geom_angle_site_symmetry_3
C7 Au1 N1 80.6(5) . .
C7 Au1 Cl2 91.1(5) . .
N1 Au1 Cl2 171.7(3) . .
C7 Au1 Cl1 175.8(4) . .
N1 Au1 Cl1 95.2(3) . .
Cl2 Au1 Cl1 93.1(2) . .
N3 N2 C8 114.5(15) . .
N3 N2 C9 118.7(16) . .
C8 N2 C9 126.9(16) . .
C7 C8 N2 104.8(16) . .
C7 C8 H8 127.6 . .
N2 C8 H8 127.6 . .
C1 N1 C5 120.0 . .
C1 N1 Au1 124.2(5) . .
C5 N1 Au1 115.8(5) . .
C1 N1 Au1B 120.9(6) . .
C5 N1 Au1B 113.0(5) . .
C1 N1 Au1A 120.1(5) . .
C5 N1 Au1A 113.3(5) . .
C2 C1 N1 120.0 . .
C2 C1 H1 120.0 . .
N1 C1 H1 120.0 . .
C1 C2 C3 120.0 . .
C1 C2 H2 120.0 . .
C3 C2 H2 120.0 . .
C2 C3 C4 120.0 . .
C2 C3 H3 120.0 . .
C4 C3 H3 120.0 . .
C5 C4 C3 120.0 . .
C5 C4 H4 120.0 . .
C3 C4 H4 120.0 . .
C4 C5 N1 120.0 . .
C4 C5 C6 128.8(9) . .
N1 C5 C6 111.2(9) . .
N3 C6 C7 111.7(14) . .
N3 C6 C5 129.6(14) . .
C7 C6 C5 118.6(14) . .
N3 C6 Au1B 65.8(9) . 2_565
C7 C6 Au1B 112.2(11) . 2_565
C5 C6 Au1B 96.9(9) . 2_565
N3 C6 Au1A 62.4(9) . 2_665
C7 C6 Au1A 110.9(11) . 2_665
C5 C6 Au1A 95.5(9) . 2_665
C8 C7 C6 104.7(14) . .
C8 C7 Au1 141.5(13) . .
C6 C7 Au1 113.8(11) . .
C8 C7 Au1B 135.2(13) . .
C6 C7 Au1B 110.8(11) . .
C8 C7 Au1A 134.3(13) . .
C6 C7 Au1A 111.6(11) . .
N2 N3 C6 104.3(14) . .
N2 N3 Au1A 105.1(10) . 2_665
C6 N3 Au1A 87.6(10) . 2_665
N2 N3 Au1B 104.6(10) . 2_565
C6 N3 Au1B 83.7(9) . 2_565
Au1A N3 Au1B 150.2(7) 2_665 2_565
N2 C9 H9A 109.5 . .
N2 C9 H9B 109.5 . .
H9A C9 H9B 109.5 . .
N2 C9 H9C 109.5 . .
H9A C9 H9C 109.5 . .
H9B C9 H9C 109.5 . .
N4 C10 C11 178(3) . .
C10 C11 H11A 109.5 . .
C10 C11 H11B 109.5 . .
H11A C11 H11B 109.5 . .
C10 C11 H11C 109.5 . .
H11A C11 H11C 109.5 . .
H11B C11 H11C 109.5 . .
C7 Au1A N1 70.9(5) . .
C7 Au1A N3 118.6(7) . 2_665
N1 Au1A N3 101.6(5) . 2_665
C7 Au1A Cl2 80.8(5) . .
N1 Au1A Cl2 130.7(7) . .
N3 Au1A Cl2 127.5(5) 2_665 .
C7 Au1A Cl1 131.0(7) . .
N1 Au1A Cl1 85.0(4) . .
N3 Au1A Cl1 107.5(5) 2_665 .
Cl2 Au1A Cl1 84.2(3) . .
C7 Au1A C6 89.0(6) . 2_665
N1 Au1A C6 97.1(5) . 2_665
N3 Au1A C6 30.0(5) 2_665 2_665
Cl2 Au1A C6 122.4(5) . 2_665
Cl1 Au1A C6 137.1(6) . 2_665
C7 Au1B N1 71.8(5) . .
C7 Au1B N3 119.4(7) . 2_565
N1 Au1B N3 101.8(5) . 2_565
C7 Au1B Cl2 81.1(5) . .
N1 Au1B Cl2 130.8(7) . .
N3 Au1B Cl2 127.3(6) 2_565 .
C7 Au1B Cl1 131.8(7) . .
N1 Au1B Cl1 85.1(4) . .
N3 Au1B Cl1 106.2(5) 2_565 .
Cl2 Au1B Cl1 83.6(3) . .
C7 Au1B C6 89.2(6) . 2_565
N1 Au1B C6 97.2(5) . 2_565
N3 Au1B C6 30.5(5) 2_565 2_565
Cl2 Au1B C6 123.1(5) . 2_565
Cl1 Au1B C6 136.3(6) . 2_565
loop_
_geom_bond_atom_site_label_1
_geom_bond_atom_site_label_2
_geom_bond_distance
_geom_bond_site_symmetry_2
Au1 C7 1.988(14) .
Au1 N1 2.051(7) .
Au1 Cl2 2.264(5) .
Au1 Cl1 2.360(5) .
Cl1 Au1A 2.547(9) .
Cl1 Au1B 2.560(10) .
Cl2 Au1A 2.458(9) .
Cl2 Au1B 2.473(9) .
N2 N3 1.28(2) .
N2 C8 1.38(2) .
N2 C9 1.49(2) .
C8 C7 1.37(2) .
C8 H8 0.9300 .
N1 C1 1.3900 .
N1 C5 1.3900 .
N1 Au1B 2.259(12) .
N1 Au1A 2.277(11) .
C1 C2 1.3900 .
C1 H1 0.9300 .
C2 C3 1.3900 .
C2 H2 0.9300 .
C3 C4 1.3900 .
C3 H3 0.9300 .
C4 C5 1.3900 .
C4 H4 0.9300 .
C5 C6 1.443(17) .
C6 N3 1.34(2) .
C6 C7 1.39(2) .
C6 Au1B 2.63(2) 2_565
C6 Au1A 2.68(2) 2_665
C7 Au1B 2.197(18) .
C7 Au1A 2.227(16) .
N3 Au1A 2.379(19) 2_665
N3 Au1B 2.413(19) 2_565
C9 H9A 0.9600 .
C9 H9B 0.9600 .
C9 H9C 0.9600 .
N4 C10 1.14(3) .
C10 C11 1.43(3) .
C11 H11A 0.9600 .
C11 H11B 0.9600 .
C11 H11C 0.9600 .
loop_
_geom_torsion_atom_site_label_1
_geom_torsion_atom_site_label_2
_geom_torsion_atom_site_label_3
_geom_torsion_atom_site_label_4
_geom_torsion
_geom_torsion_site_symmetry_1
_geom_torsion_site_symmetry_4
N3 N2 C8 C7 1(2) . .
C9 N2 C8 C7 -179.8(17) . .
C5 N1 C1 C2 0.0 . .
Au1 N1 C1 C2 179.4(8) . .
Au1B N1 C1 C2 -150.7(8) . .
Au1A N1 C1 C2 149.6(8) . .
N1 C1 C2 C3 0.0 . .
C1 C2 C3 C4 0.0 . .
C2 C3 C4 C5 0.0 . .
C3 C4 C5 N1 0.0 . .
C3 C4 C5 C6 179.1(13) . .
C1 N1 C5 C4 0.0 . .
Au1 N1 C5 C4 -179.5(8) . .
Au1B N1 C5 C4 152.9(8) . .
Au1A N1 C5 C4 -151.5(8) . .
C1 N1 C5 C6 -179.3(11) . .
Au1 N1 C5 C6 1.3(10) . .
Au1B N1 C5 C6 -26.4(10) . .
Au1A N1 C5 C6 29.2(10) . .
C4 C5 C6 N3 3(2) . .
N1 C5 C6 N3 -177.7(14) . .
C4 C5 C6 C7 178.8(11) . .
N1 C5 C6 C7 -2.0(17) . .
C4 C5 C6 Au1B -61.2(11) . 2_565
N1 C5 C6 Au1B 118.0(7) . 2_565
C4 C5 C6 Au1A 61.4(11) . 2_665
N1 C5 C6 Au1A -119.4(7) . 2_665
N2 C8 C7 C6 0.6(19) . .
N2 C8 C7 Au1 -179.2(16) . .
N2 C8 C7 Au1B 142.3(15) . .
N2 C8 C7 Au1A -141.3(15) . .
N3 C6 C7 C8 -1.6(19) . .
C5 C6 C7 C8 -178.1(14) . .
Au1B C6 C7 C8 70.1(15) 2_565 .
Au1A C6 C7 C8 -69.2(14) 2_665 .
N3 C6 C7 Au1 178.2(11) . .
C5 C6 C7 Au1 1.8(19) . .
N3 C6 C7 Au1B -153.8(11) . .
C5 C6 C7 Au1B 29.7(18) . .
Au1B C6 C7 Au1B -82.1(11) 2_565 .
N3 C6 C7 Au1A 150.0(12) . .
C5 C6 C7 Au1A -26.5(18) . .
Au1A C6 C7 Au1A 82.4(11) 2_665 .
C8 N2 N3 C6 -1.6(19) . .
C9 N2 N3 C6 178.8(15) . .
C8 N2 N3 Au1A 89.9(14) . 2_665
C9 N2 N3 Au1A -89.8(16) . 2_665
C8 N2 N3 Au1B -88.6(15) . 2_565
C9 N2 N3 Au1B 91.7(16) . 2_565
C7 C6 N3 N2 2.0(18) . .
C5 C6 N3 N2 177.9(15) . .
Au1B C6 N3 N2 -103.5(11) 2_565 .
Au1A C6 N3 N2 105.0(11) 2_665 .
C7 C6 N3 Au1A -103.0(13) . 2_665
C5 C6 N3 Au1A 72.9(16) . 2_665
C7 C6 N3 Au1B 105.5(13) . 2_565
C5 C6 N3 Au1B -78.5(16) . 2_565
