#------------------------------------------------------------------------------
#$Date: 2019-11-03 14:20:54 +0200 (Sun, 03 Nov 2019) $
#$Revision: 221630 $
#$URL: file:///home/coder/svn-repositories/cod/cif/4/12/85/4128550.cif $
#------------------------------------------------------------------------------
#
# This file is available in the Crystallography Open Database (COD),
# http://www.crystallography.net/
#
# All data on this site have been placed in the public domain by the
# contributors.
#
data_4128550
loop_
_publ_author_name
'Mark, Justin'
'Wang, Jian'
'Wu, Kui'
'Lo, Jeane Gladys'
'Lee, Shannon'
'Kovnir, Kirill'
_publ_section_title
;
 Ba<sub>2</sub>Si<sub>3</sub>P<sub>6</sub>: 1D Nonlinear Optical Material
 with Thermal Barrier Chains.
;
_journal_issue                   30
_journal_name_full               'Journal of the American Chemical Society'
_journal_page_first              11976
_journal_page_last               11983
_journal_paper_doi               10.1021/jacs.9b04653
_journal_volume                  141
_journal_year                    2019
_chemical_formula_sum            'Ba2 P6 Si3'
_chemical_formula_weight         544.77
_space_group_crystal_system      orthorhombic
_space_group_IT_number           33
_space_group_name_Hall           'P 2c -2n'
_space_group_name_H-M_alt        'P n a 21'
_audit_creation_method           SHELXL-2016/6
_cell_angle_alpha                90
_cell_angle_beta                 90
_cell_angle_gamma                90
_cell_formula_units_Z            4
_cell_length_a                   9.6272(4)
_cell_length_b                   9.1437(4)
_cell_length_c                   11.9261(6)
_cell_measurement_reflns_used    21640
_cell_measurement_temperature    100(2)
_cell_measurement_theta_max      27.496
_cell_measurement_theta_min      2.807
_cell_volume                     1049.83(8)
_computing_structure_refinement  'SHELXL-2016/6 (Sheldrick, 2016)'
_computing_structure_solution    'SHELXT 2014/5 (Sheldrick, 2014)'
_diffrn_ambient_temperature      100(2)
_diffrn_measured_fraction_theta_full 0.998
_diffrn_measured_fraction_theta_max 0.998
_diffrn_measurement_device_type  'Bruker APEX II CCD area-detector'
_diffrn_measurement_method       'profile data from \w scans'
_diffrn_radiation_type           MoK\a
_diffrn_radiation_wavelength     0.71073
_diffrn_reflns_av_R_equivalents  0.0697
_diffrn_reflns_av_unetI/netI     0.0294
_diffrn_reflns_Laue_measured_fraction_full 0.998
_diffrn_reflns_Laue_measured_fraction_max 0.998
_diffrn_reflns_limit_h_max       11
_diffrn_reflns_limit_h_min       -12
_diffrn_reflns_limit_k_max       11
_diffrn_reflns_limit_k_min       -11
_diffrn_reflns_limit_l_max       15
_diffrn_reflns_limit_l_min       -15
_diffrn_reflns_number            21621
_diffrn_reflns_point_group_measured_fraction_full 0.998
_diffrn_reflns_point_group_measured_fraction_max 0.999
_diffrn_reflns_theta_full        25.242
_diffrn_reflns_theta_max         27.496
_diffrn_reflns_theta_min         2.807
_diffrn_source                   'fine-focus sealed tube'
_exptl_absorpt_coefficient_mu    8.645
_exptl_absorpt_correction_T_max  0.7456
_exptl_absorpt_correction_T_min  0.6310
_exptl_absorpt_correction_type   multi-scan
_exptl_absorpt_process_details   SADABS
_exptl_crystal_colour            black
_exptl_crystal_density_diffrn    3.447
_exptl_crystal_description       block
_exptl_crystal_F_000             976
_exptl_crystal_size_max          0.207
_exptl_crystal_size_mid          0.148
_exptl_crystal_size_min          0.072
_refine_diff_density_max         0.769
_refine_diff_density_min         -1.634
_refine_diff_density_rms         0.147
_refine_ls_abs_structure_details
;
 Refined as an inversion twin.
;
_refine_ls_abs_structure_Flack   0.112(15)
_refine_ls_extinction_method     none
_refine_ls_goodness_of_fit_ref   1.109
_refine_ls_hydrogen_treatment    undef
_refine_ls_matrix_type           full
_refine_ls_number_parameters     101
_refine_ls_number_reflns         2399
_refine_ls_number_restraints     1
_refine_ls_restrained_S_all      1.108
_refine_ls_R_factor_all          0.0185
_refine_ls_R_factor_gt           0.0151
_refine_ls_shift/su_max          0.000
_refine_ls_shift/su_mean         0.000
_refine_ls_structure_factor_coef Fsqd
_refine_ls_weighting_details
'w=1/[\s^2^(Fo^2^)+0.8884P] where P=(Fo^2^+2Fc^2^)/3'
_refine_ls_weighting_scheme      calc
_refine_ls_wR_factor_gt          0.0315
_refine_ls_wR_factor_ref         0.0319
_reflns_Friedel_coverage         0.909
_reflns_Friedel_fraction_full    0.999
_reflns_Friedel_fraction_max     0.999
_reflns_number_gt                2280
_reflns_number_total             2399
_reflns_threshold_expression     'I > 2\s(I)'
_cod_data_source_file            ja9b04653_si_002.cif
_cod_data_source_block           shelx
_cod_database_code               4128550
_shelx_shelxl_version_number     2016/6
_shelx_space_group_comment
;
The symmetry employed for this shelxl refinement is uniquely defined
by the following loop, which should always be used as a source of
symmetry information in preference to the above space-group names.
They are only intended as comments.
;
_shelx_estimated_absorpt_t_min   0.268
_shelx_estimated_absorpt_t_max   0.575
_shelx_res_file
;
titl
    shelx.res
    created by SHELXL-2016/6 at 23:03:52 on 05-Apr-2019
CELL  0.71073   9.6272   9.1437  11.9261   90.000   90.000   90.000
ZERR   4   0.0004   0.0004   0.0006    0.000    0.000    0.000
LATT -1
SYMM -X, -Y, 1/2+Z
SYMM 1/2+X, 1/2-Y, Z
SYMM 1/2-X, 1/2+Y, 1/2+Z
SFAC SI P BA
UNIT  12 24  8
size .207 .148 .072
temp -173
omit 1 1 1
omit 1 1-1
L.S. 16
LIST 6
FMAP 2
PLAN -20
twin
acta

WGHT    0.000000    0.888400
BASF   0.11238
FVAR       0.25090
BA1   3    0.981158    0.815921    0.724402    11.00000    0.00358    0.00318 =
         0.00307   -0.00082   -0.00013   -0.00024
BA2   3    0.750131    0.249127    0.589514    11.00000    0.00398    0.00702 =
         0.01068   -0.00269   -0.00148    0.00269
P1    2    1.243369    0.722180    0.528295    11.00000    0.00225    0.00249 =
         0.00389   -0.00031   -0.00059    0.00069
P2    2    0.509427    0.707334    0.294145    11.00000    0.00334    0.00384 =
         0.00311    0.00045   -0.00026   -0.00150
P3    2    0.204181    0.478142    0.276549    11.00000    0.00119    0.00406 =
         0.00699   -0.00194    0.00045   -0.00035
P4    2    0.499910    0.448696    0.495557    11.00000    0.00206    0.00383 =
         0.00559    0.00185    0.00003    0.00009
P5    2    0.817082    0.444088    0.346076    11.00000    0.00208    0.00568 =
         0.01206   -0.00569    0.00083   -0.00057
P6    2    1.069259    0.568962    0.549796    11.00000    0.00328    0.00330 =
         0.00553    0.00041    0.00119   -0.00099
SI1   1    1.016920    0.564500    0.369383    11.00000    0.00098    0.00294 =
         0.00584   -0.00123    0.00030   -0.00017
SI2   1    0.348613    0.585078    0.396673    11.00000    0.00103    0.00308 =
         0.00367   -0.00039   -0.00005   -0.00004
SI3   1    0.659832    0.594878    0.417844    11.00000    0.00217    0.00232 =
         0.00469   -0.00056    0.00046   -0.00136
HKLF 4




REM
REM R1 =  0.0151 for    2280 Fo > 4sig(Fo)  and  0.0185 for all    2399 data
REM    101 parameters refined using      1 restraints

END

WGHT      0.0049      0.0000

REM Highest difference peak  0.769,  deepest hole -1.634,  1-sigma level  0.147
Q1    1   1.0021  0.9673  0.7252  11.00000  0.05    0.77
Q2    1   0.9971  0.6702  0.6706  11.00000  0.05    0.71
Q3    1   1.0027  0.6711  0.7809  11.00000  0.05    0.67
Q4    1   0.9186  0.6787  0.7217  11.00000  0.05    0.66
Q5    1   1.0068  0.5518  0.4636  11.00000  0.05    0.50
Q6    1   1.2799  0.8283  0.4075  11.00000  0.05    0.49
Q7    1   0.7831  1.0186  0.8652  11.00000  0.05    0.46
Q8    1   0.7839  0.3504  0.5105  11.00000  0.05    0.45
Q9    1   0.8363  0.1783  0.5132  11.00000  0.05    0.44
Q10   1   0.7219  0.8558  0.7760  11.00000  0.05    0.44
Q11   1   1.1362  1.1795  0.6306  11.00000  0.05    0.44
Q12   1   1.2941  0.9083  0.6837  11.00000  0.05    0.43
Q13   1   0.9980  0.9060  0.6363  11.00000  0.05    0.42
Q14   1   0.5102  0.7788  0.3656  11.00000  0.05    0.42
Q15   1   0.6386  0.0764  0.8305  11.00000  0.05    0.42
Q16   1   0.6682  0.0968  0.5395  11.00000  0.05    0.42
Q17   1   0.9159  1.0037  0.4630  11.00000  0.05    0.42
Q18   1   1.2366  0.7741  0.5829  11.00000  0.05    0.42
Q19   1   1.2265  0.7713  0.8644  11.00000  0.05    0.42
Q20   1   1.2364  1.1074  0.6594  11.00000  0.05    0.42
;
_shelx_res_checksum              60419
_shelx_hkl_file
;
   0   1   0   -2.80    0.40
   0   1   0   -2.70    0.40
   0  -1   0   -1.60    3.50
   0  -1   0   -3.80    5.40
   0   2   0 2177.68  110.99
   0  -2   0 2329.67  112.19
   0   2   0 2229.08  100.09
   0  -2   0 2233.18   99.99
   0   3   0    8.40   11.60
   0  -3   0    8.50   11.30
   0   3   0   42.00   21.10
   0  -3   0   34.90   22.80
   0  -4   0 2357.16   94.69
   0   4   0 2334.27   94.19
   0   4   0 2393.16  120.09
   0  -4   0 2549.04  121.09
   0   4   0 2389.86   94.79
   0  -4   0 2364.86   94.19
   0  -4   0 2437.56  142.99
   0   4   0 2406.76  140.29
   0   5   0   13.00   20.10
   0   5   0    8.90    2.70
   0   5   0   29.50   46.00
   0  -5   0   10.60    2.90
   0  -5   0   12.10   44.00
   0  -5   0    9.30    2.60
   0  -5   0    5.10   19.60
   0   6   0 1490.15   62.59
   0   6   0 1511.45  100.39
   0  -6   0 1545.85   61.89
   0   6   0 1457.25  136.19
   0  -6   0 1497.05  124.99
   0  -6   0 1586.64  100.29
   0  -6   0 1536.45   62.59
   0  -7   0    2.90    2.50
   0   7   0    0.30    2.20
   0   7   0  -80.49   76.09
   0   7   0  -18.20   37.70
   0  -7   0  -12.70   37.30
   0  -7   0  -85.69   52.19
   0  -8   0  802.92  131.19
   0   8   0  823.12   37.30
   0  -8   0  841.52   36.20
   0   8   0  749.42   93.49
   0  -8   0  815.62   93.39
   0   8   0  683.73  152.08
   0  -8   0  826.12   37.10
   0   9   0   32.50    7.00
   0   9   0  113.39  129.39
   0  -9   0   16.90  102.79
   0   9   0  195.18   68.69
   0  -9   0   32.70   62.39
   0  -9   0   35.80    7.00
   0  10   0  177.38   92.49
   0  10   0  101.99   11.10
   0 -10   0  111.69   11.20
   0  10   0  117.79   10.70
   0 -10   0  462.25  173.18
   0 -10   0  193.88   83.89
   0  10   0   62.29  135.59
   0 -11   0   15.00    7.30
  -1  -1   0  302.57   11.90
  -1  -1   0  325.27   23.80
  -1  -1   0  300.77   18.20
  -1   1   0  289.37   11.80
  -1  -1   0  304.37   12.20
   1  -1   0  290.37   22.20
  -1   1   0  283.17   22.60
   1   1   0  302.57   12.10
  -1   1   0  294.87   17.80
  -1   1   0  301.07   12.10
  -1  -1   0  297.87   12.30
   1  -1   0  294.67   17.40
   1   1   0  298.67   11.90
   1  -2   0  253.37   21.30
   1  -2   0  259.17   10.90
   1   2   0  265.87   11.40
   1   2   0  244.98   22.00
  -1   2   0  260.37   10.90
   1   2   0  204.08   31.30
   1  -2   0  241.38   28.00
  -1   2   0  261.17   11.40
  -1  -2   0  268.47   22.30
  -1  -2   0  262.37   11.40
  -1   2   0  201.08   30.30
  -1  -2   0  261.67   11.40
   1   2   0  259.07   11.40
   1  -2   0  262.47   11.30
  -1  -2   0  253.07   28.40
  -1   2   0  256.47   22.00
   1   3   0 3402.66  150.08
  -1  -3   0 3544.75  150.88
   1   3   0 3400.66  167.18
  -1   3   0 3315.97  166.98
   1  -3   0 3321.17  149.29
  -1   3   0 3349.56  149.29
  -1  -3   0 3377.36  166.38
   1  -3   0 3389.76  167.28
  -1  -3   0 3021.20  130.09
  -1  -4   0    5.50   16.70
  -1  -4   0   41.50   34.70
   1   4   0  -12.30   26.10
  -1  -4   0   -8.00    1.10
   1  -4   0  -22.50   16.90
  -1   4   0    6.10   17.10
   1   4   0   -6.20    1.30
  -1  -4   0   -7.50    1.30
   1  -4   0  -39.80   32.60
  -1   4   0  -37.60   23.50
   1  -4   0   -7.50    1.10
   1   4   0  -23.30   15.30
   1  -4   0   -7.90    1.20
   1   4   0   -7.30    1.30
  -1   4   0   -8.40    1.10
   1  -5   0 1556.64   62.19
  -1  -5   0 1559.84   62.69
  -1  -5   0 1576.44   63.09
   1   5   0 1282.67  111.89
  -1   5   0 1646.24  118.59
   1   5   0 1583.84   63.19
  -1   5   0 1546.85   93.39
  -1  -5   0 1556.64   92.99
   1  -5   0 1641.24  125.19
   1  -5   0 1510.55   62.79
  -1  -5   0 1604.14  122.79
   1   5   0 1486.75   62.49
   1  -5   0 1648.54   94.59
  -1   5   0 1550.54   63.09
   1   5   0 1573.84   95.39
  -1  -6   0  180.38   10.10
  -1  -6   0  181.08   10.60
  -1   6   0  205.88   64.19
  -1  -6   0  154.28   66.19
  -1   6   0  174.88   10.50
   1  -6   0  179.08    9.70
   1   6   0  218.88   62.49
  -1   6   0  171.78   39.70
   1   6   0  235.88   49.80
   1  -6   0  177.18   10.40
   1  -6   0  143.59   38.20
   1   6   0  182.68   10.60
   1  -6   0  255.97   73.19
  -1  -6   0  148.69   34.70
  -1   7   0  104.79   43.00
   1  -7   0  103.09   44.90
  -1   7   0   99.89    8.00
   1  -7   0   51.89   85.59
  -1  -7   0  118.69   80.59
  -1  -7   0  119.99   44.30
   1   7   0   76.09   61.99
   1  -7   0   97.19    7.20
   1  -7   0  101.89    8.20
   1   7   0  100.59    8.00
  -1  -7   0  107.19    7.80
  -1   7   0   79.39   83.19
   1   7   0   78.79   43.30
  -1  -7   0  104.19    8.20
   1   8   0   86.79   53.79
   1   8   0   85.99    8.20
  -1  -8   0   86.69    7.90
  -1   8   0    6.20  105.99
  -1  -8   0  -36.10   76.79
   1  -8   0   72.99    7.90
   1   8   0  -18.10   71.89
   1  -8   0  117.29   51.79
   1  -8   0   80.69    7.30
  -1   8   0   60.89   52.29
   1   8   0   81.49    7.00
  -1  -8   0   92.19   53.59
  -1   8   0   75.29    7.90
   1  -8   0   46.10  104.39
   1   9   0  -11.10   68.39
   1  -9   0 -202.88  156.58
  -1   9   0   51.19   61.29
  -1   9   0    2.50  131.39
  -1  -9   0   72.79  108.19
   1  -9   0   18.90    6.10
   1  -9   0  127.29   67.29
  -1  -9   0  -39.50   59.99
   1   9   0  169.68  111.59
  -1   9   0   18.20    6.30
   1  10   0   60.49   83.89
   1 -10   0  122.69   86.59
   1 -10   0   31.10  169.38
  -1 -10   0   48.60  150.68
  -1  10   0  108.09   11.20
  -1 -10   0   92.49   10.80
   1  10   0   89.99    9.80
  -1 -10   0   85.39   11.10
  -1  10   0  134.09   93.99
   1  10   0  111.89  135.39
   1  10   0   95.39   10.70
  -1 -10   0   91.59   82.59
  -1  10   0  214.38  176.08
   1  11   0  647.94   34.00
  -1  11   0  690.03   34.90
   1 -11   0  474.45  197.88
   1 -11   0  678.33   33.10
   1 -11   0  590.74  127.19
  -2   0   0   12.50    0.90
   2   0   0   11.00    1.00
  -2   0   0   11.00    1.10
  -2  -1   0   -0.10    9.40
   2  -1   0   -8.30    3.70
   2   1   0   -5.30    0.70
  -2  -1   0   -8.70    4.70
   2   1   0   -2.80    4.10
   2   1   0   -4.80    7.80
  -2   1   0  -14.30    8.00
  -2  -1   0   -6.00    0.60
  -2  -1   0   -6.60    0.80
  -2  -1   0   -6.90    0.60
  -2   1   0   -4.80    4.50
   2  -1   0   -7.40    7.40
  -2   2   0  418.36   38.00
   2   2   0  383.46   27.90
   2   2   0  403.26   16.10
  -2  -2   0  399.66   16.60
  -2  -2   0  383.46   37.90
  -2  -2   0  395.46   28.40
   2   2   0  372.66   36.40
  -2   2   0  389.86   16.50
  -2  -2   0  390.66   16.80
   2  -2   0  380.76   15.80
   2  -2   0  405.26   36.60
  -2   2   0  355.66   26.70
   2   2   0  391.86   16.80
   2   2   0  395.86   16.40
   2  -2   0  423.86   27.70
  -2  -3   0  249.58   11.40
   2  -3   0  270.97   41.70
  -2   3   0  217.08   40.30
   2  -3   0  229.58   10.40
  -2   3   0  219.28   26.90
  -2  -3   0  252.87   11.40
   2  -3   0  218.98   24.90
  -2  -3   0  245.28   27.00
   2   3   0  247.58   11.40
  -2   3   0  226.08   11.20
   2   3   0  262.07   11.30
   2   3   0  246.18   10.60
  -2  -3   0  262.37   42.40
   2   4   0 2475.75  141.59
   2   4   0 2295.77   93.19
   2  -4   0 2377.36  118.39
   2  -4   0 2292.27  140.69
  -2   4   0 2472.65  119.59
   2   4   0 2357.86  118.39
  -2  -4   0 2381.16   93.29
   2   4   0 2404.86   92.29
   2  -4   0 2328.77   92.19
  -2   4   0 2514.65  143.49
  -2  -4   0 2303.87  117.69
  -2  -4   0 2338.67   93.19
   2   4   0 2328.17   93.09
   2  -4   0 2274.27   92.89
  -2   4   0 2288.07   93.19
  -2  -4   0 2432.76  143.09
   2   5   0  154.38    9.30
  -2  -5   0  179.38   36.90
  -2   5   0  309.67   67.79
  -2  -5   0  162.08    9.40
  -2   5   0  209.48   40.10
  -2  -5   0  160.48    9.50
   2  -5   0  206.78    9.00
  -2  -5   0  192.78   56.29
   2   5   0  158.38    9.40
   2  -5   0  174.18   58.19
   2   5   0  164.98    8.60
   2  -5   0  187.78   38.90
   2   5   0  166.58   38.20
   2   5   0  195.78   56.39
  -2  -6   0 3262.77  164.58
   2  -6   0 2962.60  201.08
  -2   6   0 3402.56  207.38
   2  -6   0 3217.88  164.68
  -2   6   0 3066.29  162.08
   2   6   0 2767.32  196.78
  -2  -6   0 3084.39  122.89
   2   6   0 3039.10  162.78
  -2  -6   0 3130.79  123.29
   2  -6   0 3102.89  122.89
   2  -6   0 3063.19  121.79
   2   6   0 3057.29  123.09
   2   6   0 3165.48  121.89
  -2   6   0 3067.99  123.29
  -2  -6   0 3037.10  198.38
  -2   7   0   29.50   42.70
   2  -7   0   59.49   38.90
  -2   7   0  103.39   85.79
   2   7   0   67.89    5.70
  -2  -7   0   56.49    6.40
  -2  -7   0   49.50   38.40
   2   7   0   51.99    6.00
  -2  -7   0   58.69    6.30
   2  -7   0   -7.60   60.29
  -2   7   0   75.49    6.80
   2  -7   0   72.99    5.90
   2   7   0 -144.59   77.29
   2   7   0   69.59   43.60
  -2  -7   0  -14.60   58.89
  -2  -8   0 5697.13  220.88
  -2   8   0 5136.39  329.37
  -2  -8   0 5277.47  321.67
  -2   8   0 5756.72  281.57
   2   8   0 5639.94  341.27
  -2   8   0 5590.64  221.68
   2   8   0 5765.22  219.58
   2  -8   0 5697.33  219.78
   2   8   0 5627.04  221.48
  -2  -8   0 5595.14  279.27
   2   9   0  -43.10   64.79
  -2   9   0  124.99  102.89
  -2  -9   0  -92.09   95.99
   2  -9   0  -30.20  124.69
   2   9   0   87.79  141.49
  -2   9   0   10.70    4.80
  -2  -9   0  -48.30   60.09
   2  -9   0   67.09   65.99
  -2   9   0   42.10   67.19
   2   9   0    9.40    4.30
   2  -9   0    7.70    4.20
   2 -10   0 1094.59  140.39
   2  10   0  916.51   40.10
  -2 -10   0  876.21   41.50
  -2  10   0  890.71   43.90
  -2 -10   0  835.92  163.98
  -2 -10   0 1031.70  308.97
  -2 -10   0  879.71   42.30
   2 -10   0  950.80  204.68
   2  10   0  928.01   42.20
  -2  11   0  251.97  182.48
  -2  11   0   68.89   11.40
   2 -11   0   64.79   11.50
   2 -11   0   -7.70  113.09
  -2  11   0 -174.28  114.09
   2  11   0   43.60   10.70
   2 -11   0  479.05  250.97
  -3   0   0    0.50    0.50
  -3   0   0    0.30    0.60
  -3  -1   0  478.25   18.90
  -3  -1   0  483.85   19.60
  -3   1   0  468.75   30.50
   3   1   0  482.15   25.80
  -3   1   0  466.45   27.10
  -3  -1   0  470.25   18.80
  -3  -1   0  453.25   25.60
  -3  -1   0  471.55   32.30
   3   1   0  477.95   18.90
   3   1   0  492.85   19.70
  -3   1   0  458.95   24.70
  -3  -1   0  480.45   18.80
   3   1   0  471.05   31.90
  -3   2   0  321.57   25.40
  -3   2   0  328.37   35.20
  -3   2   0  338.37   14.30
  -3  -2   0  341.17   14.40
   3   2   0  344.97   14.90
  -3  -2   0  376.76   38.70
  -3  -2   0  352.06   15.00
   3  -2   0  325.47   25.20
   3   2   0  340.07   14.00
   3   2   0  337.97   13.90
   3   2   0  326.67   36.60
   3   2   0  343.07   26.10
   3  -2   0  301.17   34.70
  -3  -2   0  340.77   14.00
  -3  -2   0  320.77   26.80
  -3   3   0  891.41   36.10
   3   3   0  926.01   55.09
   3  -3   0  876.61   35.00
  -3  -3   0  887.31   72.29
   3   3   0  885.81   36.60
  -3   3   0  948.31   55.29
   3   3   0  924.41   69.69
  -3   3   0  807.72   68.49
  -3  -3   0  892.71   36.20
  -3  -3   0  907.91   36.60
   3  -3   0  895.81   53.69
   3   3   0  893.51   35.40
  -3  -3   0  789.12   53.09
   3   3   0  885.51   35.90
   3  -3   0  872.61   69.29
   3  -4   0   40.10   19.80
  -3   4   0   69.89   33.30
   3   4   0   28.50    2.90
   3   4   0   32.70    3.40
  -3   4   0   34.80   19.90
   3  -4   0   67.19   38.70
  -3  -4   0   25.40    3.60
  -3  -4   0   25.90    3.60
   3   4   0   25.90    3.50
  -3  -5   0 3746.53  147.09
  -3   5   0 3668.13  178.78
   3  -5   0 3633.04  145.49
  -3  -5   0 3844.22  212.38
  -3   5   0 3912.61  209.98
  -3  -5   0 3775.12  147.19
   3   5   0 3707.43  146.69
   3   5   0 3639.04  145.69
  -3  -5   0 3806.02  180.78
   3  -5   0 3712.03  179.28
   3   5   0 3757.42  208.88
  -3   5   0 3589.54  146.99
   3  -5   0 3907.41  209.38
   3   5   0 3812.22  181.58
   3   6   0   36.10   58.39
   3   6   0   61.19    4.80
   3  -6   0   63.79    4.80
   3   6   0   54.89    5.40
   3  -6   0   63.69   34.60
   3   6   0   15.60   29.60
  -3   6   0   90.59   51.19
  -3  -6   0  -33.30   58.19
   3  -6   0   51.09   74.19
  -3   6   0   99.09   34.40
  -3  -6   0   51.29    5.70
  -3   6   0   63.59    5.90
  -3  -6   0   55.89    5.70
  -3  -6   0   33.90   31.10
   3   7   0   93.39   88.69
  -3   7   0   25.70    5.00
  -3   7   0   -2.60   60.59
  -3   7   0   -3.00   40.40
   3  -7   0   29.50    4.20
  -3  -7   0   85.69   40.10
  -3  -7   0   23.20    5.10
  -3  -7   0   -1.00   76.79
   3   7   0   26.10    4.70
  -3  -7   0   27.60    5.30
   3   7   0    9.00   42.50
   3  -7   0   45.40   72.69
   3   8   0   63.39    7.30
   3  -8   0   20.90   51.09
  -3   8   0  -30.80   73.39
  -3   8   0   90.99   52.89
   3   8   0   39.70   56.69
  -3   8   0   74.49    8.10
  -3  -8   0  -85.09   97.79
   3  -8   0   86.49    6.90
  -3  -8   0   52.79   50.39
   3   8   0   69.19    6.50
  -3  -8   0   65.59    7.90
   3   8   0   80.49  107.59
   3  -8   0   57.29   85.29
   3  -9   0  306.17  116.79
   3   9   0  500.35  146.29
   3  -9   0  290.27   15.20
   3   9   0  272.77   16.60
  -3  -9   0  267.27   17.10
   3   9   0  332.47   81.89
  -3   9   0  269.17  142.89
   3  -9   0  328.67   78.09
  -3  -9   0  134.79  145.29
  -3  -9   0  146.09   66.69
  -3  -9   0  259.27   16.70
  -3   9   0  235.78   79.39
  -3 -10   0  215.38   16.70
  -3  10   0  152.08  102.29
   3  10   0  215.68   15.70
   3 -10   0  247.08   14.90
   3  10   0  219.28   14.70
   3 -10   0   12.20  141.39
   3 -10   0  213.58   86.89
  -3  10   0 -179.78  174.38
  -3 -10   0  240.98   19.30
  -3  10   0  241.58   23.90
   3  11   0   18.20    6.80
   3 -11   0   16.30    7.20
  -3  11   0   15.20    6.50
   4   1   0  218.68   16.20
   4   1   0  237.88   22.70
  -4   1   0  221.78   15.20
  -4  -1   0  221.98   10.20
   4   1   0  222.38    9.50
  -4  -1   0  222.38    9.70
  -4  -1   0  215.48   16.20
  -4   1   0  237.28   17.00
  -4  -1   0  225.48   22.60
  -4   1   0  225.88   20.30
  -4   1   0  219.58   23.40
   4   2   0 5276.87  237.88
   4   2   0 5469.05  225.58
  -4   2   0 5427.96  224.08
  -4  -2   0 5607.14  239.88
  -4   2   0 5667.13  237.88
  -4  -2   0 5439.76  225.68
  -4   3   0  295.47   45.50
   4   3   0  109.69   34.90
   4   3   0  147.49    7.00
  -4   3   0  160.78    7.70
   4  -3   0  144.99   37.30
  -4   3   0  137.29   24.20
   4   3   0  169.78   26.70
  -4  -3   0  146.99    8.20
  -4  -3   0  142.49    7.70
   4   3   0  147.19    6.90
  -4  -3   0  230.98   46.30
   4   3   0  150.08    7.00
  -4  -3   0  120.39   25.60
   4  -3   0  185.48   25.50
   4   3   0  141.79    8.00
  -4   4   0 3069.99  124.69
  -4  -4   0 3350.26  179.48
  -4  -4   0 3237.58  152.08
  -4   4   0 3222.78  150.68
  -4   4   0 3309.67  177.08
   4   4   0 3277.47  152.38
  -4  -4   0 3172.08  125.19
   4  -4   0 3148.08  175.28
   4  -4   0 2992.40  122.89
   4  -4   0 3152.58  150.28
  -4  -4   0 3203.88  124.79
   4   4   0 3324.27  175.88
   4   4   0 3063.59  123.49
   4   4   0 3137.59  124.09
   4  -5   0  179.58   40.60
  -4   5   0  175.28   35.90
   4  -5   0  200.68   10.10
  -4   5   0  198.08   11.60
   4   5   0  244.48   11.60
   4  -5   0  189.58   61.89
   4   5   0  230.58   44.30
  -4  -5   0  380.96   48.20
  -4   5   0  213.98   57.39
  -4  -5   0  242.58   12.20
   4   5   0  237.48   10.80
   4   5   0  163.48   56.99
  -4  -5   0  201.48   64.69
  -4  -5   0  237.88   12.30
   4   6   0   52.29    4.40
  -4  -6   0   73.89   32.00
  -4   6   0    0.20   48.00
  -4  -6   0  -23.40   46.20
  -4  -6   0   48.90    5.60
   4   6   0    4.00   62.89
   4   6   0   44.50    4.80
  -4   6   0   47.80   33.00
  -4   6   0   41.20    5.20
   4   6   0    9.80   32.60
   4  -6   0   41.60    3.90
  -4  -7   0   94.09    8.10
   4  -7   0   77.09   46.20
   4   7   0   98.99    7.50
   4  -7   0   70.49    5.80
   4  -7   0    3.80   87.29
  -4  -7   0  128.39   67.69
   4   7   0   96.49    6.70
  -4   7   0   10.00   75.69
   4   7   0   80.49   45.50
  -4  -7   0   52.19   40.60
  -4   7   0  -24.10   38.90
  -4   7   0   71.49    7.50
   4   7   0    4.90   89.49
   4   8   0   71.39  112.49
  -4  -8   0    9.80   49.70
   4  -8   0  -16.40   53.19
  -4   8   0    0.70   98.39
   4  -8   0  -18.70  112.09
  -4  -8   0   36.50   75.49
  -4   8   0  -38.70   53.69
   4   8   0 -136.39   55.39
   4  -9   0   74.79    8.00
  -4  -9   0   94.29   10.70
   4   9   0  106.69    9.80
   4  -9   0   -6.00  139.49
  -4   9   0   69.79    9.50
   4  -9   0  133.99   70.39
  -4  -9   0   99.79   10.60
   4  10   0  336.57   19.40
   4  10   0  329.87   17.90
  -4  10   0  295.87   19.90
   4 -10   0  301.57   17.30
   4  11   0   15.90    6.80
  -4  11   0    7.20    6.70
  -5   0   0    2.00    1.00
  -5   0   0    2.30    0.80
   5   1   0   54.89   10.50
  -5  -1   0   58.79    3.90
   5   1   0   45.20   13.30
  -5   1   0   55.49    8.50
  -5   1   0   70.59   10.70
  -5   1   0   72.29    7.20
  -5  -1   0   56.69    3.20
  -5   1   0   48.70    6.10
  -5  -2   0  552.84   48.00
   5   2   0  530.65   34.30
   5   2   0  517.35   20.90
  -5  -2   0  514.65   21.30
  -5  -2   0  515.35   20.90
  -5  -2   0  507.65   34.80
  -5   2   0  538.95   45.10
   5   2   0  558.54   47.60
  -5   2   0  508.15   37.40
  -5  -2   0  517.65   22.20
  -5   2   0  489.95   33.10
  -5   2   0  581.14   53.59
  -5   2   0  506.85   21.10
  -5  -3   0 1699.43   68.29
   5   3   0 1741.53   87.79
  -5   3   0 1622.54   67.29
  -5   3   0 1716.03  103.99
  -5  -3   0 1706.33   67.49
  -5   3   0 1722.33   86.29
   5   3   0 1667.03   66.59
  -5  -3   0 1669.23   87.19
  -5  -3   0 1757.82  107.89
   5   3   0 1777.02  107.09
  -5  -3   0 1701.53   66.69
   5   4   0  308.47   13.40
  -5  -4   0  291.47   62.69
  -5   4   0  316.87   14.60
  -5  -4   0  315.77   40.70
   5  -4   0  346.87   41.10
  -5   4   0  329.27   40.90
   5   4   0  317.77   39.70
   5   4   0  299.17   13.20
  -5   4   0  253.27   58.09
   5   4   0  299.67   13.40
  -5  -4   0  303.47   14.60
  -5  -4   0  309.97   15.10
   5   4   0  386.46   61.39
   5  -5   0  510.45   56.19
  -5  -5   0  453.55   58.89
  -5   5   0  497.65   22.50
   5   5   0  388.56   77.09
   5   5   0  503.75   21.40
  -5  -5   0  493.15   22.50
   5   5   0  474.75   56.19
  -5   5   0  449.26   55.29
   5   5   0  502.05   21.20
   5   5   0  495.25   21.00
   5  -5   0  373.26   80.09
  -5   5   0  517.65   84.09
  -5  -5   0  598.64   97.09
  -5  -5   0  493.15   22.80
   5  -5   0  481.65   19.90
  -5  -6   0  170.58   10.80
  -5  -6   0   91.49   77.79
   5   6   0  167.28    9.50
   5   6   0  174.88   45.40
   5  -6   0  144.89   74.49
   5   6   0  173.08    9.10
   5   6   0  166.88    9.60
  -5  -6   0  172.48   11.00
   5  -6   0  163.88    8.10
  -5   6   0  232.28   76.09
   5  -6   0  187.28   44.50
  -5  -6   0  128.09   43.00
  -5   6   0  172.58   10.70
  -5   6   0  122.39   41.60
   5   6   0  161.88   67.89
   5   7   0  166.18    9.70
   5  -7   0  364.56  103.09
  -5   7   0  332.07   73.49
  -5   7   0  209.18   83.39
   5  -7   0  183.58    9.10
  -5   7   0  177.48   11.70
  -5  -7   0  167.08   11.50
   5   7   0  167.78   10.50
   5  -7   0  122.99   48.10
  -5  -7   0  165.28   11.80
   5  -8   0   26.60   58.29
   5   8   0   25.80    5.80
  -5  -8   0   31.20    7.90
   5   8   0  140.69  118.39
  -5  -8   0   89.79   97.69
  -5  -8   0   27.80    7.30
   5  -8   0   44.10   83.69
   5  -8   0   22.20    4.50
   5   8   0   90.39   64.19
  -5   8   0   26.10    6.50
  -5  -8   0   30.30   53.69
  -5   9   0  120.19   11.50
  -5  -9   0  106.89   11.60
  -5  -9   0  109.79   12.00
   5   9   0  113.49   10.30
   5  -9   0  122.49    8.70
   5 -10   0  117.99   10.40
   5  10   0  120.59   11.80
  -5  10   0  110.69   12.90
   5  10   0  122.79   11.40
  -6   0   0  450.45   18.60
  -6   0   0  448.66   18.70
  -6   1   0  132.99    6.60
  -6  -1   0  133.89    7.10
  -6  -1   0  135.99    6.30
   6   2   0 1373.16   52.99
   6   2   0 1303.37   77.79
  -6  -2   0 1367.86   52.99
  -6  -2   0 1360.36   54.39
  -6   2   0 1349.47   74.09
  -6  -2   0 1344.27   53.29
  -6   2   0 1357.86   53.09
  -6   2   0 1375.16   63.39
   6   2   0 1303.57   65.69
  -6   2   0 1357.56   66.89
  -6   2   0 1302.17   79.19
  -6   3   0  237.28   38.00
  -6  -3   0  226.18   10.10
  -6  -3   0  240.38   53.69
   6   3   0  231.38   10.10
  -6  -3   0  229.68   10.90
  -6   3   0  198.68   42.60
  -6   3   0  228.28   51.29
  -6  -3   0  233.08   11.80
  -6   3   0  265.47   33.00
  -6   3   0  205.68   10.50
   6   3   0  228.88   30.70
   6   3   0  225.38   45.90
  -6  -3   0  213.48   32.20
   6   4   0 1580.54  120.09
  -6   4   0 1805.22  120.39
  -6   4   0 1763.62   94.99
   6   4   0 1689.43   66.29
  -6  -4   0 1713.63   68.39
  -6   4   0 1584.04  101.19
  -6  -4   0 1583.34   94.79
  -6   4   0 1686.83   67.49
   6   4   0 1644.74   94.79
  -6  -4   0 1697.93   67.69
  -6  -4   0 1811.92  123.09
  -6   4   0 1573.44  134.29
  -6   5   0  542.15   91.19
  -6  -5   0  369.96   18.60
  -6  -5   0  379.86   18.20
   6   5   0  303.57   75.99
   6   5   0  365.06   15.90
  -6  -5   0  489.25   91.49
  -6   5   0  392.86   18.20
   6   5   0  364.36   15.90
   6   5   0  374.46   16.50
  -6   5   0  376.56   55.29
   6   5   0  350.36   55.39
  -6  -5   0  409.86   55.19
   6   6   0 1311.87   51.79
  -6  -6   0 1175.58   96.69
  -6   6   0 1259.47   53.59
   6   6   0 1220.48  133.49
  -6  -6   0 1330.37   53.89
   6   6   0 1279.07   51.59
  -6  -6   0 1155.48  142.29
   6   6   0 1248.18   98.89
   6   6   0 1266.37   51.49
  -6  -6   0 1300.57   54.19
   6   7   0  353.56   67.99
  -6  -7   0  367.26   19.90
   6   7   0  364.06   17.80
   6   7   0  484.55  108.89
  -6  -7   0  363.96  121.49
  -6  -7   0  366.96   20.30
  -6  -7   0  445.76   79.99
  -6   7   0  424.56   20.30
   6   7   0  368.76   17.70
   6   7   0  361.26   17.90
   6  -7   0  398.96   16.20
   6   8   0 3483.35  138.39
   6   8   0 3504.05  137.99
  -6   8   0 3568.74  141.09
  -6  -8   0 3501.15  140.89
   6  -8   0 3407.76  136.39
   6   8   0 3500.15  138.69
  -6  -8   0 3512.75  141.09
  -6   9   0   13.10    5.70
  -6  -9   0    3.50    6.00
   6  -9   0   10.80    3.50
   6   9   0    5.10    5.00
   6   9   0    8.30    4.60
   6   9   0    5.20    4.30
   6  10   0 1029.20   45.40
  -6  10   0  971.60   45.90
   6  10   0  945.91   42.30
   6 -10   0  915.41   40.50
  -7   0   0    8.10    1.90
  -7   0   0    6.10    1.70
  -7  -1   0 1561.54   62.49
  -7  -1   0 1632.14   63.59
  -7   1   0 1589.44   62.89
  -7   2   0  382.06   23.40
  -7   2   0  394.86   29.80
  -7  -2   0  441.76   19.20
  -7   2   0  417.06   17.50
  -7  -2   0  445.56   17.60
   7   2   0  431.96   33.30
  -7   2   0  378.26   24.70
  -7  -2   0  435.86   17.80
   7   2   0  408.06   42.70
   7   2   0  541.85   50.09
  -7   2   0  398.26   20.90
   7   2   0  432.06   31.30
  -7   3   0  305.07   40.60
  -7   3   0  311.37   14.20
  -7   3   0  315.67   34.40
  -7  -3   0  304.67   13.50
   7   3   0  318.57   37.30
   7   3   0  380.36   60.99
  -7  -3   0  314.77   14.40
   7   3   0  306.57   13.50
  -7   3   0  481.45   69.79
  -7  -3   0  320.07   15.50
  -7   3   0  284.47   52.99
  -7   4   0   26.60   31.00
   7   4   0   92.59   30.80
  -7   4   0   25.30   26.70
  -7   4   0   48.00    4.90
  -7  -4   0   96.29   27.60
  -7  -4   0   60.89    5.40
  -7   4   0    9.10   47.50
  -7   4   0   22.40   60.89
   7   4   0   63.29    4.20
   7   4   0  154.28   52.69
  -7  -4   0   65.49    6.30
   7   5   0  447.36   96.29
  -7   5   0  363.96   17.70
  -7  -5   0  318.97   58.29
  -7   5   0  369.26   99.49
  -7  -5   0  358.46   17.90
  -7  -5   0  389.36   18.90
   7   5   0  354.16   16.10
   7   5   0  366.96   57.59
  -7  -5   0  355.06   90.99
  -7   5   0  305.67   55.79
   7   6   0  179.68    9.60
  -7   6   0  183.28   11.60
   7   6   0  352.36  103.09
   7   6   0  167.18   55.59
  -7  -6   0  221.48   51.59
  -7  -6   0  181.78   11.80
  -7  -6   0  234.68  100.59
  -7  -6   0  178.88   12.40
   7   7   0  533.65   23.60
  -7  -7   0  528.95   26.20
  -7   7   0  460.25   92.79
  -7   7   0  600.04  154.48
   7   7   0  519.75   22.70
   7   7   0  538.55   22.80
  -7   7   0  529.75   25.90
  -7  -7   0  564.84   96.49
  -7  -7   0  446.76  132.79
  -7  -7   0  530.65   26.70
   7   8   0  102.69    7.90
  -7  -8   0  103.99   12.00
   7   8   0   92.99    8.40
  -7  -8   0   91.69   10.80
   7   8   0   97.89    7.80
  -7   8   0  127.49   11.40
  -7   9   0   24.20    9.20
   7   9   0   27.90    7.50
   7   9   0   25.60    6.90
  -8   0   0 3063.09  121.29
  -8   0   0 3171.08  121.49
  -8   1   0  396.56   17.10
  -8  -1   0  401.56   17.80
  -8  -1   0  398.96   16.70
  -8  -2   0 3486.15  137.19
  -8  -2   0 3555.24  138.99
  -8  -2   0 3553.64  137.49
  -8   2   0 3494.95  137.99
  -8   2   0 3575.24  137.29
  -8  -3   0  181.78   10.10
  -8   3   0  191.28   32.50
   8   3   0  194.08   53.29
  -8  -3   0  194.28    9.30
  -8   3   0  228.18   10.20
  -8   3   0  234.08   42.10
  -8  -3   0  196.88   11.50
   8   3   0  279.07   43.70
  -8   3   0  220.68   26.90
  -8   3   0  203.88   45.20
  -8   4   0  951.60   87.59
  -8   4   0 1085.99   44.00
  -8   4   0 1019.80   68.89
   8   4   0 1078.79   42.70
  -8  -4   0 1084.69   44.30
   8   4   0  990.50  123.39
   8   4   0 1088.59   85.69
  -8   4   0 1093.79   96.89
  -8   4   0  959.50  126.19
   8   4   0 1042.00   75.69
  -8  -4   0 1092.79   45.50
   8   4   0 1018.80  110.89
   8   5   0  243.38   49.80
   8   5   0  374.36   88.19
  -8  -5   0  248.78   14.40
  -8   5   0  276.77   79.19
   8   5   0  237.78   11.30
  -8   5   0  216.78   12.70
  -8   5   0  186.58   52.69
  -8   5   0  287.17   56.89
  -8   5   0  201.38   95.09
   8   6   0  288.67   13.70
   8   6   0  301.77   61.09
  -8  -6   0  286.27   16.10
  -8   6   0  194.38   67.39
  -8   6   0  302.97  120.99
  -8  -6   0  288.07   17.00
   8   6   0  191.28  103.29
  -8   6   0  279.47   15.60
   8   7   0  250.17   12.80
  -8  -7   0  246.28   16.50
  -8   7   0  210.18   14.70
  -8  -7   0  245.28   15.50
  -8  -8   0   39.50   10.20
   8   8   0   49.60    7.60
  -8   9   0  249.78   19.50
  -9   0   0    0.00    1.60
  -9   0   0    1.30    1.50
  -9  -1   0   32.50    4.20
  -9   1   0   30.70    3.40
  -9  -1   0   33.20    3.10
  -9  -2   0  361.56   17.30
  -9   2   0  373.66   16.40
  -9  -2   0  361.96   15.50
  -9  -2   0  357.86   15.80
   9   3   0  220.58   41.50
  -9  -3   0  121.39    8.80
  -9  -3   0  113.39    7.30
   9   3   0  125.79   22.70
  -9   3   0  117.79    7.20
   9   3   0  161.58   25.40
  -9   3   0  119.39    7.40
   9   3   0  102.29   26.30
   9   4   0  498.45   67.79
  -9   4   0  537.25   23.90
  -9   4   0  440.06   69.69
  -9   4   0  546.65   47.50
  -9   4   0  496.55   55.39
   9   4   0  584.24  104.99
  -9  -4   0  574.04   25.80
  -9   4   0  470.35   93.69
  -9  -4   0  537.25   24.20
   9   5   0  329.47   91.49
  -9  -5   0  302.47   17.40
   9   5   0  236.08   52.89
  -9  -5   0  292.87   16.00
   9   5   0  303.27   13.70
  -9   5   0  293.67   15.60
  -9   6   0  267.37  140.59
  -9  -6   0  236.58   14.60
  -9   6   0  175.68   74.69
  -9   6   0  257.17   14.60
   9   6   0  218.38   11.90
  -9  -6   0  225.08   15.80
  -9  -7   0   53.29    9.70
  -9   7   0   52.39    8.90
   9   8   0   15.30    5.40
  -9  -8   0   13.00    7.30
  -9   8   0    6.70    6.10
 -10   0   0  140.79    7.30
 -10   0   0  137.89    7.30
 -10  -1   0  420.76   19.40
 -10  -1   0  432.66   18.20
 -10   1   0  443.76   18.80
 -10  -2   0  921.51   36.20
 -10  -2   0  898.71   36.70
 -10  -2   0  913.11   38.40
 -10   2   0  877.81   37.10
 -10   3   0   32.10    4.60
 -10  -3   0   37.70    6.60
 -10   3   0   35.40    4.50
 -10  -3   0   26.20    4.70
  10   4   0  201.38   48.30
  10   4   0  185.68   38.80
 -10   4   0  193.28   11.10
 -10  -4   0  200.58   13.00
 -10   4   0  194.98   11.00
 -10  -4   0  185.28   11.30
 -10   5   0   54.59   46.10
 -10  -5   0   57.09    7.90
 -10  -5   0   48.10    9.20
  10   5   0  108.39   83.49
 -10   5   0   49.99    6.70
 -10   5   0  228.68   91.49
  10   5   0  109.79   46.00
  10   6   0 1685.93   66.29
 -10  -6   0 1687.03   69.69
 -10   6   0 1664.93   69.39
 -10  -6   0 1618.24   70.79
 -10  -7   0  420.36   24.40
 -10   7   0  467.25   24.30
 -11   0   0   10.50    2.60
 -11   1   0    2.60    2.30
 -11  -1   0    0.90    2.10
 -11  -1   0    4.60    3.20
 -11  -2   0  198.28    8.70
 -11   2   0  159.68    9.70
 -11   3   0  133.99    9.10
 -11  -3   0  132.29   10.60
 -11   3   0  141.09    8.60
 -11   4   0  394.86   19.50
 -11  -4   0  417.96   21.60
 -11   4   0  405.66   19.50
 -11   5   0  245.28   14.60
 -11   5   0  243.68   14.30
 -11  -5   0  255.27   15.70
 -11  -5   0  245.48   17.30
 -12   0   0 2267.57   88.89
 -12  -1   0  297.37   14.70
 -12   1   0  316.07   14.40
 -12  -2   0  700.63   30.60
 -12   2   0  680.13   29.30
 -12  -3   0  153.38   12.90
 -12   3   0  196.58   11.30
 -12   3   0  183.58   10.50
   0   1   1   58.49    3.20
   0   1   1   31.80    8.70
   0   1   1   57.09    3.10
   0  -1  -1   75.69    9.60
   0   1   1   22.90   12.80
   0  -1  -1   73.09   13.10
   0  -1   1   55.69    3.30
   0   1  -1   88.99   16.00
   0   1  -1   76.49   11.60
   0   2   1   -1.20    0.80
   0   2  -1    8.40   17.90
   0  -2  -1   -3.10    7.30
   0   2   1   -0.40    1.00
   0  -2   1   -1.10    7.90
   0  -2   1   -1.70    0.90
   0   2   1   -1.10    0.80
   0   2  -1   -8.80    7.10
   0  -2  -1    5.70   12.60
   0  -2   1   -0.90   12.50
   0   2  -1   -1.60    1.00
   0   2   1   -3.80   16.90
   0   2   1   17.60    9.60
   0  -2  -1   -1.00    0.80
   0  -3  -1 1975.40   96.19
   0  -3   1 1847.92   76.89
   0  -3  -1 2193.18  116.39
   0   3  -1 1952.70   96.69
   0   3  -1 1912.91   77.29
   0   3   1 2004.40  112.99
   0  -3   1 2056.69   97.09
   0   3  -1 1961.30  113.29
   0   3   1 1918.91   77.29
   0   3   1 1877.21   76.89
   0  -3   1 1933.11  110.79
   0  -3  -1 1908.31   76.89
   0   3   1 2141.19   98.89
   0  -3   1 1889.81   77.29
   0   4   1    8.00   16.80
   0  -4   1    0.90    1.50
   0  -4  -1   -1.00   23.90
   0   4  -1    2.40   17.30
   0  -4  -1    0.60    1.50
   0   4   1    0.80    1.50
   0   4   1   43.10   37.60
   0   4  -1    0.60    1.60
   0  -4  -1    2.10    1.50
   0   4  -1   29.10   27.40
   0  -4  -1   -6.20   15.10
   0   4   1    2.50    1.60
   0  -4   1   -1.50   15.80
   0  -4   1  -18.70   24.50
   0  -4   1    1.50    1.70
   0   5  -1 1798.02   73.89
   0  -5   1 1838.92   73.89
   0   5   1 1817.92   73.89
   0   5  -1 1831.42  128.69
   0  -5  -1 1825.32   73.19
   0  -5  -1 1796.52   73.69
   0   5  -1 1840.82  105.69
   0  -5   1 1879.41  105.69
   0  -5   1 1840.92   73.19
   0  -5   1 1840.82  127.79
   0   5   1 1836.12   73.39
   0  -5  -1 1909.01  105.59
   0  -5  -1 1746.73  131.09
   0   5   1 1899.31  134.99
   0  -6  -1   30.10   43.50
   0  -6   1   17.00    3.60
   0  -6  -1   13.20   27.00
   0   6   1   15.40    3.10
   0   6  -1   23.70   29.30
   0   6   1   20.40   31.70
   0   6  -1   16.10    3.60
   0  -6  -1   14.70    3.40
   0  -6   1   24.70   30.00
   0  -6   1   14.80    3.80
   0   6   1   13.90    3.40
   0   6  -1   53.09   49.10
   0  -6   1  -14.00   58.49
   0  -6  -1   17.30    3.80
   0   6   1  -18.60   44.90
   0   7  -1 3552.54  238.88
   0  -7  -1 3455.25  226.88
   0  -7  -1 3660.73  191.88
   0  -7   1 3802.22  143.59
   0  -7   1 3843.82  193.88
   0   7   1 3792.02  194.48
   0  -7  -1 3106.09  144.79
   0   7   1 3737.73  143.79
   0   7  -1 3575.44  191.98
   0   7   1 3757.22  142.69
   0  -7   1 3388.66  144.09
   0   7   1 3850.51  244.88
   0  -7   1 3651.93  230.28
   0   7  -1 3513.75  143.49
   0   8  -1 -102.19   70.79
   0  -8   1    8.80   47.70
   0  -8   1   17.70    5.20
   0   8   1   23.10   96.39
   0  -8   1  -10.10   72.69
   0   8  -1   15.90    5.10
   0   8   1    1.30   49.99
   0   8   1   18.70    4.80
   0  -8   1   19.10    5.60
   0  -8  -1   16.60    5.20
   0   8   1   20.30    5.30
   0  -8  -1   45.40   50.59
   0   8  -1   28.50   52.19
   0  -8  -1   26.40  103.89
   0   9   1 2251.37   96.79
   0  -9   1 2070.59   94.99
   0  -9  -1 2453.85   95.89
   0   9   1 2370.86  214.48
   0  -9  -1 2383.56  218.98
   0   9  -1 2545.25   97.59
   0   9  -1 2654.53  176.38
   0  -9   1 2119.89  242.48
   0   9  -1 2843.72  258.67
   0   9   1 1986.70  169.28
   0  -9   1 2277.67  167.18
   0  -9  -1 2523.05  169.98
   0 -10  -1   14.20   80.19
   0 -10   1   71.69   71.29
   0 -10  -1 -275.37  120.79
   0  10  -1 -138.69  164.88
   0 -10   1   45.60  169.28
   0  10   1  -37.00  129.39
   0  10  -1   84.79   81.89
   0  10   1  -21.70   86.39
   0 -11   1  525.25   28.90
   0  11  -1  505.05   28.50
   0  11   1  524.75   28.70
   0 -11  -1  507.85   28.30
   1   0   1   -6.20    0.30
  -1   0  -1   -5.60    0.40
  -1   0  -1   -3.40    3.80
   1   0   1   -5.90    0.30
   1   0   1    5.30    8.40
  -1   0   1   -5.70    0.20
  -1   0   1  -10.60    6.30
  -1   0   1   -6.50    3.60
  -1   0  -1   -4.90    7.10
   1   0  -1   -5.20    3.10
   1   0  -1  -13.30    5.60
   1   0   1   -5.90    0.30
   1   0   1   -5.50    3.90
  -1   0  -1   -5.80    0.30
   1   0  -1   -5.10    0.30
   1  -1  -1    0.20    5.50
  -1   1  -1   -0.60    1.30
   1   1   1   -0.30    1.10
   1  -1  -1   -0.30    1.00
  -1  -1   1   -0.90    1.30
   1   1   1   -1.10    1.20
   1  -1  -1    9.80    8.80
   1   1   1   -2.80    1.40
   1   1   1   -2.50    1.30
   1  -1   1   -1.60    1.30
   1   1  -1    0.30    1.30
   1   1  -1    3.40    6.80
  -1   1   1   -1.40    5.70
  -1  -1  -1    0.80    1.30
  -1   1   1   -8.50   10.30
  -1  -1  -1    0.80    1.40
  -1  -1  -1    0.30    1.20
   1   1  -1    6.50    9.50
  -1   1   1   -1.50    1.00
  -1   2  -1  517.35   21.30
   1  -2  -1  488.65   20.80
   1  -2  -1  550.84   33.40
  -1  -2   1  526.45   21.40
   1   2   1  532.85   20.90
  -1  -2   1  507.35   33.20
  -1   2  -1  498.05   33.80
   1  -2  -1  495.25   43.10
  -1  -2   1  472.85   42.60
   1   2   1  528.65   21.30
  -1   2  -1  542.45   43.60
   1   2   1  535.85   45.90
  -1  -2  -1  563.84   45.00
  -1  -2  -1  500.95   20.90
  -1  -2  -1  501.05   21.30
   1  -2   1  579.24   34.40
  -1  -2  -1  501.65   21.20
  -1   2   1  521.65   43.80
   1  -2   1  531.45   21.30
   1   2  -1  480.75   33.00
   1   2  -1  493.45   21.20
   1   2  -1  456.35   41.10
  -1   2   1  540.85   34.10
  -1  -2  -1  530.25   33.90
  -1   3  -1  165.68   38.60
  -1   3  -1  215.38   26.10
  -1  -3   1  187.68    9.30
   1   3   1  157.28   34.30
  -1  -3   1  149.49   36.60
   1  -3  -1  226.08   39.70
  -1   3  -1  201.68    9.60
  -1  -3   1  144.39   23.50
  -1  -3   1  184.68    9.40
   1  -3  -1  162.68   23.30
   1   3   1  192.98    8.80
   1   3   1  196.38    9.50
   1   3   1  131.59   25.20
   1   3   1  193.58    9.30
   1  -3  -1  195.58    8.90
   1  -3   1  211.98   25.30
   1  -3   1  211.98    9.00
  -1  -3  -1  230.38   35.80
  -1  -3  -1  186.88    9.30
  -1   3   1  202.08   34.20
   1  -3   1  201.68    9.50
   1   3  -1  166.68   33.70
   1   3  -1  149.09   25.00
   1   3  -1  187.38    9.40
  -1  -3  -1  193.58    9.30
  -1   3   1  194.88    8.90
  -1   3   1  180.48   25.40
  -1   3   1  195.68    9.50
  -1  -3  -1  232.48   26.70
   1  -3   1  202.78   37.60
   1  -4  -1 1960.30   75.49
   1  -4  -1 2061.79  123.09
   1   4   1 1849.91   76.09
  -1  -4   1 1831.92   75.89
   1   4   1 1838.82   75.89
   1  -4  -1 2096.29  102.69
  -1  -4   1 1982.90  121.59
   1   4   1 1877.21   75.39
   1   4   1 1853.41  119.89
  -1   4  -1 1900.71  124.19
   1   4   1 1831.62  101.59
  -1   4  -1 1956.40   76.39
  -1   4  -1 1978.10  102.09
  -1  -4   1 1921.71  101.79
  -1  -4   1 1840.22   76.19
  -1  -4  -1 2037.60  102.69
  -1   4   1 2007.60  102.39
  -1  -4  -1 1915.81   76.19
  -1   4   1 1855.51   76.19
   1   4  -1 2046.50  126.69
   1  -4   1 1856.61   76.09
   1  -4   1 1870.81  100.29
  -1  -4  -1 1937.21  121.09
   1  -4   1 1860.91  119.29
   1  -4   1 1859.61   75.49
  -1  -4  -1 1939.91   75.89
   1   4  -1 1920.41   76.29
   1   4  -1 1913.41  101.29
  -1   4   1 1870.41   75.49
  -1   4   1 2009.10  125.39
  -1   5  -1   61.69   26.30
   1   5   1   75.49    5.10
   1  -5  -1   46.80   36.30
  -1   5  -1   82.39    6.10
   1   5   1   72.49    5.60
   1  -5  -1   81.19    5.30
  -1   5  -1  109.99   41.80
   1  -5  -1   73.39   27.40
   1   5   1   94.09   30.50
  -1  -5   1   77.29    5.60
   1   5   1  105.19   46.00
  -1  -5   1   64.29   37.20
  -1  -5   1   76.29    5.90
   1   5   1   75.99    5.90
  -1  -5   1   82.29   28.30
  -1   5   1   71.19    5.20
   1   5  -1   81.59    6.00
  -1   5   1   50.59   47.90
  -1  -5  -1   58.19   25.00
  -1  -5  -1   79.69    6.00
   1  -5   1   68.59   45.50
  -1   5   1   76.19    5.90
  -1  -5  -1  157.98   47.00
   1  -5   1   71.09    5.20
   1  -5   1  150.78   34.90
   1   5  -1   64.69   28.10
  -1   5   1   59.69   26.40
   1   5  -1   36.80   54.19
   1  -5   1   72.99    5.80
  -1  -5  -1   81.89    5.70
   1   6   1  298.97   14.70
   1   6   1  418.26   91.59
  -1  -6   1  311.97   15.20
   1   6   1  301.67   15.10
   1  -6  -1  233.58   49.30
  -1   6  -1  240.68   77.09
   1  -6  -1  337.37   77.49
  -1   6  -1  262.37   50.29
  -1  -6   1  401.46   85.99
   1  -6  -1  253.77   13.80
   1   6   1  323.27   54.79
  -1  -6   1  328.67   14.90
  -1   6  -1  250.37   14.60
  -1  -6   1  364.46   51.89
   1   6   1  307.87   14.00
   1   6  -1  334.37   53.19
  -1  -6  -1  252.67   14.50
   1  -6   1  293.07   14.80
  -1   6   1  299.47   53.59
  -1   6   1  439.46   77.19
  -1  -6  -1  209.98   55.49
  -1   6   1  309.47   15.30
   1  -6   1  203.28   62.99
  -1  -6  -1  231.08   47.10
   1   6  -1  304.97   76.79
   1  -6   1  319.77   52.09
   1   6  -1  274.67   14.80
  -1   6   1  303.47   14.20
   1  -6   1  300.37   14.20
  -1  -6  -1  261.67   14.20
  -1  -7   1  117.59   45.20
  -1   7  -1  198.78   12.10
  -1  -7   1  140.09   67.39
   1   7   1  311.97   78.69
   1   7   1  187.58   10.70
  -1   7  -1  327.27   98.39
   1  -7  -1  192.78   51.19
  -1  -7   1  192.78   12.00
   1   7   1  187.08   11.30
  -1  -7   1  199.78   11.70
   1  -7  -1  323.17   97.29
   1   7   1  194.78   12.00
  -1   7  -1  321.17   63.99
   1  -7  -1  202.98   11.20
   1  -7   1  170.68   46.60
  -1   7   1  288.87   63.19
  -1  -7  -1  186.98   11.80
  -1   7   1  262.57   95.79
   1   7  -1  201.48   12.00
   1   7  -1  187.98   73.89
   1  -7   1  200.18   12.00
  -1  -7  -1  213.88   49.10
   1  -7   1  199.38   11.30
   1  -7   1  216.68   91.99
  -1   7   1  190.88   12.00
  -1  -7  -1  285.77   95.69
  -1  -7  -1  196.68   11.50
   1   7  -1  188.48   49.99
  -1  -8   1  210.68   12.70
  -1   8  -1  178.68   12.60
   1  -8  -1  202.58   12.00
  -1  -8   1  340.97  116.29
   1   8   1  144.99   58.19
  -1  -8   1  206.08   59.69
  -1   8  -1  148.99   85.99
   1   8   1  203.58   13.10
   1  -8  -1  194.78   59.69
  -1   8  -1   81.69   57.19
   1   8   1  211.48   11.80
   1  -8  -1   55.79   86.79
   1   8   1  249.08  110.49
  -1  -8  -1  199.28   12.40
   1   8  -1  148.29  104.09
   1   8  -1  198.98   12.90
  -1   8   1  190.38   12.80
   1  -8   1  331.87  113.19
   1  -8   1  151.38   59.19
  -1  -8  -1  175.98   86.69
  -1  -8  -1  346.17   76.79
  -1   8   1  172.78   59.99
   1  -8   1  222.08   12.30
   1   8  -1  223.38   58.89
   1  -8   1  195.68   12.70
  -1   8   1  229.08   91.79
  -1  -9   1   76.09  143.39
  -1   9  -1   94.09   67.49
   1   9   1  111.29   73.79
  -1   9  -1   64.59    8.50
  -1   9  -1  107.79  130.59
  -1  -9   1   48.70   64.49
   1  -9  -1   55.49    7.60
   1   9   1   74.09    8.60
   1  -9  -1   22.50  102.99
   1  -9  -1   77.89   63.19
   1   9   1   97.79  134.59
  -1   9   1   51.79    8.00
  -1   9   1  114.69   96.59
  -1   9   1    9.00   63.59
   1   9  -1   78.49    8.70
   1  -9   1   64.09    7.90
  -1  -9  -1  186.48  153.58
   1  -9   1  -54.79  121.79
   1   9  -1  -18.80   61.59
   1   9  -1   90.89  139.59
  -1  -9  -1   36.20   65.39
   1  -9   1   24.00   68.89
  -1 -10   1  625.34  194.18
  -1 -10   1  614.64   29.70
   1 -10  -1  321.77   94.79
  -1 -10   1  602.44   30.60
  -1  10  -1  723.53  193.28
  -1  10  -1  568.94   30.40
   1 -10  -1  468.15  193.58
  -1  10  -1  564.04  107.19
  -1 -10   1  660.83  126.39
   1  10   1  650.43  188.88
   1  10   1  819.62  139.09
   1  10   1  645.74   30.80
   1  10   1  618.44   28.50
  -1  10   1  690.43  165.98
   1  10  -1  589.44   30.30
  -1 -10  -1  900.01  186.48
   1  10  -1  594.04   28.40
  -1 -10  -1  587.34   29.50
   1  10  -1  400.56  148.99
   1 -10   1  402.06   98.29
  -1  10   1  445.66  107.79
   1 -10   1 1128.49  184.58
  -1 -10  -1  634.14  129.09
  -1  10   1  588.74   30.50
   1  10  -1  292.77   98.29
  -1  10   1  578.64   28.50
   1 -10   1  595.04   30.30
   1 -11  -1   25.80    7.80
   1 -11  -1   94.49  106.59
   1  11   1   25.10    7.70
  -1  11  -1   22.40    7.20
   1 -11  -1  225.48  173.68
   1 -11   1   33.70    8.10
   1 -11   1  -81.09  105.29
  -1  11   1   22.20    7.20
   1  11  -1   19.50    6.90
  -2   0  -1  125.79    5.60
   2   0   1  153.68   12.90
  -2   0  -1  117.29   12.00
   2   0   1  168.88   18.90
  -2   0  -1  131.79   18.10
   2   0   1  134.19    5.80
   2   0  -1   99.89   13.40
  -2   0   1  115.69   15.20
   2   0   1  131.59    5.80
  -2   0  -1  125.79    5.70
   2   0  -1  120.89    9.80
  -2   0   1  130.09   10.60
  -2   1  -1 4282.87  189.48
   2   1   1 4298.77  185.48
   2   1   1 4353.16  176.78
  -2   1  -1 4222.98  178.68
   2  -1  -1 4357.26  181.98
   2   1  -1 4398.96  178.28
  -2   1   1 4244.28  174.78
   2   1  -1 4558.74  183.88
  -2   1   1 4218.88  182.08
  -2  -1  -1 4338.47  176.58
   2   1  -1 4287.17  187.48
   2  -1   1 4393.16  189.98
   2   1  -1 4313.37  175.38
  -2  -1  -1 4232.88  185.18
   2  -1   1 4466.15  179.68
  -2   2  -1  114.29    5.50
   2  -2  -1  106.79   15.40
   2  -2  -1  114.79    4.80
   2   2   1  100.49    5.00
   2   2   1   97.69    5.10
  -2  -2   1   76.89   15.50
   2  -2  -1  109.59   23.90
  -2  -2   1   93.59   24.30
  -2   2  -1  110.39   26.30
  -2   2  -1  146.19   22.30
  -2  -2   1   97.09    5.50
  -2  -2   1   95.69    5.30
  -2   2  -1   70.09   29.70
   2   2   1   99.99    5.30
   2   2   1   97.09    5.50
  -2   2  -1  127.59   17.10
  -2   2   1  113.19    4.80
  -2  -2  -1  110.09   17.20
  -2  -2  -1  100.19    5.00
  -2  -2  -1   98.69    5.30
  -2   2   1  112.79   25.00
   2   2  -1   84.19   14.90
   2  -2   1  110.29    5.30
   2   2  -1   98.99    5.20
  -2   2   1  114.39   17.20
  -2  -2  -1   65.79   23.40
   2   2  -1   83.69   23.90
   2   3   1 2235.08   87.69
  -2   3  -1 2136.89   87.69
  -2  -3   1 2326.87  108.19
  -2   3  -1 2370.76  126.19
   2   3   1 2191.98   86.99
  -2  -3   1 2266.67  125.39
  -2  -3   1 2244.18   87.79
  -2  -3   1 2181.58   87.79
   2  -3  -1 2230.78  121.89
   2  -3  -1 2337.57  107.29
   2   3   1 2193.78   87.79
  -2   3  -1 2238.58  107.39
   2  -3  -1 2119.99   86.79
   2  -3   1 2250.87  106.89
   2  -3   1 2343.87  125.99
   2   3  -1 2161.68   87.59
   2  -3   1 2215.58   87.49
  -2  -3  -1 2220.78  126.29
  -2  -3  -1 2278.07  108.19
  -2   3   1 2310.37  107.69
  -2  -3  -1 2200.38   87.69
  -2   3   1 2296.87  125.29
   2  -3   1 2225.58   86.89
  -2   3   1 2171.48   87.59
  -2  -3  -1 2164.78   87.69
  -2  -4   1   34.40   28.20
   2  -4  -1   16.60    2.20
   2   4   1   15.10    2.20
  -2  -4   1    8.80    2.50
   2   4   1   11.20    2.60
  -2  -4   1   -1.60   16.50
   2   4   1   10.40    2.50
   2  -4  -1   10.80   32.50
  -2  -4   1   12.50    2.70
  -2   4  -1    9.60   26.30
  -2   4  -1   18.30   18.20
   2   4   1   -4.20   37.20
  -2   4  -1   18.50    2.90
   2  -4  -1   14.20   18.00
   2   4   1   43.20   22.20
  -2  -4  -1   11.30    2.60
   2   4  -1  -26.30   24.90
  -2   4   1   19.30    2.30
  -2  -4  -1   11.50    2.70
   2   4  -1   12.60    2.60
   2  -4   1   51.99   18.90
  -2  -4  -1  -16.90   30.70
  -2   4   1   39.10   20.30
   2  -4   1   18.20    2.40
   2   4  -1   38.10   19.10
  -2   4   1   19.80    2.90
  -2   4   1   27.20   35.60
  -2  -4  -1   13.40   17.10
   2  -4   1   14.50   27.60
   2   5   1  758.02   84.59
   2  -5  -1  902.91   35.80
  -2  -5   1  774.62   81.89
   2  -5  -1  921.91   86.49
  -2  -5   1  839.92   36.80
   2   5   1  854.31   36.60
  -2   5  -1  892.21   37.00
  -2   5  -1  871.01   86.19
   2   5   1  854.71   36.70
  -2  -5   1  856.81   36.60
  -2   5  -1  916.01   68.19
   2  -5  -1  903.41   67.89
  -2  -5   1  909.31   68.09
   2   5   1  865.41   35.70
   2  -5   1  822.12   36.40
   2   5  -1  894.41   67.49
  -2  -5  -1  933.21   37.10
  -2   5   1  894.31   94.49
  -2  -5  -1  926.91   95.29
  -2   5   1  769.82   65.89
   2   5  -1  919.21  100.89
   2   5  -1  936.71   36.90
   2  -5   1  915.21   94.79
   2  -5   1  824.42   66.39
  -2   5   1  817.12   36.70
  -2  -5  -1  912.71   36.70
  -2  -5  -1  904.91   66.99
   2  -5   1  832.42   35.60
  -2   5   1  835.02   35.70
  -2  -6   1  246.48   71.49
   2   6   1  230.48   12.30
   2   6   1  133.49   63.09
   2  -6  -1  188.88   75.49
   2  -6  -1  252.87   52.69
  -2   6  -1  125.29   58.69
  -2  -6   1  223.58   13.00
  -2   6  -1  216.78   50.29
   2   6   1  184.08   42.60
   2  -6  -1  207.78   11.00
   2   6   1  233.88   11.20
  -2  -6   1  185.78   41.40
  -2   6  -1  199.48   12.00
   2   6   1  227.48   12.10
  -2  -6   1  240.38   12.60
   2  -6   1  191.78   45.50
  -2  -6  -1  219.58   60.59
   2   6  -1  239.08   12.30
   2  -6   1  125.49   59.29
  -2   6   1  198.78   12.00
  -2   6   1  314.77   53.39
   2   6  -1  234.28   47.20
  -2  -6  -1  234.08   13.10
   2  -6   1  201.38   11.00
  -2   6   1  236.58   64.39
  -2   6   1  200.98   10.90
  -2  -6  -1  217.08   45.80
   2   6  -1  218.58   62.89
  -2  -6  -1  227.08   12.30
   2  -6   1  199.38   11.80
  -2   7  -1  196.58   53.49
   2   7   1  206.98   52.99
   2   7   1  285.07   15.10
  -2  -7   1  289.77   15.10
   2   7   1  288.47   14.90
  -2   7  -1  246.58   14.90
   2   7   1  281.87   93.69
   2  -7  -1  225.38   75.89
  -2  -7   1  376.86   83.69
  -2  -7   1  268.87   59.39
   2   7   1  297.97   13.90
  -2  -7   1  287.57   15.40
   2  -7  -1  265.77   13.70
   2  -7  -1  254.97   53.79
  -2   7  -1   14.20   87.39
  -2  -7  -1  253.37   14.50
  -2  -7  -1  118.99   65.69
  -2   7   1  302.67   96.49
   2  -7   1  295.47   65.69
   2  -7   1  292.97   95.29
   2   7  -1  266.77   55.99
   2   7  -1  247.78   14.60
   2  -7   1  302.27   14.20
  -2   7   1  283.97   15.30
  -2  -7  -1  260.27   59.19
  -2   7   1  307.37   59.59
   2   7  -1  188.78   98.79
  -2  -7  -1  249.88   14.80
   2   8   1   11.50    3.90
   2  -8  -1    1.60  133.79
  -2   8  -1    8.80    3.90
   2  -8  -1   14.40    4.60
  -2  -8   1   -0.20   48.30
   2   8   1    4.60   77.49
   2   8   1  -98.69   47.30
  -2  -8   1    8.80    3.90
   2  -8  -1   27.40   60.69
  -2  -8   1   92.99   94.99
  -2   8  -1  -47.90   51.59
  -2   8  -1  -66.79   79.19
   2   8  -1   12.90    3.60
  -2  -8  -1 -116.49  100.59
   2  -8   1   16.00    5.40
   2   8  -1   16.10    5.00
   2   8  -1   81.69   55.79
  -2   8   1    8.20    3.70
  -2  -8  -1   13.70    4.40
  -2   8   1  -70.99   99.19
   2  -8   1    7.40    3.50
  -2   8   1  -50.39   51.09
  -2  -8  -1   10.20   48.60
   2   8  -1  135.09   88.29
  -2   9  -1  283.77   81.69
   2   9   1  317.87   18.60
   2  -9  -1  192.98  119.39
  -2  -9   1  334.57   78.89
   2  -9  -1  350.36   81.79
   2   9   1  269.17   83.99
  -2   9  -1  383.76  148.29
   2   9   1  363.56  122.19
  -2   9  -1  297.57   24.30
  -2  -9   1  168.18  143.59
   2  -9  -1  349.37   17.40
   2  -9   1  233.78   72.89
   2   9  -1  272.77  120.19
   2   9  -1  295.57   79.69
  -2   9   1  451.65  139.69
  -2   9   1  362.16   87.69
  -2  -9  -1  307.47   79.99
   2  -9   1  537.05  151.18
   2   9  -1  321.17   18.60
   2  -9   1  335.27   17.40
  -2   9   1  302.47   22.30
  -2  -9  -1  347.17  143.99
   2 -10  -1  160.48   83.79
   2  10   1   72.69    9.10
   2  10   1   72.69    9.90
   2 -10  -1    3.10  126.29
  -2  10  -1  -73.59  123.39
  -2  10  -1   72.89   11.80
  -2 -10   1   67.59   10.70
  -2 -10   1   75.09   10.90
  -2  10  -1  -73.29   81.99
   2  10  -1   69.09    9.00
  -2 -10  -1  262.37  168.28
  -2 -10  -1   78.29   10.90
  -2  10   1  195.48  128.19
  -2  10   1   75.89    9.90
  -2 -10  -1  181.88  117.29
   2 -10   1  -43.40   79.59
   2  10  -1   62.39    9.40
  -2  10   1   78.19   12.50
  -2  10   1   12.20   82.29
  -2  11  -1  391.06  135.59
  -2  11  -1  673.73   34.70
   2 -11  -1  675.43   32.70
  -2  11  -1  216.68  191.48
   2  11   1  680.03   34.30
   2 -11  -1  602.04  256.07
   2 -11  -1  814.32  173.58
  -2  11   1  565.84  142.89
   2 -11   1  681.13   33.10
  -2  11   1  795.62  204.08
  -2  11   1  673.83   34.90
   2  11  -1  651.33   34.00
  -3   0  -1   -4.80    1.00
   3   0  -1   -8.50    2.80
  -3   0  -1   -5.60    5.30
  -3   0   1   -5.10    3.80
  -3   0  -1  -18.60    9.90
   3   0  -1  -10.10    5.50
   3   0   1   -4.10    1.10
   3   0   1   -4.50    6.00
  -3   0   1    3.30    6.70
   3   0   1  -17.90   11.00
  -3  -1   1  255.17   10.80
  -3  -1   1  254.97   11.50
  -3   1  -1  276.97   32.00
   3   1   1  262.97   11.10
   3   1   1  269.27   11.60
   3   1   1  259.07   19.80
  -3   1  -1  281.47   11.00
   3  -1  -1  267.27   17.40
  -3  -1   1  250.77   10.50
   3  -1  -1  271.67   23.50
   3   1   1  253.77   27.60
  -3   1  -1  250.87   22.10
   3  -1   1  255.67   10.70
   3   1  -1  271.57   24.60
  -3   1   1  249.48   17.60
   3   1  -1  261.97   10.50
  -3  -1  -1  255.37   10.90
  -3  -1  -1  260.97   11.50
  -3  -1  -1  265.27   11.10
  -3  -1  -1  255.97   20.00
  -3  -1  -1  233.58   27.80
   3   1  -1  258.77   20.30
   3   1  -1  270.37   18.20
  -3   1   1  292.37   24.40
   3   1  -1  283.97   28.60
  -3  -1  -1  265.87   11.00
   3  -2  -1 2695.83  119.79
  -3  -2   1 2965.50  122.49
  -3   2  -1 2768.82  121.79
  -3  -2   1 2802.52  108.09
   3   2   1 2770.12  107.19
   3   2   1 2851.51  122.69
  -3   2  -1 2903.31  136.79
  -3   2  -1 2824.02  143.49
   3   2   1 2891.31  136.99
  -3   2  -1 2722.63  126.29
   3  -2  -1 2673.43  131.19
  -3  -2  -1 2698.83  136.09
  -3   2   1 2719.63  120.29
  -3  -2  -1 2648.44  107.89
  -3   2   1 2757.12  133.19
   3   2  -1 2769.82  121.19
  -3  -2  -1 2559.64  107.19
   3   2  -1 2768.22  134.09
  -3  -2  -1 2750.22  122.39
   3   3   1  136.49    6.90
  -3  -3   1  132.09    7.10
   3  -3  -1  133.29   22.80
  -3   3  -1  122.79    7.00
   3   3   1  135.89    7.40
   3   3   1  119.49   22.90
  -3  -3   1  131.59    7.30
   3  -3  -1  117.19    5.90
  -3  -3   1  133.49   36.80
  -3  -3   1  170.48   26.10
  -3   3  -1  108.89   22.80
   3  -3  -1   83.39   29.90
   3   3   1  132.39    6.40
   3   3   1  228.68   42.80
   3   3   1  133.49    6.70
  -3   3  -1   98.69   33.30
  -3  -3  -1  118.39    6.90
   3   3  -1  118.19    6.60
   3  -3   1  135.99    6.10
  -3  -3  -1  126.09   37.40
  -3  -3  -1  125.69   24.60
   3   3  -1  120.89    6.10
   3   3  -1  105.19   30.30
  -3  -3  -1  115.59    6.30
  -3   3   1  143.19   25.80
  -3  -3  -1  119.79    7.10
   3  -3   1  135.49    6.70
  -3   3   1  142.29   35.30
  -3   3   1  116.09    6.00
   3   3  -1  136.29   22.60
  -3   3   1  135.49    7.00
  -3   4  -1 1718.23  116.49
   3  -4  -1 1721.33   64.09
   3   4   1 1508.45   65.39
  -3  -4   1 1551.64   65.29
   3  -4  -1 1678.93   90.99
   3   4   1 1542.45   64.99
  -3  -4   1 1523.65   65.29
   3   4   1 1540.55   64.29
   3  -4  -1 1766.32  113.79
  -3   4  -1 1889.91   94.09
  -3   4  -1 1704.23   65.49
   3  -4   1 1515.95   63.89
  -3  -4  -1 1846.62  116.79
  -3  -4  -1 1772.12   65.59
   3   4  -1 1753.42   64.29
   3  -4   1 1600.24   89.69
  -3   4   1 1530.75   65.09
  -3   4   1 1612.34  113.39
   3   4  -1 1773.92   65.19
  -3  -4  -1 1661.53   91.99
   3  -4   1 1482.55  105.19
  -3   4   1 1420.26   88.49
   3  -4   1 1540.25   64.79
  -3  -4  -1 1739.53   65.69
  -3   4   1 1549.94   63.99
   3  -5  -1  380.36   49.70
   3   5   1  382.16   18.20
  -3  -5   1  388.86   18.20
   3   5   1  381.26   17.00
  -3   5  -1  456.75   51.79
   3   5   1  461.95   82.09
  -3   5  -1  326.07   73.89
  -3  -5   1  300.27   45.80
  -3   5  -1  377.26   18.10
  -3  -5   1  503.35   78.39
  -3  -5   1  378.46   18.10
   3  -5  -1  350.66   74.19
   3   5   1  396.06   18.00
   3  -5  -1  375.26   16.60
   3   5   1  334.27   49.90
  -3   5   1  400.96   18.30
   3   5  -1  362.66   65.39
   3   5  -1  397.36   49.30
   3  -5   1  407.66   17.80
  -3  -5  -1  366.26   18.00
   3   5  -1  375.16   16.80
   3  -5   1  356.06   75.39
  -3   5   1  291.27   70.29
   3  -5   1  365.96   47.50
   3   5  -1  362.16   17.70
   3  -5   1  409.36   16.90
  -3  -5  -1  342.77   45.90
  -3  -5  -1  365.46   18.00
  -3   5   1  391.16   50.49
  -3  -5  -1  359.56   61.89
  -3   5   1  413.26   16.90
  -3   6  -1  527.95  101.59
  -3  -6   1  595.44   26.30
   3  -6  -1  529.45   86.89
   3  -6  -1  499.15   63.49
  -3  -6   1  523.65   82.89
   3   6   1  599.24   26.10
  -3  -6   1  615.14   26.60
  -3   6  -1  531.45   63.69
   3   6   1  606.34   25.00
   3   6   1  576.44   26.20
   3  -6  -1  549.54   24.40
  -3   6  -1  592.54   26.40
  -3  -6   1  589.14   63.09
   3   6   1  621.14  103.19
   3   6   1  489.75   66.59
  -3  -6  -1  558.54   26.00
  -3   6   1  535.15   66.19
  -3  -6  -1  530.65   63.49
   3  -6   1  591.74   25.80
  -3   6   1  580.24   26.30
   3   6  -1  595.04  106.29
   3   6  -1  549.25   25.70
  -3  -6  -1  542.75   26.20
  -3   6   1  347.67   89.39
   3   6  -1  536.75   67.99
   3  -6   1  506.25   65.39
   3  -6   1  663.73  105.89
  -3  -6  -1  643.54  104.39
   3  -6   1  608.84   24.80
   3   6  -1  569.74   24.60
  -3   7  -1  -29.90   40.40
  -3  -7   1   90.59   40.40
   3   7   1   16.60    4.30
   3  -7  -1   12.70    3.20
   3   7   1  -24.50   84.69
   3  -7  -1   32.20   97.69
   3   7   1   59.89   47.00
  -3  -7   1   18.30    5.10
   3   7   1   18.10    4.00
  -3  -7   1   19.90    4.90
   3  -7  -1   -3.10   54.59
  -3  -7   1  101.89   81.09
  -3   7  -1   75.89   64.79
  -3   7  -1   13.90    4.40
   3   7   1   13.10    4.10
  -3  -7  -1  -20.20   38.90
  -3  -7  -1   14.60    4.70
  -3  -7  -1   35.40   74.69
   3  -7   1  131.19  147.29
   3   7  -1   -5.00   40.70
   3  -7   1  -25.50   67.19
   3  -7   1   13.10    3.70
  -3  -7  -1   17.30    4.80
  -3   7   1   15.90    4.60
  -3   7   1   31.60   42.00
   3   7  -1   17.50    4.30
  -3   7   1   45.30   77.39
   3   7  -1  -14.60   83.79
   3  -7   1   12.90    4.40
   3  -8  -1  135.89   60.69
   3   8   1  308.07   92.79
  -3   8  -1   65.09  109.59
   3  -8  -1  114.59    8.20
  -3  -8   1  149.99   53.59
   3  -8  -1  -54.79  115.39
   3   8   1  109.49    9.30
  -3   8  -1   29.60   51.49
   3   8   1  122.69    8.70
   3   8   1  102.09   58.89
  -3  -8   1  134.89   10.40
  -3  -8   1   90.29   80.69
  -3   8  -1  117.49    9.90
   3   8  -1  123.59    9.60
   3   8  -1  144.39   56.59
   3  -8   1   88.19   76.89
   3   8  -1  128.89    8.70
   3  -8   1  105.89   54.99
   3  -8   1  114.99    8.30
  -3  -8  -1  113.89    9.80
  -3   8   1  105.79    9.70
  -3   8   1  109.99   82.49
  -3  -8  -1  196.48   57.79
   3   8  -1  296.17  117.09
  -3  -8  -1  -14.60  106.09
  -3   8   1  117.59   59.49
  -3   9  -1  -32.60  100.19
   3  -9  -1  236.18   13.50
  -3  -9   1  245.58  110.79
  -3  -9   1  223.58   15.60
  -3   9  -1  195.18   17.00
  -3  -9   1  226.38   15.30
   3  -9  -1  277.77  149.69
  -3   9  -1  202.98   74.69
   3   9   1  355.36  147.29
   3   9   1  229.08   14.90
   3   9   1  298.17   82.59
  -3  -9   1  273.57   71.79
   3  -9  -1  285.57   76.89
   3   9  -1   95.79   72.09
  -3   9   1   43.20   71.49
   3  -9   1  226.78   13.60
  -3  -9  -1  288.87  115.89
  -3  -9  -1  304.47   71.89
   3  -9   1  185.68   72.89
  -3   9   1   11.10  139.29
   3   9  -1  241.58   15.10
   3   9  -1   49.20  104.89
  -3  -9  -1  252.57   15.60
  -3  -9  -1  257.57   16.10
   3  10   1  703.83   33.30
  -3  10  -1  435.56  182.68
  -3  10  -1  584.84   35.90
  -3 -10   1  673.23   33.90
   3 -10  -1  605.34  165.18
  -3  10  -1  418.96  107.79
   3  10   1  728.93   31.70
   3 -10  -1  749.53  134.09
   3 -10  -1  660.33   31.00
   3  10  -1  660.53   31.10
  -3  10   1  647.74   37.90
  -3  10   1  784.62  212.38
   3  10  -1  657.33   33.00
   3 -10   1  740.83   31.90
  -3  10   1  916.91  153.28
   3  11   1  162.58   14.90
   3 -11  -1  167.98   14.20
  -3  11  -1  155.88   15.00
   3 -11   1  161.28   14.20
  -3  11   1  161.18   15.40
   3  11  -1  164.98   15.00
  -4   0  -1  528.65   22.70
   4   0   1  587.84   30.60
   4   0   1  566.74   37.60
  -4   0   1  574.44   22.20
  -4   0  -1  535.65   28.60
  -4   0   1  578.44   22.80
  -4   0  -1  555.94   35.10
   4   0   1  587.94   22.80
  -4   0  -1  549.15   22.70
  -4  -1   1  698.23   27.60
  -4   1  -1  673.43   36.30
   4   1   1  826.12   49.30
   4   1   1  804.32   39.30
  -4   1  -1  664.83   48.90
   4   1   1  787.32   28.40
  -4   1  -1  721.03   45.10
  -4   1  -1  671.73   38.70
   4  -1  -1  661.03   33.10
   4   1   1  731.53   28.80
   4  -1  -1  678.83   38.90
  -4   1  -1  676.33   27.90
  -4  -1   1  715.43   28.80
   4   1  -1  716.83   34.80
   4   1  -1  665.63   40.60
  -4  -1  -1  687.23   28.20
  -4  -1  -1  703.63   28.70
   4  -1   1  696.43   27.80
  -4   1   1  662.13   39.70
   4   1  -1  700.03   45.60
   4   1  -1  683.63   37.00
  -4  -1  -1  729.23   38.00
  -4  -1  -1  700.03   28.00
  -4   1   1  703.73   27.70
  -4   1   1  696.63   34.00
  -4  -1  -1  686.23   45.80
  -4  -1  -1  717.23   28.00
   4  -2  -1  424.36   41.50
   4   2   1  446.16   19.50
   4  -2  -1  451.55   30.50
   4   2   1  510.05   46.90
  -4   2  -1  435.66   43.40
  -4   2  -1  491.75   54.49
  -4   2  -1  419.06   36.10
   4   2   1  424.96   32.40
  -4   2  -1  476.05   32.30
   4   2   1  439.06   18.50
  -4   2  -1  453.15   18.80
  -4  -2   1  438.46   19.40
  -4  -2   1  443.76   18.70
  -4  -2  -1  461.45   48.10
   4   2  -1  463.65   43.50
  -4  -2  -1  466.15   18.60
  -4  -2  -1  468.45   18.90
  -4   2   1  412.46   41.00
   4   2  -1  451.55   31.20
   4   2  -1  456.25   18.00
  -4  -2  -1  460.75   33.90
  -4   2   1  383.96   29.80
  -4  -2  -1  459.85   19.50
   4   3   1  388.26   35.50
  -4   3  -1  289.57   58.09
  -4   3  -1  299.47   15.00
   4   3   1  382.46   14.70
  -4  -3   1  247.08   48.40
   4  -3  -1  310.87   31.50
  -4   3  -1  201.08   45.00
  -4   3  -1  307.37   38.60
   4   3   1  389.56   14.80
  -4  -3   1  329.17   34.50
  -4  -3   1  389.26   16.00
   4   3   1  391.86   53.59
   4   3   1  385.36   14.80
  -4  -3   1  388.36   15.50
   4   3   1  379.56   16.10
  -4   3  -1  287.97   33.00
   4  -3  -1  272.67   48.30
  -4   3   1  358.76   33.80
  -4  -3  -1  296.77   34.70
  -4  -3  -1  311.97   14.60
   4   3  -1  322.37   50.09
  -4  -3  -1  317.27   15.60
   4   3  -1  314.97   14.40
  -4  -3  -1  312.97   15.10
   4   3  -1  294.07   31.90
   4   3  -1  306.37   14.10
  -4  -3  -1  338.57   55.19
  -4   3   1  362.06   47.90
  -4   3   1  351.06   15.20
   4   4   1   93.69   35.20
  -4   4  -1   22.80   19.80
   4   4   1   28.30    3.70
  -4   4  -1    6.00   35.60
  -4  -4   1   29.00    3.70
   4  -4  -1   17.20   19.70
  -4  -4   1   27.60   36.50
   4   4   1   28.40    3.20
   4  -4  -1   51.79   40.70
   4  -4  -1   28.50    2.20
   4   4   1   30.60   18.90
   4   4   1   29.00    3.00
  -4  -4   1   36.30   21.10
   4   4   1   25.80    2.80
  -4   4  -1   29.30    3.50
  -4  -4   1   32.30    4.00
   4   4  -1   23.60   20.50
  -4   4   1   25.30   20.50
  -4  -4  -1   27.60    3.70
  -4  -4  -1   14.60   20.80
  -4   4   1   33.30    3.50
  -4  -4  -1   67.09   38.60
  -4  -4  -1   27.60    3.50
   4  -4   1   30.60    2.50
   4   4  -1   37.10    3.30
   4   4  -1   52.99   37.40
  -4   4   1   48.20   38.50
  -4  -5   1 2258.37  156.48
   4   5   1 2372.26   91.49
   4   5   1 2307.97   90.79
   4  -5  -1 2250.97   90.09
   4  -5  -1 2203.98  124.09
   4   5   1 2338.47   91.69
  -4  -5   1 2373.56   92.39
   4   5   1 2314.67   92.59
   4  -5  -1 2173.88  154.58
  -4   5  -1 2239.58   92.09
  -4  -5   1 2345.37   92.49
  -4  -5   1 2298.97  126.29
  -4   5  -1 2428.86  127.39
  -4   5  -1 2415.36  159.78
   4   5  -1 2291.27  155.88
  -4  -5  -1 2240.68  155.18
   4  -5   1 2258.17   90.19
  -4   5   1 2248.08  154.68
  -4   5   1 2225.78   91.99
  -4  -5  -1 2321.17   92.49
   4   5  -1 2352.46   90.59
   4   5  -1 2226.68  125.69
  -4  -5  -1 2269.87  125.49
   4   5  -1 2334.87   91.49
  -4  -5  -1 2386.46   92.29
  -4  -6   1   83.39   36.20
   4   6   1  123.09    7.70
   4  -6  -1  113.49   49.90
   4   6   1  119.39    8.30
   4  -6  -1  237.98   85.39
  -4  -6   1   83.59   64.89
  -4   6  -1  180.78   42.50
   4   6   1  119.19    8.90
  -4   6  -1  180.98   75.29
  -4  -6   1  125.39    9.10
   4   6   1  -62.09   67.69
  -4  -6  -1  144.29    9.40
  -4   6   1  149.69    9.30
  -4   6   1  165.48   75.89
  -4  -6  -1  176.38   41.30
   4   6  -1  147.99    8.70
  -4  -6  -1  112.79   74.99
   4   6  -1  -42.30   65.19
  -4  -6  -1  122.39   10.30
   4   6  -1  144.59    7.80
  -4   6   1   96.99   40.60
   4  -6   1  145.49    7.50
   4  -7  -1 1970.30  187.98
   4   7   1 2222.68   84.89
  -4  -7   1 1991.90  135.19
  -4   7  -1 2116.89   86.79
   4   7   1 2127.69   85.99
  -4  -7   1 2160.48   86.79
   4  -7  -1 2144.39   84.19
  -4   7  -1 2144.39  185.18
   4   7   1 2099.09  140.09
  -4   7  -1 2158.08  139.49
   4   7   1 2165.88  187.58
   4  -7  -1 1980.70  136.29
  -4  -7   1 2145.69  176.78
  -4  -7  -1 2099.59  134.29
  -4   7   1 2215.68  171.18
   4   7  -1 2160.38   85.99
   4   7  -1 2059.39  136.89
   4   7  -1 2045.20   85.69
   4  -7   1 2143.49   84.39
  -4  -7  -1 2200.58   86.79
   4   7  -1 2166.68  187.68
  -4  -7  -1 2260.37  170.28
   4  -7   1 1865.91  133.29
  -4   7   1 2094.39   86.79
   4  -8  -1  604.34   97.19
  -4   8  -1  670.03   99.39
   4   8   1  443.86   99.19
   4  -8  -1  843.72  164.78
  -4  -8   1  605.74   29.50
  -4   8  -1  549.35  130.19
   4   8   1  411.96  114.59
  -4   8  -1  607.14   29.60
   4   8   1  613.04   28.70
  -4  -8   1  890.71  154.08
   4   8   1  626.44   27.40
   4  -8  -1  630.54   27.00
  -4  -8   1  482.55   85.79
   4   8  -1  588.24   94.29
   4   8  -1  591.54   28.50
  -4  -8  -1  868.21  159.38
  -4   8   1  596.74  137.09
  -4   8   1  663.53   30.10
   4   8  -1  587.04   27.00
   4  -8   1  656.03   27.30
   4   8  -1  557.04  130.29
  -4   8   1  559.44   99.89
  -4  -8  -1  648.44   91.19
  -4  -8  -1  568.54   29.10
   4  -9  -1 1321.37  133.19
  -4  -9   1 1299.47   56.69
   4  -9  -1 1225.28  210.78
   4   9   1 1291.17   55.89
  -4   9  -1 1277.77   56.89
   4  -9  -1 1298.57   53.79
  -4  -9   1 1260.57   56.79
   4   9  -1 1284.97   55.89
  -4   9   1 1331.07  162.28
  -4  -9  -1 1289.67   56.79
  -4   9   1 1270.77   56.79
  -4   9   1 1571.44  273.87
   4  -9   1 1312.27   54.09
  -4  -9  -1 1358.06   56.99
  -4  10  -1   99.39   11.60
   4  10   1   74.59   10.30
   4  10   1   82.79   10.10
   4 -10  -1  110.99   10.00
   4 -10   1  108.59   10.10
   4  10  -1   75.39   10.30
   4  10  -1   74.29   10.10
  -4  10   1  101.69   11.80
   4  11   1  621.74   32.70
  -4  11  -1  654.23   34.20
  -4  11   1  646.94   34.20
   4  11  -1  621.94   32.50
   5   0   1   -1.90   11.80
  -5   0  -1   -1.60    0.90
  -5   0  -1    9.80   10.20
  -5   0  -1    0.80    1.30
   5   0   1   -0.80    1.10
  -5   0  -1    5.00    5.70
  -5   0   1    0.70    1.10
   5   0   1   -4.30    6.40
   5   1   1  250.07   11.50
   5   1   1  246.08   10.80
  -5   1  -1  235.18   31.00
  -5  -1   1  243.08   11.40
  -5   1  -1  234.58   26.70
  -5   1  -1  253.77   21.20
  -5  -1   1  239.98   10.20
   5   1   1  221.48   20.30
  -5   1  -1  248.58   11.00
  -5   1  -1  260.17   18.90
   5   1   1  232.48   30.40
  -5   1   1  241.28   17.10
  -5  -1  -1  271.97   20.90
  -5  -1  -1  262.17   10.90
   5  -1   1  241.98   10.30
   5   1  -1  259.67   16.30
   5   1  -1  260.27   18.20
  -5   1   1  233.28   10.30
  -5  -1  -1  264.97   11.40
  -5   1   1  212.68   12.90
  -5  -1  -1  265.97   10.50
   5   1  -1  247.18   25.40
   5   1  -1  281.27   21.60
  -5  -1  -1  272.97   10.60
  -5   1   1  233.28   15.80
  -5   1   1  233.88   13.50
  -5  -1  -1  296.37   30.30
  -5   2  -1  307.27   13.50
  -5   2  -1  309.67   27.80
  -5  -2   1  314.57   14.40
   5  -2  -1  351.56   25.80
   5   2   1  315.37   14.50
   5   2   1  234.08   39.40
  -5   2  -1  333.47   49.60
  -5   2  -1  314.07   40.90
   5   2   1  343.67   28.90
  -5  -2   1  310.17   13.50
   5   2   1  302.97   13.40
  -5   2  -1  277.07   31.80
   5  -2  -1  308.87   36.60
   5   2  -1  298.27   47.40
  -5   2   1  298.47   38.10
  -5  -2  -1  322.57   13.70
   5   2  -1  267.57   36.70
  -5  -2  -1  314.67   13.40
   5   2  -1  346.77   26.80
  -5  -2  -1  296.67   28.90
  -5  -2  -1  294.07   42.70
   5   2  -1  305.97   31.50
   5   2  -1  316.17   12.80
  -5  -2  -1  326.17   14.50
  -5   2   1  309.77   25.90
   5   3   1  624.44   46.00
   5   3   1  643.94   27.30
  -5  -3   1  644.44   27.20
   5  -3  -1  624.94   62.49
  -5   3  -1  639.24   77.09
   5  -3  -1  611.94   44.50
  -5   3  -1  572.34   63.99
   5   3   1  646.64   25.90
  -5   3  -1  637.84   26.50
  -5   3  -1  646.24   46.10
   5   3   1  540.75   62.19
  -5   3  -1  582.44   52.19
  -5  -3   1  649.04   26.50
  -5  -3  -1  631.44   47.40
   5   3  -1  680.43   61.29
  -5  -3  -1  620.04   27.10
  -5  -3  -1  636.74   26.50
   5   3  -1  616.44   25.30
   5   3  -1  605.84   45.80
  -5   3   1  630.34   26.30
  -5  -3  -1  642.34   25.90
  -5   3   1  659.03   45.40
  -5  -3  -1  598.34   66.99
  -5   3   1  664.03   63.29
  -5  -4   1  804.22   60.09
   5   4   1  854.21   84.39
  -5   4  -1  857.21  100.19
  -5   4  -1  800.92   33.40
  -5   4  -1  846.12   84.79
  -5  -4   1  796.02   33.50
  -5   4  -1  815.02   60.79
   5  -4  -1  755.02   58.49
  -5  -4   1  761.72   82.39
   5   4   1  792.82   32.30
   5   4   1  767.82   32.10
   5   4   1  798.62   32.40
  -5   4  -1  686.23   66.79
   5  -4  -1  779.52   82.29
   5   4   1  783.82   58.59
   5   4   1  783.32   34.10
  -5  -4   1  803.02   34.00
  -5  -4  -1  828.22   34.10
   5   4  -1  784.22   31.90
  -5  -4  -1  789.52   60.89
  -5  -4  -1  939.41   87.59
  -5   4   1  779.02   84.29
   5   4  -1  795.62   32.00
  -5  -4  -1  793.72   32.50
   5   4  -1  782.62   31.90
   5   4  -1  826.12   80.89
  -5   4   1  779.02   33.20
  -5   4   1  804.32   59.69
   5   4  -1  850.61   59.59
  -5  -4  -1  795.72   33.40
   5   5   1  386.96   17.20
  -5  -5   1  388.86   18.70
  -5  -5   1  371.06   83.19
   5  -5  -1  416.36   51.39
   5   5   1  382.96   17.00
   5   5   1  381.46   16.90
  -5   5  -1  288.17   81.19
   5  -5  -1  421.86   87.19
  -5  -5   1  362.26   53.39
  -5   5  -1  315.97   65.69
  -5   5  -1  387.66   18.20
   5   5   1  382.66   18.70
   5   5   1  375.76   78.99
  -5  -5   1  388.16   18.30
  -5   5  -1  366.26   53.69
  -5   5  -1  231.38   68.29
   5  -5  -1  371.86   15.70
   5   5   1  482.45   55.29
   5   5  -1  361.76   49.30
  -5  -5  -1  383.56   18.30
   5   5  -1  376.26   74.89
  -5   5   1  380.86   75.69
   5   5  -1  370.16   17.00
  -5  -5  -1  222.28   49.90
  -5   5   1  353.96   53.59
  -5  -5  -1  426.16   90.39
   5  -5   1  390.36   15.90
  -5  -5  -1  382.56   18.60
  -5   5   1  385.06   18.10
   5   5  -1  378.46   16.50
   5   6   1    5.80   35.80
   5  -6  -1  -37.80   74.99
  -5   6  -1  -31.80   68.99
   5   6   1   17.90    3.60
  -5   6  -1   73.19   48.80
  -5  -6   1   22.10    5.30
  -5  -6   1  104.49   69.39
   5  -6  -1   22.10   37.40
   5   6   1  -36.10   69.59
   5  -6  -1   21.50    2.70
  -5  -6   1   20.40   36.80
   5   6   1   21.30    3.90
   5   6   1   20.70    3.80
  -5   6  -1 -108.29   78.99
   5   6   1   24.60    4.60
  -5  -6   1   18.30    4.80
  -5   6  -1  -40.40   33.90
  -5   6  -1   23.10    4.60
  -5  -6  -1   39.30   78.19
  -5   6   1   30.30    4.80
  -5  -6  -1   -5.80   35.80
  -5   6   1   40.90   67.69
  -5  -6  -1   17.90    4.70
  -5  -6  -1   20.30    5.00
   5   6  -1   17.20    3.70
   5   6  -1  -75.99   63.09
   5   6  -1   52.59   36.70
  -5   6   1   54.49   38.60
   5  -7  -1  222.18   54.19
  -5   7  -1  246.58   94.99
  -5  -7   1  161.88   72.89
  -5  -7   1  254.57   15.20
  -5  -7   1  253.37   15.00
  -5   7  -1  257.47   15.00
   5   7   1  250.67   13.50
   5   7   1  255.67   13.90
  -5  -7   1  336.87  131.69
  -5   7  -1  440.66   74.29
   5  -7  -1  320.37  104.69
   5  -7  -1  252.17   12.10
   5   7   1  260.57   13.20
  -5  -7  -1  214.78   92.69
   5   7  -1  273.97   13.00
  -5  -7  -1  265.07   59.19
  -5  -7  -1  259.37   15.00
  -5   7   1  241.78   14.70
  -5  -7  -1  255.07   15.20
   5  -7   1  255.97   12.30
  -5   7   1  209.28   57.29
  -5   7   1  208.68   94.79
   5   7  -1  265.77   13.90
   5   8   1 -134.09  115.89
   5  -8  -1   22.00    4.50
  -5  -8   1   25.60    7.30
   5   8   1   27.20    5.80
  -5   8  -1  -37.00   71.29
   5   8   1   20.40    5.30
  -5  -8   1   38.60   52.49
   5  -8  -1  -56.19  117.69
  -5   8  -1   24.80    6.60
  -5  -8   1  336.37  116.49
   5  -8  -1   14.10   62.99
  -5  -8   1   21.50    7.20
   5   8   1   28.40    6.00
  -5   8  -1   11.90  110.79
   5   8   1   33.70   62.29
  -5   8   1   23.00    6.60
   5   8  -1  -84.69   59.09
  -5  -8  -1   17.70    5.20
  -5  -8  -1  -98.19   98.99
   5   8  -1   22.70    5.30
  -5  -8  -1  -11.20   52.49
  -5  -8  -1   18.90    5.80
   5   8  -1   20.10    5.40
   5  -8   1   28.00    4.70
   5   8  -1  -71.89  114.99
   5  -9  -1   15.70    5.40
  -5  -9   1   17.00    6.50
   5   9   1   20.10    5.40
   5   9   1   21.20    6.70
  -5   9  -1   14.90    5.70
  -5  -9   1   23.40    8.90
   5  -9   1   15.40    4.30
  -5  -9  -1   20.30    6.50
  -5  -9  -1   19.70    6.20
  -5   9   1   17.00    5.40
   5   9  -1   18.80    6.80
  -5  10  -1  622.14   32.20
   5  10   1  629.74   30.60
   5 -10  -1  602.24   28.00
   5  10   1  611.04   29.10
   5  10  -1  614.44   29.00
   5  10  -1  620.54   30.40
   5 -10   1  611.74   28.30
  -5  10   1  604.14   32.00
  -6   0  -1 1185.68   48.20
  -6   0  -1 1208.28   48.10
  -6   0   1 1226.38   47.60
  -6   0   1 1216.48   48.20
   6   0   1 1236.38   48.20
  -6   1  -1 1850.61   77.89
   6   1   1 1852.91   91.09
   6   1   1 1855.91   81.79
  -6   1  -1 1826.72   83.29
  -6   1  -1 1880.31   77.49
   6   1   1 1808.82   73.89
  -6  -1   1 1881.71   73.99
  -6   1  -1 1865.91   73.49
  -6   1  -1 1842.72   82.59
  -6  -1  -1 1847.32   73.19
  -6  -1  -1 1882.81   72.79
  -6  -1  -1 1871.51   73.89
  -6  -1  -1 1882.81   72.79
  -6  -1  -1 1951.60   80.49
  -6  -1  -1 1938.81   87.99
   6   2   1  132.49    6.70
   6   2   1  133.69    7.70
  -6   2  -1  155.88    6.90
  -6   2  -1  164.88   27.70
  -6   2  -1  200.08   40.10
  -6  -2   1  131.59    6.70
  -6  -2   1  123.89    6.90
   6   2   1  167.28   23.30
  -6  -2   1  127.99    7.70
   6   2   1  194.68   38.60
  -6  -2  -1  140.59    6.80
  -6  -2  -1  150.78   24.30
  -6  -2  -1  126.49   33.70
  -6  -2  -1  136.69    6.90
  -6   2   1  169.58   23.50
   6   2  -1  131.19   27.60
   6   2  -1  153.38   20.30
  -6  -2  -1  131.39    7.60
  -6   2   1  150.58   32.20
  -6   2   1  156.88   19.50
  -6   2   1  137.09   26.40
   6   3   1 1514.45   58.59
   6   3   1 1569.54  102.99
  -6   3  -1 1545.95  100.79
  -6  -3   1 1564.34   60.39
  -6   3  -1 1451.65  111.39
  -6   3  -1 1445.66   78.69
  -6  -3   1 1505.05   59.19
  -6   3  -1 1436.96   85.19
   6   3   1 1524.95   60.29
   6  -3  -1 1499.85   77.19
  -6   3  -1 1496.35   59.09
   6   3   1 1503.05   81.19
  -6   3   1 1422.76   96.39
  -6  -3  -1 1517.95   60.19
  -6  -3  -1 1417.96  102.09
  -6  -3  -1 1371.16   79.89
   6   3  -1 1271.97   93.89
   6   3  -1 1337.67  110.69
   6   3  -1 1462.45   78.99
   6   3  -1 1458.95   87.19
   6   3  -1 1458.95   57.89
  -6  -3  -1 1481.35   59.19
  -6   3   1 1508.25   78.19
  -6  -3  -1 1447.06   58.59
  -6   3   1 1532.65   58.99
  -6   4  -1    8.00   45.60
   6   4   1   -5.20   45.60
  -6   4  -1   25.40   29.30
   6   4   1   21.70    3.90
  -6   4  -1  -17.00   58.09
  -6  -4   1   19.40    3.70
   6  -4  -1   26.10   23.10
  -6  -4   1   18.80    4.30
   6   4   1   27.10   24.50
   6   4   1   20.70    2.80
  -6   4  -1   26.70   24.30
  -6   4  -1   27.00    3.60
   6  -4  -1  -12.50   43.50
   6   4  -1   37.70   43.10
   6   4  -1   32.00   23.90
  -6  -4  -1   58.89   26.30
  -6  -4  -1   21.10    3.70
  -6   4   1   42.30   23.90
  -6  -4  -1   20.70    2.90
  -6   4   1  -26.20   40.70
  -6  -4  -1    4.90   45.10
  -6   4   1   27.30    3.60
   6   4  -1   21.10    2.40
  -6  -4  -1   20.50    4.30
   6   5   1  106.39   63.69
   6   5   1  130.69   36.50
  -6  -5   1  126.39    8.50
  -6   5  -1  104.49   35.90
  -6   5  -1   80.79   41.00
   6   5   1  118.09    8.70
   6  -5  -1  108.29   34.00
   6   5   1  123.69    6.70
  -6  -5   1  131.49    9.30
   6  -5  -1  126.79   66.39
  -6   5  -1  169.68   64.99
   6   5   1  123.89    7.20
  -6   5  -1  110.89   74.99
   6   5   1  123.89    6.60
  -6   5  -1  130.29    8.40
   6   5  -1  133.99    6.50
  -6  -5  -1  143.09   39.30
   6   5  -1  130.79    6.40
  -6   5   1  134.09   59.29
   6   5  -1  131.79    6.80
  -6  -5  -1   84.79   64.09
   6   5  -1  206.48   67.59
   6   5  -1  141.79   38.20
  -6  -5  -1  141.39    8.80
  -6   5   1  144.29   38.20
  -6   5   1  121.89    8.30
  -6  -5  -1  126.59    9.00
   6   6   1  431.26   19.50
  -6  -6   1  450.05   22.00
  -6   6  -1  338.37   70.49
   6   6   1  451.25   19.70
   6  -6  -1  345.47   93.09
  -6   6  -1  444.86  123.69
  -6   6  -1  344.07  101.79
   6   6   1  537.45   70.29
   6   6   1  439.16   19.60
   6   6   1  328.07   94.29
  -6  -6   1  456.65   21.70
   6  -6  -1  381.96   68.89
  -6   6  -1  402.36   21.10
  -6   6  -1  398.76   85.89
  -6  -6   1  400.76   70.59
   6   6  -1  393.76   92.79
   6   6  -1  465.65   19.60
   6   6  -1  421.76   67.39
  -6  -6  -1  463.35   21.60
   6   6  -1  453.95   19.30
  -6  -6  -1  525.25  119.09
  -6  -6  -1  440.16   73.09
   6   6  -1  443.66   19.20
  -6   6   1  382.76   20.90
  -6  -6  -1  462.95   22.10
  -6  -7   1  912.41  104.59
  -6  -7   1 1065.69   45.20
   6   7   1  889.51  144.59
  -6  -7   1 1017.70   45.30
  -6   7  -1 1027.90   45.00
   6   7   1 1026.10   43.10
  -6   7  -1  915.31  168.78
   6   7   1 1039.40   42.80
   6  -7  -1  996.80  103.69
  -6   7  -1 1008.80  124.39
   6  -7  -1  982.50   41.00
   6   7   1 1017.30   42.80
   6  -7  -1  935.31  159.48
   6   7   1  988.50  104.29
  -6  -7  -1 1158.08  105.89
   6   7  -1 1026.60   42.80
  -6  -7  -1 1054.89   45.10
   6   7  -1 1052.79   42.50
   6  -7   1 1003.60   41.10
   6   7  -1 1130.89  105.99
  -6  -7  -1 1030.20   45.40
   6   7  -1 1018.30   42.80
   6   7  -1 1228.68  158.18
  -6   7   1 1041.10   45.10
  -6  -7  -1 1129.19  168.48
   6   8   1  243.88   13.70
  -6   8  -1  242.88   15.80
   6  -8  -1  236.58   11.50
  -6  -8   1  236.08   16.10
   6   8   1  241.18   13.60
   6   8   1  246.98   13.50
  -6  -8   1  240.78   15.90
  -6  -8  -1  237.98   16.00
  -6  -8  -1  226.38   15.50
  -6   8   1  248.08   15.80
   6   8  -1  231.08   13.60
   6  -8   1  249.08   11.80
   6   8  -1  239.28   13.60
   6   8  -1  230.18   12.90
   6  -9  -1  126.19    9.20
   6   9   1  176.98   11.90
  -6   9  -1  131.99   13.20
  -6  -9   1  170.78   14.90
   6   9   1  183.08   12.30
  -6   9   1  178.78   13.90
   6   9  -1  135.99   11.10
  -6  -9  -1  129.59   13.80
   6  -9   1  167.18    9.80
   6 -10  -1  126.09   10.10
   6  10   1  162.88   13.00
  -6  10  -1  134.69   14.40
  -6  10   1  141.79   14.60
   6 -10   1  134.39   10.40
   6  10  -1  141.69   12.20
   6  10  -1  150.58   12.80
  -7   0   1    7.20    2.00
  -7   0  -1    6.00    1.70
  -7   0  -1    7.30    1.90
  -7   0   1    7.70    1.50
  -7   1  -1  110.09    6.10
  -7  -1   1  114.79    5.10
  -7  -1   1  111.49    6.50
  -7  -1  -1  110.29    5.40
  -7  -1  -1  105.89    6.40
  -7  -1  -1  106.49    5.80
  -7   1   1  110.59    5.60
   7   2   1  333.27   31.30
  -7   2  -1  308.67   13.60
  -7   2  -1  346.27   43.60
  -7   2  -1  293.87   28.50
  -7  -2   1  301.27   12.90
  -7  -2   1  300.27   14.80
  -7   2  -1  298.47   25.80
  -7   2  -1  314.67   36.60
  -7  -2   1  301.67   13.60
   7   2   1  298.77   47.50
  -7   2  -1  305.87   14.10
   7   2  -1  282.87   24.30
   7   2  -1  301.57   35.30
  -7  -2  -1  341.77   15.00
  -7  -2  -1  357.26   30.00
  -7  -2  -1  315.67   44.80
  -7  -2  -1  335.97   13.90
   7   2  -1  288.77   41.20
   7   2  -1  343.67   28.00
  -7  -2  -1  315.77   13.70
  -7   3  -1  636.04   26.70
  -7   3  -1  573.54   65.89
   7   3   1  644.34   26.10
  -7  -3   1  620.94   26.60
   7   3   1  617.54   50.19
  -7   3  -1  672.93   47.50
  -7   3  -1  684.43   81.19
  -7   3  -1  580.44   53.39
  -7  -3   1  645.84   27.80
   7   3   1  737.23   76.09
   7   3  -1  593.74   47.40
  -7  -3  -1  627.24   26.80
  -7   3   1  660.13   26.50
   7   3  -1  594.94   80.29
   7   3  -1  580.64   54.49
  -7   3   1  666.13   52.39
  -7  -3  -1  613.24   26.10
  -7   3   1  692.43   76.89
   7   3  -1  615.74   25.30
  -7  -3  -1  536.55   70.19
  -7   3   1  712.23   65.49
  -7   3   1  663.53   44.90
  -7  -3  -1  635.04   27.70
  -7  -3  -1  661.93   49.99
   7   3  -1  583.84   68.29
  -7   4  -1   47.60   34.40
  -7   4  -1  229.88   69.69
  -7  -4   1  100.49    7.80
  -7  -4   1   89.89    6.70
   7   4   1   93.89    5.90
   7   4   1  100.19   31.30
  -7   4  -1  100.49    6.80
  -7   4  -1   92.69   27.60
  -7   4  -1   91.59   51.29
   7   4   1   51.29   54.69
  -7  -4  -1  102.79    7.80
   7   4  -1  102.09    5.30
  -7   4   1   40.40   26.80
   7   4  -1   83.89   30.00
  -7  -4  -1  105.49    6.00
   7   4  -1   99.69   40.50
  -7   4   1   93.59    6.60
   7   4  -1  115.99   51.49
  -7  -4  -1  153.28   60.19
  -7  -4  -1  100.19    6.90
   7   4  -1  155.98   73.89
  -7  -4  -1  104.49   30.70
  -7   4   1   80.49   50.89
   7   5   1  258.67   47.90
  -7   5  -1  313.37   15.70
   7   5   1  306.37   14.20
  -7  -5   1  312.47   16.60
   7   5   1  299.87   76.09
  -7   5  -1  299.87   69.99
  -7   5  -1  255.47   94.39
  -7  -5   1  313.47   15.80
   7   5  -1  326.37   98.99
   7   5  -1  297.87   50.59
  -7  -5  -1  310.27   16.60
   7   5  -1  267.77   58.49
  -7  -5  -1  300.87   15.70
   7   5  -1  286.07   13.50
  -7   5   1  327.87   15.70
   7   5  -1  310.17   80.09
  -7  -5  -1  299.77   75.09
  -7  -5  -1  309.47   57.69
  -7   6  -1   85.79  114.99
   7   6   1  353.36   68.59
   7   6   1  230.18   91.99
  -7   6  -1  206.78   74.69
  -7  -6   1  267.47   15.40
  -7  -6   1  264.27   14.70
   7   6   1  266.27   12.80
  -7   6  -1  240.88   14.20
  -7  -6  -1  135.09   51.29
  -7  -6  -1  260.97   15.40
   7   6  -1  263.17  110.99
   7   6  -1  195.08   51.19
   7   6  -1  248.18   12.20
  -7   6   1  248.98   14.30
  -7  -6  -1  256.67   14.50
   7   6  -1  178.58   87.69
  -7  -6  -1  350.06  103.89
  -7  -7   1   93.59   10.20
   7   7   1   97.79    6.60
  -7   7  -1   73.69   72.19
   7   7   1   97.29    6.70
  -7   7  -1  102.59    9.40
  -7  -7   1   96.79    9.60
   7   7   1   98.79    7.60
  -7   7  -1  101.49  132.89
  -7   7   1  110.09    9.60
   7   7  -1   82.19    6.00
   7   7  -1   93.99    7.10
  -7  -7  -1   97.39   10.30
   7   7  -1   95.99    6.30
  -7  -7  -1   26.10  126.39
  -7  -7  -1   39.70   60.29
  -7  -7  -1   87.89    9.30
  -7   8  -1  424.36   23.70
   7   8   1  464.45   20.90
   7   8   1  453.65   20.80
   7   8   1  460.55   21.30
  -7  -8   1  446.76   24.00
  -7  -8   1  462.75   25.10
   7   8  -1  443.76   20.50
   7   8  -1  432.76   20.30
  -7   8   1  442.36   23.80
   7   8  -1  448.06   20.70
  -7  -8  -1  422.36   23.70
  -7  -8  -1  428.46   24.50
  -7   9  -1  233.38   16.80
   7   9   1  210.58   17.00
   7   9   1  216.48   13.40
   7   9   1  214.68   13.50
   7   9  -1  231.48   13.40
  -7   9   1  198.18   16.10
   7   9  -1  232.88   13.30
  -8   0   1  712.73   28.30
  -8   0   1  725.03   29.00
  -8   0  -1  700.53   28.90
  -8   0  -1  691.63   29.00
  -8  -1   1  427.26   16.80
  -8   1  -1  380.76   17.80
  -8  -1   1  437.16   18.50
  -8  -1  -1  400.46   18.20
  -8  -1  -1  394.66   17.50
  -8   1   1  431.86   17.40
  -8  -2   1  549.85   24.50
   8   2   1  538.45   33.20
  -8  -2   1  543.45   23.00
   8   2   1  598.84   47.80
   8   2   1  568.64   35.30
  -8   2  -1  566.64   23.80
   8   2   1  519.65   44.20
  -8   2  -1  560.14   23.10
  -8  -2   1  567.14   22.30
  -8  -2  -1  559.64   23.30
  -8  -2  -1  555.24   24.40
  -8  -2  -1  550.54   23.10
  -8   3  -1  121.49   65.29
  -8   3  -1  168.38    8.80
  -8  -3   1  152.68    8.70
  -8   3  -1  116.39   38.60
  -8  -3   1  154.08   10.20
   8   3   1  186.48   39.90
   8   3   1  158.78    8.20
  -8   3  -1  181.08   30.20
   8   3   1   84.09   49.60
  -8   3  -1  137.29   28.10
  -8   3   1  140.39   30.00
   8   3  -1  240.98   53.59
  -8   3   1  154.98    8.40
  -8  -3  -1  175.28   34.40
   8   3  -1  126.79   34.80
  -8  -3  -1  174.28    8.30
  -8  -3  -1  176.88    9.00
  -8   3   1  139.79   31.50
  -8   3   1  126.89   38.90
  -8  -3  -1  167.98   11.30
  -8   3   1  173.48   25.80
   8   3  -1  210.68   39.50
  -8   4  -1  -22.90   51.59
  -8   4  -1   36.10    4.50
   8   4   1   63.69   63.39
   8   4   1   68.19   33.10
  -8   4  -1  -77.89   65.69
   8   4   1   40.80    4.20
  -8   4  -1   57.69   36.40
  -8   4  -1   -1.50   29.00
  -8  -4   1   35.60    5.90
  -8  -4   1   37.20    4.90
  -8  -4  -1   37.20    3.90
   8   4  -1   60.39   37.90
  -8   4   1   18.60   49.20
  -8  -4  -1   38.10    4.90
   8   4  -1   35.80    3.10
   8   4  -1   17.60   69.29
   8   4  -1   37.80   58.39
   8   4  -1   21.00   29.20
  -8  -4  -1   25.00   30.50
  -8  -4  -1   57.39   60.89
  -8  -4  -1   40.90    5.90
  -8   4   1   37.60    4.50
  -8   4   1   32.10   26.40
   8   5   1 1888.21   70.99
  -8   5  -1 1686.93  172.68
  -8   5  -1 1826.72  111.99
   8   5   1 1754.72  114.99
   8   5   1 1418.06  155.28
  -8   5  -1 1506.95  145.69
  -8   5  -1 1806.62   72.49
  -8   5  -1 1668.33  121.29
  -8  -5   1 1891.91   73.79
   8   5  -1 1785.82  156.58
  -8   5   1 1810.82  121.49
   8   5  -1 1891.21  177.48
   8   5  -1 1637.94  124.39
  -8   5   1 1856.01   72.49
   8   5  -1 1761.42   69.99
  -8  -5  -1 1775.82   72.59
  -8   5   1 1805.52  147.49
  -8   5   1 1651.73  107.09
  -8  -5  -1 1715.23  113.09
  -8   5   1 1894.31  172.38
  -8  -5  -1 1714.33  151.68
   8   5  -1 1767.52  112.59
  -8  -5  -1 1816.32   73.59
  -8   6  -1  159.58   67.19
   8   6   1   94.09   97.79
   8   6   1  149.88   10.40
  -8   6  -1  213.98  124.49
  -8  -6   1  157.78   11.40
   8   6   1  122.19   53.19
  -8  -6   1  164.68   12.40
  -8   6  -1  184.58   11.60
  -8  -6  -1  150.78   12.10
  -8  -6  -1  165.48   55.39
  -8  -6  -1  165.88   11.40
   8   6  -1   94.19   52.59
  -8   6   1  213.98   67.69
   8   6  -1  156.08    8.80
   8   6  -1  242.28  100.29
  -8   6   1  186.98   11.60
  -8  -6  -1  325.77  102.09
  -8   6   1  210.38  126.09
  -8  -7   1  718.33   33.90
  -8  -7   1  721.33   34.80
   8   7   1  744.03   31.40
  -8   7  -1  716.93   33.80
  -8  -7  -1  723.93   33.90
  -8  -7  -1  721.13   34.60
  -8   7   1  722.13   33.80
   8   7  -1  728.23   30.70
  -8   8  -1  467.55   32.80
  -8  -8   1  500.15   26.90
   8   8   1  508.45   23.70
  -8   8   1  538.95   34.60
   8   8  -1  505.25   23.00
   8   9   1  748.43   32.80
  -8   9  -1  733.53   36.00
  -8   9   1  660.03   37.40
   8   9  -1  704.13   31.80
  -9   0   1    1.40    1.60
  -9   0  -1   -0.40    1.60
  -9   0  -1   -0.40    1.40
  -9   0   1    2.10    1.30
  -9  -1   1   81.99    4.30
  -9  -1   1   78.39    5.90
  -9   1  -1   73.49    5.40
  -9  -1  -1   85.69    5.20
  -9  -1  -1   90.69    6.10
  -9  -2   1  383.06   17.60
  -9   2  -1  354.86   16.60
  -9  -2   1  373.96   15.80
  -9   2  -1  351.76   15.80
  -9  -2  -1  357.76   15.90
  -9   2   1  379.26   16.20
  -9  -2  -1  343.07   17.10
  -9   3  -1  657.13   28.00
   9   3   1  720.23   76.49
  -9   3  -1  669.43   28.40
   9   3   1  651.23   48.90
   9   3   1  642.64   70.69
  -9  -3   1  663.23   28.10
  -9  -3   1  675.63   29.60
   9   3   1  590.04   51.59
  -9   3   1  651.43   27.70
  -9  -3  -1  670.73   29.50
  -9  -3  -1  665.53   27.50
  -9   4  -1  157.88   68.19
   9   4   1  150.88   40.70
  -9   4  -1  265.07   56.99
   9   4   1  203.58   10.80
  -9  -4   1  205.88   12.10
  -9   4  -1  248.68   12.20
  -9  -4   1  216.38   13.40
  -9   4  -1  310.97   53.49
   9   4   1  210.68   70.49
  -9   4  -1  268.77   43.40
  -9   4   1  216.28   59.99
  -9   4   1  161.28   29.10
  -9   4   1  215.98   47.90
  -9  -4  -1  253.77   13.70
   9   4  -1  126.49   40.80
  -9  -4  -1  246.58   12.50
  -9   4   1  203.08   11.60
  -9   4   1  260.27   45.40
   9   4  -1   70.39   69.19
   9   5   1 1341.07  154.78
  -9  -5   1 1084.99   46.40
  -9  -5   1 1075.59   45.10
   9   5   1 1042.60   43.10
  -9   5  -1  957.60   96.99
   9   5   1 1130.99   91.99
  -9   5  -1  967.20  150.88
  -9   5  -1 1063.09   44.90
   9   5  -1  826.72  134.79
   9   5  -1  992.20   88.99
  -9  -5  -1 1084.19   46.30
   9   5  -1 1045.20   42.00
  -9   5   1 1045.80   44.70
  -9  -5  -1 1042.70   45.00
  -9   6  -1   24.10    6.50
  -9  -6   1   26.40    8.80
  -9  -6   1   24.30    7.40
  -9   6   1   77.39  126.89
   9   6  -1   19.10    4.30
  -9  -6  -1   26.30    7.30
  -9   6   1   51.79   68.39
  -9   6   1   35.20    6.70
  -9  -6  -1   27.70    8.40
  -9  -7   1   78.99   10.70
  -9   7  -1   82.19   10.20
   9   7   1   80.39    8.20
   9   7  -1   91.89    7.10
  -9   7   1   65.89    9.60
  -9  -8   1    7.00    7.50
  -9   8  -1   15.20    6.10
   9   8   1    6.60    5.90
  -9   8   1   20.60    6.80
   9   8  -1   11.60    5.00
 -10   0   1 1452.15   56.49
 -10   0   1 1444.36   56.99
 -10   0  -1 1420.06   56.99
 -10   0  -1 1437.86   57.49
 -10   1  -1  609.54   25.80
 -10  -1   1  624.74   26.10
 -10  -1  -1  578.34   25.20
 -10   1   1  640.14   25.10
 -10  -1  -1  573.64   25.90
 -10  -2   1  104.49    8.30
 -10  -2   1  112.49    6.70
 -10   2  -1  123.39    7.60
 -10   2  -1  121.09    6.80
 -10  -2  -1  105.69    8.20
 -10   2   1  122.79    6.90
 -10  -2  -1  109.99    6.60
 -10  -3   1 1113.89   48.20
 -10  -3   1 1145.89   49.90
 -10   3  -1 1216.68   48.30
 -10   3  -1 1244.28   48.90
 -10  -3  -1 1253.47   47.70
 -10  -3  -1 1223.28   49.90
 -10   3   1 1127.69   47.90
 -10   3   1 1149.69   48.20
 -10  -4   1   34.90    7.70
 -10   4  -1   32.10    5.40
 -10   4  -1   33.80    5.60
  10   4   1   62.89   32.80
  10   4   1   -4.50   56.59
 -10  -4   1   37.30    6.20
  10   4  -1   74.69   30.80
 -10   4   1   29.10    5.00
  10   4  -1   42.20   20.20
 -10  -4  -1   45.50    7.90
 -10  -5   1  207.68   14.60
 -10  -5   1  208.28   12.80
  10   5   1  199.58   10.40
 -10   5  -1  -25.60   90.29
 -10   5  -1  171.98   11.80
  10   5   1  118.29   56.09
 -10   5  -1  210.08   49.80
  10   5   1  252.87  101.79
  10   5  -1  178.98   83.39
 -10  -5  -1  155.28   13.40
 -10   5   1  215.88   12.40
  10   5  -1  109.99   44.70
 -10  -6   1  177.98   15.80
 -10  -6   1  216.58   14.30
 -10   6  -1  173.38   13.00
 -10   6   1  180.28   13.00
 -10  -6  -1  184.28   15.50
 -10  -7   1  229.18   17.10
 -10   7  -1  225.28   16.00
  10   7   1  205.68   15.50
 -10   7   1  225.08   16.10
 -11   0  -1    0.20    2.40
 -11   1  -1   -0.30    2.30
 -11  -1   1    8.20    3.10
 -11  -1  -1    2.50    2.30
 -11   1   1    2.60    2.10
 -11  -1  -1    2.60    3.10
 -11   2  -1   11.00    3.30
 -11   2   1   14.10    3.80
 -11  -2  -1   13.60    2.90
 -11  -2  -1   11.80    5.30
 -11  -3   1  839.02   37.80
 -11  -3   1  843.62   36.20
 -11   3  -1  868.11   36.70
 -11   3  -1  879.11   36.20
 -11  -3  -1  867.41   35.40
 -11  -3  -1  840.82   37.80
 -11   3   1  895.91   36.10
 -11   3   1  872.31   35.80
 -11   4  -1   92.09    8.30
 -11   4  -1   85.39    7.90
 -11  -4   1   72.69   10.10
 -11   4   1   74.59    7.30
 -11   4   1   76.99    7.60
 -11  -4  -1   76.89   10.10
 -11   5  -1  385.16   21.00
 -11   5  -1  363.66   19.20
 -11  -5   1  358.16   21.60
 -11  -5   1  369.26   19.80
 -11   5   1  388.16   19.20
 -11  -5  -1  336.57   21.30
 -12   0  -1  962.40   39.50
 -12   1  -1  279.17   14.50
 -12  -1   1  309.87   14.60
 -12  -1  -1  300.07   14.10
 -12   1   1  328.17   13.50
 -12  -1  -1  281.47   14.40
 -12  -2   1  236.38   14.00
 -12   2  -1  258.97   13.20
 -12  -2  -1  232.18   13.90
 -12  -2  -1  251.57   11.90
 -12   2   1  241.98   12.00
 -12   3  -1  360.06   17.70
 -12  -3   1  354.76   19.20
 -12  -3   1  333.47   17.40
 -12   3  -1  351.26   17.00
 -12   3   1  354.36   16.50
 -12   3   1  336.07   16.60
 -12  -3  -1  350.16   19.10
   0   0   2  318.27   12.40
   0   0   2  323.57   23.50
   0   0  -2  220.18   26.30
   0   0  -2  293.17   12.40
   0   0  -2  308.87   22.50
   0   0  -2  300.07   12.80
   0   0   2  327.57   12.80
   0   0   2  289.67   29.80
   0   1   2    0.50    0.70
   0  -1  -2    0.30    0.70
   0   1  -2   10.60   10.10
   0  -1   2   -4.70   13.60
   0  -1   2   -7.60    8.20
   0   1   2   -5.70    6.70
   0   1   2    0.80    0.60
   0  -1  -2    0.30    0.60
   0  -1  -2    0.50    0.70
   0   1   2    0.60    0.70
   0  -1  -2   13.90   12.00
   0   1  -2   18.10   14.80
   0   1  -2    0.20    0.80
   0  -1  -2   -0.70    7.30
   0   1   2    1.40   11.20
   0  -1   2    1.40    0.90
   0  -2  -2 6430.66  273.67
   0   2  -2 6125.29  261.97
   0   2   2 6090.49  271.67
   0   2   2 6103.69  256.47
   0   2  -2 6040.20  279.67
   0  -2  -2 6399.96  257.07
   0  -3   2    0.40    1.90
   0   3   2   -0.10    1.50
   0   3  -2   -6.00   19.20
   0   3  -2    0.70    1.80
   0   3  -2   32.70   26.50
   0   3  -2  -13.10   13.40
   0   3   2   22.80   23.10
   0  -3  -2  -11.30   13.10
   0   3   2   -0.80    1.70
   0   3   2   13.10   14.00
   0   3   2   -0.10    1.70
   0   3  -2    8.40   16.10
   0  -3  -2   -9.00   27.80
   0  -3  -2    0.30    1.60
   0   4   2 1956.00  102.59
   0  -4  -2 1797.42   73.79
   0   4  -2 1813.62  121.89
   0   4   2 1839.92   74.39
   0  -4   2 1863.61   74.49
   0   4  -2 1888.61  102.09
   0  -4  -2 1887.21  100.99
   0   4   2 1905.51   73.69
   0   4   2 1858.41   74.09
   0  -4  -2 1787.12  124.49
   0   5  -2   -8.00   38.40
   0  -5   2  -21.50   20.20
   0  -5  -2   36.70   52.19
   0  -5  -2   -4.90   22.20
   0   5   2  -27.20   24.70
   0   5  -2  -11.90   26.10
   0   5   2  -61.39   33.50
   0  -6  -2 4003.00  153.38
   0  -6   2 3828.82  225.58
   0   6   2 3755.72  154.18
   0  -6  -2 4153.38  232.38
   0  -6  -2 4054.19  195.68
   0   6   2 3888.11  196.48
   0   6  -2 3975.40  236.58
   0   6   2 3814.32  152.78
   0  -6   2 4063.39  196.28
   0  -6   2 3798.72  153.28
   0   6  -2 3923.21  154.28
   0   6   2 3695.43  153.28
   0   6  -2 4080.79  197.58
   0   6   2 3978.00  234.28
   0  -6   2 3814.32  154.18
   0   7   2  -21.80   34.60
   0   7  -2  -38.70   81.99
   0  -7  -2   10.70   41.90
   0   7   2  -23.90   81.39
   0  -7  -2  -45.40   57.29
   0  -7   2  -20.90   37.50
   0   7  -2  -21.40   39.90
   0   8  -2 1861.91   80.99
   0   8  -2 1804.92  141.49
   0   8   2 1830.02  174.38
   0   8   2 2179.98  145.19
   0  -8  -2 1800.52  137.29
   0  -8  -2 1564.34  173.18
   0   8   2 2031.40   80.49
   0  -8   2 1838.12  140.29
   0   8   2 2047.10   79.59
   0  -8  -2 1941.41   79.89
   0  -8   2 2053.89   81.49
   0   8  -2 1874.91  205.48
   0   8   2 2003.90   81.59
   0  -8   2 2036.90   80.29
   0  -9  -2   -1.80   61.69
   0   9   2  -74.39   64.29
   0   9   2    0.90    3.80
   0  -9  -2    2.70    3.80
   0   9  -2    5.40    4.00
   0  -9   2    0.90    3.70
   0   9   2  156.48  144.19
   0   9  -2    7.50   66.79
   0   9  -2   67.49  102.89
   0   9   2    6.30    3.60
   0  -9  -2 -194.28  135.79
   0 -10  -2 1410.56  155.88
   0  10   2 1208.48  252.77
   0  10  -2 1226.58  268.67
   0 -10   2 1276.57   57.19
   0 -10  -2 1132.29  204.98
   0 -10   2 1318.47   56.19
   0  10   2 1292.27   57.69
   0  10   2 1263.07   54.99
   0  10  -2 1455.45  164.88
   0  10  -2 1289.87   57.39
   0 -10  -2 1281.27   55.69
   0  10   2 1295.27  160.58
   0  11  -2    4.70    5.80
   0  11   2   13.70    6.40
   1   0   2  -10.50    0.60
  -1   0  -2  -10.20    0.60
  -1   0  -2  -10.80   10.00
   1   0   2   -9.60    0.60
  -1   0   2   -8.40   14.30
   1   0  -2  -11.80    5.50
  -1   0  -2   -9.20    0.70
   1   0  -2   -6.20   12.00
  -1   0   2  -10.40    0.60
  -1   0  -2  -11.30    6.40
   1   0  -2  -10.00    0.40
  -1   0   2  -11.00    6.60
  -1   0   2  -10.50    0.40
  -1  -1   2   82.49    4.50
   1   1   2   84.39   15.10
   1   1   2   83.89    4.50
   1  -1  -2   70.89   12.40
  -1  -1   2   98.09   16.90
  -1   1  -2   70.59    4.40
  -1   1  -2   91.29   16.70
  -1  -1   2   89.09   27.10
   1  -1  -2   80.19   17.80
   1   1   2   62.99   22.00
  -1   1  -2   77.99   26.00
   1   1   2   84.09    4.40
  -1   1   2   68.69    3.90
  -1  -1  -2   87.29   15.00
  -1   1   2   70.69   21.60
   1  -1   2   22.80   22.50
  -1  -1  -2   66.39   20.60
   1   1  -2   87.69    4.50
   1   1  -2   66.89   15.60
  -1   1   2   78.99   13.90
   1   1  -2  112.39   25.70
  -1  -1  -2   85.39    4.50
   1  -1   2   69.89    4.40
  -1  -1  -2   86.39    4.50
  -1  -1  -2   87.19    4.20
  -1   2  -2   18.70   23.10
   1  -2  -2    3.90    1.20
   1   2   2   -3.70   18.40
   1   2   2   16.70   10.60
  -1   2  -2    4.20   11.20
   1   2   2    4.30    1.40
   1  -2  -2    8.50   10.40
  -1  -2   2    3.90    1.60
   1   2   2    5.30    1.60
   1   2   2    3.80    1.20
   1  -2  -2   36.90   21.30
  -1   2  -2    4.60    1.60
  -1   2   2   -7.70   13.30
   1   2  -2    4.30   10.50
  -1  -2  -2    4.50    1.40
   1  -2   2  -10.30   20.60
  -1   2   2    4.80    1.30
  -1   2   2    5.80    1.20
  -1  -2  -2    4.50    9.90
  -1  -2  -2    2.70    1.20
   1  -2   2    4.30    1.50
   1  -2   2   -3.60   13.40
   1   2  -2   -1.60   16.60
   1   2  -2   -0.40   12.80
  -1  -2  -2   11.40   19.40
  -1   2   2    2.30   10.00
   1   2  -2    3.30    1.50
   1   3   2 2799.82  108.49
   1  -3  -2 2603.94  108.49
   1  -3  -2 2703.63  147.49
  -1   3  -2 2888.41  138.99
   1   3   2 2864.41  131.59
   1   3   2 2898.51  152.88
  -1   3  -2 2832.32  160.28
  -1   3  -2 2919.71  132.89
  -1  -3   2 2779.42  109.29
   1   3   2 2742.53  109.09
   1   3   2 2839.02  109.29
   1  -3  -2 2941.41  131.29
  -1   3  -2 2894.21  152.88
  -1  -3  -2 2750.22  130.89
   1   3  -2 2821.42  150.38
  -1   3   2 2926.01  131.19
   1   3  -2 2887.11  132.09
  -1   3   2 2703.13  108.49
  -1  -3  -2 2675.53  108.59
   1   3  -2 2684.23  109.09
  -1   3   2 2684.23  108.59
   1   3  -2 2865.01  138.29
   1   3  -2 2798.32  161.28
  -1  -3  -2 2760.72  108.99
   1  -3   2 2603.44  109.09
  -1   3   2 2847.02  150.58
   1   4   2  106.39   26.80
  -1   4  -2  104.79    6.40
  -1  -4   2   83.99    5.80
   1  -4  -2  115.09   25.10
  -1   4  -2  103.49   38.00
   1   4   2   88.09    5.90
  -1   4  -2  105.09   25.40
   1   4   2   92.29   44.30
  -1  -4   2  107.69   24.10
   1   4   2   89.79    5.40
  -1  -4   2   90.79    6.10
   1  -4  -2   71.89   32.00
   1   4   2   86.99    5.90
   1  -4  -2   96.89    5.50
   1   4  -2   95.99    6.10
   1   4  -2  112.39   42.10
  -1   4   2   92.29    5.60
  -1   4   2   91.79    5.40
   1   4  -2   99.39   24.00
   1  -4   2   92.69    6.10
  -1  -4  -2   92.49    5.80
  -1  -4  -2   45.80   30.20
  -1   4   2   94.89   25.10
  -1   4   2  114.19   44.40
  -1   4   2   97.79    6.20
  -1  -4  -2  113.89   27.00
   1   5   2 1614.64   64.79
   1  -5  -2 1544.75   63.59
  -1   5  -2 1624.74   98.59
  -1  -5   2 1794.72  121.79
  -1   5  -2 1500.75  118.69
   1   5   2 1618.44   63.59
   1   5   2 1546.75  126.69
   1  -5  -2 1556.44  119.69
  -1  -5   2 1591.54   64.29
  -1  -5   2 1555.54   95.99
   1   5   2 1700.23  100.39
   1   5   2 1573.54   64.29
   1  -5  -2 1675.83   98.19
  -1   5  -2 1556.24   64.69
  -1   5   2 1525.15   63.69
   1  -5   2 1549.45   64.59
  -1  -5  -2 1685.83   98.49
   1   5  -2 1525.85  127.69
  -1   5   2 1602.94   63.59
  -1   5   2 1578.04   64.69
  -1   5   2 1549.45  118.59
   1  -5   2 1520.85   96.29
  -1  -5  -2 1624.94   64.29
  -1  -5  -2 1670.83  128.89
  -1   5   2 1572.14   97.69
   1  -5   2 1557.74   63.79
   1   5  -2 1694.73  100.39
   1   5  -2 1587.24   64.59
  -1   6  -2  110.79   36.60
   1  -6  -2  203.48   72.79
  -1  -6   2   69.09   46.90
  -1  -6   2  112.49    8.10
  -1   6  -2  111.89    8.00
   1   6   2  132.49   39.50
  -1   6  -2   91.99   67.49
   1  -6  -2  122.39   38.70
   1  -6  -2  112.69    7.20
   1   6   2  106.39    7.80
   1   6   2   61.09   51.99
  -1  -6   2  155.88   35.00
   1   6   2  104.89    7.50
  -1  -6   2  110.19    7.60
   1   6   2  110.89    7.00
  -1   6   2  112.09    8.10
  -1  -6  -2   15.60   59.09
   1   6  -2  131.19   54.99
   1   6  -2  103.59    7.70
  -1  -6  -2   98.19   32.30
  -1   6   2  152.78   68.59
  -1  -6  -2  111.89    7.60
   1  -6   2  109.99    7.90
   1   6  -2  102.29   35.80
  -1   6   2  116.19    8.10
  -1   6   2  130.69   38.60
   1  -6   2  131.39   37.60
   1  -6   2  119.39    7.40
  -1   6   2  112.99    7.20
  -1   7  -2  144.19   10.60
   1   7   2  178.98   10.70
   1  -7  -2  151.08    9.80
  -1  -7   2  203.28   71.49
  -1   7  -2  133.89   47.40
   1  -7  -2  216.68   54.69
  -1  -7   2  182.18   10.80
   1  -7  -2   44.70   88.29
  -1   7  -2  176.08   91.89
   1   7   2  181.78   11.20
  -1  -7   2  185.68   11.50
   1   7   2  311.37   64.49
   1   7   2  135.89   71.69
  -1  -7   2  195.48   47.70
   1   7   2  185.88   10.00
  -1  -7  -2  162.98   51.39
   1  -7   2  152.58   10.00
  -1  -7  -2  132.89   84.59
  -1   7   2  170.98    9.90
   1  -7   2  177.88   52.19
  -1   7   2  135.19   89.49
  -1   7   2  155.48   10.80
   1   7  -2  187.28   11.20
   1   7  -2  141.59   74.09
  -1  -7  -2  178.58   10.60
  -1   7   2  161.28   10.00
   1  -7   2  157.18   10.80
  -1   7   2  123.99   47.20
   1   7  -2  110.49   46.40
   1   8   2    7.70  101.49
   1   8   2    6.40    3.20
  -1  -8   2    6.50    3.60
  -1   8  -2    8.30    3.40
  -1   8  -2  -23.60   49.80
   1   8   2    7.20    3.20
   1   8   2   18.70   53.39
   1  -8  -2    7.70    3.50
   1  -8  -2   24.80   51.89
   1   8   2    4.90    3.30
   1  -8  -2   59.79  103.89
  -1  -8   2    6.70   48.10
  -1   8  -2  -42.10  106.19
  -1  -8  -2    7.80    3.70
   1   8  -2    4.90    3.30
   1  -8   2    9.00    3.70
   1  -8   2    9.50    3.70
  -1   8   2 -103.09   69.19
  -1  -8  -2    2.20   48.30
  -1  -8  -2   -0.90  111.79
   1  -8   2  -40.00   45.40
  -1   8   2  -14.50   54.19
   1   8  -2  -21.30   48.10
   1   8  -2  123.39  106.59
  -1   8   2    5.30    3.30
  -1   8   2    8.30    3.30
  -1   9  -2  324.97   83.39
   1   9   2  271.57   77.79
   1  -9  -2  469.55  130.49
   1  -9  -2  269.87   78.79
  -1   9  -2  311.67  119.49
   1  -9  -2  289.67   15.50
   1   9   2  237.08   16.20
   1   9   2   45.60  103.39
   1   9  -2  267.87   16.40
  -1   9   2  209.38   77.89
   1   9  -2  228.08   82.19
   1   9  -2  249.78  152.88
  -1  -9  -2  182.18  154.58
   1  -9   2  268.37   15.70
  -1   9   2  238.68   23.10
  -1  -9  -2  265.07   80.29
  -1   9   2  294.97  145.49
   1 -10  -2   -0.90  190.38
  -1 -10   2  142.69   13.10
  -1  10  -2  282.87   93.49
  -1  10  -2  165.48   16.00
   1  10   2  143.99   12.80
   1  10   2  229.78  187.98
   1  10   2  185.18   94.69
  -1 -10   2  149.69   13.80
   1  10   2  148.29   11.90
   1 -10  -2   29.50   80.59
  -1  10  -2  241.38  191.78
   1 -10  -2  158.88   14.60
  -1 -10  -2  165.18   85.39
  -1  10   2  153.18   14.90
   1 -10   2  161.58   13.10
   1  10  -2  322.77  145.19
  -1 -10  -2  135.39   12.70
  -1  10   2   13.10  161.98
   1  10  -2  330.07   99.29
   1  10  -2  141.39   12.90
  -1  10   2   94.99   89.39
  -1 -10  -2  -65.69  133.29
   1 -10   2  159.58   13.90
  -1  10   2  146.59   11.90
   1  11   2  605.44   32.10
   1 -11  -2  589.54   30.60
  -1  11  -2  589.84   32.00
   1 -11  -2  601.64  198.88
   1 -11  -2  976.50  174.28
   1  11  -2  563.14   31.60
  -1  11   2  635.74   32.60
   1 -11   2  630.34   31.20
   1  11  -2  718.93  324.97
  -2   0  -2 4354.76  180.48
   2   0   2 4366.96  181.38
   2   0  -2 4274.87  178.08
  -2   0   2 4351.96  189.78
   2   0  -2 4354.56  188.68
  -2   0   2 4269.77  178.68
   2   0   2 4380.46  193.98
  -2   0  -2 4359.26  192.88
  -2  -1   2  217.38    9.40
  -2  -1   2  258.37   33.40
  -2   1  -2  219.48    9.60
  -2   1  -2  215.48   23.90
   2  -1  -2  208.48   25.30
   2   1   2  219.98    9.40
  -2   1  -2  241.58   35.30
  -2  -1   2  215.58   22.20
   2   1   2  185.58   20.20
   2   1   2  218.08    9.30
   2   1   2  194.08   28.80
   2  -1  -2  199.98   17.90
   2   1   2  213.48    9.60
   2  -1   2  198.58   22.70
   2   1  -2  221.58   21.10
  -2   1   2  187.58   19.00
   2  -1   2  170.88   30.80
  -2   1   2  210.58    9.00
  -2  -1  -2  217.38    9.60
   2   1  -2  218.78    9.60
   2   1  -2  214.18   31.60
  -2  -1  -2  246.98   31.80
   2  -1   2  214.88    9.40
  -2  -1  -2  223.58    9.50
  -2   1   2  216.08   26.90
  -2  -1  -2  226.28    9.40
  -2  -1  -2  206.38   20.70
  -2   2  -2 8285.97  435.56
   2  -2  -2 9929.11  392.16
   2  -2  -2 9727.13  407.16
  -2   2   2 9944.81  408.56
   2   2  -2 9848.31  398.26
  -2  -2  -2 9944.00  403.76
  -2  -2  -2 9826.22  429.66
   2   2  -2 9999.00  418.16
  -2   2   2 9983.30  392.66
   2  -3  -2   16.30    2.10
  -2   3  -2   18.40    2.70
   2   3   2   22.10   33.10
  -2   3  -2    4.80   17.90
   2   3   2   20.20    2.70
   2  -3  -2   30.40   27.40
   2   3   2   14.90   15.50
  -2   3  -2   49.99   17.60
   2   3   2   22.30    2.30
  -2   3  -2   21.90   21.60
   2  -3  -2   14.30   14.50
  -2   3  -2   60.59   37.10
   2   3   2   22.00    2.60
  -2  -3   2   19.80    2.80
   2   3   2   22.00    2.70
  -2   3   2    7.40   26.80
   2   3  -2  -36.90   26.90
   2  -3   2   18.80    2.70
  -2  -3  -2   22.50    2.70
   2   3  -2   47.20   29.50
  -2  -3  -2   20.00    2.30
  -2  -3  -2   31.70   29.10
  -2   3   2    1.10   13.80
  -2   3   2   18.10    2.20
   2   3  -2  -10.10   13.00
  -2  -3  -2   22.00   15.00
   2   3  -2   20.50    2.60
   2   3  -2   25.30   19.10
   2   4   2 1882.41  131.39
   2  -4  -2 1932.31  104.29
  -2   4  -2 1940.91   78.69
   2   4   2 1995.00   78.69
   2   4   2 1913.61   78.59
  -2   4  -2 2036.60  114.89
  -2   4  -2 1860.81  104.89
   2   4   2 1957.70   77.69
  -2  -4   2 1950.20   78.69
  -2   4  -2 1922.81  140.89
  -2   4  -2 2026.20  128.89
   2  -4  -2 2057.39  130.59
   2  -4  -2 1927.61   77.59
   2   4   2 1946.11  106.59
  -2  -4  -2 2068.29  133.09
  -2  -4  -2 2026.20  106.29
  -2   4   2 2058.89  127.09
   2   4  -2 1906.81   78.39
  -2  -4  -2 1914.21   78.49
   2   4  -2 2147.89  131.29
  -2   4   2 2091.29  106.09
  -2   4   2 1936.81   77.69
  -2   4   2 1939.71   78.59
   2  -4   2 1969.50   78.59
   2   4  -2 2099.49  107.49
   2  -5  -2  -51.59   32.60
  -2  -5   2    0.60    1.70
  -2  -5   2    1.20    1.90
  -2   5  -2  -11.10   24.50
  -2   5  -2    3.00    1.90
  -2  -5   2   25.20   24.90
   2   5   2   11.50   23.40
   2   5   2    2.20    1.70
   2   5   2    1.00    1.60
   2   5   2  -12.10   35.00
  -2   5  -2   29.60   37.70
   2   5   2    1.20    1.70
   2  -5  -2  -20.20   22.40
   2  -5  -2    4.50    1.80
   2  -5   2    2.30    1.60
  -2   5   2    1.40    1.80
   2   5  -2  -94.39   48.20
  -2  -5  -2    0.60    1.80
   2   5  -2    1.00    1.70
  -2   5   2    1.70    1.50
  -2   5   2   -4.80   23.90
   2   5  -2   14.60   25.30
   2  -5   2    2.40    1.90
  -2   5   2   19.40   36.00
  -2  -5  -2    7.90   23.00
  -2  -5  -2  -28.60   48.30
   2  -6  -2 1421.96   57.79
   2   6   2 1453.95   59.29
   2  -6  -2 1368.06  138.49
  -2   6  -2 1716.73  146.19
   2   6   2 1368.56   99.99
  -2   6  -2 1438.66   59.39
  -2  -6   2 1290.27   60.39
   2   6   2 1429.76   59.09
   2   6   2 1467.65   57.99
   2  -6  -2 1431.26  101.09
  -2  -6   2 1463.25  122.19
  -2  -6   2 1467.65   59.49
  -2   6  -2 1566.54  101.89
  -2  -6   2 1490.65   98.89
  -2  -6  -2 1462.95   97.89
  -2  -6  -2 1268.87  121.39
  -2   6   2 1405.96   59.29
  -2   6   2 1375.56   99.29
   2  -6   2 1464.95   59.19
   2   6  -2 1461.95   59.19
   2  -6   2 1449.35   58.09
   2   6  -2 1712.03  143.69
  -2   6   2 1419.56   57.99
  -2  -6  -2 1325.87   60.59
   2   6  -2 1443.06  100.09
  -2   6   2 1431.06  133.69
   2   7   2  123.69   44.10
   2   7   2   77.79    7.20
  -2  -7   2  173.28   66.39
  -2  -7   2   93.59   40.60
   2   7   2   78.89    7.00
  -2   7  -2   87.69   89.49
   2  -7  -2   88.99    6.50
  -2   7  -2   82.69   41.70
  -2   7  -2   82.19    7.50
   2   7   2    7.10   82.29
  -2  -7   2   78.69    7.30
   2  -7  -2   96.09   61.79
  -2  -7   2   77.49    7.70
   2  -7  -2  156.78   46.50
   2   7   2   85.19    6.50
  -2   7   2   81.79    7.50
   2  -7   2   74.29    7.40
  -2  -7  -2   80.99    7.20
   2   7  -2   80.29    7.20
  -2   7   2   95.79   47.40
  -2   7   2   79.19    6.30
   2   7  -2   49.70   86.79
   2  -7   2   80.29    6.50
  -2  -7  -2   75.89   63.99
  -2  -7  -2   19.20   40.90
  -2   7   2   88.39   67.59
   2   7  -2   77.49   41.80
   2   8   2  960.80  141.39
  -2  -8   2  980.60  105.09
  -2   8  -2 1124.79  178.98
   2  -8  -2 1208.28  149.09
  -2  -8   2 1163.98   49.90
   2   8   2 1175.68   48.60
  -2   8  -2 1157.78  113.09
  -2   8  -2 1179.88   50.69
   2   8   2 1165.88   49.99
   2  -8  -2 1297.67  112.69
   2   8   2 1174.38   50.29
   2  -8  -2 1163.48   48.50
   2   8   2 1150.78  112.69
  -2   8   2 1132.19   50.49
  -2  -8  -2 1152.08  168.38
  -2   8   2 1148.39  114.09
   2   8  -2 1241.58  179.78
  -2  -8  -2 1178.08   49.70
  -2   8   2  910.01  162.88
   2  -8   2 1142.19   49.99
   2   8  -2 1216.38  114.49
   2   8  -2 1201.78   50.29
  -2  -8  -2 1032.70  107.09
   2  -8   2 1173.58   48.90
  -2   8   2 1129.79   48.60
  -2  -9   2   46.20    8.10
   2  -9  -2  137.39  146.99
   2   9   2   55.69  142.39
  -2   9  -2  -65.49  106.39
   2  -9  -2   28.70    6.50
  -2   9  -2   25.80    7.80
  -2   9  -2  167.58   70.29
   2   9   2   90.59   72.99
   2  -9  -2  -32.60   60.39
   2   9   2   42.40    7.40
   2   9  -2   -5.20  102.89
  -2   9   2    7.50   64.79
  -2   9   2   23.10    9.60
   2   9  -2   40.70    7.50
   2  -9   2   30.40    7.00
  -2  -9  -2   60.39  139.29
  -2   9   2   19.80  129.79
  -2  -9  -2  -18.20   63.09
  -2  -9  -2   47.30    7.70
   2   9  -2   54.49   70.49
   2 -10  -2 1321.57  204.28
   2 -10  -2  889.41  140.39
   2  10   2  910.91   39.00
  -2  10  -2  824.52   47.70
  -2 -10   2  869.51   40.50
  -2 -10   2  855.71   41.40
   2  10   2  917.31   41.20
  -2 -10  -2  787.92   39.60
   2  10  -2  856.51   38.70
   2 -10   2  918.01   41.00
   2  10  -2  844.52   40.60
  -2  10   2  823.32   50.39
   2 -11  -2   14.80    7.10
  -2  11  -2  249.78  253.17
  -2  11  -2   15.90    6.70
   2  11   2   19.50    7.40
  -2  11  -2  -65.79  121.19
   2 -11   2   13.20    7.40
   2  11  -2   18.40    7.00
   2  11  -2 -186.08  153.08
   2  11  -2  171.18  243.88
  -2  11   2   17.20    7.00
   3   0   2   -7.60    8.50
   3   0   2   -3.70    0.80
   3   0  -2  -15.60    6.40
  -3   0   2  -12.90   13.70
  -3   0  -2   -5.10    8.90
   3   0   2   -3.60    0.80
  -3   0  -2   14.40   17.00
  -3   0   2   -4.80    7.20
   3   0   2  -20.50   16.50
   3   0  -2    0.40   13.10
  -3   0  -2   -4.10    0.70
  -3   0  -2   -3.50    0.90
   3   1   2  917.51   37.10
  -3  -1   2  959.90   51.79
  -3   1  -2  891.41   52.09
   3   1   2  915.31   63.69
  -3  -1   2  897.21   62.89
   3   1   2  894.71   36.60
   3   1   2  889.01   36.30
   3  -1  -2  949.40   56.19
   3  -1  -2  972.50   47.00
   3   1   2  859.11   37.30
  -3  -1   2  872.51   36.40
   3   1   2  946.81   51.49
  -3   1  -2  906.41   67.19
  -3   1  -2  946.51   36.80
   3   1  -2  980.70   62.79
  -3  -1  -2  947.91   50.29
  -3   1   2  934.81   48.30
  -3  -1  -2  882.91   60.99
  -3  -1  -2  910.01   36.70
   3  -1   2  916.21   36.20
   3  -1   2  953.30   67.09
   3  -1   2  945.11   53.09
  -3  -1  -2  927.41   37.00
  -3   1   2  984.00   58.99
   3   1  -2  936.61   50.19
  -3  -1  -2  893.11   36.60
  -3   2  -2  141.29   39.30
  -3   2  -2   98.69    5.40
   3   2   2   95.29    5.00
   3  -2  -2  112.39   18.80
   3   2   2   93.59    5.60
   3  -2  -2   91.49   26.00
   3   2   2   94.39    5.00
  -3  -2   2   95.89    5.30
   3   2   2  106.49   18.90
  -3   2  -2   95.39   21.70
   3   2   2   98.69    5.10
   3   2   2  116.59   30.00
  -3   2   2   80.19    4.60
   3   2  -2  140.59   32.10
   3  -2   2   92.49    5.00
  -3  -2  -2   91.89   27.70
  -3   2   2   89.09   17.90
  -3   2   2   72.59   24.40
  -3  -2  -2   97.59    5.00
   3   2  -2  101.79    4.30
   3   2  -2   96.19   20.80
   3   2  -2  103.09   33.80
  -3  -2  -2   98.89    5.60
  -3  -2  -2   97.49    5.30
   3   2  -2  102.19   18.90
   3   2  -2   97.29    4.80
  -3  -2  -2   93.39   21.40
   3   3   2 1581.44   64.49
   3  -3  -2 1606.24   84.59
  -3   3  -2 1518.65  115.49
   3   3   2 1640.74   65.19
  -3  -3   2 1598.24   64.69
   3   3   2 1582.84   64.09
   3  -3  -2 1623.54   63.59
  -3   3  -2 1645.74   64.89
  -3   3  -2 1740.93  108.09
  -3  -3   2 1584.64   64.99
  -3   3  -2 1715.23   95.09
   3   3   2 1589.64   64.29
  -3   3  -2 1630.34   87.09
   3  -3  -2 1748.03  105.29
   3  -3   2 1622.54   64.39
   3   3  -2 1587.04  114.59
   3   3  -2 1669.03  104.99
  -3   3   2 1582.04  104.09
  -3   3   2 1607.84   63.69
  -3   3   2 1675.73   85.59
  -3  -3  -2 1585.64   64.19
   3   3  -2 1595.34   64.29
  -3  -3  -2 1593.04   64.89
   3   3  -2 1706.93   86.79
  -3  -3  -2 1623.44   87.09
   3   3  -2 1737.13   94.59
  -3  -3  -2 1719.13  109.29
  -3   4  -2  480.95   72.19
  -3   4  -2  462.95   56.99
  -3  -4   2  485.45   21.30
   3   4   2  493.55   21.00
   3   4   2  486.35   20.30
   3   4   2  473.85   21.40
  -3  -4   2  489.55   21.50
   3  -4  -2  547.95   67.69
  -3   4  -2  481.75   21.30
  -3   4  -2  439.96   47.00
   3   4   2  481.85   20.70
   3  -4  -2  476.15   45.80
   3  -4  -2  461.35   19.80
  -3   4  -2  391.76   85.39
  -3  -4  -2  466.85   20.40
  -3  -4  -2  447.56   47.40
  -3  -4  -2  473.15   21.20
   3   4  -2  479.05   20.80
   3  -4   2  480.25   20.90
  -3  -4  -2  469.55   21.20
  -3   4   2  501.15   60.49
  -3   4   2  456.05   44.20
  -3   4   2  488.55   20.10
  -3  -4  -2  425.06   68.99
  -3   4   2  473.55   21.10
   3   5   2 1169.38   45.30
   3   5   2 1187.78   81.29
  -3  -5   2 1133.29   78.19
   3  -5  -2  964.50   75.99
   3  -5  -2 1045.50  108.89
  -3   5  -2 1167.18  113.89
   3   5   2 1200.28  114.39
  -3   5  -2 1091.19   79.99
  -3  -5   2 1164.18   46.70
  -3  -5   2 1161.78   46.70
  -3   5  -2 1078.49   46.50
   3  -5  -2 1089.19   44.90
   3   5   2 1152.98   46.30
   3   5   2 1153.38   46.70
  -3   5  -2 1155.08  110.39
  -3   5  -2 1017.80   88.59
  -3  -5  -2 1029.30   76.99
   3  -5   2 1201.08   45.20
  -3   5   2 1161.28   46.60
  -3  -5  -2 1065.79   46.30
  -3  -5  -2 1075.49   46.30
   3   5  -2 1045.30   45.90
   3   5  -2  927.61   75.19
   3   5  -2  996.30   99.39
  -3   5   2  944.91  102.59
  -3   5   2 1172.78   45.20
   3  -5   2 1173.18   46.10
  -3   5   2 1151.98   80.99
  -3  -5  -2 1051.89   99.79
  -3   6  -2   80.49   38.00
  -3   6  -2  100.19   46.30
  -3   6  -2  367.76   78.39
   3   6   2  138.19    8.10
  -3  -6   2  130.49    9.00
   3   6   2  135.39   41.50
  -3   6  -2  134.89    9.10
   3  -6  -2  132.99    7.70
   3   6   2  138.39    9.20
   3   6   2  140.29    8.90
  -3   6  -2  122.29   79.29
   3  -6  -2  148.99   81.29
  -3  -6   2  135.89   39.60
   3   6   2  221.38   79.19
   3  -6  -2  118.19   41.70
  -3   6   2  136.29    9.10
  -3  -6  -2  136.59    9.10
  -3   6   2  146.39   41.30
   3   6  -2  132.99    8.60
  -3   6   2  133.19    7.80
  -3   6   2   51.89   67.39
   3   6  -2  128.79   40.80
   3  -6   2  139.39    8.80
   3  -6   2  141.09    7.90
  -3  -6  -2   98.49   68.99
   3   6  -2   77.59   57.29
  -3  -6  -2  119.49   35.90
   3   7   2  176.48   11.30
   3  -7  -2  322.77   66.19
  -3   7  -2  188.98   11.90
  -3   7  -2  270.47   64.59
  -3  -7   2  172.38   11.70
  -3   7  -2  151.28   51.89
  -3   7  -2   98.59   89.49
  -3  -7   2  172.98   11.50
   3  -7  -2  189.28   10.10
  -3  -7   2  182.58   45.70
   3   7   2  173.78   10.20
   3   7   2  145.69   44.30
   3   7   2   83.09   90.99
  -3   7  -2  205.48   77.69
   3   7   2  161.78   11.30
   3  -7  -2  112.39   91.99
   3  -7   2  192.28   11.40
   3  -7   2  190.98   10.40
  -3  -7  -2  104.79   44.10
   3   7  -2  177.18   11.20
  -3  -7  -2  178.38   11.50
  -3   7   2  235.18   56.29
   3   7  -2  196.58   51.29
  -3   7   2  186.78   11.90
  -3   7   2   95.19   88.99
  -3  -7  -2  106.49   76.79
   3   7  -2  239.88   96.69
  -3   7   2  183.38   10.20
  -3   8  -2  -10.60   66.99
  -3   8  -2   -8.50   54.29
  -3   8  -2   28.00  103.79
  -3  -8   2  -47.30   48.90
   3   8   2    2.20    2.90
  -3  -8   2   -0.40    3.20
  -3   8  -2   79.79   89.69
   3   8   2    3.50    3.10
   3   8   2  -39.00   51.59
   3   8   2    1.30    2.80
   3  -8  -2  111.89   57.99
   3   8   2 -128.29  110.09
  -3   8  -2    4.00    3.10
   3  -8  -2  -23.40   84.79
   3  -8  -2    5.30    3.40
  -3  -8  -2   54.89   49.70
  -3   8   2  -36.50   50.69
   3   8  -2   84.79  105.49
  -3  -8  -2  -54.69   80.69
   3   8  -2  -48.20   51.29
   3   8  -2    6.20    3.10
  -3   8   2   -2.40  103.09
  -3   8   2    4.80    3.40
   3  -8   2    5.20    3.50
   3   8  -2    1.10    2.80
   3   9   2   65.99   70.69
   3   9   2   27.40    7.00
  -3  -9   2   27.30    7.90
  -3   9  -2   14.20    5.00
  -3  -9   2   28.10    8.30
  -3   9  -2 -137.99  143.69
  -3   9  -2   47.00   82.39
   3  -9  -2   56.29  145.89
   3   9   2  -58.29   98.39
   3  -9  -2  108.09   72.09
   3  -9  -2   20.90    6.20
  -3   9  -2   99.29  167.48
  -3   9  -2  -71.19   69.39
   3   9  -2   27.70    7.00
  -3  -9  -2  207.68  130.09
  -3   9   2   23.30    6.80
  -3  -9  -2   18.60   67.89
   3   9  -2  -11.60  140.79
  -3  -9  -2   29.30    7.50
   3  -9   2   20.40    5.10
   3   9  -2  145.89   74.79
  -3   9   2   13.80    5.10
  -3   9   2  -59.39   65.69
  -3   9   2  106.79  128.09
   3  10   2   55.19    9.30
  -3 -10   2   62.59   12.20
  -3  10  -2   57.39    9.80
   3 -10  -2  -13.90  144.69
   3  10   2   48.60    9.00
   3 -10  -2  -37.80   89.49
  -3  10  -2  272.97  153.48
  -3  10  -2  110.99   95.29
   3  10  -2   61.29    9.00
  -3  10   2   42.30    9.30
   3  10  -2   64.89    9.50
  -3  10   2 -215.88  168.18
  -3  10   2    3.40   93.19
   3  11   2 1030.80   47.80
   3 -11  -2 1026.10   45.30
  -3  11  -2 1006.40   48.30
  -3  11   2 1017.10   48.50
   3 -11   2  948.21   45.40
   3  11  -2 1052.19   47.60
  -4   0   2 2699.73  115.99
  -4   0  -2 2734.43  131.79
  -4   0   2 2747.72  125.49
  -4   0  -2 2601.44  106.89
   4   0   2 2813.22  121.89
   4   0   2 2690.83  106.99
   4   0  -2 2753.72  114.29
   4   0  -2 2848.71  122.79
  -4   0  -2 2813.72  119.99
  -4   0  -2 2710.03  106.89
   4   0   2 2892.51  136.89
   4   1   2  246.18   10.40
   4   1   2  210.88   36.60
  -4  -1   2  241.78   10.00
   4   1   2  242.78   10.80
  -4   1  -2  238.08   26.00
  -4   1  -2  232.28   10.30
   4  -1  -2  232.58   19.50
  -4   1  -2  266.07   40.20
  -4   1  -2  226.88   10.40
   4  -1  -2  251.97   28.30
   4   1   2  243.98   24.60
  -4  -1  -2  234.88   10.70
  -4  -1  -2  233.88   10.30
   4   1  -2  219.88   22.90
  -4  -1  -2  219.98   23.70
   4   1  -2  225.68   20.10
   4  -1   2  204.18   39.00
  -4   1   2  224.98   31.30
   4  -1   2  212.28   10.30
  -4  -1  -2  245.48   10.40
  -4  -1  -2  173.48   33.80
  -4   1   2  203.88   20.30
   4  -1   2  263.97   26.60
   4   1  -2  202.48   33.80
   4   1  -2  217.58   29.30
  -4  -2   2 2031.10   79.09
  -4   2  -2 2044.10  114.49
   4   2   2 2069.29   79.89
   4  -2  -2 1974.50  106.79
   4   2   2 2042.70  114.09
  -4   2  -2 2043.60   96.99
   4   2   2 1968.00   78.39
  -4   2  -2 1986.00   79.19
  -4   2  -2 2010.60  122.29
   4   2   2 2102.99   98.39
  -4   2  -2 2034.50  102.19
   4   2   2 2009.50   78.49
   4   2   2 2065.09   78.99
   4  -2  -2 2021.20   93.29
  -4  -2   2 2009.20   79.69
  -4  -2  -2 1984.30   78.99
   4   2  -2 1960.60  116.99
  -4   2   2 1989.70  107.69
  -4  -2  -2 1956.60   79.09
  -4   2   2 1959.20   78.19
  -4  -2  -2 1990.40   97.69
  -4   2   2 2054.59   94.49
   4  -2   2 1876.41   78.29
  -4  -2  -2 2084.59  115.19
   4   2  -2 2034.30  109.69
   4   2  -2 2043.20   99.59
  -4  -2  -2 2030.90   79.69
   4   2  -2 2132.69   95.29
  -4  -3   2  109.59    6.60
   4   3   2  112.79    6.20
   4  -3  -2  105.79   38.90
  -4  -3   2  107.99    7.00
  -4   3  -2  133.59   51.19
   4  -3  -2  139.09   25.50
   4   3   2   80.79   33.80
   4   3   2  121.59   25.20
   4   3   2  114.29    6.20
   4   3   2  109.79    7.00
  -4   3  -2  151.48   43.90
   4   3   2  112.49    6.10
  -4   3  -2  137.39   31.00
  -4   3  -2  130.39   28.90
  -4  -3  -2  121.79    6.80
   4   3  -2  190.18   52.09
   4   3  -2  132.79   37.00
  -4   3   2  141.49   26.90
  -4  -3  -2  119.59    7.00
  -4  -3  -2  104.59   40.70
  -4  -3  -2  120.29    6.30
   4   3  -2  134.39   25.30
   4  -3   2  132.09    6.20
  -4  -3  -2  129.19   29.70
   4   3  -2  119.59    5.50
   4   3  -2  127.69   29.50
   4   3  -2  119.09    6.00
  -4   3   2  138.79   37.30
  -4   4  -2 1116.79   98.99
   4   4   2 1230.68   48.80
   4   4   2 1195.28   47.80
   4   4   2 1245.08   77.89
  -4  -4   2 1176.08   48.70
   4  -4  -2 1098.29   97.29
  -4  -4   2 1165.28   48.30
   4  -4  -2 1146.99   46.50
  -4   4  -2 1134.79  114.19
   4   4   2 1179.98   47.30
  -4   4  -2 1169.18   48.30
   4   4   2 1192.08   47.60
   4  -4  -2 1138.09   73.79
   4   4   2 1116.09   99.99
  -4   4  -2 1105.09   83.99
  -4   4  -2 1200.38   76.59
  -4  -4  -2 1277.47   47.60
   4   4  -2 1337.27  117.59
  -4  -4  -2 1267.57  105.59
  -4   4   2 1103.09   48.00
   4   4  -2 1220.28   73.99
   4   4  -2 1151.58   85.49
   4   4  -2 1206.08   46.70
   4  -4   2 1146.19   46.70
  -4  -4  -2 1220.28   48.60
   4  -4   2 1120.19   47.40
   4   4  -2 1220.08   47.60
  -4   4   2 1151.18   46.70
  -4  -4  -2 1164.48   76.19
  -4   4   2 1075.79   97.69
  -4  -4  -2 1187.68   48.30
   4   4  -2 1133.69   95.39
  -4   4   2 1111.29   73.99
   4  -5  -2   75.49   58.19
   4  -5  -2   77.49    4.80
  -4   5  -2   77.19   55.99
  -4   5  -2   93.69    6.60
  -4   5  -2   63.89   36.00
  -4   5  -2  110.59   71.89
   4   5   2   81.99    5.50
  -4  -5   2   86.59    6.50
   4   5   2   85.69    6.00
   4   5   2   88.19    6.70
   4   5   2   83.69    5.80
  -4   5  -2   97.59   33.40
   4  -5  -2   96.19   31.80
  -4   5   2   67.19    6.10
   4   5  -2   92.49    6.00
  -4   5   2  149.29   50.69
  -4   5   2   58.49   31.10
   4   5  -2   84.69   55.19
  -4  -5  -2   97.69    6.70
   4  -5   2   75.89    5.00
   4   5  -2   59.09   30.30
   4  -5   2   69.99    5.60
   4   5  -2   90.69    5.10
  -4   5   2   71.39    4.90
   4  -6  -2 2202.88   86.99
  -4   6  -2 2172.08   89.39
   4  -6  -2 2065.69  167.88
  -4   6  -2 2259.77  171.48
   4   6   2 2027.90  161.78
  -4  -6   2 2223.98   89.49
   4   6   2 2201.18   88.39
   4   6   2 2188.38   88.09
   4   6   2 2228.08   89.69
   4   6   2 2229.18   88.79
  -4   6  -2 2354.66  135.09
   4   6   2 2182.78  134.69
  -4   6  -2 2075.19  194.08
  -4  -6   2 2245.78   89.59
   4  -6  -2 2182.58  131.89
  -4   6  -2 2160.88  144.09
  -4   6   2 2209.78   89.39
   4   6  -2 2190.68   87.29
   4  -6   2 2268.37   87.29
  -4  -6  -2 2045.10  130.69
   4  -6   2 2209.88   88.39
   4   6  -2 2188.48   88.49
  -4  -6  -2 2288.47   89.49
  -4   6   2 2369.76  175.38
  -4   6   2 2130.99  130.39
  -4   6   2 2247.98   87.29
  -4  -6  -2 2221.48   89.29
  -4  -6  -2 2176.68  158.98
   4  -7  -2  142.59   99.79
   4   7   2  160.38    9.50
   4   7   2   54.89   47.60
   4   7   2  158.18   10.40
  -4  -7   2  153.88   11.10
   4  -7  -2  124.49   49.60
   4   7   2   87.19   90.39
   4   7   2  166.78   10.30
  -4   7  -2   64.39   48.90
   4  -7  -2  162.48    8.90
  -4   7  -2  233.68   63.69
   4   7   2  153.58   10.90
  -4   7  -2  275.27  115.99
  -4   7  -2   57.29   90.29
  -4   7  -2  172.28   11.20
   4   7  -2  156.78   10.20
  -4   7   2  270.07   96.49
   4   7  -2  151.78   78.29
  -4  -7  -2  303.77   69.19
  -4   7   2  160.28   11.10
  -4   7   2  138.19   51.19
  -4  -7  -2  143.69   69.29
   4   7  -2   73.79   49.99
   4  -7   2  163.58    9.40
   4   7  -2  163.98    9.30
   4  -7   2  155.08   10.30
  -4   8  -2 1559.04  151.38
  -4   8  -2 1596.74   68.89
   4   8   2 1693.93   66.69
   4  -8  -2 1441.76  190.58
   4   8   2 1689.63   68.99
   4   8   2 1692.03   68.29
   4   8   2 1670.23  136.79
   4  -8  -2 1480.15  133.19
  -4   8  -2 1297.87  194.38
   4  -8  -2 1601.04   65.89
   4   8   2 1399.56  197.18
  -4  -8   2 1687.13   69.29
  -4   8  -2 1427.26  130.19
  -4   8  -2 1456.95  217.38
   4  -8   2 1658.93   66.29
   4   8  -2 1677.43   66.29
   4   8  -2 1426.66  203.88
   4   8  -2 1709.03  134.49
  -4  -8  -2 1609.64  127.69
   4   8  -2 1641.54   67.89
  -4   8   2 1634.84   68.99
  -4  -8  -2 1616.04  192.18
   4  -9  -2  302.87  160.58
  -4   9  -2  238.08   16.10
  -4  -9   2  237.08   16.50
   4  -9  -2  228.38   78.99
  -4   9  -2  383.26  159.98
   4   9   2  249.58   15.50
   4  -9  -2  254.87   13.60
   4   9   2  256.47   16.20
  -4   9  -2  244.38   91.19
  -4  -9   2  221.88   16.20
   4   9  -2  206.98   13.40
   4  -9   2  247.88   14.00
   4   9  -2  226.58   15.00
  -4   9   2   82.19   79.19
  -4  -9  -2  233.38   16.00
  -4   9   2  250.07   16.40
  -4   9   2   99.39  132.79
  -4  10  -2 1151.38   51.29
   4  10   2 1036.90   47.80
   4 -10  -2 1158.28   47.70
   4  10   2 1087.69   49.80
   4  10  -2 1135.89   49.90
   4  10  -2 1153.38   48.00
   4 -10   2 1097.59   47.90
  -4  10   2 1078.59   50.89
  -4  11  -2  103.09   13.70
   4  11   2  116.79   13.60
   4  11   2  111.29   14.50
   4  11  -2  137.69   13.80
  -4  11   2  105.69   13.90
   5   0  -2    4.50   10.30
  -5   0  -2    0.90    1.20
   5   0   2   12.00   11.80
  -5   0  -2    0.60    1.10
   5   0   2   -5.50   21.10
   5   0   2   -0.30    1.10
   5   0  -2   -3.30    5.50
  -5   0  -2    2.70    1.40
  -5   0  -2   -7.60    9.90
  -5   0  -2   -1.70   19.80
  -5   1  -2  472.15   50.39
   5  -1  -2  480.65   26.80
   5   1   2  443.76   19.50
  -5  -1   2  446.06   19.90
   5   1   2  456.75   34.90
   5  -1  -2  454.25   34.50
  -5   1  -2  422.46   34.60
  -5  -1   2  443.06   18.90
  -5   1  -2  488.05   19.40
   5   1   2  471.05   49.50
  -5   1  -2  479.75   19.80
   5   1   2  466.95   20.10
  -5   1   2  436.26   28.30
   5   1  -2  516.55   28.80
  -5  -1  -2  493.05   19.40
   5   1  -2  499.35   37.40
  -5  -1  -2  472.45   33.60
   5  -1   2  438.96   19.10
  -5  -1  -2  490.75   19.60
   5   1  -2  503.25   31.30
   5  -1   2  454.05   36.10
  -5   1   2  447.06   37.80
  -5  -1  -2  488.55   20.00
   5  -1   2  419.16   51.09
  -5  -1  -2  480.25   46.80
   5   1  -2  448.36   42.10
   5   2   2  101.39    5.80
  -5   2  -2  118.79   33.70
   5   2   2  103.79    6.60
   5   2   2  106.49   33.70
  -5   2  -2  124.09    6.20
  -5   2  -2   73.99   38.30
   5  -2  -2  129.39   29.70
  -5   2  -2  106.69   23.60
   5   2   2  125.49   24.30
  -5   2  -2  157.38   30.40
   5  -2  -2  135.29   21.00
  -5  -2   2  103.39    6.60
  -5  -2   2  101.59    5.80
   5   2  -2   92.09   20.80
  -5  -2  -2  125.49   34.30
  -5   2   2  107.99   21.10
  -5  -2  -2  108.39   25.70
   5   2  -2   71.49   37.00
  -5  -2  -2  123.89    6.00
  -5  -2  -2  121.59    6.70
  -5   2   2   75.19   28.70
   5  -2   2  100.39    5.00
   5   2  -2  155.08   35.60
   5   2  -2  142.19   27.60
  -5  -2  -2  122.89    6.10
   5   3   2 2270.37   88.09
   5   3   2 2217.88   86.69
   5   3   2 2301.37  112.69
   5   3   2 2130.59   85.89
   5   3   2 2308.57  134.09
  -5  -3   2 2295.97   88.09
   5   3   2 2239.58   85.99
  -5   3  -2 2101.39  143.39
  -5  -3   2 2270.87   87.29
  -5   3  -2 2081.09   87.19
  -5   3  -2 2231.78  117.29
  -5  -3  -2 2183.78   87.79
   5   3  -2 2110.89   85.59
  -5  -3  -2 2126.89   86.69
  -5  -3  -2 2303.07  136.39
   5   3  -2 2237.38  108.29
  -5  -3  -2 2206.38  111.59
   5   3  -2 2234.98  128.09
  -5   4  -2  292.37   63.19
  -5  -4   2  421.86   18.90
   5   4   2  403.36   17.10
   5   4   2  393.66   45.60
   5   4   2  412.26   18.90
  -5   4  -2  404.36   85.79
  -5  -4   2  406.16   18.20
  -5   4  -2  352.06   55.69
   5   4   2  402.16   17.00
   5   4   2  399.06   17.20
   5  -4  -2  277.07   43.00
   5  -4  -2  319.97   65.59
  -5   4  -2  393.16   18.10
  -5   4  -2  414.46   47.20
   5   4   2  490.15   69.49
   5   4  -2  300.57   65.59
  -5  -4  -2  310.77   46.60
  -5  -4  -2  401.96   18.60
   5  -4   2  404.66   16.20
   5   4  -2  397.96   88.99
  -5  -4  -2  396.56   17.30
   5   4  -2  382.66   16.30
  -5  -4  -2  383.76   18.00
  -5   4   2  343.27   16.30
   5   4  -2  411.46   44.20
  -5  -4  -2  513.85   82.49
  -5   4   2  402.66   18.00
   5   4  -2  397.16   57.59
   5   4  -2  386.76   16.60
  -5   4   2  436.46   46.00
  -5   4   2  333.07   65.99
   5  -5  -2  880.61  103.89
   5   5   2  876.91   36.90
  -5   5  -2  832.02   86.89
   5   5   2  913.31   71.79
  -5  -5   2  850.61   36.50
   5   5   2  851.81   34.80
  -5   5  -2  817.42   36.10
   5   5   2  892.31   35.30
  -5   5  -2  795.82   69.39
   5   5   2  766.72  101.29
   5  -5  -2  771.72   69.19
   5   5   2  871.91   35.00
  -5  -5   2  885.31   36.30
  -5   5  -2  813.22  101.39
  -5   5  -2  779.82  120.99
  -5   5   2  723.63   98.29
  -5   5   2  831.82   36.00
   5   5  -2  826.22   34.10
   5  -5   2  839.22   33.80
  -5  -5  -2  837.82   36.10
  -5  -5  -2  774.12  107.29
   5   5  -2  785.12   67.39
   5   5  -2  840.22   34.80
  -5  -5  -2  844.42   36.40
  -5  -5  -2  828.32   72.49
   5   5  -2  751.32   84.29
  -5   5   2  814.32   70.89
   5   5  -2  754.22   97.89
   5   5  -2  785.22  126.29
   5   6   2  131.39   80.69
   5  -6  -2  114.39    5.80
  -5   6  -2  188.38   73.39
  -5   6  -2  171.08  110.19
   5   6   2   85.59    7.90
  -5   6  -2  116.69    8.40
   5   6   2   87.39    6.80
  -5  -6   2   83.09    8.10
  -5   6  -2  123.09   41.50
   5  -6  -2  134.39   75.19
  -5  -6   2   83.59    7.80
   5  -6  -2   68.89   38.40
   5   6   2   90.19   41.30
   5   6   2   85.59    6.90
  -5   6  -2   20.90   49.60
   5   6  -2  112.39    6.40
   5   6  -2   75.69   70.09
  -5  -6  -2  104.29    8.20
   5   6  -2  105.79   41.70
   5  -6   2  105.89    6.00
   5   6  -2  103.59    7.10
   5   6  -2  157.48   59.29
  -5   6   2  116.49   42.30
   5   6  -2  159.38  100.99
  -5  -6  -2  108.99   44.50
  -5   6   2   34.90   76.19
  -5  -6  -2    4.70   78.79
  -5   6   2  102.09    7.90
  -5  -6  -2   98.69    8.10
  -5  -7   2   71.69    8.40
  -5   7  -2   72.79    7.80
   5   7   2   78.39    6.60
   5   7   2   83.89    8.20
   5  -7  -2   92.19   49.80
   5  -7  -2   71.89    5.50
  -5  -7   2   78.19    8.20
   5  -7  -2  -90.89   98.89
   5   7   2   15.50   47.90
   5   7   2  -20.30   90.39
  -5   7  -2  -17.60   84.59
   5   7   2   81.09    7.00
  -5   7  -2   85.39   49.99
   5   7   2   85.69    7.20
  -5   7  -2  125.79  132.29
  -5  -7  -2   86.39    8.40
  -5  -7  -2  121.39   50.29
   5   7  -2   83.89    7.00
   5  -7   2   71.99    5.80
   5   7  -2  223.08  113.09
  -5   7   2    5.60   44.40
  -5  -7  -2   16.80   74.39
   5   7  -2   96.69    6.60
  -5   7   2   65.29    7.70
  -5   7   2   11.20   94.39
  -5  -8   2  118.29   11.00
  -5   8  -2   47.40   75.29
   5  -8  -2   88.69  129.79
   5   8   2  185.98   98.99
   5  -8  -2   76.89   65.29
  -5   8  -2  112.79   10.40
   5   8   2  129.19    9.70
  -5   8  -2  207.88  153.98
   5   8   2  126.79    9.20
   5   8   2   84.99   64.89
   5   8   2  131.69    9.70
  -5  -8   2  119.99   11.50
   5  -8  -2  114.29    7.80
  -5   8   2  167.98   69.69
   5   8  -2  140.69  155.38
  -5   8   2   81.99  126.29
   5   8  -2  113.89    8.60
  -5   8   2  124.79   10.70
  -5  -8  -2  128.09  124.29
  -5  -8  -2  128.49   11.00
   5   8  -2   51.19   85.49
   5  -8   2  125.29    8.30
  -5  -8  -2  -10.10   55.39
   5   8  -2  149.09   67.59
   5   8  -2  118.99    9.40
   5   8  -2  447.66  139.59
   5   9   2  278.67   17.00
  -5  -9   2  262.77   18.50
  -5  -9   2  290.97   21.50
   5  -9  -2  300.57   15.00
   5   9   2  290.67   17.00
   5   9   2  279.07   16.00
  -5   9  -2  299.87   18.60
   5  -9   2  269.27   16.50
  -5   9   2  257.27   18.00
   5   9  -2  319.17   17.20
  -5  -9  -2  326.87   21.60
   5   9  -2  317.47   16.10
   5  10   2  206.48   15.30
   5  10   2  237.18   16.20
  -5  10  -2  212.68   16.90
   5  10   2  197.38   14.50
   5 -10  -2  218.78   13.50
   5  10  -2  213.68   15.10
  -5  10   2  214.38   16.70
   5 -10   2  217.18   14.10
   5  10  -2  201.78   14.30
  -6   0  -2 6303.47  266.87
   6   0   2 6427.36  273.17
   6   0   2 6399.06  259.17
  -6   0  -2 6259.07  255.87
  -6   1  -2  635.54   38.90
   6   1   2  577.14   40.40
   6   1   2  602.64   25.60
  -6   1  -2  610.64   24.80
   6   1   2  573.94   55.99
  -6  -1   2  591.84   25.50
  -6   1  -2  553.14   53.69
  -6   1  -2  591.84   51.89
  -6   1  -2  620.44   25.30
  -6   1  -2  640.44   40.60
   6   1  -2  579.34   36.10
  -6   1   2  611.14   24.50
   6  -1   2  622.34   24.60
  -6  -1  -2  604.84   24.80
  -6  -1  -2  670.13   40.20
  -6  -1  -2  624.34   25.50
  -6  -1  -2  590.64   53.09
   6   1  -2  576.34   39.50
  -6  -1  -2  590.14   25.00
   6   1  -2  605.04   31.80
   6   1  -2  622.44   30.50
   6   2   2 2286.67   91.99
  -6   2  -2 2378.16   92.29
  -6   2  -2 2384.66   92.09
  -6   2  -2 2407.36  134.29
  -6   2  -2 2372.36  126.49
   6   2   2 2363.16  112.89
  -6   2  -2 2405.26  109.19
   6   2   2 2288.47   92.99
   6  -2  -2 2224.58  117.09
  -6  -2   2 2286.67   92.89
  -6  -2   2 2228.48   91.69
  -6   2  -2 2388.66  113.19
   6   2   2 2276.27  132.29
  -6  -2  -2 2484.75  111.59
   6   2  -2 2284.17  126.59
  -6  -2  -2 2328.77   91.89
  -6   2   2 2266.17  106.69
   6   2  -2 2290.17  109.69
  -6  -2  -2 2398.66  130.19
   6   2  -2 2523.85  106.39
   6   2  -2 2518.45  121.29
  -6  -2  -2 2400.56   92.89
  -6  -2  -2 2335.77   91.99
  -6   2   2 2224.78  121.79
   6   3   2   11.40   20.00
   6  -3  -2   32.50   34.10
  -6   3  -2   57.19   27.20
  -6   3  -2   67.69   50.09
  -6   3  -2   33.60   20.50
   6   3   2   29.00    3.90
  -6   3  -2   29.10    3.30
  -6  -3   2   28.40    3.30
   6   3   2   27.00    3.00
  -6   3  -2   11.20   35.60
  -6  -3   2   27.60    4.00
   6   3   2   23.30   39.40
   6  -3  -2   50.19   17.60
  -6  -3  -2   67.19   43.00
  -6   3   2   40.30   19.20
  -6   3   2    7.90   34.40
  -6  -3  -2   21.10    3.70
   6   3  -2   22.70   17.50
  -6  -3  -2   14.90   20.90
  -6  -3  -2   23.00    2.90
   6   3  -2   38.70   35.00
   6   3  -2   33.70   48.70
   6   3  -2    7.50   24.30
  -6  -4   2 1157.08   48.90
  -6   4  -2 1177.58   87.59
   6   4   2 1147.59   48.00
   6  -4  -2 1298.47   76.79
  -6   4  -2 1248.58  110.69
   6  -4  -2 1221.28  104.19
   6   4   2 1189.98   80.19
  -6   4  -2 1238.48   78.79
   6   4   2 1189.68   49.90
   6   4   2 1041.50  105.59
  -6   4  -2 1058.59  118.69
  -6   4  -2 1267.17   49.20
  -6   4   2 1227.98   76.69
   6   4  -2 1239.18   91.59
  -6   4   2 1163.28   48.70
   6   4  -2 1220.88  105.19
  -6   4   2 1051.69  102.69
  -6  -4  -2 1108.19  112.49
  -6  -4  -2 1203.98   48.20
   6   4  -2 1163.88   76.69
   6   4  -2 1287.77  128.49
   6   4  -2 1188.88   47.00
  -6  -4  -2 1153.38   80.69
  -6  -4  -2 1242.38   49.20
  -6   5  -2   83.49   66.89
  -6  -5   2   26.70    4.60
   6  -5  -2   28.40   31.40
   6  -5  -2   18.30   59.59
  -6   5  -2   46.30   32.50
  -6   5  -2  -22.70   36.80
   6   5   2    9.90   34.20
  -6   5  -2   68.69   85.99
   6   5   2   36.60   60.89
  -6   5  -2   14.40    3.90
  -6  -5   2   29.90    5.30
   6   5  -2   20.10    2.60
  -6   5   2  -17.70   31.10
  -6  -5  -2   37.70   35.10
  -6  -5  -2   29.40    5.10
   6   5  -2   21.60    2.50
   6   5  -2   35.70   31.10
  -6   5   2   17.40    3.80
   6   5  -2   19.20    2.80
   6   5  -2  -33.10   59.99
   6   5  -2   -3.60   83.49
  -6   5   2    0.80   61.39
   6   5  -2   33.30   42.80
  -6  -5  -2   27.90    4.60
  -6  -5  -2  -75.59   58.69
  -6   6  -2 2804.62  171.98
   6   6   2 2745.83  106.69
   6   6   2 2656.83  106.49
  -6   6  -2 2756.02  108.59
   6   6   2 2692.23  200.58
  -6  -6   2 2838.12  109.29
   6   6   2 2741.23  109.19
   6  -6  -2 2502.55  190.68
  -6   6  -2 2419.56  213.98
  -6  -6   2 2788.82  108.69
   6  -6  -2 2589.04  150.38
   6   6   2 2653.93  106.59
   6   6   2 2737.13  156.88
  -6  -6  -2 2817.12  108.99
   6   6  -2 2681.13  106.19
   6   6  -2 2694.93  105.89
   6   6  -2 2610.44  171.18
   6   6  -2 2386.16  220.58
   6   6  -2 2452.55  194.58
  -6   6   2 2706.93  108.39
  -6  -6  -2 2670.63  155.38
   6  -6   2 2724.43  105.09
  -6  -6  -2 2658.53  203.58
   6   6  -2 2656.23  152.48
  -6   7  -2  597.04  147.49
  -6  -7   2  455.35   23.40
   6   7   2  441.36   20.60
   6   7   2  450.95   20.90
  -6   7  -2  380.46   85.09
  -6  -7   2  460.15   23.00
   6  -7  -2  405.56   70.09
   6   7   2  640.94  138.79
  -6   7  -2  434.46   22.60
   6   7   2  451.85   23.00
   6  -7  -2  408.76  118.89
   6   7   2  385.16   83.69
   6   7   2  431.86   20.60
   6   7  -2  449.95   20.60
   6   7  -2  407.36   93.29
  -6  -7  -2  416.56   84.19
  -6   7   2  416.46   81.59
   6   7  -2  456.85   19.90
   6  -7   2  431.16   19.10
  -6  -7  -2  443.26   22.90
   6   7  -2  404.36  114.49
   6   7  -2  497.65   78.99
   6   7  -2  331.37  153.88
  -6   7   2  440.16   22.60
  -6  -7  -2  555.64  129.89
  -6   7   2  269.07  154.88
   6   8   2  303.77   15.80
   6   8   2  302.67   15.70
  -6   8  -2  260.67   17.10
  -6  -8   2  301.57   18.20
  -6  -8   2  302.57   17.90
   6  -8  -2  254.67   13.20
   6  -8   2  297.77   13.70
  -6  -8  -2  262.97   17.20
   6   8  -2  275.47   14.50
   6   8  -2  267.17   15.10
  -6   8   2  288.47   17.60
   6  -9  -2  179.68    9.80
  -6  -9   2  133.19   14.20
  -6   9  -2  181.78   14.40
   6   9   2  144.59   11.80
   6   9   2  140.09   11.80
   6   9   2  150.18   11.70
   6   9  -2  162.28   11.90
   6   9  -2  164.48   11.20
   6  -9   2  165.28   10.20
  -6   9   2  169.58   14.10
   6 -10  -2  370.76   21.00
  -6  10  -2  405.16   24.50
   6  10   2  364.96   25.40
   6  10   2  404.36   22.70
   6  10   2  408.56   22.60
   6  10  -2  429.26   23.10
  -6  10   2  420.96   24.50
   6  10  -2  375.76   20.80
  -7   0  -2    0.00   17.70
  -7   0   2    3.80    1.50
  -7   0  -2    2.80   10.40
   7   0   2    2.70    1.60
  -7   0  -2    1.60    1.40
  -7   0  -2    1.70    1.30
  -7   0  -2    2.00    1.20
   7   1   2    9.20    2.80
  -7   1  -2    3.30    1.50
  -7   1  -2   17.30   20.60
  -7   1  -2   14.30   12.10
   7   1   2    9.90   15.50
  -7   1  -2   -4.90   10.60
  -7   1  -2    5.90    2.00
   7   1   2   39.10   28.70
  -7   1  -2   -0.80   22.80
  -7  -1   2   11.20    2.80
  -7  -1  -2  -14.20   23.30
   7  -1   2    7.40    1.90
  -7  -1  -2    5.30    1.50
  -7   1   2    8.50    1.80
  -7   1   2    7.70    1.60
  -7  -1  -2    5.70    1.70
  -7  -1  -2    6.10    2.10
  -7  -1  -2    9.00   12.40
   7   2   2  486.05   64.99
   7   2   2  469.25   41.10
  -7   2  -2  397.76   17.60
  -7   2  -2  439.46   59.99
  -7   2  -2  420.66   35.00
  -7   2  -2  315.37   38.10
  -7   2  -2  398.86   18.00
  -7  -2   2  419.86   17.40
   7   2   2  432.26   18.90
   7   2   2  420.66   17.70
  -7  -2   2  423.16   18.70
  -7   2  -2  431.36   53.39
  -7  -2  -2  397.76   17.60
   7   2  -2  384.26   30.90
   7   2  -2  381.86   33.50
  -7   2   2  408.56   39.00
  -7  -2  -2  435.36   56.29
  -7   2   2  370.96   35.90
  -7  -2  -2  395.56   17.60
  -7   2   2  407.76   28.30
  -7  -2  -2  402.56   18.50
  -7   2   2  395.86   26.60
   7   2  -2  426.26   49.90
  -7  -2  -2  409.66   38.50
   7   2  -2  404.96   42.60
   7   3   2  458.95   47.70
  -7  -3   2  466.15   20.20
  -7   3  -2  432.46   52.39
  -7   3  -2  514.65   88.09
   7  -3  -2  468.55   59.79
  -7   3  -2  466.05   20.20
   7   3   2  455.35   72.99
   7   3   2  467.05   19.80
  -7   3  -2  445.16   68.09
  -7   3  -2  502.25   45.40
   7  -3  -2  424.06   39.50
   7   3   2  474.85   21.40
  -7  -3   2  468.05   21.30
  -7  -3  -2  482.35   48.00
  -7   3   2  462.65   61.89
   7   3  -2  406.06   48.90
   7   3  -2  354.36   63.39
  -7  -3  -2  452.25   19.80
  -7  -3  -2  460.15   21.10
   7   3  -2  425.36   72.39
   7   3  -2  380.86   42.90
  -7  -3  -2  464.65   74.39
  -7   3   2  479.25   41.70
  -7   4  -2  693.53   72.79
  -7   4  -2  771.22   32.30
  -7   4  -2  747.33  112.19
  -7  -4   2  761.62   32.30
   7   4   2  801.72  103.19
  -7   4  -2  787.22   64.09
   7   4   2  743.63   33.20
   7   4   2  756.52   31.30
  -7   4  -2  853.61   97.99
  -7  -4   2  738.53   33.10
   7  -4  -2  692.43   59.29
   7   4   2  659.13   65.39
   7  -4  -2  648.64   87.99
  -7  -4  -2  583.84   96.99
   7   4  -2  649.64   71.09
   7   4  -2  720.83   63.19
  -7  -4  -2  781.72   33.10
  -7   4   2  780.52   62.19
   7   4  -2  770.82   29.90
  -7  -4  -2  790.72   68.19
   7   4  -2  705.73  111.89
  -7   4   2  786.02   90.69
  -7   4   2  750.12   31.90
   7   4  -2  703.83   90.59
  -7  -4  -2  786.02   31.40
   7   5   2  866.71  129.89
  -7  -5   2 1081.69   46.10
  -7   5  -2 1104.69   99.59
   7   5   2 1066.19   46.00
  -7   5  -2 1114.59   45.20
   7  -5  -2 1033.80   82.09
   7   5   2 1038.10   86.29
  -7   5  -2  978.50  149.09
   7   5   2 1043.70   43.60
   7  -5  -2 1075.79  121.89
  -7  -5   2 1100.49   45.30
  -7  -5  -2  977.70  131.69
   7   5  -2  979.60   83.19
  -7  -5  -2 1084.59   45.80
   7   5  -2 1144.19  101.89
  -7   5   2 1095.19   45.00
   7   5  -2 1010.20   42.30
  -7  -5  -2 1131.29   88.39
   7   5  -2 1016.60  119.19
   7   5  -2  929.31  146.99
   7   6   2  209.18    9.90
  -7   6  -2   79.29  112.69
   7   6   2  168.48   93.99
  -7  -6   2  209.08   13.80
   7   6   2  227.98   11.50
   7   6   2  217.78    9.90
   7  -6  -2  120.09   46.90
  -7   6  -2  199.68   12.60
   7   6   2  213.08   13.30
  -7   6  -2  144.89   60.19
  -7  -6   2  219.48   13.00
   7  -6  -2  321.67   96.19
   7   6   2  199.78   55.59
  -7  -6  -2  154.18   96.49
   7   6  -2  274.47  118.89
  -7  -6  -2  167.28   54.89
  -7   6   2  220.58   12.90
   7   6  -2  190.88   10.10
   7   6  -2  189.58   66.59
  -7  -6  -2  185.28   13.00
   7   6  -2  150.78   89.99
   7   6  -2  188.98   52.29
   7   7   2   56.49    5.70
  -7   7  -2   62.99    8.00
   7   7   2   57.19    5.60
  -7  -7   2   62.09    8.50
   7   7   2   52.79    6.50
  -7  -7   2   53.89    9.10
   7   7  -2   72.89    5.20
  -7   7   2   59.89    8.00
   7   7  -2   62.59    5.00
   7   7  -2   67.19    5.90
  -7  -7  -2   68.39    9.10
  -7  -8   2   12.20    7.70
   7   8   2    9.70    3.80
  -7  -8   2    6.60    5.50
   7   8   2   -0.80    4.00
   7   8   2    9.70    3.80
  -7   8  -2    8.90    5.90
  -7  -8  -2    3.60    9.20
  -7   8   2    6.60    5.10
   7   8  -2    6.90    4.00
   7   8  -2    9.10    3.50
   7   8  -2   10.50    3.50
   7   9   2   73.89   10.40
   7   9   2   82.99    9.20
   7   9   2   84.89    9.60
   7   9  -2  101.69    9.10
  -7   9   2   83.39   11.90
   7   9  -2  100.89    9.00
   7   9  -2  102.09    9.70
  -8   0   2 1002.90   41.60
  -8   0  -2 1036.80   41.90
  -8   0  -2 1061.59   41.70
  -8   0  -2 1036.90   41.30
   8   1   2  420.16   19.30
  -8   1  -2  442.56   19.10
  -8  -1   2  411.36   19.30
  -8   1  -2  457.45   18.50
  -8  -1  -2  433.06   25.30
  -8  -1  -2  432.96   21.80
  -8  -1  -2  455.75   19.40
  -8   1   2  414.56   17.90
  -8  -1  -2  436.26   18.40
  -8  -1  -2  457.45   19.00
  -8   2  -2  981.10   39.30
  -8   2  -2  933.41   49.70
  -8   2  -2  965.10   52.79
  -8   2  -2  906.81   66.09
  -8  -2   2  993.80   40.10
  -8   2  -2  945.51   38.70
  -8  -2   2  976.80   38.50
   8   2   2  967.30   40.00
  -8   2  -2  959.20   64.09
  -8  -2  -2  927.81   39.70
  -8  -2  -2  924.91   38.70
  -8  -2  -2  922.01   38.70
  -8   3  -2   12.80   28.40
  -8   3  -2   33.40   40.80
  -8   3  -2   84.29   62.29
  -8   3  -2   51.19    4.60
  -8   3  -2   34.00   22.50
   8   3   2   49.70    5.50
   8   3   2   50.99    4.40
   8   3   2   41.30   54.29
  -8  -3   2   51.19    4.80
   8   3   2   51.69   29.70
  -8   3  -2   43.20    4.60
  -8   3   2   37.70   21.40
  -8  -3  -2   35.30    6.50
  -8  -3  -2   41.80    4.20
   8   3  -2   14.30   47.80
   8   3  -2   47.50   25.50
  -8  -3  -2   76.89   26.30
  -8  -3  -2  -27.80   48.30
  -8   3   2    0.40   38.20
  -8   3   2   51.09   18.60
  -8   3   2   11.20   32.10
   8   4   2 1279.67  126.69
  -8   4  -2 1370.76   84.39
  -8   4  -2 1146.69   93.09
  -8   4  -2 1390.16  136.59
   8   4   2 1339.67   52.79
  -8   4  -2 1286.77   53.59
  -8  -4   2 1376.66   55.09
   8   4   2 1324.87   54.79
  -8  -4   2 1310.27   53.59
   8   4   2 1266.97   90.79
  -8   4  -2 1196.98  114.69
   8   4  -2 1238.78   84.79
   8   4  -2 1241.78   94.19
  -8  -4  -2 1315.07   87.89
   8   4  -2 1088.59  128.89
  -8   4   2 1272.57   53.29
  -8  -4  -2 1216.28  123.89
  -8   4   2 1120.19  106.09
  -8   4   2 1344.87   80.49
  -8  -4  -2 1384.16   54.79
   8   4  -2 1400.26  119.29
  -8  -4  -2 1351.26   52.79
  -8  -5   2  318.87   17.50
  -8  -5   2  316.97   16.70
  -8   5  -2  173.18  122.29
   8   5   2  284.77  143.89
  -8   5  -2  322.27   16.30
  -8   5  -2  254.77   65.79
   8   5   2  249.88   69.59
  -8   5  -2  183.08   80.89
  -8   5  -2  264.77   48.40
   8   5   2  327.57   15.20
   8   5  -2  152.28   98.09
  -8  -5  -2  294.67   65.09
   8   5  -2  344.87   66.59
  -8  -5  -2  213.48  116.29
  -8  -5  -2  306.27   17.10
   8   5  -2  241.38   57.39
   8   5  -2  293.27   91.29
  -8   5   2  293.27   81.89
   8   5  -2  293.47   13.30
  -8   5   2  352.86   16.50
  -8   5   2  273.57   61.49
  -8  -6   2  694.63   33.00
   8   6   2  720.83  109.49
   8   6   2  681.73   30.10
  -8   6  -2  537.25  108.69
   8   6   2  621.14  155.28
  -8   6  -2  716.23   32.00
  -8   6  -2  870.41  161.88
  -8  -6   2  702.03   32.20
   8   6  -2  639.64  127.29
  -8   6   2  738.83   32.10
   8   6  -2  679.43   28.60
  -8  -6  -2  691.23   32.70
   8   6  -2  599.74   91.39
  -8  -6  -2  820.42  140.99
  -8  -6  -2  778.12   94.39
  -8  -7   2  247.88   16.20
  -8  -7   2  249.78   17.20
   8   7   2  242.48   13.80
  -8   7  -2  258.87   15.90
  -8  -7  -2  260.97   17.00
  -8   7   2  244.88   15.60
   8   7  -2  258.97   12.40
  -8  -8   2  991.00   43.40
  -8   8  -2  961.30   42.80
  -8   8   2  799.82   48.50
  -8   9  -2  283.87   19.80
  -8   9   2  284.57   19.70
  -9   0  -2    2.30    1.70
  -9   0   2    2.50    2.00
  -9   0  -2    4.70    2.00
  -9   0  -2    4.20    1.90
  -9  -1   2  124.99    8.00
  -9   1  -2  136.99    7.90
  -9   1  -2  132.69    7.20
  -9  -1  -2  152.08    7.30
  -9   1   2  119.59    6.50
  -9  -1  -2  140.39    7.60
  -9  -1  -2  139.59    8.00
  -9  -2   2  326.27   14.10
  -9   2  -2  285.77   14.70
  -9  -2   2  343.47   15.80
  -9   2  -2  287.47   14.20
  -9  -2  -2  319.37   15.50
  -9   2   2  301.97   13.80
  -9  -2  -2  317.37   14.40
  -9  -3   2  628.04   25.80
  -9   3  -2  531.85   41.80
  -9   3  -2  563.24   47.30
  -9   3  -2  593.44   25.80
  -9   3  -2  611.64   70.39
  -9   3  -2  575.74   26.00
  -9  -3   2  624.54   27.30
  -9  -3  -2  594.64   25.30
   9   3  -2  577.14   31.90
   9   3  -2  610.44   31.60
  -9  -3  -2  610.24   77.59
  -9  -3  -2  527.45   50.39
  -9   3   2  591.94   25.30
   9   3  -2  561.64   39.30
  -9  -3  -2  612.64   27.10
  -9  -4   2  356.16   18.70
   9   4   2  713.03  116.19
  -9   4  -2  385.96   56.99
  -9   4  -2  427.76   19.00
  -9  -4   2  363.16   19.90
  -9   4  -2  445.16   90.59
  -9   4  -2  341.17   62.69
  -9   4  -2  424.36   92.49
   9   4   2  364.36   17.80
   9   4   2  343.57   66.99
  -9   4  -2  443.96   19.10
   9   4  -2  414.16   62.89
   9   4  -2  574.44   98.19
  -9  -4  -2  414.96   20.30
  -9  -4  -2  275.77   81.19
  -9   4   2  452.55   84.99
  -9   4   2  378.26   18.40
   9   4  -2  304.87   78.69
  -9   4   2  367.76   44.90
  -9  -4  -2  430.06   18.10
  -9   4   2  400.76   51.29
   9   4  -2  333.47   74.49
  -9  -4  -2  409.86   60.49
  -9  -5   2  288.27   15.40
  -9   5  -2  186.58   58.89
   9   5   2  264.47   15.00
  -9   5  -2  242.28   14.70
  -9  -5   2  309.27   17.10
  -9   5  -2  216.98  108.49
   9   5  -2  304.47   89.79
  -9   5   2  266.07   59.49
  -9   5   2  243.18  105.59
  -9   5   2  279.57   14.90
   9   5  -2  475.75   69.99
  -9  -5  -2  270.67   16.40
  -9  -6   2  100.59   10.20
  -9   6  -2  105.69    9.70
   9   6   2  103.89    8.60
  -9  -6   2   98.49   11.40
  -9  -6  -2  106.19   11.10
   9   6  -2  103.79    6.00
  -9   6   2  100.79    9.20
  -9   7  -2   57.39    9.30
  -9  -7   2   50.09   10.30
   9   7   2   53.89    8.00
  -9   7   2   51.29    9.20
   9   7  -2   60.39    5.70
  -9   8  -2  124.69   13.10
  -9  -8   2  126.59   16.00
  -9   8   2  139.19   13.70
 -10   0  -2 2052.69   79.49
 -10   0  -2 2012.90   80.19
 -10   0   2 1989.50   79.49
 -10   1  -2  466.45   20.10
 -10   1  -2  459.95   19.20
 -10  -1   2  430.46   20.00
 -10   1   2  438.26   18.30
 -10  -1  -2  432.16   19.50
 -10  -1  -2  437.26   19.10
 -10  -1  -2  435.36   19.90
 -10   2  -2  996.20   40.50
 -10  -2   2  951.80   41.40
 -10  -2   2  998.70   39.50
 -10   2  -2 1003.90   39.90
 -10   2   2 1008.40   39.20
 -10  -2  -2  822.52   45.00
 -10  -2  -2 1001.00   39.90
 -10   3  -2  142.19    8.70
 -10  -3   2  132.69    8.60
 -10  -3   2  133.09   10.30
 -10   3  -2  142.79    9.30
 -10   3   2  147.59    8.10
 -10  -3  -2  129.99    9.90
 -10   3   2  137.99    8.20
 -10  -3  -2  134.89    8.20
 -10   4  -2 1160.88   74.09
 -10   4  -2 1309.77   54.59
 -10  -4   2 1330.57   55.99
 -10  -4   2 1344.77   54.49
 -10   4  -2 1323.17   54.49
 -10  -4  -2 1359.66   55.99
 -10   4   2 1302.27   53.99
 -10  -4  -2 1341.37   53.49
  10   4  -2 1314.07   65.09
 -10   5  -2   23.90   50.79
 -10  -5   2  118.19   10.20
 -10   5  -2  108.09    9.40
 -10   5  -2  109.69    9.10
  10   5   2  134.19    8.80
 -10  -5   2  114.79   11.80
 -10   5  -2  -47.70   95.99
  10   5  -2  197.48   45.70
 -10  -5  -2  109.39   11.40
  10   5  -2  104.09   84.39
 -10   5   2  113.09    9.20
 -10   5   2  121.69   68.99
 -10   5   2  -81.79   92.79
 -10   6  -2  346.07   19.50
 -10  -6   2  370.26   20.00
  10   6   2  349.87   17.80
 -10  -6   2  334.57   21.60
 -10  -6  -2  373.36   21.70
 -10   6   2  339.37   19.30
 -11   0  -2    2.10    2.90
 -11  -1   2  100.39    7.70
 -11   1  -2  104.29    7.40
 -11   1  -2  101.29    6.70
 -11  -1  -2  107.19    7.20
 -11  -1  -2  104.49    6.70
 -11  -1  -2  103.19    7.60
 -11   2  -2  270.67   14.80
 -11  -2   2  314.47   15.90
 -11   2  -2  279.47   14.20
 -11   2   2  297.27   13.30
 -11  -2  -2  301.27   14.20
 -11  -2  -2  307.57   15.60
 -11   3  -2  119.39    9.20
 -11  -3   2  120.49   10.70
 -11   3  -2  112.99    8.40
 -11  -3   2  129.09   10.50
 -11   3   2  124.39    8.10
 -11  -3  -2  126.19    7.90
 -11  -3  -2  111.09   10.30
 -11   3   2  119.49    7.70
 -11  -4   2  573.24   29.50
 -11   4  -2  637.34   28.60
 -11  -4   2  617.34   30.20
 -11   4  -2  649.24   28.40
 -11   4   2  599.54   27.20
 -11  -4  -2  655.83   27.10
 -11   4   2  594.94   27.60
 -11  -4  -2  662.93   30.00
 -11   5  -2   33.50    8.40
 -11  -5   2   36.80    9.10
 -11  -5   2   40.10    9.20
 -11   5  -2   38.70    7.80
 -11   5   2   47.40    7.80
 -11  -5  -2   36.40   11.00
 -12   0  -2  745.43   31.70
 -12  -1   2  314.17   17.00
 -12   1  -2  393.66   16.90
 -12   1  -2  387.76   18.00
 -12  -1  -2  387.76   17.50
 -12   2  -2  492.45   23.10
 -12   2  -2  493.15   22.30
 -12  -2   2  505.15   23.70
 -12  -2  -2  506.25   22.30
 -12  -2  -2  465.95   23.30
 -12   2   2  543.75   21.20
   0   0   3   -7.20    0.60
   0   0   3  -10.00   16.70
   0   0  -3  -22.50   13.70
   0   0   3  -11.40   10.50
   0   0  -3   -7.40    0.70
   0   0  -3  -25.00    7.90
   0   0   3   -7.00    0.80
   0  -1  -3 7086.59  310.47
   0   1  -3 7323.07  297.87
   0  -1   3 7015.30  298.27
   0  -1  -3 7160.98  294.17
   0   1   3 7278.07  295.57
   0   1   3 7299.77  313.17
   0  -1   3 6889.51  316.07
   0   1  -3 7122.09  317.07
   0  -2   3    3.30    1.60
   0   2   3    2.90    1.20
   0   2  -3    6.80   30.10
   0  -2   3    4.90   16.30
   0   2  -3    1.00   14.70
   0   2   3   -8.60   23.30
   0  -2  -3    3.30    1.30
   0   2   3    1.80    1.10
   0   2  -3    1.90    1.20
   0  -2   3    1.00   26.20
   0  -2  -3   18.50   12.60
   0  -2  -3    2.20    1.10
   0  -2  -3   11.30   25.80
   0   2   3    4.10    1.50
   0   2   3   22.90   14.30
   0  -3   3  865.81   35.90
   0  -3  -3  865.51   57.49
   0   3   3  903.61   59.09
   0  -3  -3  961.70   75.19
   0   3   3  869.51   35.50
   0   3  -3  814.42   35.80
   0   3   3  907.11   35.20
   0   3  -3  868.31   59.69
   0   3  -3  905.81   89.09
   0   3   3  908.21   80.99
   0  -3  -3  851.81   35.40
   0   3  -3  829.72   64.09
   0   4  -3    4.00    2.30
   0   4  -3   38.30   23.50
   0  -4  -3    7.80    2.30
   0  -4   3    3.50    2.50
   0  -4  -3    8.40   19.70
   0   4   3    7.50    2.40
   0   4   3    6.10    2.30
   0   4   3   -0.90   19.70
   0   4   3    5.40   42.70
   0   4  -3   -9.60   24.10
   0   4  -3    1.50   31.30
   0  -4  -3   44.80   37.70
   0   4  -3   27.00   48.30
   0   5   3  730.73   30.90
   0  -5  -3  548.95   77.09
   0   5   3  779.32   64.59
   0   5   3  731.73   31.50
   0   5  -3  713.53   99.89
   0   5  -3  722.43   31.50
   0   5  -3  799.82   77.09
   0   5   3  724.53   30.30
   0   5  -3  730.23  100.09
   0  -5   3  726.43   31.50
   0   5   3  654.63   81.09
   0  -5  -3  735.43   30.70
   0  -5  -3  669.13   61.59
   0   5  -3  701.63   64.89
   0   6   3    2.00    2.20
   0  -6   3    3.80    2.30
   0   6   3    1.90    2.00
   0   6  -3   -9.00   41.50
   0   6  -3   -4.80   70.39
   0  -6   3    4.10    2.30
   0   6   3  -34.50   48.60
   0   6   3    1.40    2.10
   0  -6  -3   32.70   55.19
   0   6   3  -12.00   30.10
   0  -6  -3  -21.80   32.00
   0   6  -3   13.60   32.20
   0   6  -3   -3.40   60.59
   0   7  -3  607.74   93.19
   0   7  -3  476.65   23.20
   0  -7  -3  257.57   95.89
   0  -7   3  478.45   23.30
   0   7   3  417.36   94.59
   0   7   3  454.15   23.20
   0   7   3  465.95   22.30
   0   7  -3  495.35   74.59
   0  -7  -3  535.45   75.69
   0   7  -3  470.55  111.89
   0   7   3  576.74   77.19
   0  -7  -3  479.05   22.20
   0  -7   3  480.95   22.50
   0   7  -3  440.16  100.99
   0   7   3  466.75   21.60
   0   8   3   10.40    3.70
   0   8  -3  -97.89   76.59
   0   8  -3  -27.10   64.79
   0  -8  -3  -29.60  112.19
   0   8   3    9.20    4.00
   0   8  -3  270.77  109.69
   0  -8   3    9.40    4.00
   0   8  -3   10.60    3.80
   0   8  -3   28.20   56.49
   0   8   3   36.10   56.79
   0  -8  -3   13.10    4.10
   0   8   3  -85.99   80.59
   0  -8   3   10.90    3.90
   0  -8  -3    5.60   55.79
   0  -9   3  427.06   22.40
   0   9  -3  496.15  111.49
   0   9  -3  372.86   25.10
   0  -9  -3  260.87  148.69
   0   9  -3  438.26  152.68
   0   9   3  431.86   21.10
   0   9   3  347.57   23.80
   0   9   3  431.06   91.59
   0  -9  -3  337.07   80.69
   0   9  -3  362.06  127.89
   0   9   3  290.87  125.09
   0   9  -3  318.37  108.59
   0  10   3  106.59   90.79
   0  10  -3  -44.10   90.09
   0 -10  -3   35.80  129.59
   0  10  -3  152.38  124.59
   0  10  -3  250.57  183.88
   0 -10  -3   82.29   85.29
   0  10   3   86.39  187.18
   0  10  -3  325.97  239.98
   0  11   3  247.98   18.60
   0  11  -3  229.58   17.90
   1   0   3  -10.40   16.40
  -1   0   3   21.10   19.10
  -1   0  -3   -6.20   19.70
   1   0   3    2.20    1.20
   1   0  -3   12.30   10.00
  -1   0  -3    8.00    9.90
   1   0   3    3.40    1.50
  -1   0  -3    1.80    1.10
  -1   0   3    3.20    1.40
   1   0  -3    0.70   19.00
  -1   0   3   20.80   10.70
  -1   0   3    2.00    0.90
   1   0   3    7.30   11.30
   1   1   3  259.67   27.20
   1  -1  -3  239.88   36.40
   1   1   3  245.78   10.90
  -1  -1   3  224.48   35.90
  -1  -1   3  254.17   28.20
   1   1   3  236.48   34.80
  -1   1  -3  244.28   11.00
  -1   1  -3  239.68   41.80
  -1   1  -3  223.98   26.40
   1   1   3  246.18   10.80
   1  -1  -3  255.97   24.60
   1  -1  -3  242.08   10.30
   1  -1   3  226.18   28.00
  -1  -1  -3  248.98   10.90
   1   1  -3  255.37   41.70
   1  -1   3  237.08   11.00
  -1  -1  -3  245.28   10.50
  -1  -1  -3  221.88   31.70
  -1   1   3  239.48   10.20
  -1   1   3  274.47   34.80
  -1   1   3  238.28   10.70
   1   1  -3  249.97   26.70
  -1   1   3  261.67   26.50
   1  -1   3  261.17   45.70
  -1  -1  -3  226.28   24.00
   1   1  -3  245.48   10.90
  -1   1   3  238.08   10.60
   1   2   3 2052.69   86.19
   1  -2  -3 2195.98   85.79
  -1   2  -3 2150.18   86.49
  -1   2  -3 2271.57  134.09
   1   2   3 2116.79   86.19
   1   2   3 2266.17  107.69
   1   2   3 2231.18  124.39
   1   2   3 2080.79   85.69
  -1  -2   3 2163.68  130.49
   1  -2  -3 2257.87  121.99
  -1   2  -3 2444.76  113.99
   1  -2  -3 2360.06  106.59
   1  -2  -3 2151.88   85.89
  -1  -2   3 2251.67  112.49
  -1  -2   3 2113.59   86.39
  -1   2   3 2197.38  105.69
   1  -2   3 2327.07  134.79
  -1  -2  -3 2120.99   85.79
  -1  -2  -3 2419.46  108.39
   1   2  -3 2303.17  111.99
  -1   2   3 2342.97  125.29
  -1  -2  -3 2200.08  124.19
   1   2  -3 2251.37  132.69
  -1  -2  -3 2132.89   86.19
  -1   2   3 2165.68   85.69
  -1   2   3 2123.19   85.89
   1  -2   3 2231.78  114.29
   1   2  -3 2118.09   86.29
   1  -2   3 2133.39   86.39
  -1  -3   3   89.89    5.80
   1   3   3  105.99   35.40
   1  -3  -3  105.99   41.00
   1   3   3   86.49    5.50
   1  -3  -3   97.09   22.00
  -1   3  -3   90.79   42.40
   1   3   3   87.09    5.60
  -1   3  -3  144.09   31.90
  -1   3  -3   67.49   22.30
   1  -3  -3   84.59    5.10
  -1   3  -3   87.19    5.70
   1   3   3   90.09    5.60
   1   3   3  101.49   24.40
   1   3   3   87.79    5.00
  -1  -3  -3   80.29    5.00
   1   3  -3   80.79    5.50
   1   3  -3   64.79   23.80
  -1  -3  -3   82.19    5.30
   1   3  -3  112.39   44.10
  -1   3   3   82.59   22.60
  -1   3   3  119.49   40.50
  -1  -3  -3   93.39   37.10
   1   3  -3   70.99   22.70
  -1   3   3   90.19    5.20
   1   3  -3   80.39   31.00
  -1   3   3   87.99    5.00
   1  -3   3   89.59    5.70
  -1  -3  -3   87.59   21.30
   1  -4  -3  605.94   68.89
   1   4   3  661.83   28.40
   1   4   3  645.14   28.10
   1   4   3  590.74   54.79
   1  -4  -3  673.93   27.60
   1   4   3  644.74   27.40
  -1   4  -3  675.43   28.60
  -1   4  -3  620.94   80.79
   1  -4  -3  660.13   54.69
  -1  -4   3  658.03   28.50
  -1   4  -3  622.84   62.89
  -1   4  -3  715.83   58.09
  -1   4  -3  629.24   90.29
   1   4   3  589.74   71.09
   1  -4   3  657.53   28.40
  -1   4   3  674.13   27.80
  -1   4   3  622.54   79.19
   1   4  -3  653.33   28.30
   1   4  -3  629.44   93.19
   1   4  -3  680.53   63.09
   1   4  -3  778.22   86.19
  -1   4   3  675.63   27.50
  -1  -4  -3  662.83   28.10
  -1  -4  -3  591.14   53.29
  -1   4   3  663.03   28.40
  -1   4   3  699.03   55.79
   1   4  -3  649.83   55.89
   1   5   3   12.30    3.00
  -1   5  -3   92.39   55.29
  -1   5  -3   -3.80   69.39
   1   5   3  -10.00   25.00
  -1   5  -3   30.20   36.30
  -1  -5   3   11.50    3.20
  -1   5  -3    6.00    2.70
   1   5   3   20.20   51.29
   1  -5  -3  -37.30   23.40
   1  -5  -3    8.50    2.50
  -1   5  -3  -18.00   23.40
   1   5   3   10.70    2.60
   1  -5  -3    2.90   53.39
   1   5   3   14.20    3.10
   1   5  -3  -20.30   36.60
  -1  -5  -3   13.50    2.90
  -1   5   3   57.29   43.50
   1   5  -3   10.80    2.90
   1   5  -3   -0.20   30.10
  -1  -5  -3  -41.30   34.00
  -1   5   3    7.50    2.50
  -1   5   3   10.10    2.50
  -1   5   3   31.10   26.80
  -1   5   3    8.20    2.80
   1   5  -3   32.50   53.29
  -1  -5  -3    9.00   24.70
   1  -5   3    8.00    3.00
   1   5  -3   35.90   27.80
   1  -6  -3  781.02   74.59
   1   6   3  704.33  113.99
  -1   6  -3  806.72   87.39
  -1  -6   3  647.84   31.30
  -1   6  -3  923.21  119.69
   1  -6  -3  787.92   30.20
   1  -6  -3  664.13  116.29
   1   6   3  643.24   30.80
   1   6   3  639.64   30.30
  -1   6  -3  849.22  133.99
   1   6   3  593.14   30.80
  -1  -6   3  599.04   31.50
  -1   6  -3  739.53   75.29
   1   6   3  782.22   73.79
  -1   6  -3  764.12   31.50
  -1   6   3  705.93   30.10
   1   6  -3  702.43   31.00
  -1  -6  -3  631.94   69.39
  -1  -6  -3  692.43   30.80
   1   6  -3  684.73   86.99
   1  -6   3  704.03   30.10
   1   6  -3  858.01  114.89
  -1   6   3  757.32   98.09
   1  -6   3  718.73   31.10
  -1  -6  -3  778.62  113.19
  -1   6   3  714.73   31.20
   1   6  -3  685.13   93.49
  -1   6   3  705.63   29.80
  -1   6   3  698.73   73.79
   1   6  -3  723.23   73.39
   1   7   3  127.09    9.40
   1   7   3  114.29   70.79
  -1   7  -3   96.79   84.29
  -1   7  -3  137.49   48.90
  -1  -7   3  123.99    9.60
  -1   7  -3  126.49    9.30
  -1   7  -3  140.59  110.69
  -1  -7   3  130.79    9.20
   1  -7  -3    7.10   92.79
   1  -7  -3  111.59   10.40
   1   7   3  127.29    9.00
   1   7   3  135.39    8.40
   1   7   3   85.69   45.40
   1  -7  -3   77.89   45.00
  -1   7  -3  204.28   59.99
  -1  -7  -3  110.99   44.20
   1   7  -3  178.48   88.49
  -1   7   3  127.99    8.30
   1  -7   3  120.09    8.90
  -1  -7  -3  136.29   73.19
  -1   7   3  130.59    8.70
  -1  -7  -3  135.19    9.10
   1   7  -3  165.98   47.50
   1  -7   3  127.29    9.60
  -1   7   3  118.09    9.30
   1   7  -3  210.28   90.79
   1   7  -3  103.09   62.39
   1   7  -3  126.79    9.30
  -1   7   3  125.99   87.59
  -1   7   3  123.59   48.70
  -1   8  -3  -18.20  130.09
   1   8   3    4.80    3.40
   1  -8  -3   30.60   83.39
  -1  -8   3    7.00    3.80
  -1   8  -3 -132.29   77.99
   1   8   3  -24.10   50.69
  -1   8  -3   52.49   58.39
   1  -8  -3    9.00   57.49
   1   8   3  -50.49   79.69
  -1   8  -3   87.09   64.79
   1   8   3    8.20    3.60
   1   8   3    9.10    3.40
  -1   8  -3    7.60    3.50
   1   8  -3  156.78  123.49
   1   8  -3  -38.50   55.29
  -1  -8  -3   17.30   56.29
  -1   8   3 -132.09   97.59
  -1   8   3  -66.49   52.79
   1   8  -3   10.70    3.80
   1  -8   3   11.00    3.80
  -1   8   3    6.70    3.60
  -1   8   3    7.20    3.20
   1  -8   3    8.40    4.00
  -1  -8  -3   14.20    4.20
   1   8  -3   91.59  103.29
   1   8  -3   24.90   66.89
  -1  -8  -3   65.89  108.29
  -1   9  -3   58.89    8.40
  -1   9  -3   88.19   95.09
  -1   9  -3  -24.40  111.99
   1  -9  -3  -57.39   66.19
   1   9   3   33.90  141.09
   1   9   3   64.99    7.90
  -1   9  -3  -12.90   69.79
   1  -9  -3   59.99    7.80
   1  -9  -3  -58.89  140.19
   1   9   3   58.89    7.60
  -1   9  -3  127.99  184.68
   1   9   3   88.29   77.69
  -1   9   3   56.59    7.40
   1   9  -3  148.19   76.59
  -1  -9  -3  182.38  111.19
   1   9  -3   32.40  144.29
   1   9  -3  158.58  128.09
  -1   9   3  128.59   74.89
   1  -9   3   55.79    8.00
  -1   9   3  115.69  112.29
  -1  -9  -3   97.99   72.59
  -1   9   3   56.99    8.50
   1   9  -3  138.29   94.39
  -1  10  -3  724.33   39.70
  -1 -10   3  781.82   38.10
   1 -10  -3  757.22   35.90
  -1  10  -3  812.72  177.38
   1  10   3  928.71  216.68
  -1  10  -3  623.54  120.89
   1  10   3  818.82   36.90
  -1  10  -3  632.44  218.68
   1  10   3  764.12   35.60
  -1  10  -3  615.14  207.68
   1 -10  -3  552.24  111.99
   1  10   3  813.02  143.69
   1 -10  -3 1062.19  223.98
  -1 -10   3  821.62   37.60
   1  10   3  838.82   45.30
  -1  10   3  641.64  139.89
   1  10  -3  803.32   39.30
  -1  10   3  848.72  218.08
   1  10  -3  604.54  176.18
   1  10  -3  504.15  259.97
  -1 -10  -3  774.92   36.70
  -1 -10  -3  949.31  144.19
  -1 -10  -3 1226.08  203.78
   1 -10   3  787.32   36.70
  -1  10   3  761.32   40.20
   1  10  -3  540.15  122.19
   1  10  -3  613.54  145.69
   1 -10   3  787.02   37.80
   1 -11  -3 -333.37  228.58
   1 -11  -3  -44.00  121.59
  -1  11   3  103.99  144.79
  -1  11   3  -36.40  187.28
  -2   0   3  823.42   32.80
   2   0   3  850.91   33.60
  -2   0   3  835.92   33.60
  -2   0  -3  857.61   33.90
  -2   0   3  901.41   64.99
   2   0  -3  824.12   32.90
  -2   0  -3  705.53   55.09
   2   0  -3  843.02   33.40
  -2   0   3  854.51   49.80
   2   0   3  849.52   33.70
  -2   0  -3  779.92   73.29
   2   0   3  841.52   33.80
   2   0  -3  874.41   49.10
   2   0  -3  879.61   62.79
   2  -1  -3 2666.13  118.49
  -2  -1   3 2528.75  121.79
   2   1   3 2459.45  102.29
  -2  -1   3 2617.44  140.69
  -2  -1   3 2464.85  102.19
  -2   1  -3 2705.93  156.78
  -2   1  -3 2646.84  131.79
   2   1   3 2505.85  101.99
   2  -1  -3 2739.83  133.89
  -2  -1  -3 2683.93  121.99
  -2   1   3 2668.93  135.99
  -2  -1  -3 2484.25  102.29
  -2  -1  -3 2763.72  139.29
  -2   1   3 2732.53  120.29
   2   1  -3 2639.84  138.99
   2   1  -3 2821.22  123.09
   2   2   3   24.30    2.50
  -2  -2   3   26.50   18.70
   2  -2  -3   55.49   15.30
  -2  -2   3   24.30    2.70
   2   2   3   25.10    2.30
  -2   2  -3   37.40   18.20
   2  -2  -3   34.60   25.20
   2   2   3   22.00   23.80
  -2   2  -3   18.60   30.60
  -2  -2   3   34.00   31.70
  -2   2  -3   25.30    2.70
   2   2   3    3.30   14.00
   2   2   3   22.40    2.60
  -2   2   3   55.49   16.40
   2   2  -3   23.20    2.50
   2  -2   3  -44.20   28.00
  -2  -2  -3    6.30   20.20
  -2  -2  -3   20.10    2.50
   2  -2   3  -13.90   16.20
   2   2  -3    5.40   29.80
  -2  -2  -3   20.70    2.20
  -2   2   3   23.90    2.20
  -2   2   3   49.10   28.50
   2   2  -3   16.60   16.30
  -2  -2  -3   22.90    2.50
   2  -2   3   30.30    2.80
  -2  -2  -3   27.00   14.50
  -2   3  -3  508.85   22.30
   2  -3  -3  509.15   61.79
   2   3   3  517.95   58.99
   2   3   3  507.85   21.90
  -2   3  -3  537.25   45.90
   2   3   3  505.65   21.40
  -2  -3   3  504.35   22.20
  -2   3  -3  524.75   75.29
   2  -3  -3  532.85   44.20
   2   3   3  505.85   45.00
   2   3   3  498.95   22.00
  -2   3  -3  488.05   48.90
   2  -3  -3  504.75   21.30
   2   3   3  500.35   22.20
  -2  -3  -3  506.55   21.60
  -2  -3  -3  554.84   57.29
   2   3  -3  430.86   64.99
   2  -3   3  477.15   22.00
  -2  -3  -3  531.05   44.10
  -2   3   3  555.64   57.69
   2   3  -3  560.84   74.59
  -2   3   3  586.94   44.80
  -2  -3  -3  511.05   22.10
   2   3  -3  468.65   43.80
  -2   3   3  544.95   21.60
   2   3  -3  511.45   22.00
   2   3  -3  480.95   49.10
  -2   3   3  561.14   21.50
  -2   4  -3   14.30   23.50
   2   4   3   39.30    3.90
   2  -4  -3   28.00    3.00
   2   4   3   40.00    3.80
  -2   4  -3   18.80   23.40
   2   4   3   27.60   23.40
  -2   4  -3   49.60   51.79
  -2   4  -3   27.00    3.60
  -2   4  -3   26.00   34.40
  -2  -4   3   38.60    4.10
   2  -4  -3    8.80   19.50
   2   4   3   37.50    3.30
   2   4   3   53.89   36.70
   2  -4  -3   29.10   30.20
   2   4   3   40.20    3.90
  -2   4   3   27.30    3.10
   2  -4   3   25.90    3.60
   2   4  -3  -24.10   42.80
  -2  -4  -3    9.60   21.00
  -2  -4  -3   37.80    3.80
   2   4  -3   34.90    3.70
   2   4  -3   56.19   28.60
   2   4  -3   85.99   53.99
   2   4  -3   24.90   22.10
  -2  -4  -3   35.10    3.30
  -2   4   3   36.30   35.50
  -2   4   3   29.00    3.00
  -2   4   3   17.50   22.40
  -2  -4  -3   76.49   43.80
   2   5   3 3118.49  122.79
  -2   5  -3 3138.59  169.98
   2   5   3 3178.78  122.89
   2   5   3 3138.69  160.58
  -2   5  -3 2917.91  122.69
  -2  -5   3 3180.68  123.09
  -2  -5   3 3137.59  122.69
  -2   5  -3 3092.09  196.48
   2  -5  -3 2953.60  157.08
   2   5   3 3237.08  121.69
  -2   5  -3 3291.17  215.28
   2   5   3 3158.18  189.38
   2  -5  -3 2943.81  121.39
  -2   5  -3 3114.19  160.48
   2  -5  -3 3056.29  191.48
   2   5  -3 3043.80  188.88
  -2   5   3 3198.48  121.79
   2   5  -3 2885.51  202.68
   2   5  -3 2915.91  122.39
  -2  -5  -3 3013.20  122.39
  -2   5   3 3333.27  160.88
  -2   5   3 3089.69  121.69
   2   5  -3 3140.09  160.38
  -2  -5  -3 3022.60  157.88
  -2  -5  -3 2983.80  186.58
   2   5  -3 2941.11  170.08
  -2   5   3 3442.86  195.88
  -2   5   3 3114.39  122.79
   2  -5   3 3135.19  122.69
  -2   6  -3   95.59   46.00
   2   6   3   53.99    5.70
   2  -6  -3   56.39   36.30
  -2   6  -3   -3.20   89.09
  -2   6  -3   58.39    5.90
   2  -6  -3   -2.40   56.39
   2   6   3   91.49   35.00
  -2   6  -3   82.99   75.19
   2   6   3  100.29   58.39
  -2  -6   3   59.19    5.90
   2  -6  -3   64.79    5.20
   2   6   3   58.79    5.20
  -2   6  -3   21.20   37.10
   2   6   3   57.29    5.80
  -2  -6  -3  -37.60   50.49
  -2  -6  -3   47.80    5.40
   2   6  -3   72.79   86.69
   2   6  -3   18.10   34.60
   2   6  -3  138.49   75.19
   2  -6   3   70.59    5.50
   2  -6   3   70.49    6.30
  -2  -6  -3   31.90   35.40
   2   6  -3   51.79    5.60
  -2   6   3   75.89   36.50
  -2   6   3   73.29    6.40
  -2   6   3   70.89    5.50
  -2   6   3   97.49   72.59
   2   6  -3   48.90   49.00
  -2   6   3   75.39    5.50
   2   7   3 3046.80  230.68
   2  -7  -3 3411.36  241.68
   2   7   3 3241.38  134.99
   2  -7  -3 3440.86  187.48
   2   7   3 3301.57  135.29
  -2   7  -3 3373.46  188.68
  -2  -7   3 3399.06  135.69
   2   7   3 3368.66  188.08
  -2  -7   3 3425.06  135.09
  -2   7  -3 3697.03  256.97
  -2   7  -3 3360.86  135.59
  -2   7  -3 3555.44  231.48
   2  -7  -3 3509.15  133.89
   2   7   3 3443.26  133.79
  -2   7  -3 3514.85  205.88
   2   7  -3 3455.25  187.98
  -2   7   3 3298.07  185.98
   2   7  -3 3423.96  230.48
   2   7  -3 3556.14  209.28
   2   7  -3 3627.84  254.07
  -2  -7  -3 3461.05  134.79
  -2  -7  -3 3546.15  189.88
  -2   7   3 3354.96  225.58
  -2   7   3 3279.97  133.89
  -2  -7  -3 3325.17  222.88
  -2   7   3 3384.06  133.89
   2   7  -3 3431.36  135.29
   2  -7   3 3288.57  135.09
  -2   7   3 3232.98  135.39
   2  -7   3 3312.47  133.89
   2  -8  -3  297.77   14.90
   2  -8  -3  252.17  119.79
  -2   8  -3  278.17  122.89
   2   8   3  239.88   15.40
   2   8   3  200.18  119.39
   2   8   3  315.47   65.99
  -2   8  -3  361.66  105.09
   2  -8  -3  309.57   71.49
  -2   8  -3  280.97   16.40
  -2   8  -3  289.87   69.09
  -2   8  -3  357.36   84.29
   2   8   3  236.08   15.50
  -2   8   3  279.97   16.50
   2   8  -3  431.66   90.39
   2   8  -3  279.17   68.09
  -2  -8  -3  209.18   63.89
  -2  -8  -3  424.36  126.79
   2   8  -3  592.74  132.89
  -2   8   3  463.75   86.19
   2  -8   3  288.97   16.30
  -2   8   3  273.17   14.70
  -2   8   3  316.27   95.49
   2   8  -3  242.88   15.40
  -2   8   3  279.37   14.90
   2  -8   3  284.27   15.10
   2   8  -3  125.09  106.49
   2  -9  -3 1875.41  151.78
   2  -9  -3 1850.71   74.19
  -2   9  -3 1766.32  206.28
   2  -9  -3 1650.93  235.98
  -2   9  -3 1662.93  233.78
  -2   9  -3 1978.50  160.78
   2   9   3 1779.32   73.89
   2   9   3 1966.00  238.98
  -2  -9   3 1775.52   75.49
  -2   9  -3 1735.03   76.09
   2   9   3 1864.11  155.28
   2   9   3 1766.02   75.59
  -2   9  -3 1882.81  181.28
  -2   9   3 1810.12   76.59
  -2   9   3 1823.12   74.29
  -2  -9  -3 1964.90  232.98
   2   9  -3 1836.92  207.68
  -2   9   3 1801.42  233.68
  -2  -9  -3 1797.92   75.29
   2   9  -3 1580.54  155.88
  -2   9   3 1806.62   74.39
  -2   9   3 1965.40  159.88
   2   9  -3 1721.03  184.28
  -2  -9  -3 1641.34  147.69
   2   9  -3 1783.42   76.49
   2   9  -3 1946.11  277.87
   2  -9   3 1855.71   74.59
  -2 -10   3   16.80    6.70
  -2  10  -3   16.10    5.80
  -2 -10   3   18.30    7.30
  -2  10  -3 -173.38  148.29
   2 -10  -3   59.49   82.29
   2  10   3   21.20    7.30
   2  10   3   30.30    8.50
   2 -10  -3   66.09  138.89
   2  10   3   17.70    7.10
  -2  10  -3  140.99  174.88
   2 -10   3   32.90    9.80
   2  10  -3 -140.99  240.98
   2  10  -3   21.80    7.90
  -2 -10  -3   17.20    6.40
  -2  10   3   29.10    8.50
   2  10  -3  231.38  131.99
  -2  11  -3  266.47  151.08
   2 -11  -3  302.17   19.30
   2  11   3  309.27   20.90
  -2  11  -3  296.57   20.50
  -2  11  -3  580.64  333.17
   2  11  -3  344.47  168.88
   2  11  -3  293.87   20.20
  -2  11   3  275.77   20.20
   2  11  -3  244.28  318.67
   2 -11   3  296.37   19.90
   3   0  -3   13.10   10.40
   3   0   3   13.40   12.30
   3   0  -3   20.80   19.50
  -3   0  -3    9.00    1.60
  -3   0  -3    7.70    1.50
  -3   0  -3    8.00    1.70
   3   0   3    6.10    1.50
  -3   0  -3   32.60   14.60
  -3   0   3    7.20    1.40
  -3   0   3    2.80   23.30
   3   0   3    6.00    1.50
   3   0   3    4.20   23.70
  -3   0   3   18.50   12.00
   3   0   3    6.10    1.50
  -3   0  -3  -24.30   23.00
  -3   0   3    7.50    0.80
   3  -1  -3   71.79   15.60
   3   1   3   90.09    4.70
  -3   1  -3   79.49    4.60
   3  -1  -3   81.69   24.70
   3   1   3   83.09    4.60
  -3   1  -3   79.79    4.80
  -3   1  -3   57.79   32.20
  -3  -1   3  105.69   21.90
   3   1   3   68.49   26.00
   3   1   3  105.29   21.70
   3   1   3   90.09    5.00
  -3   1  -3   79.39   19.50
  -3  -1   3   85.39    4.60
  -3  -1   3   54.69   30.10
  -3  -1  -3   92.49   21.20
  -3  -1  -3   84.79    4.60
  -3  -1  -3  121.29   30.40
  -3  -1  -3   84.49    4.80
   3   1  -3   61.79   15.60
   3  -1   3   78.29    4.50
  -3   1   3   69.39   16.20
  -3   1   3   81.59    4.00
   3  -1   3   81.69    4.50
   3  -1   3   80.89   19.40
   3  -1   3  183.38   40.60
   3   1  -3   75.79   29.10
  -3  -1  -3   85.59    4.90
  -3   1   3  113.89   29.60
   3   1  -3   82.29    4.10
   3   2   3   75.39   34.60
   3   2   3  114.39    6.30
   3  -2  -3  104.29   31.00
   3   2   3  115.29   25.40
   3   2   3  114.89    6.70
  -3   2  -3  159.28   32.10
  -3   2  -3  149.59   44.20
   3   2   3  113.79    6.10
   3  -2  -3  129.29   22.80
  -3  -2   3  125.89    6.60
  -3   2  -3  118.89    6.60
   3   2   3  109.79    6.20
   3   2  -3  170.78   43.50
  -3  -2  -3  142.99   34.60
   3   2  -3  146.69   28.60
   3  -2   3  169.28   29.00
   3  -2   3   53.99   36.10
  -3   2   3  102.59   32.50
  -3  -2  -3  153.68   26.30
  -3  -3   3  246.58   12.00
   3  -3  -3  224.38   50.29
   3   3   3  247.08   11.70
  -3   3  -3  275.97   65.19
  -3   3  -3  253.27   33.90
  -3   3  -3  199.78   38.50
  -3   3  -3  256.17   12.20
   3  -3  -3  275.27   34.50
   3   3   3  248.08   11.40
  -3   3  -3  222.58   43.60
   3   3   3  239.48   12.10
   3   3   3  256.27   11.90
  -3   3   3  250.17   11.30
   3   3  -3  254.07   11.60
  -3  -3  -3  255.07   11.50
  -3  -3  -3  250.27   12.10
  -3  -3  -3  258.97   36.60
   3   3  -3  197.38   55.79
   3  -3   3  244.88   11.80
  -3   3   3  299.17   51.69
  -3   3   3  205.08   32.40
  -3  -3  -3  279.87   49.40
   3   3  -3  230.98   52.49
   3   3  -3  224.38   40.60
  -3   3   3  236.68   11.00
   3   3  -3  201.38   32.20
  -3   4  -3 2621.14  172.58
   3   4   3 2249.87  151.58
   3   4   3 2493.25   99.89
  -3   4  -3 2647.34  162.98
  -3   4  -3 2567.04  131.49
   3   4   3 2500.35   98.59
  -3   4  -3 2542.65  140.19
   3  -4  -3 2401.46   98.19
   3   4   3 2434.26   99.09
   3   4   3 2590.94  132.69
   3  -4  -3 2743.63  160.78
   3   4   3 2498.95   99.49
   3  -4  -3 2639.84  129.89
  -3  -4   3 2552.14   99.79
  -3   4  -3 2409.86   99.59
   3   4  -3 2520.35   99.19
   3   4  -3 2574.64  141.29
   3  -4   3 2400.16   99.19
  -3  -4  -3 2695.73  160.48
  -3   4   3 2442.86   98.39
  -3   4   3 2520.95  155.58
   3   4  -3 2630.04  175.68
  -3  -4  -3 2602.04  131.29
  -3   4   3 2603.04  129.89
  -3   4   3 2430.06   98.59
  -3  -4  -3 2527.25   99.59
  -3  -4  -3 2438.56   98.69
   3   5   3  325.47   72.49
   3  -5  -3  472.95   89.19
   3   5   3  458.45   20.80
  -3   5  -3  464.35   75.99
   3   5   3  471.85   20.20
   3   5   3  468.75   21.20
  -3   5  -3  468.95   98.69
   3  -5  -3  431.16   19.70
   3   5   3  468.85   21.50
  -3   5  -3  528.15   57.89
  -3  -5   3  463.45   21.40
  -3  -5   3  474.45   21.50
   3   5   3  525.05   60.69
  -3   5  -3  432.66   21.20
  -3   5  -3  497.95   67.19
   3  -5  -3  470.35   64.99
   3   5  -3  338.57   95.99
  -3  -5  -3  453.35   21.10
  -3   5   3  458.15   21.30
  -3   5   3  551.04   72.59
   3   5  -3  458.05   20.90
   3   5  -3  467.35   68.49
   3   5  -3  496.75   56.99
   3   5  -3  595.84   98.29
  -3  -5  -3  367.76   83.29
   3  -5   3  451.45   21.00
  -3   5   3  451.35   91.09
  -3   5   3  449.26   20.00
  -3  -5  -3  543.05   58.79
  -3   5   3  450.15   20.20
   3  -6  -3  300.27   82.69
  -3  -6   3  349.67   17.30
   3  -6  -3  347.37   60.59
   3   6   3  228.18   72.89
  -3   6  -3  305.87   67.39
   3  -6  -3  320.07   15.40
  -3   6  -3  257.37  101.49
   3   6   3  347.17   61.79
   3   6   3  355.26   16.70
  -3   6  -3  148.39   63.69
   3   6   3  340.87   15.80
   3   6   3  343.67   16.90
  -3  -6   3  350.46   17.40
  -3   6  -3  294.37   59.99
   3   6   3  343.07   17.10
  -3   6  -3  319.97   17.00
  -3  -6  -3  221.68   81.29
  -3   6   3  367.36   79.49
   3  -6   3  329.37   15.70
  -3   6   3  315.17   15.50
  -3   6   3  315.87   16.90
  -3   6   3  261.67   49.50
  -3  -6  -3  368.26   57.09
   3   6  -3  348.87   16.80
   3   6  -3  340.97   62.59
  -3  -6  -3  349.37   16.90
   3   6  -3  257.07   74.89
   3   6  -3  319.67  106.49
   3  -6   3  318.37   16.60
  -3   6   3  324.87   15.80
   3   6  -3  379.96   79.49
   3   7   3   80.39   48.50
  -3  -7   3   43.20    6.50
  -3   7  -3  -79.29   76.19
   3  -7  -3  -20.70   45.50
  -3   7  -3  -74.49   52.39
   3   7   3   41.70    5.80
   3   7   3   40.80    5.90
   3  -7  -3  100.29   97.99
  -3   7  -3  156.98  101.69
   3   7   3  144.59   97.79
   3  -7  -3   48.70    5.10
   3   7   3   37.80    4.90
  -3   7  -3   47.30    6.10
  -3   7  -3   -5.90   45.80
  -3   7   3   47.80    6.20
   3  -7   3   51.29    5.40
  -3  -7  -3   49.10    7.90
  -3  -7  -3   40.00   86.19
  -3   7   3   44.50    5.50
   3   7  -3   88.79   69.09
  -3   7   3   46.50    5.00
   3   7  -3   44.10    5.60
  -3   7   3   94.09   45.10
   3   7  -3 -103.39  114.69
   3   7  -3  122.69   59.29
   3  -7   3   39.00    6.00
  -3  -7  -3   50.89   42.30
   3   7  -3   60.29   46.10
  -3   7   3  245.68  100.69
  -3   8  -3  402.76  141.19
  -3  -8   3  495.75   24.80
  -3   8  -3  427.66   90.99
   3   8   3  479.75   24.00
   3  -8  -3  797.42  169.58
   3   8   3  477.75   24.10
  -3   8  -3  447.16   24.20
  -3   8  -3  398.66  152.18
   3   8   3  420.16  133.89
  -3   8  -3  333.77   74.29
   3  -8  -3  470.55   22.10
   3   8   3  479.45   94.69
   3  -8  -3  583.04   93.39
   3  -8   3  493.75   24.00
  -3   8   3  644.04   93.79
   3   8  -3  760.12  137.69
  -3   8   3  668.23  146.69
  -3  -8  -3  467.25   90.89
   3   8  -3  473.35   23.80
  -3  -8  -3  487.35  131.89
  -3   8   3  473.15   22.40
   3  -8   3  479.35   22.60
  -3   8   3  482.55   22.80
   3   8  -3  435.06   95.79
   3   8  -3  380.66  160.88
  -3   8   3  479.05   24.60
   3   8  -3  436.86   93.89
  -3  -9   3    7.10    4.80
  -3   9  -3   -8.80   88.29
   3   9   3    8.90    4.80
   3  -9  -3 -141.49  138.99
   3   9   3    6.80    4.20
   3  -9  -3   57.29   70.89
  -3   9  -3  -83.79   72.89
   3   9   3  -38.80   69.89
  -3   9  -3   12.30    4.80
   3   9   3  210.78  150.78
  -3  -9   3   10.70    5.40
   3  -9  -3   17.40    5.90
   3   9   3    5.50    4.70
  -3   9  -3   73.79  151.48
  -3   9  -3   60.39  139.49
   3  -9   3    8.20    4.70
   3   9  -3   61.69   78.79
   3   9  -3 -234.08  152.08
   3   9  -3   10.90    4.70
  -3  -9  -3   76.29  145.89
   3  -9   3    5.30    5.00
  -3  -9  -3   -1.10   64.39
  -3   9   3    5.90    4.20
   3   9  -3  196.28  205.98
  -3  -9  -3   14.20    5.20
   3   9  -3    4.80   95.69
  -3   9   3   10.80    4.80
   3   9  -3    2.40    3.80
  -3  10  -3   70.49  181.18
   3 -10  -3   51.99  154.68
   3  10   3   77.09   10.50
   3 -10  -3   93.09   98.09
   3  10   3   75.19    9.80
  -3  10  -3   78.89   10.70
  -3  10  -3  -42.80   91.29
   3  10  -3   76.99   10.20
  -3  10   3   81.79   97.49
   3 -10   3   75.09   11.00
   3  10  -3   52.09  124.69
  -3  10   3   70.09   10.90
   3  10  -3  -47.40  191.18
  -3  10   3  -16.80  147.79
   3  10  -3   86.79   10.10
  -3  11  -3   12.70    6.60
   3 -11  -3   27.00    7.70
   3  11   3   15.30    7.30
  -3  11   3   18.00    7.40
   3  11  -3    9.60    6.50
   3 -11   3   24.10    8.10
  -4   0  -3  210.98    9.90
  -4   0   3  187.48   24.80
  -4   0  -3  214.18   10.00
   4   0   3  169.38   39.60
   4   0   3  227.88   10.10
  -4   0   3  231.68   39.00
  -4   0  -3  271.67   46.60
  -4   0  -3  185.58   28.40
  -4   0  -3  212.78    9.90
  -4   0   3  224.68    9.50
   4   0  -3  210.58   37.10
   4   0   3  176.68   26.70
   4   0   3  221.78    9.20
   4   0  -3  219.58   24.90
  -4   1  -3 3268.07  144.59
   4   1   3 3052.29  121.29
   4   1   3 3258.17  143.59
   4  -1  -3 3205.18  150.68
   4   1   3 3047.40  122.29
  -4   1  -3 2986.10  121.99
  -4   1  -3 3004.40  121.89
   4   1   3 3186.18  162.78
  -4   1  -3 3166.58  165.08
   4   1   3 3100.09  121.89
   4  -1  -3 3345.67  137.39
  -4  -1   3 3113.89  159.68
  -4  -1   3 2999.50  121.59
  -4  -1   3 3130.29  142.09
   4   1   3 3059.39  121.29
   4   1  -3 3372.56  141.29
  -4  -1  -3 3267.97  161.38
   4   1  -3 3260.77  158.38
  -4   1   3 3138.69  154.78
  -4  -1  -3 3085.69  122.19
  -4   1   3 3047.50  137.89
   4  -1   3 3247.28  167.08
   4  -1   3 3048.99  121.69
  -4  -1  -3 3106.19  122.09
   4  -1   3 3081.39  121.19
  -4  -1  -3 3012.90  121.89
  -4  -1  -3 3240.78  142.19
   4  -1   3 3162.98  145.69
  -4   1   3 3050.19  121.09
   4   2   3  313.97   52.79
  -4  -2   3  314.27   14.20
   4  -2  -3  361.36   32.20
  -4   2  -3  324.87   14.50
   4   2   3  314.47   14.10
  -4   2  -3  267.57   60.19
   4   2   3  338.77   35.10
   4   2   3  318.17   13.90
   4   2   3  325.17   13.90
   4   2   3  317.47   14.90
   4  -2  -3  358.66   48.20
  -4   2  -3  344.37   40.20
   4   2  -3  309.97   47.90
  -4  -2  -3  315.67   14.70
  -4   2   3  311.47   45.60
  -4  -2  -3  317.47   14.40
   4  -2   3  332.17   13.80
  -4   2   3  332.87   13.70
   4  -2   3  364.36   62.09
  -4   2   3  303.37   32.00
   4   2  -3  288.57   57.59
   4   2  -3  317.37   13.60
  -4  -2  -3  367.96   54.29
  -4   2   3  326.17   13.70
   4   2  -3  331.57   37.40
   4  -2   3  295.77   39.70
  -4  -2  -3  339.87   35.40
   4  -2   3  327.57   13.80
   4   2  -3  324.17   31.30
  -4  -2  -3  313.97   14.10
   4  -3  -3 1994.30  103.49
   4   3   3 2070.59   80.19
  -4   3  -3 2025.50  107.19
   4   3   3 2068.19   81.19
   4   3   3 2103.89  107.69
   4   3   3 2032.20   79.99
   4   3   3 1963.90  128.99
  -4  -3   3 2092.79   80.69
  -4   3  -3 2213.48  133.69
  -4   3  -3 1880.11  140.29
  -4   3  -3 1994.90   80.69
   4  -3  -3 1994.90  125.19
  -4   3  -3 1944.31  112.79
   4   3   3 2038.20   80.09
  -4   3   3 2209.08  129.99
  -4  -3  -3 2002.50  107.59
  -4  -3  -3 2047.40  130.49
   4   3  -3 1912.91   79.59
  -4  -3  -3 1993.20   80.79
  -4   3   3 2048.79   79.39
   4   3  -3 1958.30  111.49
  -4  -3  -3 1947.81   79.99
   4   3  -3 1948.80  139.19
  -4   3   3 2172.58  105.99
   4   3  -3 2066.89  128.39
   4  -3   3 2101.79   80.09
   4   3  -3 1953.70   78.79
   4   3  -3 2091.49  104.79
   4  -4  -3   88.39   40.90
  -4   4  -3   65.69   60.39
   4   4   3  121.09    6.60
  -4  -4   3  117.19    7.70
   4   4   3  113.59    6.80
  -4   4  -3   98.99   35.80
   4   4   3  111.59    6.70
  -4  -4   3  111.49    7.30
   4   4   3  118.19    7.60
   4   4   3  141.59   54.19
   4  -4  -3   99.09   55.49
   4   4   3  152.58   32.70
  -4  -4  -3  110.09    6.60
  -4  -4  -3  116.19    7.40
   4   4  -3  108.99    5.70
  -4  -4  -3  151.38   56.69
   4   4  -3  103.39   28.20
   4   4  -3  168.88   51.69
  -4  -4  -3  120.69   30.00
   4   4  -3  113.39    6.60
  -4   4   3   72.29   49.90
  -4   4   3   62.29   32.20
   4   5   3  357.56   17.30
  -4   5  -3  380.86   55.49
  -4  -5   3  349.17   18.00
   4   5   3  355.26   17.60
   4  -5  -3  399.16   16.50
   4   5   3  364.86   16.90
  -4   5  -3  477.55   79.59
   4  -5  -3  447.66   93.09
   4  -5  -3  479.55   57.59
   4   5   3  355.86   18.30
  -4  -5   3  355.56   18.20
  -4   5  -3  405.36   18.50
   4   5  -3  384.66   17.50
   4   5  -3  299.87   94.99
   4  -5   3  373.26   17.50
  -4   5   3  425.86   85.59
  -4  -5  -3  427.86   87.49
  -4  -5  -3  421.36   56.19
   4   5  -3  404.66   66.59
  -4   5   3  375.56   18.10
  -4  -5  -3  380.36   17.20
   4   5  -3  383.36   16.30
  -4   5   3  297.27   53.19
  -4  -5  -3  390.76   18.30
  -4   5   3  379.26   16.60
  -4   6  -3  121.79   76.19
   4   6   3  126.29    8.50
  -4   6  -3  137.19    9.30
   4   6   3  131.99   44.60
   4  -6  -3  131.49   43.30
  -4   6  -3  107.19   53.29
   4   6   3  124.59    9.20
  -4   6  -3  119.99   76.19
   4  -6  -3  125.29   75.39
   4   6   3  130.69    8.70
   4   6   3  156.28   80.09
  -4  -6   3  127.39    9.40
   4  -6  -3  135.09    7.50
   4   6   3  122.89    7.90
  -4   6  -3  124.29   44.80
  -4  -6   3  132.29    9.30
  -4  -6  -3  180.58   46.70
   4  -6   3  124.29    7.70
  -4   6   3  117.59    7.50
   4   6  -3  104.19  106.79
   4   6  -3   -6.80   71.39
  -4   6   3   66.59   39.80
   4   6  -3  145.69    8.70
   4   6  -3   93.79   54.39
   4  -6   3  120.49    8.60
  -4   6   3  125.79    9.10
  -4  -6  -3   60.49   59.39
  -4  -6  -3  147.79    9.40
  -4   6   3  184.38   63.09
   4   6  -3  145.99    7.70
   4   7   3  706.43   31.50
  -4   7  -3  623.54   85.29
   4  -7  -3  654.73   29.40
   4  -7  -3  920.21  137.09
   4   7   3  686.03   32.20
  -4   7  -3  568.54  147.49
  -4   7  -3  736.23  118.39
  -4   7  -3  774.82  108.79
   4   7   3  617.34   32.50
   4  -7  -3  654.03   84.89
  -4  -7   3  711.23   32.30
   4   7   3  720.93   94.49
   4   7   3 1052.09  158.08
   4   7   3  726.93   30.40
  -4   7  -3  661.43   31.90
   4   7  -3  574.84  109.19
   4   7  -3  666.93   90.69
   4  -7   3  736.33   30.10
   4   7  -3  580.84  151.88
  -4   7   3  725.93   30.10
   4  -7   3  707.53   31.30
  -4   7   3  784.82  144.39
   4   7  -3  648.04   30.90
  -4  -7  -3  640.64  138.49
  -4   7   3  731.93   30.80
  -4   7   3  719.03   32.30
   4   7  -3  685.63   29.70
  -4  -7  -3  717.73   84.09
  -4   7   3  783.72   87.39
   4   7  -3  724.53  150.38
   4  -8  -3  175.08   11.30
  -4  -8   3  233.28   14.90
   4   8   3  229.78   14.50
  -4   8  -3   86.19   61.69
   4   8   3  240.98   13.60
   4   8   3  240.18   13.90
  -4   8  -3  171.98  117.99
   4  -8  -3    3.00  126.19
  -4   8  -3  251.67   75.49
  -4   8  -3  147.29  116.69
   4   8   3  192.98   66.49
   4   8   3  196.78  128.49
   4  -8  -3  267.47   68.19
  -4   8   3  201.98   14.20
   4   8  -3  148.69  129.89
  -4  -8  -3  402.56  124.89
   4   8  -3  240.88   88.59
   4   8  -3  223.48   12.10
   4   8  -3  210.68   13.10
  -4  -8  -3  289.67   67.59
   4   8  -3  171.78   95.99
   4  -8   3  212.68   12.30
  -4   8   3  120.29   71.89
   4  -8   3  196.08   13.30
  -4   8   3  195.28   12.60
   4   8  -3  198.08   69.49
  -4   8   3  186.48   11.40
   4   9   3  473.65   25.60
   4  -9  -3  483.55  177.08
  -4   9  -3  509.35   26.20
  -4   9  -3  445.86   95.59
  -4  -9   3  473.85   26.20
  -4   9  -3   98.29  124.89
   4  -9  -3  504.65   23.10
   4  -9  -3  480.35  113.19
   4   9   3  508.25   25.40
  -4  -9   3  454.95   25.90
   4   9   3  484.25   23.60
  -4   9   3  396.36   93.69
  -4   9   3  462.05  167.78
  -4   9   3  487.65   26.00
   4   9  -3  449.66  210.18
   4  -9   3  494.15   23.50
   4   9  -3  490.75   24.90
   4   9  -3  393.26  117.39
   4   9  -3  514.65   23.40
  -4   9   3  480.45   24.20
  -4  -9  -3  494.15   25.80
   4  10   3  107.39   16.80
   4  10   3   91.09   11.10
  -4  10  -3   67.09   10.70
   4  10   3   94.59   11.00
   4 -10  -3   76.29    9.40
   4 -10   3   73.09   10.30
  -4  10   3   68.99   11.40
   4  10  -3   85.49   10.60
   4  10  -3   80.49   10.00
   4  11   3  480.55   27.00
   4 -11  -3  449.76   24.80
  -4  11  -3  470.75   27.50
   4 -11   3  455.95   25.20
   4  11  -3  481.55   26.40
  -4  11   3  444.26   27.40
  -5   0  -3    3.80    1.70
  -5   0   3    3.40    1.30
  -5   0  -3    6.40    1.80
   5   0  -3    4.00   10.50
  -5   0  -3   25.60   15.60
  -5   0  -3   20.40   29.40
   5   0  -3   -0.20   20.40
  -5   0   3   11.10   13.90
   5   0   3  -36.70   15.70
  -5   0  -3    5.40    1.80
   5   0   3    3.90    1.80
   5   0   3   22.90   32.10
  -5   0   3   63.69   28.10
  -5   1  -3   32.10    2.90
  -5   1  -3   31.60   34.50
  -5   1  -3   31.30    2.90
   5  -1  -3   16.50   24.50
   5   1   3   35.60   17.00
  -5  -1   3   29.80    2.50
   5   1   3   30.00    3.10
   5   1   3   16.80   31.20
   5   1   3   30.70    2.90
  -5   1  -3   14.10   17.00
   5  -1  -3   46.50   13.70
   5  -1   3   31.50    2.60
  -5   1   3   31.60   27.30
  -5  -1  -3   55.69   32.60
   5   1  -3   30.50   15.50
  -5  -1  -3   30.10    2.80
  -5  -1  -3   32.00    2.90
   5   1  -3   87.39   31.70
  -5  -1  -3   29.20    3.00
   5  -1   3   13.90   17.90
   5  -1   3   52.29   36.40
  -5   1   3   11.80   13.40
  -5  -1  -3   15.20   17.60
  -5   1   3   30.40    2.10
  -5   2  -3  500.75   73.19
  -5   2  -3  528.95   48.00
   5   2   3  443.66   43.40
   5   2   3  475.75   21.30
   5   2   3  413.66   65.49
  -5   2  -3  540.85   21.80
  -5  -2   3  461.45   21.30
   5  -2  -3  564.14   56.19
  -5   2  -3  548.95   21.90
   5  -2  -3  603.14   40.10
   5   2   3  490.15   22.20
  -5  -2  -3  520.35   22.20
  -5  -2  -3  422.16   62.19
   5   2  -3  525.65   66.39
   5   2  -3  480.65   55.99
  -5  -2  -3  518.95   21.70
  -5   2   3  507.55   20.70
   5  -2   3  517.05   20.80
   5   2  -3  521.45   39.40
   5   2  -3  476.95   44.90
  -5  -2  -3  519.65   44.50
  -5  -2  -3  502.75   21.40
  -5   2   3  507.25   41.30
  -5   2   3  514.05   59.89
   5  -3  -3  392.26   57.19
   5   3   3  335.17   14.80
   5   3   3  323.17   14.20
   5   3   3  335.07   14.30
  -5   3  -3  319.37   15.30
  -5   3  -3  309.67   41.00
   5   3   3  301.97   39.60
  -5  -3   3  333.27   15.30
   5   3   3  294.37   60.59
   5  -3  -3  311.77   37.80
   5   3   3  337.07   16.00
  -5   3  -3  385.36   79.09
  -5  -3   3  335.47   15.90
  -5   3  -3  309.77   47.20
  -5   3  -3  264.37   57.39
   5   3  -3  390.66   61.29
   5  -3   3  331.87   14.00
  -5   3   3  334.87   13.90
   5   3  -3  377.26   47.50
  -5  -3  -3  300.47   42.50
   5  -3   3  348.07   14.00
  -5   3   3  383.66   40.20
   5   3  -3  438.26   78.89
  -5  -3  -3  297.47   60.79
  -5  -3  -3  308.57   14.70
   5   3  -3  354.16   38.10
  -5   3   3  290.97   56.59
  -5  -3  -3  308.87   15.50
  -5   4  -3  898.31   70.79
  -5   4  -3  837.92   79.29
   5  -4  -3  942.21   94.19
  -5  -4   3  940.71   39.20
  -5   4  -3  747.83  113.39
   5   4   3  944.91   39.80
   5   4   3  945.51   38.20
  -5   4  -3  946.31   39.30
   5   4   3  941.41   38.20
   5   4   3  903.31   69.89
   5   4   3  962.10   38.30
  -5   4  -3  912.81   99.09
   5   4   3  906.31   96.39
  -5  -4   3  982.30   39.90
   5  -4  -3  872.11   66.69
  -5   4   3  959.00   37.30
   5   4  -3  929.81   80.29
  -5   4   3  995.30   69.99
  -5  -4  -3  887.21  101.19
  -5  -4  -3  873.61   69.39
   5   4  -3  904.71   37.60
  -5  -4  -3  916.41   38.30
   5   4  -3  937.21   95.29
   5   4  -3  916.81   37.00
   5   4  -3  946.31   67.39
  -5   4   3 1038.20   97.39
   5  -4   3  949.51   37.90
   5   4  -3  952.10  114.29
  -5  -4  -3  917.81   39.50
  -5   5  -3  232.38   93.39
   5   5   3  160.68    9.30
  -5  -5   3  161.88   10.20
  -5   5  -3  206.58   51.09
  -5  -5   3  159.98   10.60
   5   5   3  163.78    9.20
   5   5   3  160.28   10.40
  -5   5  -3  220.18   44.00
   5   5   3  197.48   70.19
   5  -5  -3  149.69   67.99
   5   5   3  175.08    9.20
  -5   5  -3  182.48   10.40
  -5   5  -3  225.28   75.29
   5  -5  -3  101.59   35.70
   5   5   3  131.19   37.50
  -5  -5  -3  177.28   74.99
  -5  -5  -3  159.08   10.30
   5   5  -3  157.08    8.80
  -5  -5  -3  156.48    9.10
  -5   5   3  178.58   10.20
  -5   5   3  172.48    8.20
   5   5  -3  166.58   51.19
   5   5  -3  143.99   79.19
  -5   5   3  152.28   42.50
   5   5  -3  149.19    8.00
   5  -5   3  184.38    8.50
  -5   5   3   61.59   63.49
   5  -5   3  178.98    9.20
   5   5  -3  260.57   70.89
  -5  -5  -3  179.48   42.50
   5   5  -3  166.38   40.90
  -5  -6   3  505.85   25.40
  -5   6  -3  536.55  121.19
   5  -6  -3  469.75   99.89
   5   6   3  510.35   25.40
   5   6   3  506.35   23.90
   5  -6  -3  546.95   72.09
  -5  -6   3  507.85   25.10
   5   6   3  523.75   23.60
  -5   6  -3  563.94   92.69
  -5   6  -3  762.32  116.59
  -5   6  -3  595.84   25.70
   5   6   3  507.75   24.10
  -5   6  -3  544.05   73.09
   5  -6  -3  557.74   22.60
   5   6  -3  576.74   24.20
   5   6  -3  579.34   70.79
  -5  -6  -3  609.74   80.29
   5  -6   3  517.25   23.80
   5  -6   3  534.75   22.90
   5   6  -3  579.34   91.49
   5   6  -3  669.53  146.39
   5   6  -3  484.85   99.99
  -5   6   3  531.25  115.19
  -5   6   3  533.15   22.80
  -5   6   3  521.25   25.10
  -5  -6  -3  517.15  116.69
   5   6  -3  557.84   22.90
  -5   6   3  468.45   70.49
  -5  -6  -3  552.44   25.40
   5  -7  -3   -9.90   99.09
  -5   7  -3   62.09   50.49
  -5   7  -3   75.19   87.09
   5  -7  -3  -11.60   48.10
   5   7   3   35.40   55.69
   5   7   3   35.30    5.30
  -5  -7   3   36.40    6.70
  -5  -7   3   33.10    7.00
   5   7   3   30.70    5.40
   5   7   3   32.40    6.30
   5   7   3   36.00    5.50
   5   7   3   31.40   78.69
  -5   7  -3   28.10    6.20
   5  -7  -3   27.70    4.10
  -5  -7  -3   94.89   51.89
   5   7  -3   37.00    5.20
  -5   7   3   28.20    5.80
   5  -7   3   27.30    4.50
  -5   7   3   26.90    4.00
   5   7  -3   76.39   68.59
  -5  -7  -3  156.28   98.79
  -5  -7  -3   34.00    6.60
  -5   7   3  -49.99   51.09
   5   7  -3   -3.10  126.69
  -5   7   3 -123.49   98.89
   5   7  -3   36.30    4.60
   5  -8  -3   19.80  123.39
  -5  -8   3   37.60    8.10
   5   8   3   43.00    7.40
   5   8   3   41.40    6.70
  -5   8  -3   34.30    7.40
   5  -8  -3   57.99   63.29
  -5  -8   3   35.10    8.40
  -5   8  -3   46.80   75.59
  -5   8  -3   70.99  102.69
   5  -8  -3   35.00    5.30
   5   8   3   41.60    6.70
  -5   8  -3 -102.19  147.69
  -5   8  -3    2.50   64.69
   5   8  -3   53.09    6.00
  -5   8   3   33.10    6.80
  -5   8   3   90.89   62.19
  -5  -8  -3  -24.00  114.09
   5   8  -3   51.29   86.59
  -5   8   3  -23.30  119.49
  -5  -8  -3   75.89   61.09
  -5  -8  -3   42.30    8.00
   5   8  -3   48.20    6.70
   5   8  -3  161.68  133.69
   5  -8   3   28.90    5.70
  -5   8   3   30.70    7.30
   5   9   3  204.08   22.30
  -5   9  -3  194.38   14.60
  -5  -9   3  161.58   14.70
   5   9   3  164.78   12.30
   5  -9  -3  174.88   12.80
   5   9   3  157.88   12.80
  -5   9   3  182.78   13.30
  -5   9   3  191.98   14.50
   5   9  -3  189.38   11.90
   5  -9   3  182.78   11.80
   5   9  -3  175.28   12.50
  -5  10  -3  288.27   20.30
   5  10   3  331.87   19.80
   5 -10  -3  296.07   17.10
   5  10   3  347.57   19.80
   5 -10   3  321.57   18.20
   5  10  -3  290.47   18.60
  -5  10   3  325.17   21.30
   5  10  -3  323.77   18.30
  -6   0  -3  936.91   38.70
   6   0   3  997.70   81.09
  -6   0  -3  934.41   38.50
  -6   0  -3 1003.10   75.09
  -6   0   3  975.70   37.80
   6   0   3  973.10   38.70
   6   0  -3  951.80   56.59
  -6   0  -3  911.51   55.79
   6   0   3 1003.00   61.99
  -6   0  -3  963.20   38.60
   6   0  -3  903.61   46.80
  -6   1  -3 1036.60   42.60
  -6   1  -3 1019.70   42.80
   6   1   3 1102.49   43.30
   6   1   3 1101.99   42.70
  -6  -1   3 1106.19   43.10
   6   1   3 1083.19   86.59
  -6  -1   3 1084.29   42.10
  -6   1  -3 1004.80   83.89
  -6   1  -3  982.10   63.29
   6   1   3 1147.69   66.29
   6   1  -3  937.31   70.89
   6  -1   3 1083.09   42.30
  -6  -1  -3 1008.70   60.99
   6   1  -3  986.60   57.39
   6  -1   3 1043.00   66.49
   6   1  -3 1069.69   66.49
  -6  -1  -3 1053.39   42.90
  -6  -1  -3 1044.70   42.60
   6   1  -3 1035.50   53.69
  -6  -1  -3  995.30   79.99
  -6  -1  -3 1046.60   42.60
  -6   1   3 1084.29   41.60
   6  -1   3 1156.78   89.19
  -6   2  -3  168.58   47.10
   6   2   3  145.09   50.49
  -6  -2   3  160.68    8.30
   6   2   3  160.38   33.70
  -6   2  -3  203.78   36.70
  -6   2  -3  163.28   53.09
  -6   2  -3  175.98    8.70
   6  -2  -3  161.08   26.60
  -6   2  -3  188.28   32.10
  -6  -2   3  152.88    9.10
   6   2   3  157.28    8.40
   6   2   3  160.68    9.20
   6  -2  -3  151.38   36.50
  -6   2  -3  177.38    8.80
   6   2  -3  139.39   26.50
  -6   2   3  178.18   28.90
  -6   2   3  165.38    7.50
  -6  -2  -3  161.98    8.50
   6   2  -3  203.38   34.90
  -6  -2  -3  165.08    8.40
  -6  -2  -3  171.08    9.10
  -6  -2  -3  136.99   32.10
   6   2  -3  204.28   45.80
   6  -2   3  165.48    7.60
   6   2  -3  180.68   48.20
  -6  -2  -3  154.38   44.10
  -6   2   3  173.88   40.10
   6   3   3 2094.69   82.49
  -6  -3   3 2161.78   83.89
   6  -3  -3 1621.94  171.78
  -6   3  -3 2073.99  108.89
  -6   3  -3 2070.39   83.09
  -6   3  -3 2124.59  135.79
  -6   3  -3 2030.60  116.49
   6   3   3 2122.69  113.19
   6  -3  -3 1824.92  127.69
  -6  -3   3 2138.99   82.99
   6   3   3 2344.27  143.49
   6   3   3 2094.19   83.79
  -6   3  -3 1926.61  148.09
  -6  -3  -3 2307.17  140.59
   6  -3   3 2022.30   81.19
  -6  -3  -3 2191.18   83.79
   6   3  -3 1760.42  122.89
  -6   3   3 2090.19  129.89
  -6  -3  -3 2116.69   82.59
   6   3  -3 1790.82  161.48
  -6   3   3 2108.89  106.59
  -6  -3  -3 2134.29  112.19
   6   3  -3 2225.28  130.09
   6   3  -3 2236.28  107.19
  -6   4  -3   53.99   30.30
  -6   4  -3   -7.90   64.79
  -6  -4   3   37.80    4.60
   6   4   3   34.00    3.10
   6   4   3   38.10    4.90
  -6  -4   3   40.00    5.30
   6   4   3   36.40    3.10
   6   4   3   40.50    4.00
  -6   4  -3   13.40   53.79
   6   4   3   12.60   27.40
   6   4   3    9.40   55.49
  -6   4  -3   52.19   36.00
   6  -4  -3   60.29   27.30
  -6   4  -3   32.60    4.30
   6  -4  -3   86.49   54.59
   6  -4   3   30.00    2.60
   6   4  -3   13.40   50.59
   6   4  -3   22.60   26.80
   6   4  -3  -39.50   60.49
   6   4  -3   67.79   35.70
  -6   4   3   43.10   50.99
  -6  -4  -3   40.20    5.10
  -6  -4  -3   89.39   58.19
  -6  -4  -3   69.59   31.10
  -6   4   3   38.00   24.30
  -6  -4  -3   41.20    4.00
   6   4  -3   37.40    2.50
  -6   5  -3  968.80  114.19
   6   5   3 1056.99   41.00
   6   5   3 1164.98  124.69
  -6   5  -3  857.61   93.49
  -6  -5   3 1111.29   43.80
   6   5   3 1073.89   41.10
  -6   5  -3  895.91  147.09
   6  -5  -3  895.41   78.59
  -6   5  -3  905.11   42.30
   6  -5  -3  979.20  112.19
   6   5   3 1087.59   43.70
   6   5   3 1121.99   88.49
  -6   5  -3  878.81   81.29
  -6  -5   3 1067.09   42.90
   6   5  -3  828.52   78.09
   6   5  -3  782.32  110.49
   6   5  -3  925.61   39.90
  -6  -5  -3  843.92   82.99
  -6  -5  -3  969.70   42.80
   6   5  -3 1004.80   98.59
  -6   5   3 1053.99   42.70
  -6  -5  -3 1019.80  126.09
  -6  -5  -3  965.90   41.50
   6  -5   3 1033.60   40.00
   6   5  -3 1113.69  149.09
   6   5  -3  950.10   40.10
  -6   5   3 1043.00   39.80
   6   6   3  335.47   18.50
   6   6   3  306.57   98.99
  -6   6  -3  493.25   84.79
  -6   6  -3  367.86   18.40
   6   6   3  341.57   16.50
   6  -6  -3  332.47   71.09
   6   6   3  361.06   69.69
   6   6   3  339.67   16.40
  -6   6  -3  379.16  126.89
  -6  -6   3  328.07   18.50
   6   6   3  337.57   16.40
  -6  -6   3  348.07   18.20
   6  -6  -3  635.74  119.49
   6   6  -3  260.17   72.89
   6   6  -3  416.36  129.69
  -6  -6  -3  321.17   18.10
   6   6  -3  319.87   15.20
  -6  -6  -3  353.46   78.19
   6   6  -3  180.38   85.99
  -6  -6  -3  244.28  107.89
   6  -6   3  399.76   15.50
  -6   6   3  389.66   18.40
   6   6  -3  343.07   68.99
   6   6  -3  315.87   15.80
  -6   7  -3 1379.16  214.58
   6  -7  -3 1170.68  115.69
   6   7   3 1305.77  120.39
   6   7   3 1291.67   53.69
  -6   7  -3 1305.27   55.89
  -6  -7   3 1281.47   56.09
   6   7   3 1319.57   53.99
  -6  -7   3 1351.26   56.09
  -6   7  -3 1333.07  115.39
  -6   7  -3 1084.39  138.09
   6   7   3 1347.07   53.79
   6   7   3 1312.87   56.39
  -6   7  -3 1146.49  183.28
   6  -7  -3 1198.98  171.68
   6   7   3 1291.97  179.88
  -6  -7  -3 1144.79  180.98
   6   7  -3 1315.07   52.59
   6   7  -3 1141.09  142.09
  -6   7   3 1096.09  116.99
  -6   7   3  955.20  164.38
   6   7  -3 1321.87  119.49
  -6  -7  -3 1342.27   55.99
   6   7  -3 1339.27   53.49
   6   7  -3 1114.79  212.08
  -6  -7  -3 1445.56  127.19
   6  -7   3 1289.47   52.29
   6   7  -3 1374.06  175.28
  -6   7   3 1300.07   55.69
   6   8   3  259.87   14.90
  -6  -8   3  249.68   16.80
   6   8   3  235.78   16.40
  -6   8  -3  274.07   18.00
  -6  -8   3  251.17   17.40
   6   8  -3  262.67   14.40
   6  -8   3  268.27   13.30
  -6  -8  -3  256.27   16.90
   6   8  -3  262.97   13.70
  -6   8   3  279.77   17.10
   6   9   3 1998.40   83.09
  -6   9  -3 2108.49   88.29
   6   9   3 1992.80   82.19
  -6  -9   3 1942.91   85.89
   6   9   3 2007.00   82.79
   6  -9  -3 1973.90   80.39
  -6   9   3 2019.00   85.49
   6  -9   3 2011.00   80.89
   6   9  -3 2039.30   82.69
   6   9  -3 2065.19   81.39
   6  10   3   70.99   11.10
   6 -10  -3   93.99   11.00
  -6  10  -3  106.09   13.20
   6 -10   3   98.59   10.70
  -6  10   3  106.29   13.70
   6  10  -3   70.39   12.70
   7   0   3   10.30    2.50
  -7   0  -3    4.80    1.90
   7   0   3  -38.50   37.60
  -7   0  -3    8.70    2.40
  -7   0  -3   23.70   16.70
  -7   0   3    8.40    1.80
  -7   0  -3    6.00    1.80
  -7   0  -3   30.00   32.20
   7   0   3    9.40   21.30
  -7   0   3    9.20    2.60
  -7   1  -3   43.60   36.70
   7  -1  -3   56.39    7.90
  -7   1  -3   48.70    4.10
  -7   1  -3   49.99   20.30
  -7  -1   3   57.99    3.60
   7   1   3   30.80   41.40
   7   1   3   56.69    4.70
   7  -1  -3   59.89   13.70
   7   1   3   76.89   24.40
  -7  -1   3   57.59    4.80
  -7   1  -3   44.50    4.10
  -7  -1  -3   63.09   21.50
  -7   1   3   47.20    3.60
   7   1  -3   53.89   18.60
  -7  -1  -3   43.30   37.70
  -7  -1  -3   60.19    4.70
   7   1  -3   73.19   15.60
   7   1  -3   79.09   20.60
  -7  -1  -3   55.69    4.20
   7   1  -3   55.29   11.30
  -7  -1  -3   57.79    4.30
   7  -1   3   47.40    3.80
  -7   2  -3  294.27   38.40
  -7  -2   3  366.86   16.60
   7  -2  -3  319.57   45.50
   7   2   3  358.16   73.69
  -7   2  -3  349.17   15.70
   7   2   3  354.86   16.40
  -7   2  -3  326.27   15.70
  -7   2  -3  414.86   75.69
  -7   2  -3  445.56   64.59
  -7  -2   3  359.66   15.40
  -7   2  -3  292.57   43.70
   7  -2  -3  294.57   29.20
   7   2   3  352.36   15.60
   7   2   3  339.27   44.80
   7   2  -3  321.57   50.09
   7   2  -3  359.66   60.19
  -7  -2  -3  390.86   41.30
  -7   2   3  240.98   49.50
   7   2  -3  308.47   37.80
   7  -2   3  320.57   14.30
  -7  -2  -3  369.06   65.29
  -7   2   3  319.37   32.70
  -7  -2  -3  336.87   15.40
  -7  -2  -3  350.66   16.20
   7   2  -3  386.06   33.90
  -7  -2  -3  346.47   15.60
   7   3   3  805.92   33.40
  -7   3  -3  732.53   32.20
  -7   3  -3  743.33   32.10
  -7  -3   3  786.62   33.30
  -7   3  -3  821.02  105.99
  -7   3  -3  737.53   58.99
   7   3   3  764.12   66.49
  -7   3  -3  742.63   87.89
  -7  -3   3  779.02   32.10
   7  -3  -3  719.33   53.29
   7  -3  -3  647.14   74.69
   7   3   3  787.82   31.90
  -7   3  -3  754.52   67.79
   7   3   3  624.54   94.49
  -7   3   3  774.32   82.29
   7   3  -3  690.13   64.99
   7   3  -3  844.62   81.69
   7   3  -3  637.54   93.39
  -7  -3  -3  768.62   31.80
  -7  -3  -3  771.32   33.30
  -7  -3  -3  771.42   93.39
  -7  -3  -3  783.62   63.19
   7   3  -3  755.02   56.59
  -7   3   3  788.12   57.89
   7   4   3  410.56   57.19
   7   4   3  400.16   18.10
  -7   4  -3  432.46   93.19
   7  -4  -3  522.15   85.39
   7  -4  -3  413.56   50.89
  -7   4  -3  272.57   64.19
  -7   4  -3  367.06   18.60
   7   4   3  398.76   19.80
  -7  -4   3  386.36   19.60
  -7  -4   3  390.36   18.80
   7   4   3  388.86   86.39
  -7  -4  -3  549.65  101.19
  -7  -4  -3  425.56   19.70
   7   4  -3  516.95  110.29
  -7  -4  -3  354.86   58.99
   7   4  -3  470.45   66.99
  -7  -4  -3  421.76   18.20
   7   4  -3  394.16   52.99
  -7   4   3  429.96   53.09
   7   4  -3  378.86   85.79
  -7   4   3  374.86   72.29
  -7   5  -3  626.64   87.99
  -7  -5   3  612.44   28.00
   7  -5  -3  629.34   68.99
   7   5   3  575.94   27.70
   7   5   3  719.33  127.39
   7   5   3  540.85   75.39
   7  -5  -3  674.43  113.69
   7   5   3  600.04   25.80
  -7   5  -3  570.04   26.80
  -7   5  -3  538.85  120.29
   7   5  -3  657.43  117.09
  -7  -5  -3  583.64   25.80
  -7  -5  -3  607.64   75.79
   7   5  -3  579.04   69.59
   7   5  -3  654.53   88.19
   7   5  -3  627.94  124.29
  -7  -5  -3  600.54   27.70
   7   5  -3  563.14   23.80
  -7   5   3  589.04   26.70
  -7  -5  -3  669.53  117.79
   7   6   3   47.50    4.50
  -7   6  -3   61.79    7.10
   7  -6  -3   44.90   91.39
  -7  -6   3   50.69    7.20
  -7  -6   3   47.50    8.00
   7   6   3   53.39    7.40
   7   6   3   66.19    6.30
  -7   6  -3   13.60  111.09
   7   6   3   83.49   97.39
   7   6   3   30.00   52.19
   7  -6  -3   69.29   46.40
   7   6   3   51.59    4.70
  -7   6  -3   37.50   59.89
  -7   6   3   45.20    6.60
  -7  -6  -3   70.59    8.10
  -7  -6  -3   79.79   51.09
   7   6  -3   44.60   62.39
   7   6  -3  257.47  123.19
  -7  -6  -3   72.49  100.29
   7   6  -3   82.19   46.50
   7   6  -3  -33.20   86.49
   7   6  -3   62.09    4.50
  -7  -7   3  118.69   10.90
   7   7   3  115.69    8.10
  -7   7  -3  124.79   10.70
   7   7   3  117.59    8.90
  -7  -7   3  129.29   12.00
   7   7   3  118.19   10.90
   7   7   3  120.09    8.10
   7   7  -3  116.09    7.10
  -7  -7  -3  108.49   10.90
  -7   7   3  135.69   10.80
   7   7  -3  115.89    7.50
   7   7  -3  122.99    7.20
  -7   8  -3    9.50    5.30
  -7  -8   3    7.00    5.80
   7   8   3    8.70    9.60
   7   8   3   11.10    4.20
   7   8   3    7.50    3.90
   7   8  -3    6.80    3.40
   7  -8   3    7.80    2.90
  -7   8   3    6.40    6.50
   7   8  -3    8.70    3.40
   7   9   3   66.39   14.60
   7   9   3   47.90    9.90
   7   9   3   51.79    8.50
  -7   9  -3   37.00   10.20
   7   9  -3   47.10    8.20
  -7   9   3   50.59   18.10
   7   9  -3   41.20    7.60
   7   9  -3   39.00    7.80
  -8   0   3  257.17   12.30
  -8   0  -3  238.38   44.30
  -8   0  -3  263.37   12.50
  -8   0  -3  265.37   12.30
   8   0   3  261.27   12.40
  -8   0  -3  265.67   12.30
   8   1   3 1717.43   69.59
  -8   1  -3 1673.13   82.69
  -8   1  -3 1832.42   69.09
  -8  -1   3 1719.03   68.19
  -8   1  -3 1766.52   69.39
   8   1   3 1786.32  103.39
  -8   1  -3 1600.84   97.39
  -8  -1   3 1754.02   69.59
  -8  -1  -3 1818.42   69.59
  -8   1   3 1696.83   67.59
  -8  -1  -3 1774.52   69.19
  -8   1   3 1738.73   67.69
  -8  -1  -3 1675.63  114.79
  -8  -1  -3 1674.93  100.69
   8  -1   3 1712.83   68.39
  -8  -1  -3 1752.42   68.99
  -8   1   3 1693.23   68.19
  -8   2  -3  538.65   22.60
  -8  -2   3  536.25   23.50
  -8   2  -3  542.55   23.00
   8   2   3  530.85   23.60
  -8   2  -3  561.04   45.20
   8   2   3  655.43   89.39
  -8   2  -3  505.65   50.49
  -8  -2   3  541.15   22.20
  -8   2  -3  486.75   76.59
  -8   2  -3  472.05   65.69
   8   2   3  550.04   55.59
  -8  -2  -3  489.45   75.79
  -8  -2  -3  502.25   22.40
   8   2  -3  502.75   42.60
  -8  -2  -3  464.45   47.80
  -8  -2  -3  514.25   23.20
   8   2  -3  486.35   48.70
   8   2  -3  479.15   34.50
   8   2  -3  465.35   31.90
  -8  -2  -3  497.95   22.30
  -8  -3   3  999.70   38.00
  -8   3  -3  786.82   63.29
  -8   3  -3  764.82   91.29
  -8   3  -3  751.62  106.59
   8  -3  -3  790.12   54.09
  -8   3  -3  869.61   38.00
   8   3   3  991.90   37.70
   8   3   3  993.60   39.40
   8   3   3 1023.10  118.29
  -8   3  -3  837.12   73.69
  -8   3  -3  824.92   37.70
   8   3   3  981.60   76.99
  -8  -3   3  989.80   39.30
  -8   3   3 1054.79   60.89
  -8  -3  -3  849.22   37.30
   8   3  -3  760.52   64.99
  -8  -3  -3  900.81  103.09
  -8  -3  -3  868.71   68.89
  -8  -3  -3  860.91   38.50
  -8   3   3 1027.50   86.29
   8   3  -3  846.22   97.69
  -8   4  -3  -17.90   30.60
   8   4   3   19.80   39.30
   8  -4  -3   52.79   29.30
   8   4   3   19.40   75.49
  -8   4  -3  -44.30   61.39
   8   4   3   27.00    5.40
  -8  -4   3   23.80    5.00
   8  -4  -3   -6.80   56.39
  -8   4  -3   43.50   43.10
  -8   4  -3  -40.50   79.39
  -8   4  -3   18.50    4.30
  -8  -4   3   29.90    6.00
  -8   4   3   31.00   60.39
  -8  -4  -3   48.40   68.89
   8   4  -3   45.00   74.09
   8   4  -3   55.99   62.89
  -8  -4  -3   28.20    4.10
   8   4  -3    2.40   38.80
  -8  -4  -3   22.40    5.50
  -8  -4  -3   36.60   36.30
   8   4  -3    4.50   32.70
  -8   4   3   48.60   32.30
   8  -5  -3  668.03   71.59
   8   5   3  540.05   25.30
  -8   5  -3  644.54  127.49
  -8  -5   3  554.04   26.60
   8  -5  -3  649.34  117.29
  -8   5  -3  542.35   84.19
  -8  -5   3  554.14   27.70
   8   5   3  544.45   27.40
   8   5   3  510.95  115.59
   8   5   3  452.25   79.09
  -8   5  -3  721.33   93.89
  -8   5  -3  519.05  170.58
  -8   5  -3  610.74   27.00
  -8  -5  -3  713.73   81.89
  -8   5   3  599.64  119.89
   8   5  -3  694.43  148.99
  -8  -5  -3  538.45  111.99
  -8   5   3  552.54   26.30
   8   5  -3  651.03   79.29
  -8  -5  -3  616.74   27.70
   8   5  -3  712.53  130.59
  -8   5   3  475.65   72.19
  -8  -5  -3  633.34   25.90
   8   5  -3  632.44   89.89
   8   6   3  356.06   19.90
  -8  -6   3  380.46   19.50
  -8  -6   3  356.46   20.40
  -8   6  -3  195.48  139.59
  -8   6  -3  328.77   18.80
   8   6   3  362.56   17.60
  -8   6  -3  406.86   82.89
  -8   6   3  331.77   18.70
   8   6  -3  363.76   15.20
  -8  -6  -3  372.96   20.00
  -8   7  -3  602.04   30.10
  -8  -7   3  627.04   31.60
  -8  -7   3  651.83   30.70
   8   7  -3  616.54   26.00
  -8   7   3  641.94   30.30
  -8  -7  -3  588.24   30.70
   8   8   3  358.56   18.70
  -8   8  -3  323.87   20.50
  -8  -8   3  369.46   22.10
   8   8  -3  354.66   16.60
  -8   8   3  325.67   20.60
  -9   0  -3   13.80    3.20
  -9   0  -3   14.00    3.40
   9   0   3   12.10    3.20
  -9  -1   3  681.83   28.20
   9   1   3  718.73   29.80
  -9  -1   3  685.23   29.70
  -9   1  -3  702.33   29.10
  -9   1  -3  694.83   29.50
  -9  -1  -3  695.23   46.20
  -9   1   3  694.03   28.00
  -9  -1  -3  693.13   29.00
  -9  -1  -3  655.43   36.70
  -9  -1  -3  688.43   29.40
  -9  -1  -3  686.43   29.30
  -9   2  -3   80.09   19.30
   9   2   3   81.89    6.90
   9   2   3   60.29   50.29
  -9   2  -3   55.89   36.60
  -9  -2   3   84.19    7.60
  -9   2  -3   60.69   20.80
  -9   2  -3    8.50   31.10
  -9   2  -3  101.79    6.50
  -9  -2   3   83.69    6.00
  -9   2  -3  100.89    6.90
  -9   2   3   83.29    5.10
  -9  -2  -3  116.89   25.40
  -9  -2  -3   88.79    6.40
  -9  -2  -3   93.79    7.30
  -9  -2  -3  104.99   46.10
  -9  -2  -3   90.59    6.30
  -9   3  -3  149.39   37.40
  -9   3  -3  172.38   52.99
   9   3   3  173.88   40.70
   9   3   3  179.68   11.30
  -9   3  -3  183.28   42.00
  -9   3  -3  173.78   10.40
  -9  -3   3  182.08   11.70
  -9   3  -3   76.89   61.69
  -9   3  -3  184.48   10.30
  -9  -3   3  178.48   10.20
   9   3   3  192.18   74.59
  -9  -3  -3  178.18   11.10
   9   3  -3  155.18   26.00
   9   3  -3   69.29   41.70
  -9  -3  -3  180.78    9.90
  -9  -3  -3  171.58   36.60
   9   3  -3  154.88   29.90
   9   3  -3  195.68   44.50
  -9  -3  -3  272.97   66.99
  -9   4  -3  671.33   82.19
  -9   4  -3  705.53   79.99
   9   4   3  713.73   31.90
  -9  -4   3  724.43   32.20
   9   4   3  700.23   29.90
  -9  -4   3  689.03   30.60
  -9   4  -3  718.53  127.09
   9   4   3  649.83   80.89
  -9   4  -3  720.43   30.80
  -9   4  -3  724.33   30.80
   9   4   3  486.15  148.59
  -9   4  -3  714.73  143.09
  -9   4   3  726.83   30.40
  -9   4   3  640.14   89.49
   9   4  -3  596.84   85.49
  -9   4   3  626.04   66.79
  -9   4   3  651.33  102.49
   9   4  -3  605.74  117.09
  -9  -4  -3  562.54   72.89
  -9  -4  -3  695.43   29.80
  -9  -4  -3  730.83   31.90
  -9  -4  -3  572.74  123.59
   9   4  -3  490.15   72.29
  -9   4   3  616.14   60.69
  -9   5  -3  231.98   14.20
  -9  -5   3  250.87   16.00
  -9  -5   3  262.87   14.80
  -9   5  -3  122.59   60.89
  -9   5  -3  178.78  121.59
   9   5   3  260.17   13.50
   9   5   3  214.48  146.99
   9   5   3  263.77   15.50
   9   5   3  225.98   83.49
  -9  -5  -3  108.29   56.29
   9   5  -3  299.57   94.09
  -9   5   3  279.57   14.10
  -9  -5  -3  145.89  105.29
  -9  -5  -3  226.78   12.90
   9   5  -3  165.18   52.79
  -9  -5  -3  222.68   15.10
  -9   6  -3   99.19    9.70
  -9  -6   3   79.19   11.20
  -9  -6   3   81.79   10.10
   9   6   3   84.49    8.70
  -9  -6  -3   90.49   11.00
  -9   6   3   93.59    9.20
  -9  -7   3  115.69   13.10
   9   7   3  106.89   15.20
  -9   7  -3  143.49   12.40
  -9   7   3  147.89   12.40
 -10   0  -3  383.16   18.30
 -10   0  -3  386.56   17.90
 -10   0   3  429.76   17.90
 -10   1  -3  733.03   31.70
 -10   1  -3  740.23   31.10
 -10  -1   3  753.42   31.70
 -10  -1  -3  738.23   31.10
 -10  -1  -3  755.82   31.40
 -10  -1  -3  732.63   31.60
 -10  -2   3  706.73   30.10
 -10   2  -3  736.53   31.30
 -10   2  -3  744.73   30.70
 -10  -2   3  688.53   31.90
 -10   2   3  713.53   29.30
 -10  -2  -3  716.63   30.60
 -10  -2  -3  729.43   31.60
 -10   2   3  712.83   29.20
  10   3   3  242.08   70.59
 -10   3  -3  324.27   28.50
 -10   3  -3  303.87   39.60
 -10   3  -3  276.67   25.30
 -10  -3   3  342.07   17.90
 -10  -3   3  362.36   16.50
  10   3   3  415.76   56.89
 -10   3  -3  324.27   16.90
 -10   3  -3  326.27   16.40
 -10  -3  -3  345.87   16.20
 -10  -3  -3  438.76   79.29
 -10   3   3  343.47   15.20
 -10  -3  -3  334.27   17.70
 -10  -3  -3  280.47   46.00
 -10   4  -3    4.40    3.30
 -10   4  -3  -23.40   40.20
 -10  -4   3    4.80    5.00
 -10   4  -3    4.20    3.90
  10   4   3  -39.30   45.50
 -10   4  -3  160.18   82.09
  10   4   3   90.49   92.39
 -10  -4  -3  -11.30   40.00
 -10  -4  -3    9.30    3.20
  10   4  -3    3.00   25.50
 -10  -4  -3   14.60    5.10
  10   4  -3   43.80   46.40
 -10   4   3    4.30    3.20
 -10  -4  -3 -117.89   75.49
 -10   5  -3  585.44   28.80
 -10  -5   3  657.43   31.20
 -10   5  -3  591.94   29.10
  10   5   3  656.93   28.20
 -10  -5   3  663.33   29.70
 -10  -5  -3  616.94   30.50
 -10   5   3  769.82  126.09
 -10  -5  -3  616.44   27.80
 -10   5   3  636.94   79.19
 -10   5   3  643.74   29.00
 -10  -6   3  574.54   34.70
 -10   6  -3  591.34   28.70
 -10   6  -3  598.14   28.20
  10   6   3  550.24   26.70
 -10  -6   3  587.14   28.90
 -10   6   3  587.74   28.40
 -11   0   3    5.30    2.70
 -11   0  -3    3.20    2.60
 -11   0  -3    5.00    3.20
 -11   1  -3  267.57   13.70
 -11   1  -3  267.77   14.40
 -11  -1   3  274.37   14.30
 -11  -1  -3  290.67   14.20
 -11  -1  -3  289.77   13.80
 -11   2  -3   66.19    6.50
 -11   2  -3   66.99    7.30
 -11  -2   3   60.49    7.60
 -11  -2   3   57.99    8.00
 -11   2   3   61.79    4.50
 -11   2   3   58.19    6.00
 -11  -2  -3   68.79    6.60
 -11  -2  -3   70.39    7.80
 -11   3  -3  662.73   30.10
 -11  -3   3  738.83   31.90
 -11   3  -3  631.24   30.30
 -11   3   3  691.23   28.80
 -11   3   3  672.93   28.60
 -11   3   3  675.93   29.30
 -11  -3  -3  696.53   31.30
 -11  -3  -3  709.93   29.80
 -11   4  -3   49.10    7.70
 -11   4  -3   45.80   10.70
 -11  -4   3   54.59    8.40
 -11  -4   3   51.69   10.60
 -11   4   3   45.00    6.00
 -11   4   3   49.90    7.20
 -11  -4  -3   45.30   10.20
 -11   4   3   55.29    7.30
 -11  -4  -3   36.00    6.40
 -11  -5   3  237.78   16.20
 -11   5  -3  256.97   16.10
 -11   5  -3  270.67   15.80
 -11  -5   3  247.38   18.50
 -11  -5  -3  251.17   18.00
 -11   5   3  263.97   15.60
 -11   5   3  268.27   14.90
 -12   0  -3  232.88   13.00
 -12   0  -3  229.48   12.10
 -12   1  -3  479.35   22.00
 -12  -1   3  431.76   20.90
 -12   1  -3  471.55   21.20
 -12  -1  -3  466.15   21.50
 -12   2  -3  342.67   16.40
 -12  -2   3  343.87   18.80
 -12  -2   3  292.67   17.00
 -12   2  -3  337.97   17.10
 -12  -2  -3  306.97   17.10
 -12  -2  -3  299.07   16.10
   0   0   4 1392.46   54.79
   0   0  -4 1494.75   77.99
   0   0  -4 1346.57   55.59
   0   0  -4 1337.27   54.79
   0   0   4 1517.15   79.69
   0   0   4 1373.76   96.79
   0   0   4 1392.16   55.69
   0   0  -4 1375.16   93.19
   0   1   4   23.40   22.50
   0   1   4    8.80   15.70
   0  -1   4   -1.80    1.10
   0  -1  -4    5.90   13.30
   0  -1  -4    2.70   20.10
   0   1  -4   -0.20    1.00
   0  -1   4  -11.30   14.80
   0   1   4    1.30    1.50
   0   1  -4    0.60   13.80
   0   1  -4    1.70   21.80
   0   1   4   -1.50    0.90
   0  -1   4   -2.40   23.20
   0  -2  -4  412.66   50.49
   0  -2  -4  350.56   37.30
   0   2  -4  344.87   40.70
   0   2   4  382.16   16.30
   0  -2   4  367.86   43.50
   0   2   4  309.07   36.70
   0   2   4  478.15   52.29
   0   2   4  377.66   16.90
   0   2  -4  404.76   17.30
   0  -2  -4  400.96   16.90
   0  -2   4  371.16   58.79
   0  -2  -4  412.46   16.60
   0  -2   4  376.56   17.20
   0   2  -4  333.87   53.49
   0   2   4  376.96   16.80
   0   3   4  -17.10   17.50
   0  -3   4    6.40    2.30
   0   3  -4   -7.20   21.50
   0  -3  -4    7.00    2.10
   0  -3  -4    3.90    1.30
   0  -3  -4  -17.50   17.00
   0   3   4    7.70    2.10
   0   3  -4    5.50    2.20
   0   3  -4   29.00   40.30
   0  -3   4   11.80   25.50
   0   3   4    4.80    1.80
   0  -3   4   73.39   41.90
   0   3   4   18.90   27.60
   0  -3  -4   13.50   37.00
   0   3   4    6.40    1.80
   0  -4  -4 2690.83  105.89
   0   4  -4 2655.53  106.59
   0  -4  -4 2799.22  166.38
   0   4  -4 3070.29  145.09
   0  -4  -4 2987.80  141.99
   0   4   4 2642.74  138.99
   0   4   4 2618.84  167.28
   0  -4   4 2473.25  106.39
   0   4   4 2460.65  105.89
   0   4  -4 2707.93  174.48
   0   4   4 2536.55  105.29
   0   4  -4 2892.51  182.78
   0   4  -4 2822.12  150.08
   0  -5  -4    1.60   25.80
   0   5  -4   19.20   30.00
   0   5  -4   36.00   52.89
   0   5   4   -4.70   58.89
   0   5   4    8.80   26.50
   0   5  -4  -14.10   29.10
   0  -5  -4   10.20   38.60
   0   5   4    4.10    2.10
   0  -5   4    3.80    2.20
   0   5  -4    4.60    2.20
   0   5   4    5.90    2.00
   0  -5  -4    4.70    2.20
   0   5   4    7.30    3.00
   0   5  -4    9.60   63.69
   0   6  -4 4314.07  177.08
   0   6   4 4569.14  176.68
   0  -6  -4 4478.55  223.18
   0  -6   4 4042.10  179.08
   0   6  -4 4444.56  238.98
   0   6   4 4605.64  175.68
   0   6  -4 4574.14  226.58
   0  -6  -4 4159.88  257.07
   0   6   4 4477.95  177.18
   0   6   4 4858.01  271.67
   0   6  -4 4507.65  294.87
   0   6   4 4769.42  225.28
   0   6  -4 4730.03  276.27
   0  -6  -4 4564.14  176.68
   0   7   4   11.20    3.70
   0   7   4   11.20    3.00
   0  -7   4   14.10    5.00
   0   7  -4   13.20    4.40
   0   7   4    9.70    3.30
   0  -7   4   10.00    3.30
   0   7   4   67.39   73.29
   0  -7  -4  -92.89   66.69
   0  -7  -4   16.30    4.40
   0   7  -4  -80.59   81.99
   0   7  -4   68.89   53.49
   0   7  -4   40.90   46.50
   0  -7  -4   26.90   47.90
   0   7   4   11.40   47.30
   0   7  -4 -131.79   94.89
   0  -8  -4 1796.42  254.27
   0   8  -4 1970.10  149.39
   0   8   4 1967.30   82.79
   0   8   4 1745.03  250.37
   0  -8  -4 2029.10   81.29
   0  -8   4 2058.89   81.79
   0   8  -4 1808.22  259.07
   0   8  -4 2212.68  175.28
   0   8   4 1876.11  170.08
   0   8   4 1964.00   81.59
   0   8  -4 2027.80  192.08
   0   8  -4 1954.60   82.49
   0   9   4  107.89   76.59
   0   9  -4  119.19  115.39
   0   9   4  161.58  160.98
   0  -9  -4   38.30   84.29
   0   9  -4  -45.80   74.69
   0   9  -4  187.28   95.39
   0 -10  -4 1266.07  161.68
   0  10  -4 1445.26  240.38
   0  10  -4 1984.80  184.78
   0  10   4 1541.35   67.69
   0 -10   4 1550.24   66.19
   0 -10  -4 1528.75  282.77
   0  10   4 1387.86  277.77
   0 -10   4 1516.75   67.49
   0 -10  -4 1592.64   65.89
   0  10  -4 1558.04   67.39
   0  10  -4 1545.65  272.87
   0  10   4 1439.26  171.98
   0  10   4 1537.45   66.09
   0  10  -4 1370.56  202.68
   0  11  -4   13.30    6.80
   0  11   4    8.70    6.30
   1   0  -4    1.00    1.00
   1   0  -4   -4.00   20.60
   1   0   4   17.60   16.30
   1   0   4    2.30    1.20
  -1   0   4    2.00    0.80
   1   0   4    2.30    1.00
   1   0   4   -8.20   29.80
  -1   0   4    1.30    1.00
  -1   0  -4    1.40    1.10
  -1   0  -4    1.20    0.80
  -1   0  -4    5.50   13.80
   1   0  -4    2.00    0.80
  -1   0   4   15.50   31.50
  -1   0   4   22.20   16.30
   1   0  -4   -3.40   11.80
  -1   0  -4   -7.40   29.00
   1   1   4 1618.94   86.49
  -1   1  -4 1544.15   62.19
  -1   1  -4 1737.73  112.19
   1   1   4 1573.44   62.89
   1   1   4 1553.14   62.79
   1  -1  -4 1621.34  102.69
  -1  -1   4 1545.45   62.89
  -1   1  -4 1555.64   62.99
   1  -1  -4 1640.34   84.09
   1  -1  -4 1519.95   62.59
   1  -1  -4 1513.55   61.99
  -1   1  -4 1670.73   88.49
  -1  -1   4 1704.63  112.69
  -1  -1   4 1587.84   88.49
   1   1   4 1692.93  105.69
   1  -1   4 1548.25  107.99
   1   1  -4 1545.35   61.79
   1  -1   4 1552.94   89.09
  -1   1   4 1524.05   61.89
  -1  -1  -4 1756.12  106.69
  -1  -1  -4 1613.34   85.09
   1  -1   4 1559.84   62.99
  -1   1   4 1732.83   86.89
   1   1  -4 1741.13   88.39
  -1   1   4 1538.35   62.69
  -1  -1  -4 1570.14   62.89
   1   1  -4 1525.55   62.79
   1   1  -4 1671.53  104.99
  -1  -1  -4 1509.45   62.19
  -1   1   4 1784.32  108.99
  -1   1   4 1506.85   62.49
  -1  -2   4   64.79    4.70
  -1   2  -4   34.70   38.20
   1  -2  -4   85.59   20.90
  -1   2  -4   64.99    4.70
   1  -2  -4   64.59   33.40
  -1  -2   4   76.69   24.30
  -1   2  -4   50.29   21.20
   1   2   4   67.69   21.20
   1  -2  -4   65.99    4.00
  -1  -2   4  162.68   46.40
   1   2   4   27.10   28.10
   1  -2   4   67.29   24.30
  -1   2   4   68.09    3.90
  -1   2   4   65.99   20.00
  -1  -2  -4   63.49    4.10
   1   2  -4   79.49   34.60
   1   2  -4   64.39    4.50
  -1   2   4   67.49    4.30
  -1  -2  -4   26.50   26.00
  -1  -2  -4   64.49    4.40
  -1  -2  -4   48.60   19.80
   1   2  -4   67.39   22.80
   1  -2   4   66.79    4.70
  -1   2   4   78.09   31.50
  -1  -2  -4   64.09    4.50
  -1   2   4   63.59    4.40
   1  -2   4  103.29   47.30
   1  -3  -4  900.41   79.29
   1   3   4  761.12   82.99
   1   3   4  849.32   34.30
  -1   3  -4  808.52   67.19
   1   3   4  854.51   35.10
  -1  -3   4  851.51   35.40
  -1  -3   4  823.52   87.99
   1  -3  -4  819.22   34.50
  -1   3  -4  829.92   35.40
   1  -3  -4  805.02   59.69
  -1  -3   4  859.71   71.39
   1   3   4  871.81   62.09
  -1   3  -4  804.02   85.89
   1  -3  -4  822.72   34.40
  -1   3   4  854.11   34.70
  -1   3   4  866.31   78.39
   1   3  -4  838.22   86.19
  -1   3   4  865.61   35.10
   1  -3   4  845.82   69.89
   1  -3   4  871.71   35.50
  -1   3   4  889.51   34.40
  -1   3   4  875.91   61.69
  -1  -3  -4  808.92   60.69
  -1  -3  -4  896.01   85.29
  -1  -3  -4  803.92   34.40
   1   3  -4  808.72   35.10
   1  -3   4  966.10   95.09
   1   3  -4  752.62   65.49
   1   4   4  446.46   20.50
   1   4   4  493.85   51.69
   1   4   4  415.96   65.99
   1  -4  -4  433.96   19.60
   1   4   4  440.96   19.50
   1   4   4  459.65   20.40
  -1   4  -4  457.95   50.89
   1  -4  -4  422.46   75.89
  -1  -4   4  445.46   20.70
   1  -4  -4  411.36   49.80
  -1   4  -4  469.55   96.89
  -1   4  -4  456.35   57.59
  -1   4  -4  534.05   82.69
  -1   4  -4  447.26   20.60
   1   4   4  447.66   20.20
   1   4  -4  457.05   52.99
   1   4  -4  449.16   20.50
   1   4  -4  460.85   84.69
   1  -4   4  443.96   20.60
  -1   4   4  467.05   19.50
  -1  -4  -4  546.75   67.99
  -1  -4  -4  423.96   51.69
   1   4  -4  495.95   59.19
   1   4  -4  346.77   75.69
  -1   4   4  365.56   73.19
  -1  -4  -4  434.66   19.60
  -1   4   4  443.66   19.90
  -1   4   4  434.16   49.20
  -1  -4  -4  460.45   20.20
   1  -5  -4  955.40  115.49
  -1  -5   4  936.41   40.10
   1   5   4  934.91   39.60
   1  -5  -4  941.11   77.09
   1   5   4  753.12   93.59
  -1   5  -4  828.02   77.29
   1  -5  -4  923.11   38.90
  -1   5  -4  926.61   40.00
  -1   5  -4  780.82  124.09
   1   5   4  937.81   39.60
   1   5   4  946.51   40.00
  -1   5  -4  876.41   84.09
  -1   5  -4  942.31  115.59
   1   5   4  962.60   78.19
   1   5   4  964.70   38.80
  -1   5   4 1061.09   79.69
   1   5  -4  703.23   94.29
   1   5  -4  939.11   77.69
  -1  -5  -4  929.21   96.99
  -1  -5  -4  860.51   39.10
   1   5  -4  947.41   88.09
   1   5  -4  910.61  127.69
  -1   5   4  873.91  108.89
  -1   5   4 1017.60   39.50
  -1   5   4  986.70   40.20
  -1   5   4 1023.00   38.90
   1   5  -4  853.61   39.60
   1  -5   4 1001.60   40.30
  -1   6  -4  -70.39   64.89
   1   6   4  -45.60   68.19
  -1   6  -4   41.80   47.30
   1   6   4    5.80   34.50
   1   6   4   13.10    3.30
   1   6   4   13.80    3.90
  -1   6  -4   56.49   81.29
  -1  -6   4    8.60    3.20
  -1   6  -4   10.50   36.90
   1  -6  -4   16.70   33.20
   1  -6  -4  -33.40   71.49
  -1  -6   4   10.30    3.20
   1   6   4    9.50    3.00
   1  -6  -4    8.60    2.70
  -1   6   4   68.09   76.39
   1   6  -4   30.50   57.29
   1   6  -4    9.20    3.50
   1   6  -4   14.40   47.50
  -1   6   4   11.60    3.40
  -1  -6  -4  -18.70   53.39
  -1   6   4   12.00    3.20
   1  -6   4    8.90    3.80
  -1  -6  -4    8.70    2.80
  -1   6   4   15.70   37.50
  -1   6   4    6.50    2.70
   1   6  -4    3.50   33.00
  -1  -6  -4   76.19   37.80
   1   7   4  380.66   20.00
   1   7   4  520.85   79.69
   1  -7  -4  441.76  146.19
  -1  -7   4  384.66   20.70
  -1   7  -4  637.34  145.29
   1   7   4  404.26   20.80
   1  -7  -4  418.36   19.50
  -1   7  -4  474.05   79.29
  -1   7  -4  331.67   73.79
   1   7   4  403.56   19.20
   1   7   4  289.17   89.89
   1  -7  -4  313.27   76.79
  -1  -7   4  405.56   20.30
  -1   7  -4  406.36   20.80
  -1   7  -4  436.06  134.09
   1   7  -4  404.16   77.89
  -1  -7  -4  438.56  115.39
  -1  -7  -4  360.96   76.29
   1   7  -4  485.15   96.09
  -1   7   4  446.16  131.49
  -1   7   4  425.76   21.10
   1   7  -4  381.06  116.19
   1  -7   4  418.96   20.90
  -1   7   4  417.76   19.30
   1   7  -4  476.15  102.09
   1   7  -4  394.86   20.60
  -1  -7  -4  385.66   19.80
  -1   7   4  428.36   77.19
  -1   7   4  406.66   19.80
   1  -7   4  416.36   19.90
  -1   8  -4  317.97   84.99
  -1   8  -4  173.68   12.60
  -1   8  -4   26.20  105.99
  -1  -8   4  185.18   12.40
  -1   8  -4  231.78   67.99
   1   8   4  191.98   13.00
   1  -8  -4  176.78   11.50
  -1   8  -4  201.08  127.99
   1  -8  -4  243.78   62.99
   1  -8  -4  244.48  128.49
   1   8   4  185.48   12.30
   1   8   4  222.88   66.39
   1   8   4  170.28  116.09
   1   8  -4    2.80  151.08
  -1   8   4  179.48   12.80
   1   8  -4  483.45  112.49
  -1   8   4  304.97  133.69
   1   8  -4  191.88   64.99
   1   8  -4  182.08   12.60
   1  -8   4  180.88   12.90
   1   8  -4  192.88  102.09
  -1   8   4  187.08   66.29
  -1  -8  -4  223.48  101.69
  -1  -8  -4  105.79   62.09
  -1  -8  -4  195.28   12.20
   1  -8   4  187.68   12.10
  -1   8   4  172.78   11.70
  -1   9  -4  662.63  185.28
  -1   9  -4 1150.08  158.78
   1  -9  -4  755.72  121.99
   1   9   4  845.02  190.78
   1  -9  -4  961.20  210.28
   1   9   4  800.62   38.30
  -1   9  -4  802.32  128.39
   1   9   4  968.70  130.89
  -1  -9   4  859.31   40.60
  -1   9  -4  832.72  171.78
   1   9   4  805.72   36.30
  -1   9  -4  818.62   38.50
  -1  -9   4  795.62   37.50
   1   9   4  805.92   37.70
  -1  -9  -4  568.84  172.38
   1   9  -4  629.64  124.19
  -1   9   4  825.22   38.70
   1   9  -4  811.22   38.20
   1   9  -4  630.64  220.48
  -1   9   4  814.02   37.10
   1   9  -4  726.73  191.08
   1  -9   4  817.42   38.50
   1   9  -4 1012.80  155.08
  -1  -9  -4  877.41  128.09
  -1   9   4 1037.80  218.68
  -1   9   4  841.32  122.59
  -1  -9  -4  816.42   37.30
  -1  10  -4   11.50    5.70
   1 -10  -4   11.70    5.80
   1  10   4   15.70    5.60
  -1 -10   4    9.90    6.90
  -1  10  -4   41.60  156.88
   1 -10  -4  166.68  186.98
   1  10   4 -119.49  136.69
   1  10   4   14.50    6.00
   1  10   4 -285.67  199.88
   1 -10  -4   46.50   94.09
  -1 -10   4    8.70    6.00
  -1  10  -4  110.89  105.89
   1 -10   4   10.50    6.60
  -1  10   4 -108.39  191.58
   1  10  -4    9.00    5.50
  -1 -10  -4   12.50    5.90
  -1  10   4  104.79   95.39
   1  10  -4 -275.87  172.08
  -1 -10  -4  314.57  224.58
  -1  10   4   12.10    5.30
   1  10  -4  161.68  113.79
   1 -10   4    6.50    6.10
  -1 -10  -4  104.69  114.39
   1  11   4  286.87   20.90
   1  11   4  304.37   20.00
  -1  11  -4  331.47   21.60
  -1  11   4  297.57   21.40
   1  11  -4  355.46   21.70
   2   0  -4 6871.21  316.67
   2   0  -4 7193.08  296.97
  -2   0  -4 7154.28  322.77
  -2   0   4 7086.99  319.97
  -2   0   4 7168.28  298.07
  -2   0  -4 7020.70  298.37
  -2  -1   4  165.38   31.60
   2   1   4  149.49   28.10
  -2  -1   4   56.89   36.90
   2   1   4  133.29    7.00
   2  -1  -4  153.08    6.80
   2  -1  -4  154.78   25.80
  -2   1  -4  154.98    7.80
   2   1   4  134.29    7.40
  -2  -1   4  136.09    7.50
  -2   1  -4  123.49   27.40
   2   1   4  135.99    7.50
  -2   1  -4  166.88   38.90
  -2   1  -4  151.18    7.20
   2   1   4  146.59   38.30
   2  -1  -4  132.09   37.00
   2   1  -4  138.39   40.70
   2  -1   4  115.29   27.60
   2   1  -4  153.38   28.20
  -2  -1  -4  169.78   27.00
  -2  -1  -4  144.29   34.80
  -2   1   4  145.99    6.60
   2   1  -4  140.29    7.30
  -2  -1  -4  146.39    7.20
  -2   1   4  177.18   27.00
  -2   1   4  151.88    7.40
  -2  -1  -4  143.89    7.60
  -2   1   4  215.68   48.60
   2  -1   4  148.49    7.70
  -2  -1  -4  142.39    7.50
   2   1  -4  142.89    6.40
   2  -1   4  150.58   47.10
   2   2   4 3495.55  144.39
   2   2   4 3597.34  144.99
   2   2   4 3696.03  193.88
   2  -2  -4 3719.53  168.78
  -2   2  -4 3903.01  203.68
  -2  -2   4 3522.85  144.99
   2  -2  -4 3625.54  189.88
  -2  -2   4 3848.21  177.68
  -2   2  -4 3966.10  178.38
  -2   2  -4 3623.24  145.29
  -2  -2   4 3920.01  203.38
  -2   2   4 3842.02  170.48
   2  -2   4 4018.10  180.58
   2   2  -4 3747.23  200.38
  -2  -2  -4 3590.84  145.09
  -2  -2  -4 3952.60  172.18
  -2  -2  -4 3726.63  145.09
  -2   2   4 3968.80  192.98
   2  -2   4 3527.35  145.09
   2   2  -4 3440.56  144.79
  -2   2   4 3618.04  144.59
  -2   2   4 3558.04  144.09
  -2  -2  -4 3787.42  195.08
   2  -2   4 3875.01  206.68
   2   2  -4 3923.41  176.18
   2  -3  -4   10.60    2.10
   2  -3  -4   17.80   19.40
   2   3   4   38.00   22.30
  -2   3  -4   10.60    2.60
   2   3   4   15.80    2.30
  -2   3  -4   30.00   22.90
  -2   3  -4    3.00   36.20
   2   3   4    4.50   30.00
   2   3   4   19.40    2.70
   2  -3  -4   48.80   30.70
  -2  -3   4  -20.10   33.90
  -2  -3   4   16.40    2.80
   2   3   4   17.20    2.70
   2  -3   4   41.80   43.10
  -2   3   4  -14.70   39.10
   2   3  -4    0.90   22.30
  -2   3   4   12.30    2.10
   2  -3   4   57.49   29.90
  -2  -3  -4  -45.00   36.30
  -2  -3  -4   14.40    2.30
   2  -3   4   15.10    2.80
   2   3  -4   23.90   50.49
  -2   3   4   13.30    2.30
  -2   3   4    5.00   18.20
   2   3  -4   16.00    2.60
  -2  -3  -4   17.10    2.70
  -2  -3  -4   12.90   19.40
   2  -4  -4 1494.35   59.69
   2   4   4 1425.66   60.59
  -2   4  -4 1495.55   60.99
  -2   4  -4 1671.03  139.59
   2   4   4 1546.05   94.89
   2   4   4 1524.95  118.59
  -2   4  -4 1502.85   94.89
  -2  -4   4 1427.66   60.79
  -2   4  -4 1672.63  131.39
  -2   4  -4 1462.95  100.19
   2   4   4 1455.75   60.69
   2   4   4 1477.05   60.39
   2  -4  -4 1396.86   91.69
   2   4   4 1533.45   59.69
   2  -4  -4 1533.15  121.59
   2   4  -4 1519.75   60.69
  -2  -4  -4 1480.85   59.89
  -2  -4  -4 1531.85  122.09
  -2  -4  -4 1494.85   93.49
   2  -4   4 1453.45   60.69
  -2   4   4 1524.35   93.09
  -2  -4  -4 1530.55   60.59
   2   4  -4 1664.23   96.69
  -2   4   4 1529.45  121.19
  -2   4   4 1458.05   59.59
  -2   4   4 1429.56   59.79
   2   4  -4 1501.65  125.59
   2   4  -4 1488.55  127.99
   2   4  -4 1604.84  103.69
   2   5   4   22.80   61.99
  -2   5  -4   48.60    5.00
   2   5   4   18.80   28.80
   2   5   4   37.30    3.90
  -2  -5   4   35.90    4.80
   2   5   4   40.90    4.50
  -2   5  -4  109.99   39.70
  -2   5  -4   96.09   64.99
   2   5   4   37.60    4.50
   2  -5  -4   38.40   34.00
  -2   5  -4   31.60   31.50
  -2   5  -4   68.09   55.59
   2   5   4   37.90    4.40
   2  -5  -4   23.80   62.79
  -2  -5  -4   37.80    3.90
  -2   5   4  119.49   51.49
   2   5  -4  137.89   64.79
   2   5  -4   34.30   30.60
  -2   5   4   70.49   31.60
  -2  -5  -4   33.40    4.30
  -2  -5  -4   25.20   27.10
   2   5  -4   85.89   39.50
   2   5  -4   35.60   51.29
  -2  -5  -4   56.59   43.60
   2   5  -4   36.20    4.40
  -2  -6   4   31.00    5.10
  -2   6  -4   96.29   45.60
   2   6   4   36.90    4.90
  -2   6  -4   -3.50   61.39
   2   6   4   33.30    4.20
  -2   6  -4   15.70   37.60
   2   6   4   29.00    4.60
   2   6   4   82.39   41.00
  -2  -6   4   32.90    5.10
  -2   6  -4  -54.29   76.49
   2   6   4  101.29   79.69
   2  -6  -4  166.08   46.90
   2   6   4   30.00    4.60
   2  -6  -4  366.86   97.09
  -2  -6  -4  -15.90   34.70
  -2   6   4  122.69   79.89
   2  -6   4   28.70    5.10
  -2  -6  -4   25.80    4.50
   2   6  -4   -8.30  107.29
   2   6  -4   52.29   40.50
   2   6  -4   18.90   60.59
  -2  -6  -4   14.60   60.79
   2   6  -4    1.40   59.39
  -2   6   4  114.49   40.80
   2   6  -4   24.70    4.30
  -2  -7   4  210.48   12.70
   2   7   4  150.38  106.59
   2  -7  -4  193.08   88.99
   2   7   4  208.28   11.30
   2   7   4  209.48   12.20
  -2   7  -4  134.89   55.29
   2  -7  -4  256.77   59.29
  -2   7  -4   78.29  105.99
  -2   7  -4  179.48   12.30
  -2  -7   4  207.68   12.90
  -2   7  -4  196.58   68.79
   2   7   4  255.57   57.79
  -2   7  -4  127.09   86.49
   2   7   4  208.98   12.70
   2   7   4  207.68   12.40
   2   7  -4  101.89  112.09
  -2   7   4  182.38   11.00
   2  -7   4  179.18   11.60
   2   7  -4  233.18   68.79
   2  -7   4  187.08   12.40
  -2  -7  -4  202.18   12.10
  -2   7   4  171.18   12.20
  -2   7   4  173.68   11.00
  -2   7   4  145.59   54.39
   2   7  -4  235.48   62.89
  -2  -7  -4  215.88   82.59
   2   7  -4  206.78   12.40
  -2   7   4  250.67   88.19
  -2  -7  -4  204.88   54.89
   2   7  -4  187.18  106.09
  -2   8  -4  320.87  103.99
   2   8   4  325.87   18.70
   2   8   4  441.96  119.19
   2   8   4  355.96   77.29
   2  -8  -4  342.77   17.30
  -2   8  -4  246.78   70.49
  -2   8  -4  335.37   19.00
   2   8   4  329.87   18.50
   2  -8  -4  325.17   75.59
  -2   8  -4   37.40  157.28
  -2   8  -4  366.56   95.69
   2  -8  -4  537.75  141.59
   2   8  -4  296.57  157.78
   2   8  -4  339.17   18.70
   2   8  -4  296.37  114.79
  -2   8   4  334.07   19.10
  -2   8   4  332.87   17.30
   2  -8   4  343.47   17.80
   2   8  -4  333.87   89.09
  -2  -8  -4  319.07  106.89
   2   8  -4  264.87   74.79
  -2  -8  -4  399.06   93.79
  -2   8   4  344.47   17.60
  -2   8   4  405.66   91.09
   2  -8   4  343.47   18.90
  -2   8   4  212.18  125.69
  -2  -9   4   60.99    9.40
   2   9   4   49.20    9.70
   2  -9  -4  114.49  154.58
  -2   9  -4   44.80  194.38
   2   9   4  142.49   78.19
  -2   9  -4   72.09   79.69
   2  -9  -4   63.09    7.90
  -2   9  -4   55.79    8.50
  -2   9  -4   50.59  100.89
   2  -9  -4    4.60   72.79
   2   9   4   73.39    8.10
  -2   9  -4  303.37  124.29
   2   9   4   54.59    8.60
   2   9   4 -103.79  111.89
  -2  -9  -4  135.79  154.28
  -2  -9  -4   -2.10   74.59
   2   9  -4   61.19    9.60
   2  -9   4   54.79   14.20
   2   9  -4   66.59  193.18
  -2  -9  -4   60.09    8.70
  -2   9   4   44.90   71.99
   2   9  -4 -116.09  114.89
  -2   9   4   54.59    7.60
  -2   9   4   50.09    7.40
  -2   9   4   55.29    8.70
   2  -9   4   54.09    8.30
  -2   9   4  188.08  148.39
   2   9  -4  178.18   82.99
  -2  10  -4  296.27   19.90
   2  10   4  338.47   22.30
   2 -10  -4  459.15  213.28
   2  10   4  321.07   20.00
   2 -10  -4  296.87  105.59
   2 -10  -4  309.27   18.20
   2 -10   4  313.87   19.00
  -2  10   4  310.47   18.20
   2  10  -4  314.97  132.89
   2 -10   4  311.07   20.60
   2  10  -4  288.47   27.40
  -2  10   4  367.66  199.58
  -2  10   4  318.47   20.40
   2  10  -4  302.67  201.88
  -2  11  -4   90.39   13.00
   2 -11  -4   85.49   13.20
   2  11   4   81.19   11.70
   2  11   4   74.89   12.90
   2  11  -4   72.59   12.20
   2 -11   4   86.99   13.90
  -2  11   4   87.59   13.10
  -3   0  -4   -0.30    1.10
  -3   0  -4   -0.10    0.90
   3   0  -4    1.50    0.80
  -3   0   4   -0.90   14.60
   3   0   4   -1.40   16.30
   3   0  -4    6.60   26.80
   3   0   4   -0.70    0.90
  -3   0  -4  -14.10   28.70
  -3   0  -4   13.10   16.00
  -3   0   4    0.60    0.60
   3   0  -4    3.70   14.50
   3   0   4   31.60   35.50
   3   0   4   -0.20    1.00
  -3   0   4   -1.40   28.70
   3   0   4   -0.40    1.00
  -3   0   4    0.20    1.00
   3   1   4 1653.93   63.09
   3  -1  -4 1529.75   99.89
  -3   1  -4 1501.35  111.29
  -3  -1   4 1668.03   62.79
  -3  -1   4 1686.93   89.29
  -3  -1   4 1745.03  112.69
   3   1   4 1677.53   62.49
   3   1   4 1643.54   62.79
  -3   1  -4 1475.95   62.79
   3  -1  -4 1563.04   82.99
  -3   1  -4 1465.05   87.49
  -3   1   4 1610.64   84.99
   3   1  -4 1530.45   62.09
  -3  -1  -4 1567.64   62.89
   3  -1   4 1460.35  130.19
  -3  -1  -4 1613.14   62.89
   3   1  -4 1660.33  107.19
   3  -1   4 1555.44   62.69
   3   1  -4 1532.45   61.19
   3   1  -4 1527.05   85.89
   3  -1   4 1500.15   99.89
  -3   1   4 1545.65   61.59
  -3  -1  -4 1587.74  106.59
   3  -1   4 1553.64   62.49
  -3  -1  -4 1621.74   86.19
  -3   1   4 1543.15   62.39
  -3   1   4 1556.34  104.29
  -3  -2   4   57.89   22.30
   3   2   4   48.90    4.00
  -3   2  -4   49.70   31.70
  -3   2  -4   27.70   55.09
   3  -2  -4   27.10   35.30
  -3  -2   4   45.40    3.90
  -3  -2   4   44.70   39.00
   3  -2  -4   53.19   19.80
  -3   2  -4   47.30    4.00
   3   2   4   48.20    3.50
  -3   2  -4   48.20    3.50
   3   2   4   49.40    3.80
  -3   2   4   78.29   39.70
   3   2  -4   59.99   40.20
  -3  -2  -4   43.40    3.80
   3   2  -4   43.40    3.50
   3  -2   4   51.59    4.00
  -3   2   4   47.50    3.20
  -3  -2  -4   45.40    3.90
  -3  -2  -4   22.40   42.10
  -3   2   4   65.89   21.10
   3   2  -4   59.99   21.80
  -3  -2  -4   44.60    3.50
  -3   2   4   52.89    3.50
  -3  -2  -4   65.79   25.10
   3  -3  -4  790.82   81.59
   3   3   4  831.42   34.20
   3   3   4  817.92   33.60
  -3   3  -4  881.81  100.89
   3   3   4  830.42   34.20
  -3  -3   4  831.42   34.50
  -3   3  -4  814.92   34.60
  -3   3  -4  815.12   69.39
   3   3   4  836.52   34.70
   3  -3  -4  854.21   60.59
   3  -3   4  784.32   34.10
  -3  -3  -4  852.01   88.09
   3   3  -4  862.21   96.09
  -3  -3  -4  835.32   33.80
  -3   3   4  785.52   33.30
  -3  -3  -4  835.12   34.40
   3   3  -4  857.21   68.79
   3   3  -4  808.62   33.90
  -3   3   4  788.32   82.19
  -3   3   4  813.32   33.60
  -3   3   4  808.52   60.59
  -3  -3  -4  772.32   59.99
   3   4   4  401.26   51.79
  -3   4  -4  360.26   52.29
   3  -4  -4  386.16   64.89
  -3   4  -4  413.26   82.69
  -3   4  -4  412.86   89.49
   3   4   4  356.46   17.90
   3   4   4  362.36   17.40
   3   4   4  365.06   16.90
   3   4   4  363.56   17.70
   3  -4  -4  402.06   16.80
   3  -4  -4  356.66   48.80
  -3   4  -4  408.56   18.20
  -3  -4   4  358.56   17.90
   3   4   4  343.97   67.39
  -3   4  -4  440.46   58.39
  -3  -4  -4  385.36   17.20
   3   4  -4  390.46   17.60
  -3   4   4  355.66   73.29
  -3   4   4  386.56   16.90
  -3   4   4  346.57   48.50
  -3  -4  -4  389.76   17.90
  -3  -4  -4  361.86   61.69
  -3  -4  -4  312.07   47.90
   3   4  -4  489.85   98.79
  -3   4   4  381.96   16.90
   3  -4   4  388.66   17.90
   3   4  -4  329.47   56.39
  -3   5  -4  621.34   27.70
  -3   5  -4  548.85   73.89
   3   5   4  618.64   27.10
   3   5   4  608.64   26.30
   3  -5  -4  608.24   26.00
   3   5   4  493.45   66.39
   3  -5  -4  718.53  109.09
  -3  -5   4  622.34   27.80
   3   5   4  619.04   27.40
   3   5   4  549.95  104.49
   3  -5  -4  690.23   67.69
  -3   5  -4  660.33  121.09
   3   5   4  602.94   27.60
   3   5  -4  586.14   66.59
   3   5  -4  555.34  124.99
  -3   5   4  604.24   63.69
  -3  -5  -4  604.44   26.50
  -3  -5  -4  630.04   27.50
   3   5  -4  637.84  102.39
  -3   5   4  595.84   26.20
  -3   5   4  598.24   26.20
  -3  -5  -4  722.13  102.49
  -3   5   4  709.93  100.19
   3  -5   4  619.64   27.30
   3   5  -4  626.64   27.20
  -3  -5  -4  585.24   64.29
   3   5  -4  670.23   80.79
  -3   6  -4   72.19   72.19
   3  -6  -4   22.70   40.00
   3   6   4   61.39   40.40
  -3   6  -4   -8.00   45.20
  -3   6  -4  116.69   76.59
   3   6   4   28.80    4.20
  -3   6  -4   31.70    5.00
   3   6   4   32.50    4.90
   3  -6  -4   98.99   92.19
   3  -6  -4   29.00    4.00
   3   6   4   30.20    4.60
  -3  -6   4   28.20    5.00
   3   6   4  128.69   77.89
  -3  -6   4   31.00    5.40
   3   6   4   26.20    4.60
  -3   6  -4   75.09   39.40
   3   6  -4    2.00   39.20
  -3  -6  -4   34.30    4.90
  -3  -6  -4  -25.10   75.79
  -3  -6  -4   37.80   36.30
   3   6  -4  -32.80   50.59
   3  -6   4   26.00    5.00
  -3   6   4   29.40   75.39
  -3   6   4   10.90   38.90
  -3   6   4   30.00    4.30
   3   6  -4  124.99   64.89
   3   6  -4   63.19   94.49
   3   6  -4   33.30    4.60
  -3   6   4   25.00    5.00
  -3   6   4   31.60    4.20
   3  -7  -4  490.25   80.29
   3   7   4  391.96   81.09
   3   7   4  415.46   19.50
   3   7   4  400.16  123.89
  -3   7  -4  327.07   69.19
  -3   7  -4  433.86  100.69
  -3   7  -4  372.96   81.39
  -3  -7   4  418.76   20.60
  -3   7  -4  337.57   19.60
   3  -7  -4  189.28   86.59
   3   7   4  386.46   19.80
   3  -7  -4  344.87   17.70
  -3   7  -4  275.67  100.39
   3   7   4  409.46   18.50
   3   7   4  404.06   19.90
   3  -7   4  376.66   19.50
  -3   7   4  355.76   19.60
   3   7  -4  348.17  117.29
  -3   7   4  363.16   18.20
   3   7  -4  207.08  137.19
  -3  -7  -4  387.46   72.59
  -3   7   4  340.57   65.09
   3   7  -4  427.06   87.19
  -3  -7  -4  386.86  110.89
   3   7  -4  287.67   64.29
  -3   7   4  333.87  113.49
  -3   7   4  369.26   18.20
   3   7  -4  384.36   19.30
   3  -7   4  396.66   18.60
  -3   8  -4  156.88   12.00
  -3  -8   4  146.29   12.10
   3  -8  -4  116.99   63.79
   3   8   4  312.77  111.99
   3   8   4  146.19   11.40
  -3   8  -4   74.29   60.59
   3  -8  -4   19.90  111.89
   3   8   4  137.89   11.20
  -3   8  -4  -68.39  117.49
  -3   8  -4   31.60  146.69
   3   8   4  146.79   11.00
   3  -8  -4  160.38   10.10
  -3   8  -4  183.18   79.49
   3   8   4   81.89   66.29
  -3   8   4  165.68   10.30
   3   8  -4   63.59  120.99
   3  -8   4  165.18   10.80
  -3   8   4  218.68   68.69
  -3  -8  -4  -37.70  121.99
   3  -8   4  172.48   12.10
   3   8  -4  100.69   64.59
  -3  -8  -4  136.09   58.79
  -3   8   4  206.58  123.09
   3   8  -4   80.49  129.79
  -3   8   4  159.78   10.50
   3   8  -4  177.08   84.89
   3   8  -4  143.59   11.20
  -3   8   4  158.78   12.00
   3   9   4  377.06   21.30
   3  -9  -4  784.72  165.48
   3   9   4  402.66   23.50
   3   9   4  400.06   21.60
  -3  -9   4  383.36   21.90
  -3  -9   4  390.56   22.40
   3  -9  -4  410.56   88.39
   3  -9  -4  382.86   19.50
   3   9   4  380.46   19.60
  -3   9  -4  381.26   21.90
  -3   9   4  367.96   21.90
   3   9  -4  251.27  162.08
  -3   9   4  363.46   19.80
  -3  -9  -4  236.78  166.88
  -3   9   4  358.46   19.40
  -3  -9  -4  359.76   94.49
   3  -9   4  359.76   19.80
  -3  -9  -4  392.06   21.40
   3   9  -4  650.23  151.08
   3  10   4   64.09   12.00
  -3  10  -4  157.88  227.38
  -3  10  -4  127.49  112.79
  -3  10  -4   66.59   10.80
   3  10   4   76.39   10.60
   3  10   4   83.79   11.30
   3  10  -4   92.29   12.20
   3  10  -4  162.08  131.69
   3  10  -4  -41.20  253.07
   3 -10   4   73.99   11.70
  -3  10   4   81.29   11.70
   3  11   4  447.66   26.60
   3 -11  -4  421.56   24.40
  -3  11  -4  442.46   27.00
  -3  11   4  477.95   27.70
   3  11  -4  453.65   26.30
   3 -11   4  457.65   25.70
   4   0   4 1628.84   65.69
  -4   0  -4 1725.13  115.89
   4   0   4 1699.93   92.99
   4   0  -4 1679.73  105.59
  -4   0  -4 1744.83   92.69
  -4   0   4 1620.64  109.19
  -4   0   4 1621.24   64.19
  -4   0   4 1605.74   87.99
  -4   0   4 1662.33   65.49
   4   0   4 1663.23   65.89
  -4   0  -4 1634.54   65.69
   4   0   4 1703.93  115.89
  -4   0  -4 1667.73   65.99
   4   0   4 1632.04   65.39
   4   0  -4 1675.03   86.99
   4   1   4  359.86   59.39
   4  -1  -4  323.17   34.30
  -4   1  -4  328.57   14.70
   4   1   4  341.77   15.20
   4   1   4  284.17   39.00
  -4  -1   4  324.87   14.70
  -4  -1   4  318.37   38.40
  -4   1  -4  362.66   63.19
   4   1   4  339.37   14.80
  -4   1  -4  323.37   40.20
  -4   1  -4  341.47   15.10
   4  -1  -4  450.95   54.59
   4   1   4  333.37   14.60
  -4  -1   4  351.06   57.69
  -4  -1  -4  350.76   15.20
   4   1  -4  262.17   52.39
   4  -1   4  327.87   14.70
  -4  -1  -4  236.78   53.49
  -4   1   4  319.97   14.50
   4  -1   4  261.77   39.10
  -4  -1  -4  334.57   14.70
  -4  -1  -4  328.47   38.50
   4   1  -4  351.66   37.40
  -4  -1  -4  345.57   15.10
  -4   1   4  339.87   56.19
  -4   1   4  325.77   13.70
   4  -1   4  442.06   63.69
   4  -1   4  325.97   14.50
  -4   1   4  325.67   35.90
  -4  -2   4  555.04   23.70
   4  -2  -4  592.44   45.70
  -4  -2   4  461.45   77.09
  -4  -2   4  511.85   52.49
   4   2   4  556.74   23.40
  -4   2  -4  540.45   23.40
   4   2   4  573.34   24.30
   4   2   4  554.14   23.40
   4   2   4  491.85   71.69
  -4   2  -4  552.44   24.00
   4   2   4  570.04   23.40
   4   2   4  576.14   51.19
   4  -2  -4  619.24   67.49
  -4   2  -4  561.74   80.19
  -4   2  -4  443.96   51.89
  -4   2   4  556.04   22.70
  -4  -2  -4  561.24   49.40
   4  -2   4  509.75   76.39
  -4   2   4  541.65   23.00
  -4   2   4  524.95   47.10
  -4  -2  -4  582.94   24.00
  -4  -2  -4  569.64   23.50
   4   2  -4  564.34   51.89
   4   2  -4  538.05   73.49
   4  -2   4  539.15   23.10
  -4  -2  -4  488.65   69.99
   4  -2   4  561.24   53.19
   4   2  -4  570.14   22.80
   4  -2   4  548.05   23.30
  -4   2   4  572.84   67.19
  -4  -2  -4  568.04   23.90
  -4   3  -4  111.99   35.30
  -4   3  -4  110.19   65.89
   4   3   4  146.59    7.70
   4   3   4  136.19   31.60
   4  -3  -4  118.29   43.20
   4   3   4  149.69    7.80
   4   3   4  157.18   50.99
   4   3   4  142.29    7.50
  -4  -3   4  145.09    8.20
   4   3   4  141.29    8.40
   4  -3  -4  160.38   35.70
  -4   3  -4  126.69    8.00
  -4   3   4  138.29    7.10
  -4  -3  -4  136.09    7.50
  -4   3   4  105.49   27.40
   4   3  -4  149.59   34.80
   4   3  -4   39.60   29.10
   4  -3   4  178.18   56.79
   4  -3   4  139.79    7.70
   4   3  -4  132.19    7.20
  -4  -3  -4   61.49   51.69
  -4  -3  -4  219.18   40.60
   4   3  -4  146.39   47.00
   4   3  -4  130.09   57.19
  -4   3   4  131.59   47.40
  -4   3   4  135.09    7.10
  -4  -3  -4  139.29    8.10
   4   4   4 1340.07   54.19
  -4   4  -4 1458.45  138.99
   4  -4  -4 1331.27   85.69
  -4   4  -4 1354.26   54.79
   4   4   4 1317.57   54.89
  -4   4  -4 1386.26   91.69
   4   4   4 1303.37   53.89
  -4   4  -4 1322.87   97.09
  -4  -4   4 1337.87   54.69
   4   4   4 1327.67   53.59
   4  -4  -4 1450.25  116.19
  -4   4  -4 1328.97  120.29
  -4   4   4 1298.17   53.19
   4   4  -4 1341.87   53.79
   4   4  -4 1336.77  115.79
  -4   4   4 1315.77   53.39
  -4  -4  -4 1268.27  101.39
  -4   4   4 1290.97  114.69
  -4  -4  -4 1161.28  127.09
  -4  -4  -4 1359.36   53.89
  -4   4   4 1189.18   84.99
   4  -4   4 1292.97   53.99
  -4  -4  -4 1356.76   54.69
   4   4  -4 1357.06   99.29
   4   4  -4 1435.36   89.49
   4   4  -4 1367.46  132.99
  -4   5  -4  139.99    9.30
   4   5   4  165.38   45.10
   4   5   4  143.69    8.70
  -4  -5   4  135.69    9.40
  -4   5  -4   99.79   39.00
   4   5   4  124.39    9.20
  -4   5  -4  183.98   62.89
  -4   5  -4  138.89   49.99
   4   5   4  145.39    9.70
   4   5   4  145.79    8.90
  -4  -5   4  146.49    9.60
   4   5   4  182.78   66.29
  -4   5  -4  174.98   73.69
   4  -5   4  157.08    9.10
  -4  -5  -4   59.79   36.20
   4   5  -4  115.89   96.19
  -4   5   4  158.88    8.40
   4   5  -4  131.99    8.40
  -4   5   4  161.98    8.10
  -4   5   4  215.18   48.60
  -4   5   4  251.47   69.89
  -4  -5  -4  137.89    8.30
  -4  -5  -4  133.19   71.39
  -4  -5  -4  130.49    9.10
   4   5  -4  179.18   61.99
   4  -6  -4 2907.81  158.98
  -4   6  -4 2970.40  163.08
  -4   6  -4 2866.41  173.18
   4   6   4 2811.52  110.19
   4   6   4 2589.04  159.18
   4   6   4 2759.82  111.99
  -4   6  -4 2591.44  223.18
   4   6   4 2730.63  111.19
   4  -6  -4 2666.53  109.39
   4   6   4 2958.40  215.88
  -4  -6   4 2756.62  111.99
   4  -6  -4 2531.05  190.18
  -4   6  -4 2741.43  111.99
   4   6   4 2839.32  110.99
  -4   6  -4 2860.01  198.58
  -4  -6   4 2883.21  112.19
  -4  -6  -4 2916.01  111.79
  -4   6   4 2755.22  158.18
   4  -6   4 2671.23  109.69
   4  -6   4 2699.23  110.99
  -4   6   4 2730.33  111.79
  -4   6   4 2793.82  208.38
  -4   6   4 2727.23  109.89
   4   6  -4 2876.41  177.38
   4   6  -4 3033.80  222.58
  -4  -6  -4 3019.20  211.98
  -4  -6  -4 2887.41  160.68
  -4   6   4 2689.03  110.09
   4   6  -4 2819.92  110.89
   4  -7  -4  170.38   57.99
   4   7   4  155.58  111.09
   4   7   4   53.49   53.49
   4  -7  -4   95.39    6.50
   4  -7  -4  186.08  105.49
   4   7   4   63.59    7.70
  -4   7  -4  237.28   99.59
   4   7   4   64.19    7.10
  -4   7  -4   96.69    8.60
  -4   7  -4  123.59  103.59
   4   7   4   63.99    7.30
  -4   7  -4   47.60   62.19
  -4   7  -4   83.79   49.80
   4   7   4   69.49    6.80
  -4  -7   4   67.79    8.20
   4  -7   4   91.69    8.50
   4   7  -4   48.70   54.69
  -4  -7  -4   33.40   47.80
   4  -7   4   87.99    6.90
  -4   7   4   96.59    8.50
  -4  -7  -4   72.69   76.69
   4   7  -4   87.49  104.79
  -4   7   4  227.18  109.69
   4   7  -4  109.39  110.89
   4   7  -4   70.69    7.10
  -4   7   4   87.69    6.70
  -4   7   4  127.09   54.69
   4   7  -4   62.69   69.49
  -4   7   4   84.49    7.30
  -4   8  -4 2426.06  100.39
   4   8   4 2404.26   99.49
   4   8   4 2164.68  167.98
   4  -8  -4 2517.35  170.88
   4   8   4 2178.98  212.38
   4   8   4 2481.45   99.09
  -4  -8   4 2426.86  100.49
  -4   8  -4 2367.56  265.67
   4  -8  -4 2869.61  249.38
   4  -8  -4 2497.85   98.29
   4   8   4 2275.87  103.09
   4   8  -4 2310.17  200.28
   4   8  -4 2482.45  243.78
  -4   8   4 2466.05   98.29
   4   8  -4 2529.05  170.88
   4  -8   4 2510.55   99.39
   4   8  -4 2352.36   98.79
  -4   8   4 2449.16   97.79
   4  -8   4 2545.15   97.89
   4   8  -4 2798.72  293.67
  -4   8   4 2490.35  100.59
  -4  -8  -4 2098.89  202.58
  -4  -8  -4 2500.85  170.38
  -4   9  -4  131.59   90.99
   4  -9  -4  131.79   95.09
  -4   9  -4  251.17   16.50
   4   9   4  206.58   14.20
  -4  -9   4  196.18   16.30
   4   9   4  212.58   15.70
   4  -9  -4  385.66  198.48
  -4  -9   4  206.98   16.60
   4  -9  -4  260.37   13.90
  -4   9  -4  255.97  143.39
   4   9  -4  208.28   14.60
   4   9  -4  175.38  118.79
   4   9  -4  -44.60  214.58
  -4   9   4  237.68  139.89
   4   9  -4  218.68   13.80
  -4   9   4  181.08  103.09
  -4   9   4  239.98   14.70
  -4   9   4  257.07   14.00
   4  -9   4  263.27   14.60
  -4  -9  -4  201.38   15.80
  -4   9   4  265.37   17.10
   4  10   4  940.51   41.20
  -4  10  -4  844.02   42.00
   4  10   4  917.91   42.20
   4  10  -4  828.82   40.50
   4  10  -4  819.62   38.80
   4 -10   4  863.81   41.20
  -4  10   4  907.51   42.80
   5   0   4    6.40    2.10
  -5   0   4   20.00   18.60
  -5   0  -4   -5.10   38.00
   5   0  -4    4.20   14.20
  -5   0   4    4.30    1.40
   5   0   4    3.50   39.20
  -5   0  -4    4.50    1.60
  -5   0   4    2.90   33.80
   5   0   4   23.90   20.60
  -5   0  -4    2.90    1.40
   5   0  -4   30.70   31.30
  -5   0  -4   -2.80   18.70
  -5   1  -4  672.13   78.69
   5   1   4  806.02   59.29
   5   1   4  772.62   30.80
  -5  -1   4  750.32   79.29
   5   1   4  791.02   32.40
   5   1   4  785.32   31.90
  -5  -1   4  822.72   58.19
   5   1   4  791.62   80.39
  -5   1  -4  785.32   58.59
  -5   1  -4  763.72   31.90
   5  -1  -4  705.33   49.60
   5  -1  -4  721.43   68.19
   5   1   4  777.82   30.80
  -5   1  -4  787.32   32.10
  -5  -1   4  773.42   31.60
   5  -1   4  764.92   30.60
  -5  -1  -4  734.53   55.89
   5  -1   4  816.52   88.19
  -5   1   4  790.72   75.29
  -5   1   4  771.32   31.40
   5  -1   4  809.92   61.29
   5  -1   4  766.82   31.60
  -5  -1  -4  783.12   32.10
   5   1  -4  712.53   73.59
  -5   1   4  771.22   53.79
  -5  -1  -4  745.73   31.80
  -5  -1  -4  773.92   32.10
  -5  -1  -4  802.72   80.89
   5   1  -4  846.22   55.59
  -5   1   4  757.52   30.50
   5   2   4  364.06   15.20
  -5   2  -4  334.77   16.10
   5   2   4  291.57   42.00
   5   2   4  391.66   66.49
   5  -2  -4  306.27   37.60
  -5   2  -4  407.26   47.80
  -5  -2   4  356.76   15.90
   5  -2  -4  317.77   56.99
   5   2   4  365.56   15.80
  -5   2  -4  338.87   15.80
   5   2   4  363.56   16.60
   5   2   4  363.06   15.10
  -5   2  -4  375.56   75.69
   5  -2   4  370.96   47.00
   5   2  -4  344.37   69.69
  -5   2   4  348.37   15.20
  -5   2   4  341.47   14.80
  -5  -2  -4  351.16   16.10
  -5  -2  -4  278.17   40.70
  -5  -2  -4  357.36   63.49
   5  -2   4  346.37   15.30
  -5   2   4  385.36   40.20
  -5   2   4  374.36   60.39
  -5  -2  -4  355.56   16.30
   5  -2   4  345.57   14.90
   5   2  -4  400.36   45.00
   5   2  -4  310.27   37.00
   5  -2   4  389.86   77.49
  -5  -2  -4  357.66   15.80
   5   3   4  480.05   21.60
  -5   3  -4  370.46   51.29
  -5   3  -4  277.87   80.09
  -5  -3   4  474.35   21.00
   5   3   4  466.05   77.09
  -5   3  -4  467.85   21.10
   5   3   4  474.55   20.20
   5   3   4  418.86   50.59
   5   3   4  478.25   20.40
  -5   3  -4  443.46   60.19
   5   3   4  479.65   20.20
   5  -3  -4  497.25   70.39
   5  -3  -4  469.15   48.20
  -5   3   4  472.35   74.79
   5   3  -4  472.25   56.29
   5   3  -4  429.26   85.99
  -5  -3  -4  438.46   20.90
  -5  -3  -4  444.96   21.10
  -5  -3  -4  444.16   20.40
   5  -3   4  496.35   20.00
   5   3  -4  430.66   46.10
   5   3  -4  441.26   19.20
  -5   3   4  501.75   20.00
   5   3  -4  443.56   68.79
  -5   3   4  565.44   50.79
  -5  -3  -4  377.16   49.90
   5  -3   4  501.35   19.90
  -5  -3  -4  401.66   76.99
  -5   3   4  509.85   19.90
  -5   4  -4  270.97   93.19
   5  -4  -4  260.97   72.19
   5  -4  -4  393.96   51.19
  -5   4  -4  428.36   87.89
   5   4   4  380.36   17.40
   5   4   4  393.16   18.90
  -5   4  -4  376.16   18.30
  -5  -4   4  415.66   19.00
   5   4   4  274.17   72.39
   5   4   4  417.46   53.19
  -5   4  -4  375.96   53.09
   5   4   4  383.16   17.40
  -5   4  -4  263.97   61.99
   5   4   4  387.26   17.40
  -5  -4   4  405.26   18.50
   5   4  -4  393.76   50.69
   5   4  -4  362.66   74.39
  -5  -4  -4  226.78   74.09
  -5  -4  -4  353.56   53.39
   5   4  -4  408.26   17.00
   5   4  -4  391.26   15.90
  -5  -4  -4  396.26   18.60
  -5   4   4  362.16   53.09
  -5   4   4  479.45   84.79
  -5  -4  -4  388.26   17.60
   5   4  -4  394.46   62.59
   5  -4   4  359.96   17.10
  -5   4   4  370.46   17.10
  -5   4   4  375.36   16.70
   5   4  -4  426.66   97.29
   5   5   4  327.07   15.80
  -5   5  -4  443.26   63.99
   5  -5  -4  310.97   84.19
  -5  -5   4  315.17   18.20
   5   5   4  300.27   61.79
   5   5   4  331.27   17.10
  -5   5  -4  342.37   16.90
  -5  -5   4  327.27   17.20
   5   5   4  343.47   16.00
  -5   5  -4  262.57   82.89
  -5   5  -4  311.17   63.09
   5   5   4  328.87   15.50
  -5   5  -4  364.56   99.19
   5  -5  -4  326.67   58.79
   5   5   4  429.36   96.69
  -5   5   4  325.17   14.80
   5  -5   4  321.87   15.60
   5   5  -4  351.16   99.79
   5   5  -4  326.07   14.20
  -5   5   4  370.66   59.09
  -5  -5  -4  339.97   16.90
   5   5  -4  334.57   15.40
  -5   5   4  276.07   16.70
  -5  -5  -4  339.57   15.80
   5   5  -4  376.56   76.29
   5   5  -4  281.47   56.99
  -5   5   4  255.37   79.29
  -5  -5  -4  344.37   61.69
  -5  -5  -4  337.77   94.29
   5   5  -4  303.77   79.19
   5   6   4  214.78   11.80
  -5   6  -4  161.68   88.09
   5  -6  -4  118.29   47.50
  -5   6  -4  158.58   63.49
  -5  -6   4  223.08   13.10
   5   6   4  214.28   11.50
   5   6   4  214.18   13.00
  -5   6  -4  -71.09   91.69
  -5   6  -4  193.18   12.50
   5   6   4  207.18   11.70
   5  -6  -4   48.20   81.69
  -5  -6   4  220.78   13.50
  -5   6  -4  144.69   50.89
   5  -6   4  211.38   11.70
  -5  -6  -4  198.88   50.99
  -5   6   4  164.28   87.59
  -5   6   4  214.38   12.70
   5   6  -4  186.58   49.90
   5   6  -4  186.78   10.10
  -5   6   4  235.88   52.29
  -5   6   4  209.78   10.60
   5   6  -4  287.77   67.89
  -5  -6  -4  181.98  100.89
  -5   6   4  212.68   11.50
  -5  -6  -4  192.38   12.40
   5   6  -4  189.28   11.20
   5  -6   4  214.48   10.80
   5   6  -4  300.07  116.99
   5   6  -4  241.28   87.69
   5   7   4  513.65   24.50
   5  -7  -4  455.25   86.29
   5   7   4  520.65   25.80
  -5  -7   4  537.75   26.00
  -5   7  -4  517.35  105.59
   5   7   4  856.81  170.88
  -5   7  -4  510.45   25.60
  -5   7  -4  484.95  156.98
   5  -7  -4  495.25   22.50
   5   7   4  521.55   23.70
  -5  -7   4  517.55   26.00
   5  -7  -4  691.93  141.89
   5   7   4  622.54   95.49
  -5   7   4  533.85   25.60
  -5  -7  -4  427.96   82.29
  -5  -7  -4  392.26  112.29
   5   7  -4  479.75   23.80
   5   7  -4  484.35   22.50
   5  -7   4  544.25   23.20
  -5  -7  -4  484.15   25.10
   5   7  -4  477.15  111.09
   5  -7   4  531.35   24.30
   5   7  -4  767.12  166.28
  -5   7   4  524.65   23.00
  -5   7   4  532.15   24.00
   5  -8  -4  118.29   69.19
  -5   8  -4  -52.59  129.49
   5  -8  -4   48.30  128.19
  -5   8  -4   -8.60   69.99
   5   8  -4 -117.19  164.78
   5   8  -4  -33.80   85.69
  -5   8   4   -0.90   68.69
  -5   8   4 -119.89  117.39
   5   9   4  620.24   28.40
   5   9   4  607.74   32.00
  -5   9  -4  587.24   33.80
   5   9   4  631.54   31.00
  -5  -9   4  619.84   31.50
   5  -9  -4  557.34   26.80
  -5   9   4  570.54   30.70
   5   9  -4  622.64   27.40
   5   9  -4  612.54   29.10
   5  -9   4  587.24   27.80
  -5   9   4  558.04   28.80
   5  10   4   64.49   11.00
  -5  10  -4   68.79   11.60
   5  10   4   57.39   11.40
   5  10   4   72.29   11.40
   5 -10  -4   75.19    9.90
   5  10  -4   61.99   10.30
   5 -10   4   59.19   10.70
  -5  10   4   72.99   12.30
   5  10  -4   69.19   10.20
   6   0   4 3213.58  130.69
  -6   0  -4 3480.15  181.18
  -6   0  -4 3385.66  130.79
   6   0   4 3381.66  160.88
  -6   0   4 3205.18  150.68
  -6   0  -4 3376.46  130.79
  -6   0   4 3195.48  129.99
   6   0   4 3382.76  189.28
  -6   0  -4 3440.36  156.08
   6   0  -4 3432.96  147.19
  -6   0   4 3330.77  171.88
  -6   1  -4  665.93   28.00
  -6   1  -4  591.34   54.99
  -6   1  -4  682.43   28.10
   6  -1  -4  669.53   45.60
   6   1   4  751.52   84.29
   6   1   4  682.93   27.90
   6  -1  -4  797.52   66.69
   6   1   4  605.04   54.99
  -6   1  -4  664.33   84.39
   6   1   4  652.93   28.30
  -6  -1   4  646.74   27.40
   6   1  -4  578.04   70.79
  -6   1   4  661.93   50.19
  -6  -1  -4  733.83   55.49
  -6   1   4  668.63   27.30
  -6  -1  -4  651.13   28.10
  -6  -1  -4  675.73   28.10
   6  -1   4  620.14   88.39
   6  -1   4  685.83   58.89
  -6  -1  -4  786.52   81.59
   6  -1   4  647.84   27.50
  -6   1   4  732.03   74.49
  -6  -1  -4  669.43   27.90
  -6   1   4  660.73   26.40
   6   1  -4  599.24   49.70
   6   2   4 2595.54  155.78
   6   2   4 2315.27   93.79
   6  -2  -4 2459.05  117.99
  -6   2  -4 2344.77  126.29
  -6   2  -4 2293.87   93.29
   6   2   4 2344.77  124.09
  -6  -2   4 2350.56   92.99
   6  -2  -4 2666.13  154.28
  -6   2  -4 2272.47   93.09
  -6   2  -4 2374.16  158.68
   6   2   4 2408.86   93.09
  -6  -2  -4 2290.67  148.89
   6   2  -4 2843.82  219.28
   6   2  -4 2384.06  115.59
   6   2  -4 2338.67  136.99
   6   2  -4 2582.74  151.68
  -6  -2  -4 2309.27   93.49
   6  -2   4 2436.06  129.79
  -6   2   4 2308.67  142.29
   6  -2   4 2272.17  155.48
  -6  -2  -4 2325.67  120.99
  -6   2   4 2351.96   91.89
  -6   2   4 2353.26   92.19
  -6  -2  -4 2276.87   93.19
   6  -2   4 2308.57   92.29
  -6   2   4 2257.67  116.69
  -6  -2  -4 2271.97   92.89
   6   3   4   58.59    3.70
  -6   3  -4   24.30   64.09
   6   3   4  -15.00   53.59
   6   3   4   60.99    3.80
   6  -3  -4   50.59   48.90
  -6   3  -4   91.79   57.99
   6   3   4   62.59    5.00
  -6   3  -4   69.89    5.20
   6   3   4   43.50   28.60
  -6   3  -4   49.20   33.40
   6  -3  -4   70.59   27.00
  -6  -3   4   56.19    5.70
  -6   3  -4   70.69    5.60
  -6   3  -4   57.89   29.10
  -6  -3   4   59.29    5.30
   6   3   4   58.89    5.70
   6   3  -4   -3.80   29.00
  -6   3   4   57.39   28.50
  -6  -3  -4   62.09    4.90
  -6   3   4  128.19   54.69
   6   3  -4   93.79   47.40
   6   3  -4  134.09   61.89
  -6  -3  -4   67.79    5.70
   6   3  -4   67.59   24.80
  -6  -3  -4   67.69    5.40
   6  -3   4   60.09    4.10
  -6   3   4   62.69    4.00
  -6   3   4   57.79    4.30
  -6  -3  -4   71.09   32.50
  -6  -3  -4  106.29   55.79
   6   4   4  858.81  105.69
   6   4   4  774.02   33.70
  -6  -4   4  818.42   33.90
  -6   4  -4  687.23  116.29
  -6   4  -4  749.13   33.00
   6   4   4  793.42   72.89
  -6   4  -4  736.63  102.89
  -6   4  -4  765.12   69.19
  -6  -4   4  787.32   33.10
  -6   4  -4  688.23   80.59
   6   4   4  767.22   31.40
   6  -4  -4  706.23   98.09
   6   4   4  770.52   31.30
   6  -4  -4  672.43   65.79
  -6  -4  -4  771.32   72.79
   6  -4   4  768.92   30.90
   6   4  -4  651.83   79.39
   6   4  -4  700.93   66.79
  -6  -4  -4  741.03   33.20
  -6   4   4  795.52   31.80
  -6  -4  -4  572.14  104.09
  -6  -4  -4  727.53   32.00
   6   4  -4  599.44   99.99
  -6   4   4  775.72  105.39
   6   4  -4  595.04  111.29
  -6   4   4  824.52   71.09
  -6   4   4  776.62   30.80
   6   5   4   15.40    4.70
  -6   5  -4   69.49   93.09
   6   5   4   -1.60   36.40
  -6   5  -4   56.09   78.19
  -6   5  -4   11.60   47.50
   6   5   4   11.40    3.40
  -6   5  -4   10.20    3.30
   6  -5  -4    0.40   33.50
   6   5   4   10.80    3.50
   6   5   4   85.89   76.49
   6  -5  -4   36.10   73.09
   6   5   4   10.70    3.20
  -6   5  -4   24.10   38.50
   6   5  -4   14.70    2.40
  -6  -5  -4   19.80   81.49
  -6  -5  -4   16.20    4.90
  -6  -5  -4   26.60   39.80
   6   5  -4   15.50   33.80
  -6   5   4   10.20    2.70
   6   5  -4   35.40   67.59
  -6   5   4   12.20    3.60
   6   5  -4  131.09   93.39
  -6  -5  -4   13.50    3.20
   6   5  -4   99.69   47.50
  -6  -6   4  711.43   32.80
   6   6   4  704.63   33.10
  -6  -6   4  711.13   33.20
   6  -6  -4  633.74  136.49
   6   6   4  726.63   88.49
   6   6   4  709.73   31.00
   6  -6  -4  587.34   85.69
   6   6   4  721.43   31.00
  -6   6  -4  790.32  106.99
   6   6   4  927.51  142.89
  -6   6  -4  738.23   32.90
  -6   6  -4  721.03  161.78
   6   6   4  697.13   30.80
   6   6  -4  722.83   29.40
   6   6  -4  789.42  108.89
  -6  -6  -4  742.23   31.30
  -6  -6  -4  842.62  150.28
  -6   6   4  682.13   32.20
  -6   6   4  701.83   31.00
   6  -6   4  684.13   29.80
   6   6  -4  735.43   30.40
   6   6  -4  911.11  135.89
  -6  -6  -4  760.82   33.00
   6   6  -4  712.33   84.89
   6   6  -4  910.61  174.18
  -6  -6  -4  686.43   87.09
  -6   6   4  676.03   29.50
   6  -7  -4  473.75   92.89
  -6   7  -4  340.27   86.39
  -6   7  -4  405.96   23.10
  -6   7  -4  326.97   73.59
   6  -7  -4  422.36  133.49
   6   7   4  491.55   22.00
   6   7   4  489.25   22.10
  -6  -7   4  493.65   24.00
  -6   7  -4  453.55  124.59
  -6   7  -4  461.55  161.58
   6   7   4  470.25   27.70
  -6  -7   4  483.55   24.20
   6   7  -4  427.46  120.99
  -6  -7  -4  462.15  129.59
  -6   7   4  435.26   21.70
  -6  -7  -4  463.85   23.50
  -6   7   4  436.06   20.00
  -6   7   4  423.96   23.10
  -6   7   4  409.66   95.59
   6   7  -4  551.74  175.88
  -6  -7  -4  390.36   81.19
   6   7  -4  464.95   21.20
  -6   7   4  385.76  128.09
   6   7  -4  517.75  116.59
   6  -7   4  442.46   20.30
   6   7  -4  451.45   20.10
   6   8   4   83.39    8.70
  -6  -8   4   70.39   11.40
   6   8   4   76.19    8.10
  -6  -8   4   71.69   10.50
   6   8   4   73.89    8.50
  -6   8  -4   63.79    9.40
   6   8   4   70.19    9.60
  -6   8   4   77.79    8.80
   6   8  -4   63.79    7.40
   6  -8   4   74.99    7.30
   6   8  -4   65.29    7.30
  -6  -8  -4   63.69   10.10
   6   9   4  257.17   17.70
   6   9   4  255.37   16.00
   6   9   4  232.18   15.60
  -6   9  -4  231.48   17.30
   6   9   4  258.67   16.20
   6   9  -4  252.17   14.40
   6   9  -4  273.87   15.50
   6  -9   4  203.98   15.10
   7   0  -4  -13.00   14.20
   7   0   4   -0.30   25.10
  -7   0  -4    0.00    1.30
  -7   0  -4   34.40   23.20
   7   0  -4    5.50   27.80
  -7   0  -4  -50.09   42.30
  -7   0   4    1.10    1.30
   7   0   4   43.70   51.89
  -7   0  -4    0.10    1.50
   7   0   4    1.30    1.70
  -7   1  -4  331.07   45.60
  -7   1  -4  294.27   63.59
   7   1   4  307.07   49.20
   7  -1  -4  324.97   32.30
  -7  -1   4  382.46   15.90
  -7   1  -4  325.77   16.30
  -7   1  -4  338.67   16.30
   7  -1  -4  295.27   48.40
   7   1   4  357.36   69.39
   7   1   4  389.26   17.00
  -7   1   4  372.26   37.60
   7   1  -4  348.97   35.70
  -7   1   4  353.16   15.60
   7   1  -4  393.16   51.19
  -7   1   4  355.66   14.60
   7   1  -4  392.16   55.09
  -7  -1  -4  328.67   63.49
  -7  -1  -4  291.67   43.40
  -7  -1  -4  378.36   16.50
   7  -1   4  383.16   51.79
  -7   1   4  382.26   56.99
  -7  -1  -4  370.36   16.40
  -7  -1  -4  376.96   16.70
   7  -1   4  360.66   16.00
   7  -1   4  380.06   82.39
   7   1  -4  370.36   33.30
   7  -2  -4   63.79   22.70
   7   2   4   62.19    5.60
  -7   2  -4   40.70   26.00
  -7  -2   4   59.89    5.70
   7  -2  -4    2.30   38.90
   7   2   4   21.00   59.59
   7   2   4   60.99   30.50
  -7   2  -4   70.59    5.50
  -7   2  -4   71.19    5.40
  -7  -2   4   54.79    4.70
  -7   2  -4   47.60   58.29
   7   2   4   55.89    5.00
  -7   2  -4   87.99   33.20
  -7   2   4  121.99   47.90
  -7  -2  -4   68.69    5.60
  -7  -2  -4   64.89    5.10
  -7   2   4   63.29    4.00
  -7  -2  -4   67.29    5.00
   7   2  -4   50.09   26.20
   7   2  -4  155.18   31.80
   7   2  -4   69.09   50.59
   7   2  -4   70.09   43.10
  -7  -2  -4   54.39   54.09
  -7  -2  -4   87.49   32.00
   7  -2   4   61.89    4.30
  -7   2   4   67.89   24.70
  -7   2   4   60.29    4.00
  -7   3  -4  234.28   11.90
  -7  -3   4  213.98   12.40
   7   3   4  204.48   12.10
   7   3   4  233.88   74.09
   7  -3  -4  206.88   40.60
  -7   3  -4  234.48   11.70
   7   3   4  203.78   42.60
  -7   3  -4  307.87   48.40
   7  -3  -4  251.37   59.39
  -7   3  -4  246.88   55.99
   7   3   4  203.78   12.20
  -7   3  -4  233.28   65.79
  -7   3  -4  252.67   77.79
  -7  -3   4  205.28   11.40
   7  -3   4  205.88    9.80
   7   3  -4  229.28   51.99
  -7  -3  -4  218.98   49.90
   7   3  -4  236.48   73.49
  -7  -3  -4  231.18   11.30
  -7   3   4  270.17   64.99
   7   3  -4  331.57   75.59
   7   3  -4  234.38   43.00
  -7   3   4  212.68   10.40
  -7  -3  -4  235.08   12.40
  -7   3   4  163.28   34.10
  -7   3   4  211.38    9.60
  -7  -3  -4  268.77   71.09
   7   4   4  971.70   90.39
   7  -4  -4 1270.47  117.59
  -7  -4   4 1096.39   46.60
   7   4   4 1091.79   47.30
  -7   4  -4 1094.39   96.69
  -7   4  -4 1182.18   47.00
   7   4   4 1090.19  126.69
  -7  -4   4 1109.19   47.60
   7   4   4 1099.79   45.70
  -7   4  -4 1071.49  150.58
   7  -4  -4 1039.30   79.69
  -7  -4  -4 1096.09   45.90
  -7  -4  -4 1108.69   89.49
   7   4  -4 1122.59  139.29
  -7   4   4 1115.59   45.30
   7   4  -4 1475.95  120.39
  -7   4   4 1090.69  121.59
   7  -4   4 1102.29   44.00
  -7  -4  -4 1025.80  127.59
  -7   4   4 1093.69   84.59
   7   4  -4 1043.90   80.69
  -7  -4  -4 1145.99   47.20
   7   4  -4 1150.48   94.59
  -7   5  -4  526.95   26.50
   7   5   4  629.94   27.90
  -7  -5   4  617.14   27.10
   7   5   4  614.34   25.70
   7  -5  -4  588.74  120.39
  -7   5  -4  498.75  214.88
  -7  -5   4  628.84   28.00
  -7   5   4  586.84   25.40
   7   5  -4  479.65  106.09
   7   5  -4  583.74   71.49
   7  -5   4  558.54   23.50
   7   5  -4  421.26  119.59
   7  -5   4  575.44   23.60
  -7  -5  -4  536.15   25.40
  -7  -5  -4  562.34  134.49
  -7  -5  -4  423.46   98.69
  -7  -5  -4  557.04   27.00
   7   5  -4  371.16   86.69
   7   6   4  121.69    9.10
  -7  -6   4  121.99   11.20
   7  -6  -4  340.67  121.09
  -7   6  -4  194.88  133.29
   7   6   4  243.38  109.79
  -7   6  -4  165.08   11.10
  -7   6  -4  292.27  111.49
   7   6   4  114.19   53.09
  -7   6  -4  161.68   56.19
   7   6   4  123.89    8.10
   7   6   4  124.19   10.90
   7   6   4  127.89    8.00
   7  -6  -4  141.69   53.69
  -7   6  -4  155.28   69.79
  -7  -6   4  127.49   10.60
   7   6  -4  146.59    7.10
   7   6  -4  102.39  100.19
  -7   6   4  144.29   10.50
  -7  -6  -4  216.88   61.29
  -7   6   4  147.89    9.50
   7   6  -4  115.99   67.59
   7   6  -4  250.87  129.49
   7  -6   4  143.09    7.30
  -7  -6  -4  233.48  116.19
   7  -6   4  135.79    7.10
  -7  -6  -4  151.48    9.40
  -7  -6  -4  149.88   11.20
   7   6  -4   85.99   50.09
  -7  -7   4   85.19   10.10
   7   7   4   85.39    9.90
   7   7   4   84.29    7.40
  -7   7  -4   68.29    9.00
   7   7   4   91.59    7.20
  -7  -7   4   91.79   11.00
  -7   7   4   70.89    8.10
   7  -7   4   72.99    5.70
   7   7  -4   84.39    6.20
  -7  -7  -4   69.59   10.00
   7   7  -4   85.89    6.10
  -7   7   4   69.59    9.10
   7   8   4   36.50    6.90
   7   8   4   38.00    7.90
   7   8   4   42.40    7.50
  -7   8  -4   31.60    8.70
  -7  -8   4   33.50   10.00
   7   8   4   35.40    9.00
   7  -8   4   35.30    5.60
  -7   8   4   36.80    8.90
   7   8  -4   36.10    6.10
  -7   8   4   28.00    8.30
   7   8  -4   34.00    6.00
  -7   9  -4  202.78   16.90
   7   9   4  232.28   15.00
   7   9   4  224.28   17.20
   7   9   4  242.98   18.00
   7   9   4  217.88   14.60
   7   9  -4  209.18   13.10
  -7   9   4  243.08   17.50
   7   9  -4  208.78   13.40
   8   0   4   91.09    6.40
  -8   0  -4  108.19    6.60
  -8   0   4   94.69    6.50
  -8   0  -4  107.49    6.60
   8   0   4  117.69   63.69
   8   0   4   69.39   33.20
  -8   0  -4  124.49   52.49
  -8   0  -4  104.89   28.70
  -8   0   4   88.79    5.60
   8   1   4  536.35   23.70
  -8  -1   4  539.05   23.80
   8   1   4  534.05   96.79
  -8   1  -4  409.96   79.59
  -8  -1   4  549.45   22.70
   8   1   4  465.65   60.59
  -8   1  -4  517.95   52.99
  -8   1  -4  538.65   23.40
  -8   1  -4  549.95   23.60
   8   1  -4  470.95   40.20
   8  -1   4  559.54   22.80
  -8   1   4  543.45   22.60
  -8  -1  -4  506.95   52.59
  -8  -1  -4  529.55   23.50
  -8  -1  -4  538.15   23.30
  -8  -1  -4  547.85   77.89
  -8  -1  -4  529.15   23.30
   8   1  -4  502.45   30.70
  -8   1   4  538.45   22.40
  -8   2  -4 1202.58   48.60
  -8  -2   4 1235.38   49.40
  -8   2  -4 1033.10  101.99
  -8  -2   4 1151.18   47.90
  -8   2  -4 1250.67   83.49
   8   2   4 1115.79   86.49
   8   2   4 1171.48   49.10
  -8   2  -4 1220.78   48.70
   8   2   4 1202.88  124.49
   8  -2  -4 1078.89   76.19
  -8   2  -4 1092.19   74.39
   8  -2  -4 1148.79   60.29
  -8   2  -4 1232.48  118.49
  -8  -2  -4 1283.07   49.30
  -8  -2  -4 1212.88   48.50
  -8   2   4 1161.68   46.70
  -8   2   4 1141.49   46.70
   8  -2   4 1161.08   46.90
  -8   2   4 1102.49   65.09
   8   2  -4 1288.37   86.09
  -8  -2  -4 1327.17  112.39
  -8   2   4 1030.60   83.69
  -8  -2  -4 1192.28   48.20
  -8   2   4 1182.68   46.70
   8   2  -4 1162.98   91.79
   8   2  -4 1173.28   69.69
  -8  -2  -4 1214.48   79.59
   8   2  -4 1189.58   65.59
  -8   3  -4   98.19   33.70
   8  -3  -4    8.90   47.80
  -8   3  -4   11.50   60.29
  -8  -3   4   62.79    5.90
  -8   3  -4   55.79    5.70
  -8   3  -4   55.29    5.60
   8  -3  -4   77.69   25.80
   8   3   4   59.69   39.00
  -8   3  -4   38.70   39.80
   8   3   4   79.59   76.39
  -8  -3   4   60.09    6.80
  -8   3  -4   63.49   80.09
   8   3   4   58.49    5.60
   8   3   4   65.39    6.60
  -8   3   4   51.89    4.50
  -8  -3  -4   65.69    5.50
  -8   3   4   60.69   28.80
   8   3  -4  126.49   67.39
  -8  -3  -4   67.89    6.60
   8   3  -4   69.49   34.40
  -8  -3  -4   74.39   35.90
   8   3  -4    6.90   60.69
   8   3  -4   22.00   28.40
  -8   3   4   80.99   54.39
  -8  -3  -4   -5.80   66.79
  -8   4  -4  847.02  149.69
   8  -4  -4  755.52  106.49
   8   4   4  813.02   33.50
  -8   4  -4  707.73   76.59
  -8  -4   4  785.12   34.20
   8  -4  -4  706.13   67.59
   8   4   4  790.02   35.20
   8   4   4  612.94  152.28
  -8   4  -4  833.22  133.69
   8   4   4  757.82  102.79
  -8   4  -4  790.52   34.00
  -8   4  -4  796.32   34.30
  -8   4  -4  805.92   89.89
  -8  -4   4  789.72   35.30
  -8  -4  -4  809.42   33.60
   8   4  -4  662.43   82.99
   8   4  -4  754.02  114.69
  -8   4   4  774.92  114.99
  -8  -4  -4  838.82   35.10
   8   4  -4  566.94  116.89
  -8  -4  -4  845.02  197.78
  -8   4   4  767.72   32.80
   8   4  -4  704.73   73.69
  -8   4   4  733.53   71.49
  -8   5  -4   50.79   60.49
  -8  -5   4   69.79    8.90
   8   5   4   62.09    6.80
   8   5   4  -42.60  100.59
  -8   5  -4  185.28  128.49
  -8   5  -4   64.59    7.20
   8   5   4   78.09   53.39
   8   5   4   63.39    8.10
  -8  -5   4   61.19    7.70
   8   5  -4   79.79   90.19
   8   5  -4   90.69   44.60
  -8  -5  -4    1.20   96.89
  -8  -5  -4   59.59    8.00
  -8  -5  -4   61.79    6.20
  -8  -5  -4   89.79   52.49
  -8   5   4   70.29    6.50
  -8   5   4   70.39    7.00
   8   6   4  982.60   42.50
  -8  -6   4 1023.90   44.40
  -8  -6   4  998.50   45.20
  -8   6  -4 1006.10   44.40
  -8   6   4 1005.70   42.60
  -8   6   4  998.20   44.10
  -8  -6  -4 1029.30   44.90
  -8  -6  -4  992.50   42.70
  -8  -7   4  474.75   26.20
  -8   7  -4  569.64   26.90
  -8  -7   4  527.95   32.20
   8   7   4  475.15   26.80
  -8   7   4  522.45   24.70
   8   7  -4  477.75   21.20
  -8   7   4  527.75   26.40
  -8  -8   4 1660.33   71.89
  -8   8  -4 1669.63   71.49
   8   8   4 1613.44   68.59
   8   8   4 1682.03   71.99
  -8   8   4 1725.73   71.69
  -8   8   4 1626.14   69.19
   8   8  -4 1639.94   66.19
  -9   0  -4    8.60    2.80
  -9   0  -4    8.50    2.60
   9   0   4    8.80    2.80
  -9   0  -4   34.30   24.20
  -9   0   4    9.30    2.80
  -9   0   4    8.40    2.20
  -9   0  -4  -47.50   42.60
  -9  -1   4  258.47   12.70
   9   1   4  265.77   13.80
  -9   1  -4  227.98   38.30
  -9  -1   4  260.37   13.80
  -9   1  -4  258.27   41.90
  -9   1  -4  278.97   13.50
  -9   1  -4  281.17   13.80
   9   1   4  385.16  114.19
  -9   1  -4  275.67   53.19
   9   1   4  260.57   63.09
  -9   1  -4  230.78   56.09
  -9   1   4  280.37   12.50
  -9  -1  -4  260.47   13.50
   9  -1   4  302.27   12.80
  -9  -1  -4  257.97   13.60
  -9   1   4  295.17   12.60
  -9  -1  -4  235.88   58.19
  -9  -1  -4  253.57   13.20
  -9  -1  -4  249.68   43.20
  -9   2  -4  444.06   85.09
  -9  -2   4  371.76   18.80
   9   2   4  365.86   85.39
  -9  -2   4  380.16   17.40
  -9   2  -4  373.36   17.80
  -9   2  -4  387.06   53.39
  -9   2  -4  307.17   46.70
  -9   2  -4  382.96   18.00
   9   2   4  374.46   18.50
   9   2   4  448.26   65.19
  -9   2  -4  377.66   76.09
  -9  -2  -4  395.36   17.80
  -9  -2  -4  441.56   89.19
  -9  -2  -4  390.66   53.79
  -9   2   4  345.97   15.70
  -9   2   4  344.77   16.60
  -9  -2  -4  387.26   17.60
  -9  -2  -4  400.16   18.40
  -9   3  -4  130.59    8.60
   9   3   4  128.39    8.50
   9   3   4   90.49   45.90
   9   3   4  245.28   90.39
  -9   3  -4  127.59    8.90
  -9   3  -4  151.48   37.80
  -9  -3   4  125.19    8.70
  -9   3  -4  -22.90   63.89
   9   3   4  132.59    9.70
  -9   3  -4   75.29   80.89
  -9   3  -4   95.99   44.80
  -9  -3   4  129.69   10.10
  -9   3   4  168.28   33.70
  -9  -3  -4   -3.10   74.89
   9   3  -4  135.29   49.40
  -9  -3  -4  110.29    9.20
   9   3  -4   90.19   57.49
  -9   3   4   79.49   40.70
   9   3  -4  124.99   30.40
  -9  -3  -4  131.79   42.80
   9   3  -4  106.89   32.20
  -9  -3  -4  118.39    8.20
  -9   3   4  145.79    7.50
   9   4   4  719.83  168.58
   9   4   4  545.55  128.39
  -9   4  -4  598.54   27.60
   9   4   4  627.24   28.90
   9   4   4  623.14   27.00
  -9   4  -4  495.15   88.19
  -9   4  -4  552.84  122.29
  -9   4  -4  605.34   27.80
  -9  -4   4  564.14   30.20
  -9  -4   4  628.74   29.00
  -9  -4  -4  606.64   26.90
  -9   4   4  631.94   26.20
  -9  -4  -4  596.94   28.40
  -9  -4  -4  579.84  159.38
  -9   5  -4  209.68   13.20
   9   5   4  194.48   13.70
  -9  -5   4  200.18   13.20
   9   5   4  186.68   12.00
  -9  -5   4  185.68   14.30
  -9   5   4  182.48   11.40
  -9   5   4  177.18   12.10
  -9  -5  -4  223.58   14.20
   9   5  -4  235.08  118.29
  -9  -5  -4  228.48   12.10
   9   5  -4  187.68   70.29
  -9   6  -4  320.27   18.80
  -9  -6   4  349.47   19.40
  -9  -6   4  328.07   20.60
   9   6   4  337.57   19.80
  -9   6   4  326.87   17.30
  -9   6   4  310.07   18.20
  -9  -6  -4  334.57   20.00
   9   7   4  243.98   17.10
  -9  -7   4  233.48   17.50
   9   7   4  226.08   15.00
  -9   7  -4  226.78   17.30
  -9   7   4  254.07   15.50
  -9   7   4  262.57   16.90
 -10   0  -4 1294.87   54.99
 -10   0   4 1392.36   53.99
 -10   0  -4 1303.17   55.29
 -10   0   4 1361.56   54.59
  10   0   4 1408.06   54.89
  10   1   4  481.45   22.20
 -10  -1   4  468.65   21.00
 -10   1  -4  498.85   22.30
 -10  -1   4  469.05   22.30
 -10   1  -4  514.85   22.10
 -10  -1  -4  444.36   43.50
 -10  -1  -4  487.35   22.00
 -10   1   4  478.65   20.30
 -10   1   4  480.25   20.60
 -10  -1  -4  479.65   21.80
 -10  -1  -4  502.05   31.60
  10   2   4  861.01   70.59
 -10   2  -4  976.10   73.19
 -10  -2   4  921.71   39.90
 -10  -2   4  928.41   41.30
 -10   2  -4  773.92   67.89
  10   2   4  808.42  107.59
 -10   2  -4 1031.10   41.20
 -10   2  -4  965.20   55.89
 -10   2  -4  870.41   54.39
  10   2   4  961.40   41.30
 -10   2  -4 1039.50   40.90
 -10  -2  -4 1029.50   40.70
 -10   2   4  943.81   39.40
 -10  -2  -4 1043.50   65.49
 -10  -2  -4 1015.00   40.70
 -10  -2  -4  998.60   41.20
 -10  -2  -4  804.32   88.79
  10   3   4  167.48   11.90
 -10  -3   4  159.28   10.70
  10   3   4  141.29   93.79
 -10   3  -4  198.98   11.60
  10   3   4   46.10   47.20
 -10   3  -4  196.58   11.40
 -10  -3   4  162.38   12.30
 -10  -3  -4  197.58   78.39
 -10   3   4  185.58    9.30
 -10  -3  -4  181.08   12.20
 -10  -3  -4  179.68   10.80
 -10  -3  -4  149.49   40.60
 -10  -4   4  567.94   27.50
 -10   4  -4  641.64   85.89
 -10  -4   4  551.14   25.80
  10   4   4  541.05   26.80
 -10   4  -4  591.04   31.00
 -10   4  -4  717.93  152.38
 -10   4  -4  549.85   26.00
 -10  -4  -4  304.97   72.69
 -10  -4  -4  545.05   25.00
 -10   4   4  533.75   24.30
 -10   4   4  543.15   25.20
 -10  -4  -4  546.45   26.80
  10   4  -4  623.24   90.09
 -10  -4  -4  587.44  128.39
 -10   5  -4  168.58   12.10
  10   5   4  189.58   13.70
 -10  -5   4  190.48   15.20
 -10   5  -4  165.18   12.50
 -10  -5   4  186.38   13.30
 -10  -5  -4  175.78   14.30
 -10   5   4  111.79   55.99
 -10   5   4   16.80  106.29
 -10  -5  -4  206.48   11.80
 -10   5   4  173.58   11.30
 -10   5   4  148.49   12.00
 -10   6  -4  199.08   13.60
 -10   6  -4  195.48   14.80
 -10  -6   4  197.58   15.40
 -10   6   4  195.88   14.40
 -10   6   4  199.18   15.00
 -11   0  -4    4.20    3.60
 -11   0  -4   -1.20    3.00
 -11   1  -4  234.38   13.30
 -11   1  -4  230.38   13.00
 -11  -1   4  225.78   13.40
 -11  -1  -4  254.37   13.30
 -11  -1  -4  246.28   13.10
 -11   2  -4  427.26   19.80
 -11  -2   4  327.97   21.00
 -11   2  -4  423.46   19.20
 -11  -2   4  356.66   19.60
 -11  -2  -4  406.56   18.90
 -11  -2  -4  400.96   19.70
 -11   2   4  380.56   18.10
 -11   3  -4   12.60    8.20
 -11  -3   4   21.10    6.90
 -11  -3   4   23.00    6.30
 -11   3  -4   22.60    6.50
 -11   3   4   13.20    3.00
 -11   3   4   11.70    4.00
 -11   3   4   16.40    3.40
 -11  -3  -4   15.90    5.80
 -11  -3  -4   14.20    4.70
 -11   4  -4  525.95   24.90
 -11   4  -4  529.05   25.10
 -11  -4   4  525.75   25.00
 -11  -4   4  513.95   26.60
 -11   4   4  523.25   24.10
 -11   4   4  460.35   23.50
 -11  -4  -4  496.85   26.10
 -11  -4  -4  520.95   23.90
 -12   0  -4  392.26   18.80
 -12   0  -4  382.86   19.30
 -12   1  -4  612.74   27.90
 -12   1  -4  611.54   27.20
 -12  -1  -4  591.84   27.50
 -12  -1  -4  610.04   27.20
   0   0   5   17.40   43.60
   0   0  -5  -13.50   15.60
   0   0  -5   -1.20    0.70
   0   0   5   -0.10    1.10
   0   0   5   -2.00    0.70
   0   0  -5   -0.90    1.00
   0   0  -5  -34.50   34.40
   0   0   5  -41.20   16.80
   0  -1   5 5132.09  255.67
   0   1   5 5206.58  253.67
   0  -1   5 5245.98  229.08
   0   1   5 4909.11  221.98
   0  -1  -5 4826.12  245.18
   0   1  -5 4975.70  225.28
   0  -1  -5 5015.60  222.18
   0   1  -5 5010.60  253.57
   0  -1  -5 4465.65  191.98
   0  -2   5    3.40   24.60
   0   2   5    0.10    1.30
   0  -2   5    0.70   33.80
   0  -2  -5    0.40    1.10
   0  -2  -5   -0.60    1.10
   0  -2  -5  -25.90   27.60
   0   2   5    0.50    1.10
   0   2   5  -37.10   37.70
   0   2   5   -0.50    1.20
   0   2   5  -11.10   19.70
   0  -2  -5    0.20   19.70
   0   2  -5   23.70   47.70
   0   2  -5    0.10    1.00
   0   2  -5   21.00   23.90
   0   2  -5   -0.10    1.40
   0  -2   5    0.60    1.50
   0  -3   5 6898.91  296.67
   0   3   5 8170.68  333.47
   0  -3   5 7677.63  341.67
   0   3   5 7834.62  362.66
   0  -3   5 7057.59  374.76
   0   3  -5 7857.11  340.47
   0  -3  -5 7578.84  329.77
   0  -3  -5 8241.48  364.76
   0   3  -5 7532.85  373.36
   0   4   5    5.90    2.70
   0   4   5    3.10    2.00
   0   4  -5  -39.60   62.19
   0  -4  -5    5.70    2.60
   0  -4   5    2.40    2.20
   0   4   5  110.19   65.19
   0  -4  -5    2.50    1.60
   0   4  -5  -13.80   31.30
   0   4   5    7.60    2.40
   0  -4  -5    0.40   23.50
   0   4  -5    2.20    2.00
   0   4   5   31.00   29.70
   0  -4  -5   27.10   53.29
   0   5  -5   73.39   60.19
   0   5  -5   17.10   79.29
   0   5   5  117.19   40.80
   0  -5  -5  164.38   74.89
   0   5   5  108.69    8.00
   0   5   5  105.89    7.60
   0   5  -5  137.29   41.50
   0   5   5  109.29    7.90
   0   5  -5  143.89   46.30
   0   5   5  105.09   58.89
   0   5  -5  128.29    8.30
   0  -5  -5  131.59    7.80
   0  -5   5  109.29    8.30
   0   5   5  114.69    7.80
   0  -5  -5  104.89   40.00
   0   6   5  -12.90   79.29
   0   6   5  -43.50   33.60
   0   6  -5  -11.50   86.29
   0  -6  -5   -9.30   37.90
   0   6  -5   32.20   46.50
   0  -6  -5   53.49   65.89
   0   6  -5  -34.10   38.50
   0   6  -5    2.20   78.19
   0   7  -5 1319.77  172.88
   0  -7   5 1172.88   49.70
   0   7   5 1145.89   50.59
   0  -7  -5 1170.18   49.30
   0   7   5 1262.77  111.79
   0   7   5 1185.78   49.99
   0   7  -5 1360.86  179.58
   0  -7   5 1191.68   50.79
   0   7  -5 1237.58  116.09
   0   7  -5 1159.98   50.49
   0  -7  -5 1094.59  109.09
   0  -7  -5  983.50  168.58
   0   7  -5  989.80  125.19
   0   7   5 1037.00  163.98
   0  -8  -5  112.99   66.49
   0   8   5   24.80   57.79
   0   8  -5   83.89  194.78
   0   8  -5   48.20   99.19
   0   8  -5  -33.40   68.29
   0  -8  -5   94.69  128.39
   0   8   5  170.78   99.49
   0   8  -5   -0.20   97.59
   0   9   5  604.74   30.50
   0   9   5  620.24  127.29
   0   9  -5  493.65  150.38
   0   9  -5  504.25  177.38
   0   9  -5  537.65  122.39
   0   9  -5 1062.19  141.79
   0  -9   5  597.34   29.40
   0  -9  -5  449.86   94.59
   0  -9   5  607.64   30.90
   0  -9  -5  288.57  179.38
   0   9   5  599.04   29.30
   0   9   5  612.94   28.60
   0   9   5  721.13  159.48
   0  -9  -5  592.74   28.80
   0   9  -5  578.84   29.90
   0 -10  -5 -140.89   99.39
   0  10   5  148.79  102.99
   0  10  -5  -47.80  118.19
   0  10  -5   98.09  192.98
   0  10   5    8.70    6.00
   0 -10   5   11.50    6.90
   0 -10  -5 -161.98  197.38
   0 -10  -5   13.30    6.10
   0  10   5 -164.58  147.59
   0 -10   5   11.50   11.80
   0  11  -5  125.19   14.60
   0  11   5  137.89   15.00
   0  11   5  136.49   13.80
   1   0  -5  241.08   45.60
  -1   0   5  190.68   33.10
  -1   0   5  218.08   48.30
  -1   0  -5  104.69   35.80
   1   0  -5  165.58   30.90
   1   0   5  151.38   51.89
   1   1   5   50.39    4.10
  -1  -1   5    5.30   41.30
   1   1   5   51.49    4.00
  -1  -1   5   34.20   21.40
  -1  -1   5   61.69    4.50
   1  -1  -5   51.79    3.50
   1  -1  -5   27.80   18.70
   1   1   5   54.79   44.60
   1   1   5   51.59    3.50
  -1   1  -5   39.60   32.30
  -1   1  -5   48.40    4.10
  -1   1  -5   50.89    3.50
  -1   1  -5   50.49   22.00
   1   1   5   87.79   25.10
   1  -1  -5   49.30    4.00
   1  -1  -5   92.99   37.90
  -1   1   5   22.30   29.10
  -1  -1  -5   52.99    4.20
  -1   1   5   49.50    3.90
   1   1  -5   96.39   43.70
  -1  -1  -5   56.09    3.70
  -1  -1  -5   83.29   40.00
   1  -1   5   47.70    4.20
  -1   1   5   22.10   18.80
  -1   1   5   46.80    3.20
   1  -1   5   35.10   35.50
  -1  -1  -5   37.00   19.50
  -1   1   5   48.40    4.00
   1   1  -5   46.80   21.30
   1  -1   5   51.89   25.80
   1   2   5  409.96   44.60
  -1  -2   5  375.26   17.20
  -1  -2   5  352.96   79.99
  -1   2  -5  364.96   17.20
   1   2   5  404.26   69.79
  -1  -2   5  322.17   49.10
   1  -2  -5  362.06   41.60
   1   2   5  379.56   17.10
   1   2   5  376.76   16.30
  -1   2  -5  360.36   16.10
  -1   2  -5  393.96   48.10
   1  -2  -5  382.46   67.49
   1  -2  -5  381.46   16.30
   1   2   5  393.06   17.10
  -1   2  -5  273.67   60.89
  -1  -2  -5  364.46   43.50
   1  -2   5  342.37   74.09
  -1  -2  -5  402.06   17.30
   1   2  -5  393.66   77.59
   1   2  -5  406.06   15.90
  -1  -2  -5  360.66   56.19
  -1   2   5  365.36   16.80
  -1   2   5  298.17   41.40
  -1   2   5  359.66   16.90
   1  -2   5  314.17   46.90
  -1   2   5  351.76   15.90
   1   2  -5  402.86   17.30
   1   2  -5  412.76   47.70
  -1   2   5  398.76   67.99
  -1  -2  -5  402.36   17.00
   1  -2   5  349.87   17.20
   1   3   5  233.98   11.50
   1   3   5  226.18   55.89
  -1  -3   5  220.38   11.70
   1  -3  -5  317.97   68.39
   1   3   5  216.28   11.20
   1   3   5  224.28   10.50
  -1  -3   5  250.77   76.99
   1  -3  -5  219.08   10.60
   1  -3  -5  213.98   10.80
  -1   3  -5  219.18   11.60
  -1  -3   5  190.18   43.20
  -1   3  -5  210.38   73.69
   1   3   5  292.57   42.60
  -1   3  -5  251.27   47.40
   1  -3  -5  215.58   38.80
   1   3  -5  196.38   42.90
   1  -3   5  214.28   11.60
  -1   3   5  220.08   11.30
  -1  -3  -5  222.78   11.20
  -1   3   5  226.48   11.10
  -1   3   5  219.78   10.40
   1  -3   5  171.68   41.50
  -1   3   5  247.28   40.90
   1   3  -5  152.48   56.89
   1   3  -5  217.98   11.40
  -1  -3  -5  221.68   10.70
  -1  -3  -5  220.58   52.69
  -1  -3  -5  198.38   38.60
  -1   3   5  276.47   55.49
   1  -3   5  168.98   72.39
   1   4   5 3025.90  117.79
  -1   4  -5 2799.12  162.08
   1   4   5 2918.51  117.79
   1  -4  -5 2806.72  116.99
   1   4   5 2974.60  116.79
   1   4   5 3176.78  193.78
   1  -4  -5 2779.52  180.18
  -1  -4   5 2996.20  118.29
   1  -4  -5 3148.08  158.68
  -1   4  -5 3068.99  199.58
   1   4   5 3137.49  157.68
   1  -4   5 2824.42  118.09
  -1   4   5 2844.62  116.59
  -1   4   5 2930.61  153.58
  -1   4   5 2835.32  117.59
  -1  -4  -5 3305.07  160.78
   1   4  -5 2994.30  118.09
   1   4  -5 3224.48  212.68
   1   4  -5 3126.89  166.98
  -1  -4  -5 3349.96  194.68
  -1   4   5 3129.89  190.28
  -1  -4  -5 3051.19  117.59
  -1  -4  -5 2953.80  117.09
  -1   4   5 2747.53  117.19
  -1  -5   5   89.09    7.30
  -1   5  -5   47.30   36.30
   1   5   5   93.29    6.90
  -1   5  -5   60.69   56.09
   1   5   5  113.39   40.40
  -1   5  -5   91.99    7.20
   1   5   5   93.29    6.90
   1   5   5  120.69   73.89
   1   5   5   93.99    7.20
  -1   5  -5  -55.99   57.59
  -1   5  -5   99.89   40.40
   1  -5  -5  102.89   40.70
   1  -5  -5   38.50   55.89
   1  -5  -5   93.69    6.50
   1   5  -5  117.79   48.00
   1   5  -5   -0.30   76.79
  -1  -5  -5   92.09    6.80
  -1  -5  -5  150.48   71.49
  -1   5   5  100.69   54.09
   1  -5   5   85.39    7.20
  -1  -5  -5   92.49    6.30
   1   5  -5   85.79   73.99
  -1   5   5   88.39    6.30
   1   5  -5  115.49   38.40
  -1   5   5   57.29   32.30
   1   5  -5   95.49    7.00
  -1   5   5   79.79    6.40
  -1  -5  -5   -1.90   35.70
   1   6   5  473.25   22.50
  -1   6  -5  446.46   69.79
   1  -6  -5  456.55   72.99
   1   6   5  516.95   73.49
   1   6   5  477.75   23.10
   1  -6  -5  462.15  107.29
  -1  -6   5  475.05   23.20
  -1   6  -5  469.55  111.69
   1   6   5  662.93  103.39
   1   6   5  461.45   22.50
  -1   6  -5  467.45   23.00
   1   6   5  484.15   21.50
  -1   6  -5  540.55   82.69
  -1   6  -5  503.05  115.99
  -1  -6  -5  517.15   22.50
  -1  -6  -5  585.54   73.79
  -1   6   5  455.35   21.30
  -1  -6  -5  671.63  120.29
  -1   6   5  442.56   72.89
   1   6  -5  515.55  134.89
   1  -6   5  428.56   22.60
   1   6  -5  627.64   76.99
   1   6  -5  508.25   23.10
  -1   6   5  438.56   22.80
   1   6  -5  421.16   94.49
   1   6  -5  645.04   92.79
  -1   6   5  428.86  110.49
  -1   6   5  448.26   21.90
   1  -7  -5   12.50   77.49
   1  -7  -5   99.39   50.49
   1   7   5   -3.20   76.29
   1   7   5   97.09   53.49
  -1  -7   5   82.39    8.00
  -1   7  -5   95.79    8.40
   1  -7  -5   92.69    7.50
   1   7   5   76.19    7.70
  -1   7  -5   44.70   63.79
  -1   7  -5  190.48  101.59
   1   7   5   73.69    7.80
   1   7   5   82.49    7.80
   1   7  -5   75.79   49.40
  -1   7   5  126.09  107.09
   1   7  -5  -28.30  102.79
  -1  -7  -5   24.80  104.39
  -1   7   5   85.49    7.60
  -1   7   5   89.99    7.10
  -1   7   5   99.49   49.99
  -1  -7  -5   78.19    7.50
   1  -7   5   96.59    8.70
   1   7  -5  117.09  124.99
   1   7  -5   75.09    7.70
  -1   7   5   81.09    8.20
   1   7  -5   -1.20   58.59
  -1  -7  -5   91.29   49.99
  -1   8  -5   25.30  124.59
  -1   8  -5  224.58  161.38
   1  -8  -5   72.69   59.89
  -1   8  -5   92.89    9.20
   1   8   5   65.49    8.10
   1  -8  -5   90.69    8.50
  -1   8  -5  -53.99   78.79
   1   8   5  190.88  128.69
   1   8   5   65.39    8.50
  -1   8  -5  120.49   66.59
   1   8   5   96.99   67.09
   1  -8  -5    7.30  133.29
  -1   8   5   89.59   62.19
  -1  -8  -5  197.48  107.99
   1   8  -5  127.79  177.08
   1   8  -5   95.89   64.59
   1   8  -5  102.29   79.29
  -1   8   5   88.69    9.20
  -1   8   5   88.79    8.30
  -1  -8  -5  -11.30   59.89
   1  -8   5   95.49    8.90
   1   8  -5 -194.58  115.29
  -1   8   5   23.90   94.99
   1   9   5   55.39   77.39
  -1   9  -5   55.79    8.90
   1   9   5   61.39    9.20
   1   9   5   58.39    8.00
  -1  -9   5   62.89    9.90
   1  -9  -5  197.98  127.89
   1  -9  -5  166.18   80.49
  -1  -9   5   61.69    9.70
  -1   9  -5  195.98   83.99
   1   9   5   58.69    9.00
  -1   9  -5  204.48  134.69
   1   9   5  -60.19  117.39
   1  -9   5   57.59    9.80
  -1   9   5   54.99    7.70
  -1   9   5   44.10  125.59
   1   9  -5  107.29   84.19
   1   9  -5   69.39  185.58
   1   9  -5   84.29   98.29
   1   9  -5   -0.60  143.39
  -1  -9  -5   37.10  166.68
  -1   9   5   64.89   82.69
  -1   9   5   53.49    9.00
  -1  -9  -5  138.39   82.19
  -1  -9  -5   62.59    9.00
   1   9  -5   63.29    8.90
  -1   9   5   51.99    8.00
   1  10   5  163.68   14.20
   1  10   5  167.78   15.00
  -1  10  -5  -14.00  207.68
  -1  10  -5  201.88   15.60
   1  10   5  170.78   16.80
  -1  10  -5   55.89  106.89
   1 -10  -5  240.08  100.19
   1 -10  -5  193.08   14.50
   1 -10  -5  426.66  167.78
  -1  10   5  190.78   15.40
   1 -10   5  184.28   15.00
   1  10  -5  167.88   14.60
  -1  10   5  257.07  128.89
  -1  10   5  208.88   14.40
   1  10  -5   94.59  188.98
   1  10  -5   96.99  131.89
  -1  10   5 -138.39  182.38
   1 -10   5  190.68   16.40
   1  11   5   16.70    7.50
   1  11   5   17.10    7.60
  -1  11  -5   14.70    7.30
   1  11  -5   14.90    7.10
  -1  11   5   22.30    7.10
  -1  11   5   14.30    7.90
  -2   0  -5  175.38    9.40
   2   0  -5  179.58    8.20
  -2   0  -5  166.08   32.50
   2   0  -5  212.38   53.89
   2   0   5  182.38    9.20
  -2   0  -5  172.68    8.80
   2   0   5  188.68    9.50
   2   0   5  161.48   35.70
   2   0   5  266.57   55.09
  -2   0   5  253.57   54.69
   2   0  -5  177.38    9.00
  -2   0   5  187.98    8.10
  -2   0  -5  138.79   40.00
  -2   0   5  186.48    9.30
   2   0  -5  216.78   33.90
  -2   0   5  205.08   34.40
   2   1   5 1538.55  116.99
   2   1   5 1467.65   59.59
   2   1   5 1583.94   90.49
   2  -1  -5 1534.05  108.69
   2   1   5 1457.05   59.49
   2  -1  -5 1492.15   58.49
  -2   1  -5 1548.45   90.49
   2  -1  -5 1655.23   87.29
  -2   1  -5 1442.36   59.69
  -2  -1   5 1454.15   89.59
  -2   1  -5 1400.96  109.59
  -2  -1   5 1465.85   59.59
  -2  -1   5 1469.95  117.19
   2   1  -5 1440.46   58.09
   2  -1   5 1503.05   59.79
   2  -1   5 1395.76  119.09
   2   1  -5 1322.17  110.89
  -2   1   5 1429.06   58.19
  -2  -1  -5 1416.76   59.59
  -2   1   5 1499.85   88.09
   2   1  -5 1456.55   59.29
   2   1  -5 1573.94   89.69
  -2   1   5 1440.66   59.29
   2  -1   5 1590.74   94.19
  -2  -1  -5 1446.06   58.89
  -2  -1  -5 1541.15  106.89
  -2   1   5 1578.34  113.89
  -2  -1  -5 1647.24   89.09
   2  -2  -5   53.19   44.40
   2   2   5   41.50   47.10
  -2  -2   5   28.70   25.20
  -2   2  -5   46.50    3.50
  -2  -2   5   41.20    4.10
  -2  -2   5  124.89   57.59
   2   2   5   46.30    4.10
   2  -2  -5   49.30    3.50
   2   2   5   45.50    3.60
   2   2   5   11.30   21.10
  -2   2  -5   40.60   38.10
  -2   2  -5   34.80   25.10
   2   2   5   41.80    4.00
  -2   2  -5   47.70    4.30
   2  -2  -5   46.50   23.00
  -2  -2  -5   33.80   20.90
   2   2  -5   23.20   40.60
   2   2  -5   49.30    3.00
  -2  -2  -5   35.50   43.30
   2   2  -5   32.40   28.10
  -2   2   5   44.40    3.20
   2  -2   5   40.70    4.10
  -2   2   5  100.69   47.70
   2   2  -5   47.90    4.10
   2  -2   5   57.29   45.90
  -2  -2  -5   52.49    3.70
   2  -2   5   26.40   29.60
  -2   2   5  109.49   27.60
  -2   2   5   42.80    3.80
  -2  -2  -5   49.40    4.20
  -2   2   5   41.50    3.70
  -2  -2  -5   46.60    4.00
   2   3   5  578.64   22.70
   2   3   5  506.55   55.19
  -2  -3   5  458.75   62.19
   2   3   5  572.44   23.50
  -2   3  -5  407.76   85.49
   2   3   5  513.25   83.19
   2  -3  -5  454.45   50.89
   2   3   5  560.94   23.60
  -2   3  -5  471.25   23.40
   2  -3  -5  603.84   81.09
  -2   3  -5  413.76   55.89
  -2  -3   5  626.54  103.49
  -2  -3   5  579.44   24.00
  -2   3   5  552.84   22.40
   2  -3   5  554.84   23.80
   2   3  -5  461.95   57.79
   2   3  -5  410.36   88.69
  -2   3   5  396.66   77.19
  -2   3   5  578.84   52.99
   2  -3   5  573.94   66.09
  -2   3   5  557.54   23.30
  -2  -3  -5  502.35   23.20
   2   3  -5  475.75   23.00
   2  -3   5  499.95  100.89
  -2   3   5  564.24   23.00
  -2  -3  -5  452.45   51.89
  -2  -3  -5  494.25   68.09
  -2  -3  -5  481.75   22.60
   2   4   5  117.09   60.19
  -2  -4   5   19.80    3.70
   2   4   5   52.19   29.50
  -2   4  -5    1.50   48.80
   2   4   5   19.30    3.00
  -2   4  -5   29.70   33.20
   2  -4  -5   29.40   41.50
   2  -4  -5   74.19   30.70
   2   4   5   21.00    3.50
   2   4   5   18.60    3.40
   2   4   5   19.80    3.50
  -2   4   5   23.50   28.60
  -2  -4  -5   16.70    3.30
  -2  -4  -5   79.69   31.60
  -2  -4  -5   17.10    3.00
   2   4  -5   18.40    3.30
   2   4  -5  -19.40   32.10
   2   4  -5   28.00   31.60
   2   4  -5   15.50   54.19
  -2   4   5   46.00   44.00
  -2  -4  -5   24.90   42.90
   2   5   5 2536.45  102.79
   2   5   5 2488.35  102.79
   2  -5  -5 2560.34  101.59
   2   5   5 2557.54  101.49
   2   5   5 2569.74  179.38
  -2   5  -5 2530.95  102.99
   2  -5  -5 2721.73  189.08
  -2   5  -5 2560.14  208.38
  -2   5  -5 2490.55  179.38
  -2   5  -5 2681.53  149.49
   2   5   5 2696.73  148.99
  -2   5  -5 2564.44  155.68
   2  -5  -5 2400.56  144.69
   2   5   5 2571.84  102.49
  -2  -5   5 2514.95  103.49
   2   5  -5 2555.74  208.88
  -2  -5  -5 2632.24  147.09
   2   5  -5 2640.64  148.39
  -2   5   5 2632.84  186.78
   2   5  -5 2647.73  160.68
  -2   5   5 2485.85  101.89
   2   5  -5 2539.65  102.69
  -2  -5  -5 2568.64  102.39
  -2   5   5 2492.15  101.59
   2   5  -5 2681.53  193.48
  -2   5   5 2676.33  146.39
   2  -5   5 2519.85  102.79
  -2  -5  -5 2755.92  189.88
  -2  -5  -5 2598.04  101.89
   2   6   5   21.40   41.80
  -2   6  -5   48.00    5.90
  -2   6  -5   40.60   44.10
   2   6   5   55.49    6.20
  -2  -6   5   42.10    6.20
   2  -6  -5   48.20    5.10
   2   6   5   55.49    6.00
  -2   6  -5  168.98   83.99
   2   6   5   59.29    6.00
  -2   6  -5   41.50   49.20
  -2   6  -5  -11.50   89.49
   2  -6  -5   30.20   61.99
   2  -6  -5   88.99   46.00
   2   6   5  115.99   92.59
   2   6  -5  195.18   95.19
  -2   6   5   23.80   43.30
  -2   6   5   45.50    5.80
  -2   6   5   44.70    5.10
   2   6  -5   43.80    5.60
   2   6  -5  102.89   45.10
   2  -6   5   53.09    6.30
  -2   6   5   40.70   63.79
   2   6  -5   73.69   90.89
   2   6  -5   68.59   54.79
  -2  -6  -5   78.39   62.69
  -2   6   5   50.09    5.10
  -2  -6  -5   82.49   40.80
  -2  -6  -5   60.09    6.00
   2   7   5 2296.77   92.89
  -2   7  -5 2345.17  169.98
   2   7   5 2249.38  152.28
   2  -7  -5 2084.89  187.98
   2   7   5 2327.07   91.69
   2   7   5 2290.47   93.29
   2   7   5 2233.48   93.49
   2  -7  -5 2246.38  151.88
   2  -7  -5 2228.08   91.59
  -2   7  -5 1966.20  214.58
  -2   7  -5 2542.85  160.08
   2   7   5 2413.46  217.08
  -2   7  -5 2228.78   93.49
  -2  -7   5 2280.27   93.19
  -2   7  -5 2007.10  208.08
   2   7  -5 2774.82  264.57
  -2   7   5 2277.27   91.59
  -2   7   5 2416.46  194.08
  -2   7   5 2368.96  152.48
   2   7  -5 2214.68   93.09
   2   7  -5 2614.34  223.18
  -2   7   5 2256.07   93.69
   2   7  -5 2714.33  336.87
  -2  -7  -5 2167.58  211.58
  -2  -7  -5 2278.77   92.69
   2  -7   5 2285.87   93.39
  -2  -7  -5 2442.06  154.48
  -2   7   5 2271.47   92.29
   2   7  -5 2225.28  154.48
   2   8   5   18.80  127.99
  -2   8  -5   18.90   77.09
  -2   8  -5   30.20    6.50
   2  -8  -5   42.20  137.09
  -2   8  -5    6.40   66.39
   2  -8  -5   27.50    5.90
   2  -8  -5   20.10   66.69
   2   8   5   17.50    4.80
   2   8   5   19.70    6.10
  -2   8  -5  110.19  128.99
   2   8   5   91.59   69.19
  -2   8  -5   91.59  103.49
  -2   8   5   26.10    6.80
   2   8  -5   18.20    5.80
  -2   8   5   53.09  126.79
  -2   8   5   22.70    5.60
  -2  -8  -5   -3.70  125.59
  -2  -8  -5  -14.70   62.79
  -2   8   5   29.00    6.10
  -2   8   5   67.89   67.59
   2   8  -5  108.69  171.28
   2   8  -5  -78.69   72.89
   2   8  -5  -31.70   99.29
   2   8  -5   -7.80   64.59
   2   9   5 1965.90   81.09
  -2   9  -5 1545.55  252.77
  -2  -9   5 1969.60   81.59
  -2   9  -5 2086.09  178.48
   2   9   5 2066.99  272.47
  -2   9  -5 1902.71   81.99
   2   9   5 1981.40   82.09
   2   9   5 1949.51   79.49
   2   9   5 1960.70  173.48
   2   9   5 1981.40   81.59
   2  -9  -5 2407.56  275.37
  -2   9  -5 1222.18  254.07
   2  -9  -5 1943.31  172.28
  -2  -9   5 1950.01   82.39
  -2   9  -5 1807.32  199.98
   2  -9   5 1936.81   81.69
  -2  -9  -5 1921.81   80.79
  -2  -9  -5 2019.60  173.58
  -2   9   5 1985.70   82.49
  -2   9   5 1974.60   80.29
   2   9  -5 1907.41   81.39
  -2  -9  -5 1346.17  259.27
  -2   9   5 1991.70   79.79
   2   9  -5 1930.91  252.97
   2   9  -5 1619.64  184.48
   2   9  -5 1890.31  194.48
   2   9  -5 1559.34  233.48
   2 -10  -5   83.89  105.39
   2 -10  -5  281.77  223.38
   2  10  -5 -311.17  235.88
  -2  10   5 -172.68  190.88
   2  10  -5  -48.30  121.59
  -2  10   5  -14.30  101.69
   2  11   5 1260.77   59.49
  -2  11  -5 1328.07   60.09
   2  11   5 1293.17   58.89
  -2  11   5 1372.06   60.89
   2  11  -5 1329.17   59.29
  -2  11   5 1245.48   59.79
   3   0  -5  -11.70   30.70
   3   0  -5    9.40   19.20
  -3   0  -5   27.50   21.10
  -3   0   5   14.10    1.50
  -3   0   5   -5.50   19.40
  -3   0  -5    7.00   33.90
  -3   0  -5   15.80    2.30
  -3   0   5   33.00   35.30
   3   0   5   13.30    2.60
  -3   0  -5   17.40    2.70
  -3   0   5   15.30    2.60
   3   0   5   14.70    2.50
   3   0   5   15.40    2.30
   3   0  -5   15.20    2.20
   3   1   5  403.56   17.70
  -3  -1   5  330.77   47.20
   3  -1  -5  451.75   42.40
  -3   1  -5  395.76   17.80
   3   1   5  396.96   17.10
  -3  -1   5  404.66   17.60
   3  -1  -5  388.56   16.50
  -3  -1   5  415.36   70.39
  -3   1  -5  300.97   66.49
  -3   1  -5  303.57   43.90
   3   1   5  407.76   17.70
   3  -1  -5  322.27   58.19
  -3   1  -5  392.26   17.10
   3   1  -5  381.56   17.00
   3   1  -5  380.36   43.30
  -3   1   5  405.26   16.30
  -3  -1  -5  383.46   17.80
  -3  -1  -5  379.06   17.10
   3  -1   5  414.66   17.50
   3   1  -5  333.77   67.19
  -3   1   5  403.46   45.10
   3  -1   5  407.26   17.70
  -3   1   5  401.36   17.40
   3   1  -5  385.16   16.00
  -3  -1  -5  342.57   63.99
  -3   1   5  358.36   65.69
  -3  -1  -5  315.47   43.80
  -3  -1  -5  375.16   17.40
  -3   2  -5 1356.06  117.59
   3   2   5 1024.40   79.19
  -3   2  -5 1368.56   86.99
  -3  -2   5 1225.88   50.69
  -3   2  -5 1277.87   50.19
   3   2   5 1227.68   50.49
  -3  -2   5 1224.48   85.59
   3   2   5  932.51  106.29
   3  -2  -5 1379.56  103.49
   3   2   5 1189.08   50.79
   3   2   5 1211.48   49.99
  -3  -2   5 1136.09  113.19
   3  -2  -5 1367.56   79.19
  -3   2  -5 1298.27   51.09
  -3   2   5 1340.97   81.19
  -3   2   5 1257.37  104.49
  -3   2   5 1238.88   49.40
   3   2  -5 1136.29  102.09
  -3  -2  -5 1275.47   50.69
  -3  -2  -5 1268.67   50.09
   3  -2   5 1250.97   50.69
  -3  -2  -5 1274.97   50.89
   3   2  -5 1268.87   50.29
   3   2  -5 1252.17   48.80
  -3  -2  -5 1190.78  105.89
   3   2  -5 1237.08   82.79
  -3  -2  -5 1234.28   79.39
  -3   2   5 1221.08   50.29
  -3   2   5 1254.17   50.09
   3   3   5   57.29   28.90
  -3  -3   5  110.99   53.49
  -3  -3   5   46.30   34.90
   3  -3  -5  112.49   31.00
   3   3   5  101.89    6.80
   3   3   5  101.19    6.10
  -3   3  -5   99.19    6.80
  -3  -3   5  102.69    6.90
   3   3   5  100.19    6.50
  -3   3  -5   22.80   31.30
  -3   3  -5   88.79   61.19
   3   3   5   73.29   56.29
   3  -3  -5   78.49   53.89
  -3  -3  -5  166.38   47.00
   3  -3   5   55.69   37.10
  -3   3   5   21.50   25.10
   3  -3   5  107.99   72.69
  -3   3   5   87.89    5.90
  -3  -3  -5  119.69    7.00
  -3   3   5   85.99    6.20
  -3  -3  -5  118.99    6.40
  -3  -3  -5  132.79   32.10
   3   3  -5  108.79   50.19
   3  -3   5   88.69    6.50
   3   3  -5  114.99    6.60
  -3  -3  -5  116.69    7.10
   3   3  -5   85.69   34.60
  -3   3   5   90.39    5.60
  -3   3   5   83.89   51.99
  -3   4  -5 1790.92  147.49
  -3   4  -5 1817.02   71.09
   3   4   5 1727.43  147.89
   3   4   5 1755.82   69.59
   3   4   5 1688.83   70.39
  -3  -4   5 1740.13   70.89
   3   4   5 1702.93   70.19
  -3   4  -5 1794.62  117.89
   3   4   5 1630.04  108.59
   3   4   5 1671.53   70.69
   3   4  -5 1658.43   70.09
  -3   4   5 1813.52   69.39
   3   4  -5 1820.42  147.49
   3   4  -5 1778.42  109.69
   3  -4   5 1811.42   70.69
  -3  -4  -5 1994.60  146.89
   3   4  -5 1525.55  157.98
  -3   4   5 1794.22   69.69
  -3  -4  -5 1730.63   69.79
   3   4  -5 1665.33  118.39
  -3  -4  -5 1710.33   70.39
  -3  -4  -5 1737.43  108.19
  -3   5  -5   49.80   75.99
   3   5   5    5.00    2.00
   3   5   5    4.30    2.40
   3   5   5    9.10    3.40
  -3   5  -5    6.00   35.20
   3  -5  -5    9.20    2.90
  -3   5  -5    9.90    3.50
   3  -5  -5   70.79   55.59
   3  -5  -5    5.40   35.80
  -3   5  -5  -11.10   80.49
  -3   5  -5   51.59   42.20
   3   5   5    5.80    2.50
   3   5   5   23.40   53.89
   3   5   5  -70.49   34.60
  -3  -5  -5   13.60    3.10
  -3  -5  -5   28.10   32.40
  -3   5   5    4.80    2.60
  -3   5   5    8.60    2.90
  -3  -5  -5   30.70   48.40
   3   5  -5  -25.80   42.10
  -3  -5  -5   12.90    3.80
   3   5  -5   97.19   71.29
   3  -5   5    4.20    2.50
   3   5  -5   31.60   35.20
  -3   5   5  -17.60   33.70
  -3   5   5   23.70   69.49
   3   5  -5    8.50    3.10
   3   5  -5  102.89   76.29
   3   6   5  133.09   47.30
  -3   6  -5  156.18   80.59
   3  -6  -5   -6.30   64.99
  -3   6  -5  273.97   62.99
   3   6   5  101.19    8.60
  -3   6  -5  215.38   52.79
  -3   6  -5  108.69   73.39
   3   6   5   21.70   66.99
   3  -6  -5  199.08   48.90
   3   6   5  108.69    8.60
   3   6   5  110.29    7.70
  -3  -6   5  103.19    9.10
   3   6   5  107.59    8.30
  -3   6   5  127.39    9.20
   3   6  -5  169.18  122.39
  -3   6   5  190.08   48.50
  -3  -6  -5  126.49    8.80
  -3  -6  -5   31.80   45.00
   3   6  -5   74.69   93.09
   3   6  -5  170.28   49.99
  -3  -6  -5   75.19   86.69
  -3   6   5  126.79    7.90
   3   6  -5   63.29   61.69
  -3   6   5  301.87  102.49
  -3   6   5  128.99    8.00
   3   6  -5  121.39    8.60
   3   7   5   38.50    6.30
  -3   7  -5   27.10   62.19
   3   7   5   42.40    6.30
   3   7   5   68.59   84.29
   3   7   5   38.70    6.00
  -3   7  -5  201.48  118.69
   3  -7  -5   40.00    5.60
  -3   7  -5 -247.58  117.99
   3   7   5   48.60    5.90
  -3  -7   5   41.50    7.10
   3  -7  -5   47.00   54.69
  -3   7  -5   61.69   52.59
   3   7   5  116.79   56.99
   3  -7  -5   82.59  103.99
  -3   7   5   48.60    5.60
  -3  -7  -5   66.79   49.80
   3  -7   5   59.49    7.40
  -3   7   5   51.69    5.90
   3   7  -5  -11.50   52.09
   3   7  -5  187.88  114.29
  -3   7   5   17.00   52.19
  -3  -7  -5   57.39   80.79
   3   7  -5  352.16  147.69
   3   7  -5   32.40    5.80
  -3   7   5   31.30  111.19
   3   7  -5   70.79   65.19
  -3   7   5   52.79    7.00
   3   8   5  455.45   22.10
   3   8   5  448.86   23.20
  -3   8  -5  498.05  151.08
   3  -8  -5  436.66   21.20
   3   8   5  392.86   83.89
  -3   8  -5  526.15  112.69
  -3   8  -5  393.06  139.39
   3   8   5 1083.89  199.38
  -3  -8   5  450.35   23.90
  -3   8  -5  579.64  116.39
   3  -8  -5  167.78  124.89
   3  -8  -5  436.66   86.19
  -3   8  -5  405.46   26.80
   3   8   5  457.95   23.40
  -3   8   5  425.26   21.30
  -3  -8  -5  462.85  101.89
  -3   8   5  449.46   23.70
  -3  -8  -5  372.16  147.79
   3   8  -5  371.06  168.88
   3  -8   5  437.56   21.80
   3   8  -5  556.94  110.89
   3  -8   5  439.46   23.00
   3   8  -5  466.05  153.58
   3   8  -5  402.06  100.59
  -3   8   5  435.16  121.99
  -3   8   5  426.06   21.30
   3   8  -5  428.46   22.60
   3   9   5  202.48   14.60
  -3  -9   5  197.18   15.50
   3  -9  -5  208.28   13.20
   3   9   5  205.78   14.90
  -3   9  -5  192.88   14.80
   3   9   5  205.58   14.50
   3  -9  -5  151.68  168.48
   3   9   5  194.28   13.30
   3  -9  -5  228.48   88.09
  -3  -9   5  205.28   15.80
   3  -9   5  204.48   15.20
  -3   9   5  202.88   13.40
  -3   9   5  202.18   15.40
   3  -9   5  161.28   13.20
   3   9  -5  140.59  109.79
  -3  -9  -5  194.68   14.60
   3   9  -5  289.97  226.78
   3   9  -5  204.38   14.20
  -3   9   5  214.18   90.99
  -3   9   5  210.08   13.60
  -3   9   5  404.96  179.38
   3  10   5  426.16   24.40
   3  10   5  420.56   24.00
  -3  10  -5  428.56   25.00
   3 -10  -5  449.46   22.60
   3  10   5  408.76   24.10
  -3  10   5  408.16   22.30
  -3  10   5  418.66   25.00
   3 -10   5  392.26   23.00
   3 -10   5  382.76   24.60
   3  10  -5  478.75   24.50
  -4   0   5  529.35   23.00
  -4   0   5  440.06   71.69
  -4   0  -5  581.24   23.10
   4   0  -5  583.64   76.39
  -4   0  -5  587.94   23.70
   4   0   5  535.95   23.20
  -4   0   5  472.15   48.80
  -4   0   5  516.15   21.40
  -4   0  -5  510.25   77.79
   4   0   5  536.25   53.69
   4   0   5  510.35   22.90
   4   0   5  506.25   22.80
   4   0   5  431.06   77.39
   4   0  -5  686.33   53.39
  -4   0  -5  575.04   53.19
  -4  -1   5 5531.75  236.28
   4   1   5 4982.70  200.78
  -4   1  -5 5307.77  268.07
  -4   1  -5 5192.18  235.58
   4  -1  -5 5134.19  227.38
   4   1   5 5447.46  237.08
   4  -1  -5 5263.77  254.07
   4   1   5 5694.13  271.37
  -4  -1   5 5280.97  266.67
  -4  -1   5 4953.40  200.98
   4   1   5 4858.81  201.28
  -4  -1  -5 4785.72  200.68
   4  -1   5 5433.46  274.67
  -4   1   5 5257.87  230.58
   4   1  -5 4818.92  199.08
   4  -1   5 5053.79  200.88
   4   1  -5 4870.51  256.77
  -4  -1  -5 5242.78  232.78
   4  -1   5 5040.30  200.88
  -4   1   5 5346.66  259.77
  -4   1   5 5051.29  200.88
   4  -1   5 5755.42  243.08
   4   1  -5 5313.67  232.48
  -4  -1  -5 5468.75  263.67
  -4  -1  -5 4909.11  201.08
   4  -2  -5  767.92   58.79
  -4  -2   5  970.00  102.69
   4   2   5  830.52   33.70
   4   2   5  734.83   81.79
  -4  -2   5  818.12   34.00
   4   2   5  834.12   34.40
  -4   2  -5  865.31  103.59
  -4  -2   5  778.72   68.89
   4   2   5  815.92   65.49
  -4   2  -5  784.52   34.10
  -4   2  -5  854.51   71.39
   4  -2  -5  816.22   85.79
   4   2   5  837.22   33.50
   4  -2   5  913.51   73.39
  -4   2   5  814.92   33.60
  -4  -2  -5  783.42   63.19
  -4   2   5  835.22   90.49
   4   2  -5  784.22   93.59
   4  -2   5  775.32  101.29
  -4  -2  -5  784.02   33.40
   4  -2   5  831.12   33.80
   4  -2   5  824.12   33.40
  -4   2   5  834.32   33.40
  -4  -2  -5  798.82   34.10
  -4   2   5  835.92   63.39
   4   2  -5  779.12   65.39
   4   2  -5  775.32   32.90
  -4   2   5  813.22   32.60
   4   2  -5  763.52   31.70
  -4  -2  -5  798.42   34.00
  -4  -2  -5  666.63   86.29
   4   3   5 2554.74  101.29
   4   3   5 2522.15  101.09
   4   3   5 2645.44  100.89
   4  -3  -5 2563.84  132.59
  -4   3  -5 2361.06  178.98
   4  -3  -5 2829.02  167.28
  -4   3  -5 2519.85  101.89
   4   3   5 2612.44  102.19
  -4  -3   5 2560.94  101.69
  -4   3  -5 2644.74  145.49
   4   3  -5 2567.14  143.29
   4   3  -5 2500.85  100.69
  -4  -3  -5 2625.84  101.69
  -4   3   5 2517.95  100.59
  -4   3   5 2554.94  165.88
  -4  -3  -5 2552.04  101.69
   4  -3   5 2479.55  101.19
  -4   3   5 2528.45  100.19
  -4  -3  -5 2541.35  100.99
   4   3  -5 2444.66  175.68
  -4   3   5 2575.94  136.79
   4   3  -5 2582.24   99.19
   4  -4  -5   17.90   30.60
  -4   4  -5   16.30   31.50
   4  -4  -5   37.80   54.19
  -4   4  -5   25.60   38.40
  -4   4  -5   24.40    3.90
   4   4   5   16.50    3.40
   4   4   5   17.20    3.40
  -4  -4   5   15.60    3.90
  -4   4  -5  113.89   83.99
   4   4   5   21.70   35.10
   4   4   5   59.09   70.59
   4   4   5   20.60    3.80
  -4  -4  -5   16.40    3.80
  -4   4   5   49.90   29.50
   4   4  -5   14.20    3.00
   4   4  -5   -5.90   28.20
  -4  -4  -5  -77.69   61.89
  -4  -4  -5   15.40    3.10
  -4  -4  -5   13.70   31.60
   4   4  -5   19.90   75.39
   4   4  -5  -18.60   39.50
   4   4  -5   85.29   59.39
  -4   4   5  -68.99   51.09
  -4   5  -5  373.66   88.59
   4  -5  -5  157.68   83.39
  -4   5  -5  302.67   69.29
  -4   5  -5  293.07   63.79
   4   5   5  335.17   16.00
   4   5   5  332.97   16.90
  -4   5  -5  288.67   16.30
   4   5   5  332.17   16.30
  -4   5  -5  352.86   95.29
  -4  -5   5  320.37   16.80
   4   5   5  328.27   67.09
   4   5   5  303.07   81.89
   4   5   5  344.37   15.50
   4   5  -5  312.47   15.70
   4   5  -5  350.46   64.69
  -4   5   5  476.45  105.49
  -4  -5  -5  310.47   16.30
  -4  -5  -5  193.38   69.99
  -4  -5  -5  307.07   15.50
   4   5  -5  299.47   88.19
  -4  -5  -5  314.87   60.79
  -4   5   5  312.27   15.10
  -4   5   5  321.77   58.79
   4  -5   5  324.37   16.10
   4   6   5  441.66   21.50
   4   6   5  194.78  105.89
  -4   6  -5  414.86   82.89
   4   6   5  455.45   20.50
   4   6   5  462.35   21.70
   4   6   5  440.46   22.20
  -4   6  -5  400.26   21.60
  -4   6  -5  337.37  114.49
  -4   6  -5  504.25  113.99
  -4  -6   5  456.55   22.30
  -4  -6   5  469.05   22.40
  -4   6  -5  423.56   77.29
   4   6   5  342.47   76.89
   4  -6  -5  482.95   75.99
   4  -6  -5  489.55  115.29
  -4  -6  -5  411.36   74.89
  -4   6   5  481.45  114.59
  -4  -6  -5  422.36   20.60
   4   6  -5  432.26   78.29
  -4  -6  -5  436.96   21.60
   4   6  -5  547.85   95.59
   4   6  -5  467.65  106.69
  -4   6   5  442.76   20.30
  -4   6   5  431.26   21.80
   4   6  -5  442.96   21.00
  -4   6   5  365.36   74.49
   4  -6   5  443.36   21.50
  -4   6   5  428.36   20.10
  -4  -6  -5  489.65   99.39
   4   7   5 1038.00  117.39
   4  -7  -5 1065.99   45.20
  -4   7  -5 1051.99  111.39
   4  -7  -5 1043.10  108.19
   4  -7  -5 1015.80  146.59
  -4  -7   5 1115.99   48.20
  -4   7  -5 1050.29   47.70
  -4   7  -5 1304.47  188.68
  -4   7  -5 1246.48  186.68
   4   7   5 1085.79   47.80
   4   7   5 1156.68   47.00
  -4   7  -5  916.81  121.59
   4   7   5  904.01  146.39
   4   7   5 1103.99   47.30
  -4  -7  -5  772.52  163.48
  -4  -7  -5 1066.29  107.49
   4  -7   5 1126.29   46.30
   4   7  -5 1097.89  174.48
  -4   7   5  905.51  104.09
   4   7  -5  926.31  125.79
   4   7  -5 1117.99  115.79
  -4   7   5 1140.69   45.80
  -4   7   5 1112.19   45.80
  -4   7   5  793.52  169.88
   4   7  -5 1033.30   46.50
   4   7  -5 1109.59  184.28
  -4   7   5 1126.89   48.10
   4  -7   5 1126.89   47.20
   4   8   5   28.00   85.99
   4   8   5   79.99    9.20
   4   8   5  195.88  173.78
  -4   8  -5  -62.19  118.09
  -4   8  -5  155.18   82.09
  -4   8  -5   79.19    9.40
   4  -8  -5  183.28   76.09
   4   8   5   84.39    8.00
   4  -8  -5   37.40  147.69
   4   8   5   88.09    9.00
   4  -8  -5   73.09    7.40
   4   8   5   88.79    9.00
   4   8  -5  455.55  193.18
  -4   8   5   52.59   10.30
  -4   8   5   62.09    7.50
   4   8  -5  186.38   88.49
  -4   8   5   63.09    7.00
  -4  -8  -5   73.99  103.89
   4  -8   5   57.19    8.90
  -4  -8  -5  139.49   67.49
   4  -8   5   65.09    7.90
  -4   9  -5  318.27  311.67
   4   9   5  424.26   22.70
   4  -9  -5  466.25   21.00
   4   9   5  350.36   26.70
  -4  -9   5  401.56   24.10
  -4   9  -5  458.25  139.19
   4   9   5  395.76   22.50
   4   9   5  419.76   21.20
  -4   9  -5  438.96   32.20
  -4   9   5  385.56   21.30
   4  -9   5  412.06   21.30
  -4   9   5  419.16   21.00
   4   9  -5  389.26   24.20
  -4   9   5  403.26   23.90
  -4  10  -5   87.79   12.30
   4  10   5  105.89   12.50
   4  10   5  100.69   13.00
   4  10   5  100.59   12.50
   4 -10   5   84.99   13.40
   4  10  -5   76.09   11.30
  -4  10   5  106.39   10.70
  -4  10   5   94.39   12.70
  -5   0   5   14.80    2.60
   5   0  -5   27.10   40.90
   5   0   5   24.00   25.20
   5   0   5   18.90   49.40
  -5   0  -5   25.10   25.20
  -5   0  -5   16.30    2.90
  -5   0  -5    4.90   42.70
   5   0   5   18.20    3.00
  -5   0   5   71.39   46.20
  -5   0   5   18.80   23.10
   5   0  -5   25.30   20.00
  -5   0  -5   15.60    2.60
   5   1   5  360.86   72.49
  -5  -1   5  299.87   46.10
   5   1   5  248.98   11.50
  -5   1  -5  319.37   46.90
   5  -1  -5  288.87   63.49
  -5   1  -5  251.77   12.60
   5   1   5  273.57   44.30
  -5  -1   5  293.37   66.49
  -5   1  -5  243.08   12.00
  -5   1  -5  371.96   78.99
   5  -1  -5  228.38   37.30
  -5  -1   5  257.27   12.20
   5   1   5  260.27   12.20
   5   1   5  259.97   12.60
   5   1   5  256.37   11.70
  -5   1   5  242.28   40.00
   5   1  -5  276.77   64.89
  -5  -1  -5  204.38   42.00
   5  -1   5  250.27   11.60
  -5   1   5  249.38   11.90
  -5   1   5  248.28   10.60
   5   1  -5  175.18   40.10
  -5  -1  -5  242.58   12.00
   5  -1   5  294.97   45.90
   5  -1   5  259.07   12.10
  -5  -1  -5  252.37   12.40
   5  -1   5  236.58   68.89
  -5  -1  -5  247.88   12.40
  -5  -1  -5  216.78   61.19
  -5   1   5  305.47   65.19
   5  -2  -5  533.75   50.09
  -5   2  -5  475.75   92.49
  -5  -2   5  523.85   60.39
  -5   2  -5  479.25   22.90
   5   2   5  488.15   82.99
   5   2   5  560.34   23.50
  -5  -2   5  591.64   89.39
  -5   2  -5  468.55   58.79
   5   2   5  543.95   22.20
   5   2   5  549.54   55.79
  -5   2  -5  478.75   22.40
   5  -2  -5  448.56   70.09
  -5  -2   5  555.04   22.90
   5   2   5  558.14   22.60
   5   2   5  561.24   22.20
   5  -2   5  522.65   91.49
  -5  -2  -5  547.85   23.10
  -5   2   5  475.65   21.90
  -5   2   5  464.65   22.10
  -5  -2  -5  536.85   22.50
   5  -2   5  619.64   64.59
  -5  -2  -5  550.04   85.69
  -5  -2  -5  471.25   56.39
   5  -2   5  475.65   21.90
   5   2  -5  514.15   56.59
  -5   2   5  455.35   79.79
  -5   2   5  487.25   21.20
   5  -2   5  486.05   22.00
  -5   2   5  452.65   50.69
   5   2  -5  630.94   87.19
  -5  -2  -5  570.94   23.20
   5   3   5  250.47   12.20
   5   3   5  205.08   68.49
   5  -3  -5  186.88  105.49
  -5   3  -5  201.18   46.60
   5  -3  -5  273.67   59.09
   5   3   5  248.28   12.10
   5   3   5  244.78   13.10
   5   3   5  250.97   12.20
  -5   3  -5  256.07   87.09
   5   3   5  300.57   52.09
  -5   3  -5  248.28   13.00
  -5   3  -5  254.57   12.40
  -5  -3   5  248.48   12.80
   5   3  -5  245.48   11.30
  -5  -3  -5  306.17   52.49
  -5  -3  -5  235.58   12.70
   5   3  -5  276.87   42.00
  -5   3   5  248.88   11.50
   5   3  -5  313.67   64.79
  -5   3   5  250.67   11.70
   5   3  -5  196.78   73.19
  -5  -3  -5  250.17   13.00
  -5   3   5  286.37   68.09
  -5  -3  -5  251.97   73.99
  -5  -3  -5  241.58   12.20
  -5   3   5  293.27   50.29
   5  -3   5  252.67   12.00
   5  -3   5  320.67   81.69
   5  -3   5  246.28   11.80
   5  -3   5  254.37   50.39
   5   4   5  884.51   36.00
  -5   4  -5  780.52   85.19
  -5   4  -5  815.22  114.49
   5  -4  -5  863.91   73.59
   5   4   5  838.32  116.49
   5   4   5  813.22   78.29
  -5   4  -5  840.22   37.10
   5   4   5  854.01   36.10
   5   4   5  873.31   36.30
   5  -4  -5  556.84  103.89
   5   4   5  854.81   37.40
  -5   4  -5 1079.49  137.29
  -5  -4   5  889.71   37.30
  -5   4  -5  864.31   78.69
  -5   4   5  890.21   75.49
   5   4  -5  957.50   76.19
  -5   4   5  806.82   35.30
   5   4  -5  732.63  133.29
  -5   4   5  811.22   35.40
   5   4  -5  887.51   87.39
  -5  -4  -5  896.61   81.29
   5  -4   5  809.42   35.90
  -5  -4  -5  899.61   36.30
  -5   4   5  783.82  109.89
  -5  -4  -5  934.81   37.40
   5   4  -5  881.51   35.50
  -5  -4  -5  894.21  119.29
   5   4  -5 1059.19  112.59
  -5   5  -5  319.77   16.80
  -5   5  -5  529.05  118.69
   5   5   5  327.77   17.30
   5   5   5  312.87   15.80
  -5  -5   5  326.67   17.00
  -5   5  -5  338.97   69.59
   5  -5  -5  317.37   92.29
  -5  -5   5  328.97   17.20
   5  -5  -5  252.07   59.69
   5   5   5  324.37   15.90
  -5   5  -5  294.97   62.69
  -5   5  -5  197.08  112.89
   5   5   5  330.87   15.70
  -5   5   5  315.27   14.90
  -5   5   5  230.88   51.39
  -5  -5  -5  311.67   15.70
  -5  -5  -5  320.37   16.80
  -5  -5  -5  313.57  108.99
   5   5  -5  286.47   65.09
   5   5  -5  316.77   15.30
   5  -5   5  314.07   15.80
   5   5  -5  211.68  107.99
  -5   5   5  322.97   15.20
  -5   5   5  548.05  116.69
   5   5  -5  293.57   60.69
   5   5  -5  379.06   87.69
   5   6   5  374.96   19.90
  -5  -6   5  393.46   20.30
   5   6   5  377.06   18.10
  -5   6  -5  391.96   78.49
   5   6   5   18.00  107.79
   5   6   5  385.66   18.60
  -5   6  -5  358.86   19.50
  -5   6  -5  363.56  116.59
  -5  -6   5  380.56   19.90
  -5   6  -5  184.68  129.79
   5  -6  -5  454.05   82.09
  -5   6  -5  311.57   88.19
   5   6   5  386.86   18.80
   5  -6  -5  361.76  111.29
   5  -6   5  345.47   18.40
  -5  -6  -5  559.84   83.09
  -5  -6  -5  395.36   18.60
  -5   6   5  358.06   17.80
   5   6  -5  392.06   18.20
  -5   6   5  349.47   19.30
  -5  -6  -5  317.67   92.49
  -5   6   5  355.06   17.30
   5   6  -5  385.76  134.79
   5   6  -5  418.36   72.49
   5   6  -5  390.36   16.80
  -5  -6  -5  402.06   19.80
   5   6  -5  457.75  100.99
  -5   6   5  139.19   87.49
   5   6  -5  353.16  114.99
   5  -7  -5  210.08   66.39
   5  -7  -5   96.29  123.69
  -5   7  -5  122.99  141.69
  -5  -7   5  237.08   15.40
   5   7   5  232.58   14.10
   5   7   5  235.98   14.00
   5   7   5  208.98  129.69
  -5  -7   5  234.88   15.80
   5   7   5  205.08   71.19
   5   7   5  234.38   15.10
  -5   7  -5  214.68   78.69
  -5   7  -5  235.28   15.00
  -5   7   5  245.58   15.30
   5   7  -5  308.27  144.49
   5   7  -5  238.18   82.99
  -5   7   5  255.17   12.80
   5   7  -5  238.68   12.20
  -5   7   5  260.67   13.60
   5  -7   5  248.28   13.10
  -5  -7  -5  222.88   14.90
  -5  -7  -5  281.37   68.29
   5   7  -5  231.48   13.50
  -5  -8   5   13.90    6.10
  -5   8  -5  -41.10  152.88
   5   8   5   26.10    6.90
   5   8   5   17.70    5.30
  -5  -8   5    7.80    5.80
   5   8   5   22.30    7.50
  -5   8  -5   12.90   85.89
   5   8   5   16.50    5.00
  -5   8  -5   25.90    7.50
   5   8  -5   16.00    6.00
  -5  -8  -5   14.40    5.40
   5  -8   5   23.50    6.40
  -5   8   5   29.30    5.70
   5  -8   5   24.40    7.40
  -5   8   5   28.80    9.60
   5   8  -5   23.70    5.90
   5  -9  -5  133.09   10.40
   5   9   5  139.19   12.20
   5   9   5  141.89   13.40
   5   9   5  141.49   12.70
  -5   9  -5  143.49   13.10
  -5   9   5  153.78   10.70
   5   9  -5  124.39   11.50
   5  -9   5  151.78   11.90
  -5   9   5  137.99   17.50
   5   9  -5  122.69   10.70
  -5  10  -5  324.07   21.50
   5  10   5  315.17   20.50
   5  10   5  311.27   20.60
   5  10   5  334.07   21.40
   5  10  -5  285.97   18.30
  -5  10   5  335.07   22.10
   5  10  -5  304.87   19.30
   5 -10   5  341.27   21.50
  -6   0  -5  364.06   16.70
   6   0   5  289.97   75.69
   6   0  -5  311.67   80.49
   6   0   5  371.06   54.49
  -6   0  -5  377.16   49.70
   6   0   5  384.16   16.90
  -6   0   5  376.36   16.40
   6   0  -5  278.17   49.00
  -6   0  -5  374.56   17.10
  -6   0   5  342.27   47.40
  -6   0   5  421.56   80.39
  -6   0  -5  184.68   64.69
  -6   1  -5  671.33   98.89
  -6   1  -5  706.63   31.10
   6  -1  -5  625.94   76.59
   6   1   5  740.73   65.59
  -6  -1   5  821.82   95.29
   6   1   5  762.32   31.40
  -6  -1   5  803.32   65.89
  -6   1  -5  741.13   66.49
   6  -1  -5  662.23   54.59
   6   1   5  782.42   31.00
  -6   1  -5  683.53   30.70
   6   1   5  586.24   93.49
  -6  -1   5  764.32   30.70
  -6  -1  -5  700.63   31.00
  -6   1   5  779.02   61.89
  -6  -1  -5  753.52   62.99
  -6   1   5  907.11   91.69
   6  -1   5  759.72   30.60
  -6   1   5  757.32   30.40
  -6  -1  -5  707.23   30.70
   6  -1   5  649.54   97.39
   6   1  -5  709.03   59.59
   6  -1   5  873.41   70.69
  -6  -1  -5  697.23   30.90
   6   1  -5  550.64   82.39
  -6   1   5  753.32   28.90
  -6  -1  -5  524.15   88.29
   6  -2  -5  116.79   30.80
   6   2   5  142.09   35.40
  -6   2  -5  138.99   39.80
  -6   2  -5  129.19    8.10
   6  -2  -5  120.09   50.29
   6   2   5  126.29    6.30
   6   2   5  123.59    6.40
  -6   2  -5  128.39    7.70
  -6  -2   5  124.89    7.60
   6   2   5  124.19    8.60
   6   2   5  196.38   67.19
   6   2   5  131.39    8.30
  -6   2  -5  132.59   72.19
  -6  -2  -5   57.39   57.69
   6   2  -5  123.89   26.80
  -6  -2  -5  124.19    7.90
  -6   2   5  127.09    7.00
  -6   2   5   80.49   30.90
  -6  -2  -5  131.49    8.10
  -6   2   5  122.79    7.20
  -6  -2  -5  118.79   33.60
  -6   2   5  128.79    6.30
   6   2  -5  265.17   66.79
  -6   2   5  120.59   58.19
  -6  -2  -5  131.49    7.60
   6  -2   5  150.08   69.89
   6  -2   5  130.09   39.60
   6  -2   5  124.89    7.00
   6   2  -5  133.19   33.20
   6   3   5  291.47   14.30
   6   3   5  302.07   16.10
   6  -3  -5  355.66   51.99
  -6   3  -5  414.16   64.09
   6   3   5  305.87   15.10
   6   3   5  271.27   56.89
  -6   3  -5  421.36   97.89
   6   3   5  292.57   14.10
   6  -3  -5  509.45   85.99
   6   3   5  227.58   73.49
  -6  -3   5  292.67   15.50
   6   3  -5  447.46   61.19
  -6  -3  -5  364.26   16.40
   6  -3   5  308.77   14.40
   6   3  -5  436.46   97.09
  -6   3   5  305.27   14.20
  -6  -3  -5  409.36   58.99
  -6  -3  -5  369.96   16.20
  -6  -3  -5  217.18   76.69
  -6  -3  -5  372.26   15.70
   6   3  -5  389.66   84.09
   6   3  -5  383.36   51.09
  -6   3   5  291.67   51.19
  -6   3   5  241.58   68.29
   6  -3   5  308.27   13.90
  -6   3   5  314.37   14.30
  -6   4  -5   64.39   47.80
   6   4   5   89.89    7.80
   6   4   5   89.79    6.10
   6  -4  -5  118.09   36.80
   6  -4  -5   64.19   65.59
   6   4   5   80.49   75.29
   6   4   5   90.99   40.40
  -6   4  -5  184.98   75.49
  -6  -4   5  102.79    7.70
  -6   4  -5   14.90   82.29
   6   4   5   89.09    6.70
   6   4   5   87.19    6.20
  -6   4  -5   96.49    7.50
  -6  -4   5   97.69    8.10
  -6   4  -5   67.09   37.00
   6   4  -5  148.19   85.89
  -6  -4  -5   99.09    7.70
  -6  -4  -5  217.68   82.59
   6   4  -5   36.70   66.09
  -6  -4  -5   75.89   42.40
  -6   4   5   92.09    6.10
   6  -4   5   91.59    5.90
   6   4  -5  102.49   46.00
   6  -4   5   88.29    5.80
  -6   4   5   87.99    5.70
  -6  -4  -5   87.89    6.70
   6   4  -5  143.99   37.50
   6   5   5 2442.56   97.19
  -6   5  -5 2217.18  159.28
   6   5   5 2422.96   97.09
  -6   5  -5 2396.16  212.28
  -6   5  -5 2415.06   98.89
   6   5   5 2568.94   97.49
   6   5   5 2452.25  149.69
   6  -5  -5 2171.68  189.28
  -6  -5   5 2525.05   98.99
  -6  -5   5 2585.04   99.69
   6  -5  -5 2388.46  142.79
   6   5   5 2522.15   99.59
   6   5   5 2477.25  202.68
  -6  -5  -5 2422.86  151.78
   6   5  -5 2361.96   95.09
   6  -5   5 2434.16   96.79
  -6   5   5 2560.04   97.09
   6   5  -5 2495.65  162.08
  -6  -5  -5 2413.16   97.59
   6   5  -5 2349.36  186.78
   6   5  -5 2376.46   96.09
  -6  -5  -5 2191.28  197.48
  -6   5   5 2447.16   96.29
   6   5  -5 2570.64  221.38
  -6  -5  -5 2449.85   98.89
   6   5  -5 2432.96  143.69
   6   6   5  339.87   16.80
  -6   6  -5  389.76  149.39
   6   6   5  350.26   16.80
  -6   6  -5  283.27   75.79
   6  -6  -5  276.37  108.59
   6   6   5  398.76   78.29
   6   6   5  359.66   16.90
   6   6   5  313.87  119.29
  -6   6  -5  307.77   17.90
  -6  -6   5  352.36   19.30
   6  -6  -5  223.08   59.19
  -6  -6   5  343.97   18.60
   6   6   5  347.77   18.80
  -6   6   5  269.37   75.39
  -6   6   5  339.17   18.10
  -6  -6  -5  435.56   88.19
   6   6  -5  238.48   79.39
  -6  -6  -5  402.66  132.19
   6   6  -5  305.27   14.70
   6   6  -5  316.27   15.80
   6   6  -5  207.08  126.29
  -6   6   5  337.27   15.50
   6   6  -5  251.27  102.29
  -6  -6  -5  314.87   16.70
   6  -6   5  328.17   16.30
  -6  -6  -5  318.87   18.10
   6   6  -5  306.67   65.19
  -6   6   5  316.47  133.99
  -6   6   5  346.37   16.50
   6   7   5 1747.13   72.39
  -6   7  -5 1629.44   71.49
  -6  -7   5 1699.03   72.19
   6   7   5 1712.53   69.99
  -6   7  -5 1700.73  257.67
   6   7   5 1771.22   70.09
  -6  -7   5 1687.23   71.79
  -6   7   5 1708.93   71.69
   6   7  -5 1677.83   69.09
  -6   7   5 1694.73   68.29
  -6   7   5 1723.23   69.49
   6  -7   5 1722.83   68.69
  -6  -7  -5 1694.03   71.59
   6  -7   5 1673.03   69.49
   6   7  -5 1646.04   67.69
   6   8   5  263.07   16.10
  -6  -8   5  264.27   18.70
   6   8   5  279.07   16.60
   6   8   5  254.37   26.00
  -6   8  -5  309.27   18.60
   6   8   5  283.17   16.60
  -6   8   5  284.07   18.30
   6  -8   5  295.17   15.40
  -6   8   5  311.17   16.70
   6  -8   5  301.17   16.70
  -6   8   5  291.17   14.70
   6   8  -5  295.07   15.90
   6   9   5  734.53   42.70
   6   9   5  794.12   39.10
  -6   9  -5  793.22   38.80
  -6   9   5  790.32   39.00
   6   9  -5  809.22   36.20
   6   9  -5  816.52   34.80
   6  -9   5  788.82   35.10
  -7   0  -5   20.70   55.19
  -7   0   5   58.09   26.80
  -7   0  -5   -2.30   28.50
   7   0  -5    7.50   41.60
   7   0  -5   14.70   21.40
   7   0   5   34.20   34.10
  -7   0   5  107.89   52.19
   7   0   5   35.20   63.29
  -7   1  -5   45.90    4.80
   7   1   5   11.00   66.69
   7   1   5   50.69    5.00
  -7   1  -5   60.49   34.00
   7  -1  -5  137.89   46.20
  -7   1  -5   -2.30   59.29
   7  -1  -5   55.59   23.70
   7   1   5   35.70   32.10
  -7  -1   5   51.29    4.50
  -7   1  -5   46.60    4.70
  -7  -1  -5   52.69    4.70
  -7   1   5  -40.50   50.99
  -7  -1  -5   61.09    5.20
   7  -1   5   41.60   64.19
  -7  -1  -5   37.40   30.30
   7   1  -5   54.29   25.40
  -7  -1  -5   52.79    4.90
   7   1  -5   72.69   49.50
  -7  -1  -5   16.90   56.99
   7  -1   5   40.90    4.10
  -7   1   5    7.70   27.50
  -7   1   5   47.70    4.20
   7  -1   5   -0.90   35.40
   7   2   5  136.29    9.10
  -7   2  -5  146.09   40.00
  -7   2  -5  187.08   76.99
  -7   2  -5  144.09    8.70
  -7  -2   5  147.29    8.60
  -7   2  -5  149.29    9.00
   7  -2  -5  163.68   33.00
   7  -2  -5  128.09   54.19
   7   2   5  147.49   74.69
   7   2   5  139.39   40.30
   7   2   5  138.89    8.60
  -7   2   5  261.97   46.60
   7   2  -5  121.09   60.79
   7  -2   5  148.19   44.70
   7  -2   5  162.48    8.00
  -7  -2  -5  121.09    8.50
   7  -2   5  183.88   81.19
  -7  -2  -5  118.29    8.20
   7   2  -5  125.19   54.49
  -7   2   5  166.38    7.20
   7   2  -5  125.89   35.40
  -7   2   5  109.09   61.69
  -7   2   5  166.58    8.40
  -7  -2  -5  153.88   37.60
   7   2  -5  115.99   31.60
  -7  -2  -5  -20.80   60.99
   7   3   5  399.96   95.19
  -7   3  -5  459.25  103.39
   7  -3  -5  459.75   55.79
   7   3   5  451.55   19.70
  -7  -3   5  446.16   20.90
  -7   3  -5  405.06   19.70
   7  -3  -5  339.07   78.39
   7   3   5  496.75   67.59
  -7   3  -5  418.56   20.20
  -7  -3   5  439.46   20.10
   7   3   5  442.16   21.00
  -7   3  -5  387.26   69.29
  -7  -3  -5  470.85   67.49
   7  -3   5  406.86   18.40
  -7  -3  -5  432.26   20.50
  -7  -3  -5  419.26   20.10
   7   3  -5  424.86   55.09
  -7   3   5  691.83  100.29
   7   3  -5  349.37   85.39
  -7   3   5  425.56   18.30
  -7  -3  -5  411.26   19.50
  -7   3   5  420.76   18.40
   7   3  -5  479.45   65.29
  -7  -3  -5  401.36   91.39
   7   3  -5  456.85   91.99
  -7   3   5  355.56   57.69
   7  -4  -5 1173.28  134.09
   7   4   5 1418.66  161.18
  -7   4  -5 1441.26  160.98
   7  -4  -5 1275.57   92.59
   7   4   5 1318.27   55.89
   7   4   5 1286.27   54.09
  -7   4  -5 1388.36   54.79
  -7  -4   5 1314.77   55.89
   7   4   5 1281.27  106.49
  -7   4  -5 1366.16   55.49
  -7   4  -5 1365.46  112.69
  -7   4   5 1312.47   53.29
   7   4  -5 1278.77  135.29
  -7   4   5 1336.97   52.69
   7   4  -5 1195.98  105.09
  -7  -4  -5 1392.26  102.29
   7   4  -5 1324.67   95.29
   7   4  -5 1073.79  153.68
   7  -4   5 1285.87   52.69
  -7  -4  -5 1367.26   54.49
  -7  -4  -5 1040.60  136.79
  -7  -4  -5 1387.86   55.69
  -7   5  -5  174.78  116.89
   7   5   5  113.29    9.80
   7   5   5  117.99    8.40
   7   5   5  126.09   58.39
  -7  -5   5  116.39   10.40
   7  -5  -5  201.18   93.39
  -7   5  -5  118.19    9.20
  -7  -5   5  118.19    9.40
   7  -5  -5  156.38   48.50
   7   5   5  109.69    7.10
   7   5   5  112.99    6.90
   7   5   5  -23.80   96.39
  -7   5  -5  112.89   60.99
   7   5  -5  236.68   91.29
  -7   5   5  105.29    6.50
   7   5  -5   69.79   58.19
  -7  -5  -5  160.88   53.59
  -7  -5  -5  120.29    8.30
  -7   5   5  111.39    7.70
   7  -5   5  102.49    6.40
   7   5  -5   64.69  109.99
   7   5  -5  155.38   49.50
  -7  -5  -5  126.19    9.80
  -7  -5  -5  184.38  104.79
  -7   6  -5  268.07   15.40
  -7  -6   5  235.18   15.30
  -7   6  -5  235.68  171.88
  -7  -6   5  215.78   15.60
   7   6   5  229.88   12.50
   7   6   5  226.08   15.70
   7   6   5  222.38   12.60
   7   6  -5  205.38   10.70
  -7   6   5  267.67   11.80
  -7   6   5  277.77   13.70
   7  -6   5  268.87   11.90
  -7  -6  -5  227.78   15.20
  -7  -6  -5  243.58   13.90
  -7   6   5  279.87   15.40
   7  -6   5  271.97   12.20
   7   7   5   21.70    5.90
   7   7   5   23.00    6.40
   7   7   5   20.50    5.50
  -7   7  -5   18.00    5.80
  -7  -7   5   22.60    6.40
  -7  -7   5   22.70    6.90
   7   7   5   21.80    5.50
   7   7  -5   19.70    4.60
  -7   7   5   20.30    4.20
  -7   7   5   28.30    8.00
  -7  -7  -5   19.20    6.30
   7   7  -5   19.30    4.30
   7  -7   5   26.40    5.10
  -7   7   5   24.60    5.20
   7   8   5   40.00    8.90
  -7  -8   5   45.30   11.30
   7   8   5   44.70    7.60
   7   8   5   39.80    8.40
  -7   8  -5   38.10    9.40
   7   8   5   35.20    9.50
   7   8  -5   36.60    6.30
  -7   8   5   35.80    9.30
   7  -8   5   37.80    6.90
   7   8  -5   38.30    6.10
  -7   8   5   42.30    8.90
   7   9   5   81.19   11.30
   7   9   5   83.19   10.70
  -7   9  -5   90.89   12.60
   7   9   5  100.79   13.00
  -7   9   5   75.69   12.40
   7   9  -5   88.19   10.90
  -8   0   5  780.82   32.60
  -8   0  -5  856.71  107.69
   8   0   5  782.92   33.30
   8   0   5  637.24  119.39
  -8   0  -5  749.73   68.19
   8   0  -5  760.82   68.89
  -8   0  -5  799.02   33.60
   8   0  -5  741.43   49.60
   8   0   5  848.12   79.89
  -8   0  -5  798.22   33.50
   8   0  -5  817.62   50.49
  -8   1  -5 2037.00   81.79
  -8   1  -5 1981.50  115.49
   8   1   5 1969.70  124.59
  -8   1  -5 1980.10  151.68
  -8   1  -5 2078.09   81.79
   8  -1  -5 1948.21   96.49
   8   1   5 1950.20  164.48
  -8  -1   5 2096.39   81.09
   8   1   5 2122.39   82.09
   8  -1  -5 1986.60  114.69
  -8  -1   5 2083.29   81.89
   8   1  -5 1895.01   99.39
  -8   1   5 2123.59   80.89
   8  -1   5 2079.59  168.38
  -8  -1  -5 2107.59   81.79
  -8  -1  -5 2031.70   81.69
  -8  -1  -5 1980.70  114.69
  -8  -1  -5 2085.39   81.59
   8  -1   5 2125.89  125.59
   8   1  -5 1879.01  121.19
   8  -1   5 2055.69   80.99
  -8  -1  -5 1956.90  148.69
  -8   1   5 2115.79  128.09
   8   1  -5 2017.60   98.79
   8   1  -5 2013.60  118.09
  -8   1   5 1987.40  103.69
  -8  -2   5  242.58   12.30
  -8   2  -5  233.18   12.70
   8  -2  -5  252.47   42.40
  -8   2  -5  195.58   40.70
   8  -2  -5  138.09   54.99
   8   2   5  196.28   49.40
   8   2   5  249.97   13.40
  -8   2  -5  221.38   84.69
  -8   2  -5  192.98   46.90
  -8   2  -5  222.08   12.50
  -8  -2   5  254.67   13.50
   8   2   5  177.58   85.39
   8   2   5  243.98   12.60
  -8  -2  -5  224.98   12.30
  -8   2   5  227.58   48.00
  -8  -2  -5  256.37   59.29
  -8   2   5  243.28   11.20
  -8  -2  -5  224.18   12.50
  -8  -2  -5  223.18   12.80
   8  -2   5  248.98   11.50
  -8  -2  -5  269.37   80.79
  -8   2   5  248.58   10.50
  -8   2   5  245.88   63.09
   8   2  -5  205.08   66.29
  -8   2   5  254.67   12.00
   8   2  -5  238.78   50.29
   8   3   5 1912.91   77.79
  -8   3  -5 1927.91  126.29
  -8  -3   5 1879.81   76.79
  -8   3  -5 1925.71   77.29
  -8   3  -5 1880.81  158.38
   8   3   5 1951.60   76.59
  -8  -3   5 1950.70   77.99
   8  -3  -5 1965.10  134.99
  -8   3  -5 1857.41  178.68
  -8   3  -5 1903.61   76.89
   8   3   5 1880.51  126.39
   8   3   5 1948.41  180.98
   8  -3  -5 1767.22  102.89
   8   3  -5 1884.81  108.79
  -8   3   5 1872.41   74.89
   8   3  -5 1931.31  143.59
  -8  -3  -5 1973.20   77.59
   8   3  -5 1831.22  158.98
  -8   3   5 1859.21   74.49
  -8   3   5 1944.11   76.29
  -8  -3  -5 1846.52   76.39
   8   3  -5 1770.82  115.09
  -8   3   5 1996.40  110.89
  -8  -3  -5 1967.10  164.38
  -8   3   5 1791.82  146.89
  -8  -3  -5 1943.71   77.19
   8  -3   5 1850.41   74.79
   8  -4  -5  111.89   39.00
   8   4   5  -34.10   48.10
  -8   4  -5   29.90    5.40
   8   4   5   30.20    5.70
  -8  -4   5   31.90    7.20
   8   4   5   36.10    6.50
  -8   4  -5  -51.59  103.09
  -8   4  -5   29.70    5.60
   8  -4  -5    5.00   70.49
   8   4   5  143.99  100.29
  -8  -4   5   33.90    6.20
  -8   4  -5   -2.00   52.39
   8  -4   5   34.20    3.50
  -8  -4  -5   33.20    5.20
   8   4  -5  -21.70   92.79
   8   4  -5   69.89  140.59
  -8   4   5  -13.80   81.69
   8   4  -5   37.00   46.70
  -8  -4  -5  -11.40   46.70
  -8   4   5   52.39   42.20
  -8   4   5   38.60    4.60
  -8  -4  -5   48.70   94.49
  -8  -4  -5   34.80    6.50
   8   5   5  345.47   18.50
  -8  -5   5  330.27   18.80
  -8   5  -5  239.58  134.09
  -8  -5   5  331.57   17.60
  -8   5  -5  296.47   16.50
  -8   5  -5  302.67   17.20
   8   5   5  285.17   16.00
  -8   5  -5  381.26   80.29
  -8  -5  -5  270.37   80.79
   8   5  -5   -2.30   99.59
  -8  -5  -5  309.47   17.80
  -8  -5  -5  272.27  123.79
  -8  -5  -5  315.87   16.10
   8   5  -5  361.46   81.19
  -8  -6   5  196.68   15.10
  -8  -6   5  220.68   14.50
  -8   6  -5  197.78   13.80
   8   6   5  206.78   14.80
  -8  -6  -5  219.28   14.80
  -8   6   5  173.48   13.30
  -8  -6  -5  225.88   12.80
  -8   6   5  175.28   11.70
   8   7   5  437.66   24.40
   8   7   5  435.86   21.80
  -8  -7   5  438.46   24.20
  -8   7  -5  418.16   23.50
  -8   7   5  430.96   21.50
  -8   7   5  413.36   23.10
  -8   8  -5  305.67   20.30
   8   8   5  313.57   20.80
   8   8   5  305.17   18.80
  -8   8   5  295.27   20.60
  -8   8   5  322.17   20.30
   9   0   5    0.60   41.20
  -9   0   5   10.50    3.40
  -9   0   5    5.30    2.50
  -9   0  -5    5.90    2.60
  -9   0  -5    0.40   63.39
   9   0   5  125.89   79.29
  -9   0  -5    4.30    2.80
   9   0   5    3.60    2.80
  -9   0  -5  -57.99   32.30
  -9  -1   5  312.87   15.30
   9   1   5  313.47   15.10
  -9   1  -5  269.07   14.50
  -9   1  -5  267.87   14.60
  -9   1  -5  367.86   58.19
  -9   1  -5  273.97   79.19
   9   1   5  435.76  100.19
  -9  -1   5  300.87   14.10
   9   1   5  256.77   52.99
   9  -1   5  280.67   13.70
  -9  -1  -5  279.07   14.50
  -9  -1  -5  280.47   14.60
  -9   1   5  276.67   13.60
  -9  -1  -5  351.66   59.49
  -9  -1  -5  261.77   74.09
  -9   1   5  289.87   13.80
  -9  -2   5  279.77   14.80
   9  -2  -5  273.07   41.90
  -9   2  -5  253.47   13.70
  -9   2  -5  246.78   13.70
  -9  -2   5  277.47   13.60
  -9   2  -5  181.78   46.60
   9  -2  -5  217.48   26.30
   9   2   5  195.38  142.99
  -9   2  -5  200.68   76.79
  -9   2  -5  175.88   81.29
  -9   2  -5  167.58   41.30
   9   2   5  291.37   14.60
   9   2   5  161.98   67.19
  -9  -2  -5  108.99   57.59
  -9   2   5  226.88   11.60
  -9   2   5  249.58   12.70
  -9  -2  -5  232.38  109.79
  -9   2   5  241.18   11.60
  -9   2   5  215.08   32.90
   9   2  -5  221.58   48.10
   9   2  -5  357.76   66.89
   9   2  -5  264.47   37.00
  -9   2   5  161.48   34.40
   9   2  -5  290.47   40.90
  -9  -2  -5  298.87   14.00
   9  -2   5  230.78   11.90
  -9   2   5  238.58   10.90
  -9  -2  -5  296.37   14.50
  -9  -2  -5  284.67   13.70
   9   3   5  475.45   22.90
   9   3   5  489.55   24.10
  -9  -3   5  498.15   23.30
  -9   3  -5  571.54  133.79
  -9   3  -5  524.75   23.80
   9  -3  -5  391.36   50.19
   9  -3  -5  361.16   81.29
  -9   3  -5  516.55   85.59
  -9   3  -5  514.85   23.60
  -9  -3   5  497.45   24.40
   9   3   5  706.73  198.98
   9   3   5  774.42  132.89
  -9  -3  -5  503.75  112.39
  -9   3   5  531.65   99.69
   9   3  -5  480.15   77.19
  -9  -3  -5  377.46  125.39
   9   3  -5  414.36   90.99
  -9  -3  -5  510.55   23.10
  -9  -3  -5  526.25   24.20
  -9   3   5  505.95   21.20
  -9   3   5  499.05   22.50
   9   3  -5  565.34   59.09
  -9   3   5  504.45   60.49
   9   3  -5  305.87   95.49
   9   4   5  138.79   10.90
  -9  -4   5  133.09   10.10
   9   4   5  135.19    9.60
  -9  -4   5  124.29   11.50
  -9   4  -5  120.99    9.50
  -9   4  -5  112.59    9.80
  -9  -4  -5  148.19  111.39
  -9  -4  -5  135.49   10.90
  -9  -4  -5   61.49   56.79
  -9  -4  -5  127.09    9.30
  -9   4   5  115.89    7.90
   9   5   5  386.26   26.30
  -9   5  -5  478.45   23.00
  -9  -5   5  492.75   23.90
  -9  -5   5  461.85   24.70
  -9   5  -5  466.95   23.60
  -9  -5  -5  469.75   22.30
  -9   5   5  489.05   21.50
  -9  -5  -5  468.95   24.20
   9   6   5    6.60    5.90
  -9   6  -5   22.40    8.00
  -9   6  -5   14.00    5.50
  -9  -6   5    6.50    7.70
  -9  -6   5   18.60    6.40
   9   6   5   19.70    5.80
  -9   6   5   11.20    4.80
  -9  -6  -5   13.60    5.10
  -9   6   5   14.00    5.30
  -9  -6  -5   11.40    8.60
  -9   7  -5   59.99   10.80
   9   7   5   60.99   11.10
  -9  -7   5   69.29   13.20
   9   7   5   74.49   11.70
  -9   7   5   82.29   10.20
 -10   0  -5  254.27   13.70
 -10   0   5  238.58   12.40
 -10   0  -5  259.77   13.60
 -10   0  -5  289.37   65.79
  10   0   5  249.88   13.00
 -10   0  -5  329.57   53.19
 -10   0   5  240.98   13.00
  10   1   5  301.37   15.40
 -10   1  -5  285.47   15.20
 -10   1  -5  305.37   15.20
 -10   1  -5  185.98   80.49
 -10   1  -5  283.67   52.49
 -10  -1   5  287.97   14.40
 -10   1   5  278.47   13.50
 -10   1   5  299.37   14.10
 -10  -1  -5  282.07   14.80
  10  -1   5  291.77   13.90
 -10  -1  -5  277.17   14.90
  10   2   5  233.88   13.60
 -10   2  -5  234.88   13.30
 -10   2  -5  206.18   45.30
 -10   2  -5  269.87   81.99
 -10  -2   5  232.28   12.70
 -10  -2   5  218.98   13.70
  10   2   5  189.08   54.29
 -10   2  -5  227.78   13.00
  10   2   5  195.28   94.19
 -10  -2  -5  389.26   87.99
 -10  -2  -5  219.28   13.30
 -10  -2  -5  222.88   12.80
 -10  -2  -5  177.88   45.60
 -10   2   5  235.88   11.90
 -10  -2  -5  205.78   12.50
 -10  -3   5  376.26   25.30
 -10   3  -5  426.66   21.20
 -10   3  -5  394.56   79.19
 -10   3  -5  523.05  106.99
 -10   3  -5  441.86   23.10
  10   3   5  455.25   22.20
 -10  -3   5  444.46   22.40
 -10  -3  -5  294.37   58.59
  10   3  -5  409.66   48.60
 -10   3   5  455.55   18.40
 -10  -3  -5  279.37  102.19
  10   3  -5  348.97   33.60
 -10   3   5  450.95   20.20
 -10  -3  -5  417.06   20.50
 -10  -3  -5  425.26   21.60
 -10  -4   5   18.70    5.70
 -10   4  -5   18.90    7.00
 -10   4  -5   15.70    5.20
  10   4   5   17.00    5.90
 -10  -4   5   17.90    6.60
 -10  -4  -5   20.50    4.90
 -10   4   5   24.00    6.50
 -10  -4  -5   20.50    6.40
  10   4  -5  -92.29   73.89
  10   4  -5   53.29   42.80
  10   5   5  985.20   44.80
 -10   5  -5  950.50   50.59
  10   5   5 1008.00   43.00
 -10  -5   5 1027.70   44.20
 -10  -5   5  991.50   45.50
 -10   5  -5  951.40   43.60
 -10   5   5 1028.80   41.60
 -10  -5  -5  997.80   42.60
 -10   5   5  984.60   43.40
 -10  -5  -5  946.11   44.50
  10   6   5  324.17   20.90
 -10  -6   5  352.26   22.20
  10   6   5  339.77   19.70
 -10   6  -5  341.27   19.20
 -10   6   5  356.56   18.30
 -10  -6  -5  320.27   18.70
 -10   6   5  340.47   20.00
 -11   0   5    0.00    3.40
 -11   0   5    0.30    3.20
 -11   0  -5    7.40    4.20
 -11   0  -5    6.30    3.60
 -11  -1   5   63.89    7.10
  11   1   5   64.19    7.80
 -11   1  -5   63.99    7.70
 -11  -1   5   60.79   11.80
 -11   1  -5   58.89    7.20
 -11  -1  -5   71.19    7.40
 -11  -1  -5   77.49    7.90
 -11  -2   5   65.59    8.00
 -11   2  -5   75.49    8.10
 -11   2  -5   57.19    9.90
  11   2   5   67.79    8.60
 -11  -2  -5   64.19    7.90
 -11  -2  -5   69.29    7.80
 -11   3  -5  323.77   18.10
 -11   3  -5  317.97   18.10
  11   3   5  346.07   19.10
 -11  -3   5  353.36   18.10
 -11  -3   5  309.37   22.30
 -11  -3  -5  327.07   19.10
 -11   3   5  350.46   19.00
 -11  -3  -5  333.17   17.60
 -11  -4   5   89.09   16.80
 -11  -4   5  110.19   11.90
  11   4   5  106.79   12.00
 -11   4  -5  134.49   11.50
 -11   4  -5  115.49   14.20
 -11   4   5  127.19   10.30
 -11   4   5  124.49   10.70
 -11  -4  -5  118.69   10.40
 -11  -4  -5  120.39   13.10
   0   0   6 5043.50  234.88
   0   0   6 5152.08  270.57
   0   0  -6 5316.77  235.48
   0   0   6 4733.13  197.08
   0   0  -6 5357.56  269.77
   0   1  -6    1.40    1.10
   0   1   6    0.50    1.10
   0  -1  -6   46.60   34.20
   0  -1  -6  -33.30   20.10
   0   1   6   37.70   50.99
   0   1   6    1.80   24.50
   0   1  -6    4.70   51.29
   0   1   6    1.70    1.50
   0  -1  -6    3.10    1.30
   0  -1   6  -57.79   53.29
   0  -1   6   34.60   26.60
   0   1  -6    1.20    1.30
   0   1   6    2.80    1.50
   0  -1  -6    0.80    1.20
   0  -1   6    2.10    1.60
   0   1  -6   -1.10   21.50
   0   2   6 2562.14  130.69
   0   2  -6 2279.77  130.79
   0  -2  -6 2210.68   90.99
   0  -2  -6 2449.45  153.68
   0  -2  -6 2194.88   91.89
   0   2   6 2322.27   91.79
   0  -2   6 2298.67   92.39
   0  -2   6 2423.26  172.88
   0   2  -6 2218.18   90.69
   0  -2  -6 2536.15  128.39
   0   2   6 2250.87   90.79
   0   2  -6 2216.08  162.38
   0   2   6 2320.07  158.98
   0  -2   6 2432.36  134.69
   0   2   6 2298.97   91.99
   0  -3   6   -4.70   50.89
   0   3   6    5.20    2.20
   0  -3   6  -11.90   29.30
   0   3  -6    3.80    1.50
   0   3   6    3.90    1.60
   0  -3  -6  -36.60   23.60
   0   3   6   27.60   30.90
   0  -3  -6  -17.70   37.90
   0   3   6    3.70    2.00
   0   3   6   13.80   44.10
   0  -3  -6    2.50    1.90
   0   3  -6  -19.50   30.70
   0  -3   6    4.20    2.30
   0   3  -6   85.69   52.89
   0  -3  -6    1.00    1.50
   0   3  -6    5.20    2.20
   0  -4  -6  719.43   31.60
   0   4   6  777.52   32.20
   0   4   6  764.82   32.00
   0  -4  -6  860.61  111.49
   0   4   6  681.53  109.69
   0  -4   6  769.52   32.80
   0   4  -6  546.85  103.19
   0  -4   6  700.83   85.49
   0   4   6  855.31   76.59
   0  -4   6  830.82  140.89
   0   4  -6  686.13   32.20
   0  -4  -6  706.73   31.20
   0  -4  -6  636.34   69.39
   0   4   6  778.62   31.00
   0   4  -6  665.53   76.59
   0   5  -6  -46.10   42.90
   0  -5  -6  -28.40   33.10
   0  -5  -6    9.30   76.29
   0  -5   6    2.40    2.50
   0   5   6  -13.40   69.69
   0   5  -6  -33.80   54.89
   0   5   6    3.00    1.90
   0   5   6    4.20    2.20
   0   5  -6    1.70    2.10
   0   5   6   -0.80   35.80
   0   5  -6   49.00   41.70
   0   5  -6   27.70   94.59
   0   5   6    3.70    2.20
   0  -5  -6    3.80    2.40
   0   6   6  261.57   14.80
   0   6  -6  517.95  120.29
   0   6  -6  350.66   74.89
   0   6   6  279.87   13.90
   0  -6  -6  315.67   74.69
   0  -6   6  270.57   15.70
   0   6   6  395.86  109.19
   0   6  -6  434.96  116.19
   0   6   6  204.58   54.79
   0   6   6  270.17   15.00
   0  -6  -6  317.77   93.79
   0   6  -6  358.56   77.19
   0   6   6  271.97   15.50
   0   7  -6  206.88  153.68
   0   7  -6  212.38  127.59
   0   7  -6  -40.40   72.89
   0   7  -6  125.39   61.99
   0   8   6 1904.51  242.08
   0   8   6 2007.30   81.59
   0  -8  -6 1933.91  160.58
   0  -8   6 2014.70   83.29
   0   8  -6 1868.51  181.58
   0   8  -6 2074.79  239.98
   0   8  -6 1908.61  213.38
   0   8   6 1973.60   81.69
   0   8  -6 2020.50  167.98
   0   8   6 1814.32  157.38
   0  -8  -6 1719.73  236.48
   0   9  -6   31.10  111.19
   0   9   6   25.80    8.00
   0  -9  -6  -64.99   78.39
   0   9  -6  171.48   90.89
   0  -9   6   30.10    9.30
   0   9  -6   27.00    7.70
   0  -9  -6   14.70    5.40
   0   9   6   13.10    8.30
   0   9   6  -32.70   85.89
   0  -9  -6  141.99  139.29
   0   9   6  180.08  167.28
   0  -9   6   22.00    6.50
   0   9  -6   36.70  192.08
   0   9  -6 -245.78  228.48
   0  10   6   65.49   10.50
   0  10  -6   43.10    9.90
   0 -10  -6  -12.50  172.48
   0 -10  -6    3.10  121.69
  -1   0   6  -35.90   23.50
  -1   0   6   -5.00    1.00
   1   0   6   36.90   53.19
   1   0  -6   -4.30    0.90
   1   0   6  -42.00   22.70
  -1   0   6   -4.10    1.40
   1   0   6   -4.50    1.40
  -1   0  -6   -4.20    1.30
  -1   0  -6   26.60   24.50
   1   0  -6   43.20   25.30
   1   0   6   -3.90    1.20
  -1   0  -6   -1.10   34.80
   1   0  -6   -4.10    1.30
  -1   0   6  -38.70   32.30
  -1   0  -6   -4.40    1.10
   1   0  -6  -20.00   46.90
  -1  -1   6   97.59    6.30
  -1   1  -6   76.59    5.90
   1   1   6   48.60   29.30
   1   1   6   95.29    6.00
   1   1   6  114.49   63.29
  -1  -1   6   92.79   31.50
   1  -1  -6   59.89   39.20
   1  -1  -6   76.69    5.00
  -1   1  -6   37.30   39.40
  -1  -1   6  100.79   44.80
   1   1   6  101.69    5.40
  -1   1  -6   28.00   26.00
  -1   1  -6   70.29    5.00
   1  -1  -6   81.09   27.60
   1   1   6   97.19    6.30
   1  -1  -6   75.69    5.70
   1   1  -6   74.39    5.70
  -1  -1  -6   84.59    5.30
  -1   1   6  133.49   47.90
  -1  -1  -6   78.29    5.90
  -1   1   6  121.49   31.40
   1   1  -6   61.69   54.59
  -1  -1  -6   96.29   40.60
   1  -1   6   77.69   62.99
  -1  -1  -6   84.79   28.70
   1   1  -6   89.29   29.10
   1  -1   6  115.39   32.80
   1  -1   6   95.59    6.40
  -1   1   6   95.79    5.90
  -1   1   6   93.19    5.00
  -1   1   6  101.19    6.20
   1   1  -6   74.59    4.80
   1  -2  -6  373.26   16.50
   1   2   6  373.96   16.50
  -1  -2   6  368.26   17.70
   1   2   6  389.16   51.49
  -1   2  -6  372.36   17.70
   1   2   6  375.66   17.40
  -1   2  -6  382.86   16.50
  -1  -2   6  492.25   77.89
  -1  -2   6  460.35   57.29
  -1   2  -6  417.56   68.99
   1   2   6  346.87   79.99
   1  -2  -6  511.55   66.79
   1   2   6  370.56   17.50
   1  -2  -6  412.36   47.30
  -1   2  -6  401.36   50.19
   1   2  -6  388.06   16.10
   1  -2   6  486.55   97.49
   1  -2   6  350.66   55.59
  -1   2   6  368.76   16.20
  -1   2   6  381.76   78.89
  -1   2   6  375.86   17.30
  -1  -2  -6  356.66   46.80
  -1   2   6  352.36   47.90
   1   2  -6  350.56   53.29
  -1  -2  -6  364.16   62.19
  -1   2   6  367.76   17.30
   1  -2   6  375.76   17.80
  -1  -2  -6  370.16   17.50
   1   2  -6  329.57   76.99
   1   2  -6  370.66   17.50
  -1  -2  -6  370.86   16.70
   1   3   6 1317.87   53.79
  -1  -3   6 1317.87   55.29
   1   3   6 1154.98  113.59
   1   3   6 1300.87   54.79
   1  -3  -6 1500.65  128.19
  -1   3  -6 1404.06   55.39
   1  -3  -6 1457.95   93.99
   1   3   6 1230.38   91.69
   1  -3  -6 1396.06   54.09
  -1  -3   6 1213.48   98.99
  -1   3  -6 1386.16   53.69
  -1  -3   6 1323.77  141.29
  -1   3  -6 1326.77   97.49
  -1   3  -6 1294.87  136.49
   1   3   6 1276.17   54.69
  -1  -3  -6 1324.77  114.49
   1  -3   6 1304.47  142.09
  -1   3   6 1422.86   54.99
  -1   3   6 1453.55  118.39
   1   3  -6 1227.58   54.69
   1   3  -6 1259.57  123.89
  -1  -3  -6 1283.07   54.49
  -1   3   6 1436.36   53.79
   1  -3   6 1354.56  101.89
  -1  -3  -6 1336.67   92.89
  -1   3   6 1456.55   54.79
   1  -3   6 1460.15   55.69
   1   3  -6 1165.28   94.79
   1   3  -6 1238.58   53.19
  -1  -3  -6 1301.57   54.09
   1  -4  -6  131.19   38.40
  -1   4  -6   64.49   36.20
   1  -4  -6   79.99    5.90
   1  -4  -6   74.99    5.60
   1  -4  -6  118.49   55.59
  -1   4  -6   73.29    6.30
   1   4   6   80.99    6.30
  -1  -4   6   33.00   43.50
  -1   4  -6   54.29   60.69
   1   4   6  102.49   53.49
   1   4   6   76.99   37.60
  -1  -4   6  128.29   66.49
   1   4   6   84.79    6.40
  -1  -4   6   85.49    6.90
   1   4   6   87.29    5.70
  -1  -4  -6   73.09    5.60
  -1  -4  -6  106.09   35.10
   1  -4   6   83.19    6.80
  -1  -4  -6  118.49   68.99
   1   4  -6  104.59   41.40
  -1   4   6  -48.80   43.50
  -1   4   6   78.89    6.30
   1   4  -6   76.89    6.30
  -1   4   6   87.39    5.60
   1  -4   6  216.78   94.09
  -1   4   6   85.69    6.20
   1   4  -6    6.90   59.79
  -1   4   6   80.49   34.40
  -1  -4  -6   73.89    6.00
   1  -4   6   98.69   42.40
  -1   5  -6  634.54  111.29
   1   5   6  563.54   27.10
   1  -5  -6  658.23   26.80
  -1   5  -6  640.64   27.80
   1   5   6  578.74   26.00
   1   5   6  602.54   74.19
   1  -5  -6  751.02  105.09
   1   5   6  551.34   27.20
   1  -5  -6  676.63   77.49
   1   5   6  845.22  127.59
  -1   5  -6  505.05   95.79
  -1   5  -6  608.84   81.49
  -1  -5   6  557.04   27.50
  -1   5  -6  560.74   74.99
   1   5  -6  579.94   27.30
   1   5  -6  767.12   90.69
  -1  -5  -6  605.34   27.00
   1   5  -6  882.31  132.19
  -1  -5  -6  595.74   26.50
  -1  -5  -6  538.25   71.59
  -1   5   6  616.64   26.10
  -1   5   6  613.34   27.20
  -1   5   6  556.44  119.79
  -1  -5  -6  525.45  109.19
   1   5  -6  524.85   72.09
  -1   5   6  613.64   27.00
   1   5  -6  613.94  130.89
  -1   5   6  617.04   74.69
   1   6   6  322.27   91.09
  -1   6  -6  310.77   71.49
  -1   6  -6  277.17  109.29
  -1   6  -6  366.26   18.60
  -1   6  -6  528.55   80.29
  -1  -6   6  326.67   18.30
   1   6   6  332.97   17.70
   1   6   6  323.87   17.70
   1  -6  -6  363.76   17.30
  -1   6  -6  404.46  110.59
   1  -6  -6  246.08   90.29
   1   6   6  335.77   18.20
   1  -6  -6  365.66  133.19
   1   6   6  311.77   71.19
   1   6   6  325.77   16.50
   1   6  -6  582.04   82.39
  -1   6   6  306.57  131.69
   1   6  -6  285.07   95.39
  -1   6   6  352.36   17.60
  -1   6   6  320.07   68.79
   1   6  -6  283.27  128.19
  -1  -6  -6  340.17   17.40
  -1   6   6  351.56   16.70
  -1   6   6  353.56   18.50
  -1  -6  -6  293.87   67.99
  -1  -6  -6  283.07   95.99
   1   6  -6  341.27   18.00
   1  -6   6  363.66   18.70
   1   6  -6  427.56   88.39
  -1   6   6  350.16   17.90
   1   7   6  240.58   14.40
   1  -7  -6  202.58   62.19
   1  -7  -6  215.98  121.69
   1   7   6  210.18  125.69
  -1   7  -6  186.58   13.50
   1   7   6  243.08   13.90
   1   7   6  286.17   65.69
  -1   7  -6  325.27  111.89
   1  -7  -6  199.78   12.60
   1   7   6  245.98   14.00
  -1   7  -6  327.07  137.39
  -1   7  -6  201.48   66.99
  -1   7  -6  297.77   77.69
  -1  -7  -6  196.08  102.09
  -1   7   6  219.08   12.40
  -1   7   6  210.68   13.10
   1  -7   6  201.28   14.00
  -1   7   6  207.08   14.00
  -1   7   6   10.60  118.19
   1   7  -6  259.57   72.09
   1   7  -6  303.97  101.09
   1   7  -6   40.10  141.69
  -1   7   6  201.28   66.39
  -1  -7  -6  209.58   66.19
   1   7  -6  179.78   76.19
  -1  -7  -6  238.48   13.50
   1   7  -6  230.28   13.90
  -1   8  -6  112.49   73.99
  -1   8  -6   32.00    8.40
   1  -8  -6   -3.40   69.89
  -1   8  -6    3.30  109.39
  -1   8  -6  -69.69   80.69
   1  -8  -6  123.79  109.09
   1   8   6   36.10    8.40
  -1   8  -6  -29.90  129.99
   1   8   6   35.90    6.90
   1   8  -6   34.10    7.20
  -1   8   6   43.50    6.90
  -1   8   6  136.49   69.19
  -1   8   6   24.60  138.59
  -1  -8  -6  -25.80  181.88
   1   8  -6   59.19  129.09
   1   8  -6   47.90   74.19
   1   8  -6   48.90   80.79
   1   8  -6   44.90  164.08
  -1   8   6   33.40    6.50
  -1   8   6   36.20    9.70
  -1  -8  -6   65.89   86.59
   1   9   6   54.59    9.10
   1   9   6   74.89   87.09
   1   9   6   45.90    9.00
  -1  -9   6   46.00   10.10
  -1   9  -6  116.19   97.39
   1   9   6   47.40    8.20
  -1   9  -6   65.69  193.38
  -1  -9   6   47.90    9.60
   1   9   6   47.80    7.80
   1  -9  -6  -62.89  174.68
  -1   9  -6   32.40    9.50
   1  -9  -6   52.59   92.49
  -1   9  -6 -249.58  198.88
   1  -9  -6   36.30    8.20
  -1   9  -6  147.89  105.19
   1   9   6  203.28  192.38
  -1   9   6  202.98  179.18
   1  -9   6   31.80    9.00
  -1   9   6  103.49   90.09
  -1  -9  -6  114.19  144.09
  -1   9   6   36.00    9.40
  -1   9   6   30.80    7.80
   1   9  -6  154.88   98.19
   1   9  -6  137.69  113.39
  -1  -9  -6   48.70   86.39
  -1  -9  -6   47.70    9.20
   1   9  -6  235.28  148.19
   1   9  -6  -57.89  223.08
   1   9  -6   49.00    8.70
   1  -9   6   35.20    9.70
   1  10   6   60.19   11.30
  -1  10  -6   64.49   11.00
   1 -10  -6   80.59   11.30
   1  10   6   68.39   10.50
  -1  10  -6    3.80  259.47
   1 -10  -6   20.90  100.49
   1 -10  -6 -477.55  221.08
  -1  10  -6  292.27  159.18
  -1  10   6   67.29   11.30
   1  10  -6  336.47  134.29
   1  10  -6   65.09   11.10
   1 -10   6   68.99   12.20
   1  10  -6  -20.70  282.97
  -1  10   6   63.99   10.10
   2   0   6 1896.01   77.09
  -2   0  -6 2186.48  115.99
   2   0  -6 1929.71   76.89
   2   0  -6 1955.20   75.79
   2   0   6 1879.71  139.39
  -2   0   6 1944.61  141.49
  -2   0  -6 1906.91   76.39
   2   0   6 1865.61   76.29
   2   0  -6 2047.20  142.29
  -2   0  -6 1946.51   77.49
  -2   0  -6 2119.19  146.09
  -2   0   6 1856.11   77.09
   2   0   6 1926.41  113.79
   2   0  -6 2014.00  111.59
   2   0   6 1909.81   77.29
  -2   0   6 1880.31   75.59
  -2   0   6 1900.51  110.69
   2  -1  -6   64.09   27.10
  -2   1  -6   55.69    4.00
   2  -1  -6   49.70    3.70
  -2   1  -6   58.89   27.60
   2   1   6   71.39   44.00
  -2  -1   6   37.60   49.50
   2  -1  -6   69.79   38.80
  -2   1  -6   56.49    4.80
   2   1   6   32.90   26.90
   2   1   6   55.99    4.10
  -2   1  -6   65.39   53.79
  -2  -1   6   54.09    4.80
   2   1   6   57.29    4.60
   2  -1  -6   50.79    4.30
   2   1   6   53.69    4.60
  -2  -1   6   35.10   28.80
  -2   1   6   53.19    3.50
   2  -1   6   57.29   32.20
  -2  -1  -6   55.19    4.70
   2   1  -6   68.89   29.40
   2   1  -6   53.19    4.40
  -2  -1  -6   -3.40   48.90
  -2  -1  -6   52.19    4.00
  -2   1   6   55.29    4.60
   2   1  -6   51.89    3.40
   2  -1   6   43.80   43.00
   2   1  -6   -7.20   48.60
  -2   1   6   73.49   28.20
  -2   1   6   17.40   49.30
   2  -1   6   61.09    5.00
  -2  -1  -6   75.89   28.00
   2   2   6   82.39   47.10
  -2  -2   6   96.89    6.90
   2   2   6   94.39    6.00
  -2   2  -6   74.99   32.60
   2  -2  -6  110.99   32.50
   2   2   6  190.68   43.10
   2   2   6   88.89    6.50
   2  -2  -6  117.19    6.00
   2   2   6   88.69    6.60
  -2   2  -6  114.69    6.20
   2  -2  -6  127.19   48.60
  -2   2  -6   78.09   65.09
  -2  -2   6   12.30   47.90
  -2   2  -6  118.29    7.30
  -2  -2   6   74.39   34.50
  -2   2   6   89.89    5.50
   2   2  -6  161.18   37.60
   2  -2   6   92.79    6.90
  -2   2   6   83.19   29.00
  -2   2   6  141.29   55.39
   2   2  -6  146.69   63.09
  -2  -2  -6  130.69   30.80
  -2  -2  -6  120.59    6.90
  -2   2   6   87.99    6.20
  -2  -2  -6  118.19    6.40
  -2   2   6   88.99    6.40
   2  -2   6   90.69   70.99
   2   2  -6  117.49    6.90
   2  -2   6  147.09   39.90
  -2  -2  -6  183.88   59.29
  -2   3  -6   33.80   63.79
   2   3   6   52.59   29.80
   2   3   6   19.20   56.99
  -2  -3   6   76.19   35.90
  -2   3  -6  131.79   38.20
   2   3   6   59.79    5.40
  -2  -3   6   63.09    5.80
   2  -3  -6   80.79   61.19
  -2  -3   6  241.68   77.19
   2  -3  -6   97.19   33.30
   2   3   6   59.69    5.50
   2   3   6   61.19    4.70
   2  -3  -6   77.49    5.00
  -2   3  -6   73.29    4.80
   2  -3   6  -20.40   52.99
   2   3  -6   67.89   69.29
  -2  -3  -6   63.49   31.00
   2   3  -6   60.29    5.20
  -2   3   6   71.09    5.50
  -2   3   6   15.70   56.89
  -2   3   6   71.59    4.70
  -2  -3  -6   59.39    4.90
   2   3  -6   81.89   39.00
  -2  -3  -6   59.59    5.50
   2   3  -6   65.79    4.10
  -2  -3  -6   28.50   60.99
  -2   3   6   74.99    5.40
  -2   3   6   30.10   31.10
   2  -3   6   53.39   36.30
  -2  -3  -6   60.69    5.40
   2  -4  -6 1015.30  108.09
  -2   4  -6 1081.49  121.69
   2   4   6  970.70  125.59
  -2  -4   6 1179.18  131.39
  -2   4  -6 1068.89   93.69
   2   4   6 1085.69   44.40
   2  -4  -6 1111.89   84.89
   2   4   6 1048.30   44.50
  -2   4  -6 1067.79   44.80
  -2  -4   6 1079.89   45.00
   2   4   6 1043.00   86.09
   2  -4   6  838.62  150.18
   2  -4   6 1060.89   44.80
  -2   4   6 1013.70   43.70
  -2   4   6 1039.90   43.00
   2   4  -6  955.40  126.39
   2   4  -6 1116.99   96.89
  -2   4   6  934.81  118.09
   2   4  -6 1074.29   44.40
  -2  -4  -6 1063.99   43.70
  -2  -4  -6 1097.79  110.19
  -2  -4  -6 1149.08   85.69
   2  -4   6 1015.70   99.29
  -2   4   6  955.80   82.39
  -2   4   6 1033.70   44.10
   2  -5  -6  155.98    9.10
   2   5   6  154.48   70.29
   2  -5  -6  109.29   43.90
   2   5   6  141.29   45.70
   2   5   6  160.98   10.20
   2   5   6  158.48    8.90
  -2  -5   6  154.18   10.40
   2  -5  -6  107.79   79.29
  -2   5  -6  209.08   51.19
  -2   5  -6  218.58   98.89
  -2   5  -6  182.98   68.19
  -2   5  -6  159.28   56.09
   2   5   6  146.89    9.90
  -2   5  -6  145.69   10.00
   2   5  -6  160.28    9.90
  -2   5   6  128.59   78.69
   2   5  -6  151.28   65.49
  -2  -5  -6  152.58   44.70
  -2  -5  -6  187.28   85.99
   2  -5   6  146.79   10.40
  -2  -5  -6  157.98    9.20
  -2   5   6  141.99    9.50
   2   5  -6   38.70   78.59
  -2   5   6  123.59   43.30
  -2   5   6  145.89    9.20
   2   5  -6  165.58   48.40
  -2   5   6  149.19    8.60
  -2  -5  -6  163.28    9.80
   2   5  -6   39.20  115.49
  -2   6  -6 2099.39  199.98
  -2   6  -6 2024.30   82.79
  -2   6  -6 1914.41  140.49
  -2   6  -6 2023.70  215.28
   2  -6  -6 2006.80  136.89
   2   6   6 1970.80   82.29
   2   6   6 2031.40  191.78
   2  -6  -6 2066.59   81.09
   2   6   6 2050.19   80.79
   2   6   6 2048.79   82.09
  -2  -6   6 2017.20   82.89
   2   6   6 1966.50  138.69
   2   6   6 2048.40   82.69
  -2   6  -6 2084.39  152.18
   2  -6  -6 1669.03  164.58
   2   6  -6 2008.20  153.48
   2  -6   6 2035.10   82.59
  -2  -6  -6 2067.29  140.19
  -2  -6  -6 1996.20   81.19
  -2  -6  -6 1967.70  173.58
  -2   6   6 1531.65  158.08
  -2   6   6 2023.90   81.49
  -2   6   6 1949.90  133.49
  -2   6   6 2096.29   80.79
   2   6  -6 2046.00  195.38
   2   6  -6 1997.60   82.19
   2   6  -6 2032.00  199.98
   2   6  -6 1977.40  138.59
  -2  -6  -6 2015.30   81.89
   2  -7  -6   26.30   56.49
   2   7   6  111.09   93.99
  -2   7  -6  277.67   70.89
  -2   7  -6  139.69  147.59
   2   7   6  116.59    9.50
  -2   7  -6  117.29   10.00
   2  -7  -6    2.30   89.59
   2   7   6  104.09    9.80
   2  -7  -6  123.29    8.80
   2   7   6  166.78   63.79
   2   7   6  105.19    9.50
  -2   7  -6  -40.30   67.59
  -2   7  -6  258.27  129.39
   2   7  -6  180.88   77.79
  -2   7   6  134.49    8.80
  -2  -7  -6  170.38   64.29
   2   7  -6   54.79  139.59
  -2   7   6  239.98  118.19
   2   7  -6  307.87  130.89
   2   7  -6   69.29   63.39
   2   7  -6   96.29    9.10
  -2   7   6  137.19    9.30
  -2   7   6  129.09   10.40
  -2   7   6  181.98   65.89
  -2  -7  -6   77.49   88.59
  -2   8  -6 1987.00  211.48
   2   8   6 1960.30  239.38
   2   8   6 1734.63   72.79
  -2   8  -6 1933.81  161.38
   2  -8  -6 1716.63   70.99
   2  -8  -6 1931.51  155.88
   2   8   6 1735.43  153.68
   2   8   6 1714.53   70.69
  -2   8  -6 1968.00  275.07
  -2   8  -6 1681.93  172.88
  -2  -8   6 1714.63   72.59
   2  -8  -6 2175.98  247.08
  -2   8  -6 1696.73   72.99
   2  -8   6 1763.52   71.69
  -2   8   6 1692.73   71.49
   2   8  -6 1756.52   72.79
  -2   8   6 1682.53   70.59
  -2   8   6 1512.15   73.59
   2   8  -6 1733.43  176.68
  -2  -8  -6 1719.13   71.99
   2   8  -6 1686.63  227.48
   2   8  -6 1782.12  207.98
  -2  -8  -6 1707.73  154.28
   2   8  -6 1772.92  157.58
  -2   8   6 1625.54  150.58
  -2   8   6 1718.63  198.58
  -2  -8  -6 1759.92  238.48
   2   9   6   60.69    9.20
   2   9   6   63.49    8.70
   2  -9  -6   47.30  129.19
  -2  -9   6   54.69   10.90
   2   9   6   59.09    9.50
  -2   9  -6   56.49   12.30
   2  -9  -6 -112.79   87.49
  -2   9  -6 -184.28   89.19
  -2  -9   6   47.30   10.60
  -2   9  -6   52.19  195.88
   2   9   6   69.99    9.80
   2  -9   6   53.49   10.50
  -2   9   6   51.09    8.60
  -2   9   6   72.19   16.10
   2   9  -6   51.09    9.30
  -2  -9  -6   60.89   10.00
   2   9  -6  -77.99  108.79
  -2   9   6   59.29    8.30
   2   9  -6   18.50  218.78
  -2  -9  -6   58.09  184.68
   2  -9   6   61.59   15.20
  -2  10  -6  681.13   36.60
  -2  10  -6  839.92  217.98
   2  10   6  752.82   36.70
  -2  10  -6  686.23  145.89
   2 -10  -6  702.23   34.80
   2  10   6  770.02   37.30
   2  10  -6  257.27  318.17
  -2  10   6  776.62   35.70
  -2  10   6  764.42   38.00
   2  10  -6  683.23   36.00
   2 -10   6  776.22   36.20
   2  10  -6  740.63  170.38
  -3   0  -6  -27.90   47.40
  -3   0   6   -9.10   23.70
   3   0  -6   -0.50    1.30
   3   0   6    0.00    1.30
   3   0   6  -38.00   27.30
  -3   0  -6    1.60    1.70
  -3   0   6   78.19   52.79
  -3   0  -6   17.50   24.60
  -3   0   6   -0.50    1.40
   3   0  -6   39.00   26.40
  -3   0   6    1.40    1.00
   3   0  -6  -47.20   47.90
  -3   0  -6    0.70    1.40
   3   0   6   39.80   57.89
   3   0   6    0.90    1.50
   3   0  -6    1.40    1.10
   3   0   6    0.80    1.70
  -3   1  -6  276.37   11.90
   3  -1  -6  266.27   11.10
  -3   1  -6  263.87   12.70
   3   1   6  220.18   11.50
   3   1   6  219.28   12.10
  -3  -1   6  206.88   65.59
   3   1   6  201.48   59.29
   3   1   6  209.98   47.40
   3   1   6  219.88   12.10
  -3  -1   6  208.98   12.00
   3  -1  -6  274.37   44.40
  -3   1  -6  344.07   78.69
  -3   1  -6  295.67   47.20
   3  -1  -6  298.87   68.49
  -3  -1   6  186.98   41.00
   3  -1   6  271.77   12.30
  -3  -1  -6  226.38   11.60
  -3   1   6  251.27   10.80
   3  -1   6  250.87   53.89
  -3   1   6  268.67   43.30
  -3  -1  -6  195.48   59.89
  -3  -1  -6  230.18   12.30
  -3  -1  -6  232.58   41.20
   3   1  -6  225.08   42.00
   3   1  -6  233.18   11.80
  -3   1   6  197.38   55.39
   3   1  -6  244.58   66.79
   3  -1   6  301.37   80.99
   3   1  -6  229.38   10.60
  -3   1   6  254.37   12.30
   3  -1   6  273.27   12.70
   3   2   6  293.77   49.50
   3   2   6  259.67   66.19
   3  -2  -6  156.58   63.89
   3   2   6  309.37   13.40
  -3  -2   6  240.18   47.20
   3   2   6  287.07   14.10
  -3   2  -6  254.37   49.60
  -3   2  -6  238.88   72.69
  -3   2  -6  274.27   13.20
   3  -2  -6  270.67   12.70
  -3  -2   6  331.67   82.39
  -3  -2   6  285.77   14.10
  -3   2  -6  275.47   14.10
   3  -2  -6  291.07   48.10
   3   2   6  295.17   14.00
  -3  -2  -6  297.87   13.40
   3   2  -6  300.27   77.79
   3  -2   6  229.38   83.79
   3   2  -6  279.47   12.00
   3  -2   6  277.37   14.00
  -3   2   6  265.67   13.50
   3  -2   6  341.77   57.59
  -3   2   6  304.77   75.79
   3   2  -6  274.57   13.40
  -3  -2  -6  235.98   56.19
  -3  -2  -6  252.87   46.60
   3   2  -6  269.07   51.99
  -3   2   6  203.68   46.80
  -3  -2  -6  296.07   14.20
  -3   2   6  274.37   13.40
  -3   2   6  267.27   12.40
  -3  -2  -6  290.67   14.00
   3   3   6 1161.68   90.59
   3   3   6 1230.08  131.59
  -3   3  -6 1108.29   48.90
   3   3   6 1241.68   48.00
   3   3   6 1223.88   48.80
  -3  -3   6 1008.70  154.68
  -3   3  -6  983.70   89.69
  -3  -3   6 1260.17   49.30
  -3   3  -6  971.90  130.39
  -3  -3   6 1224.68  110.79
  -3   3  -6 1084.59   47.70
   3   3   6 1241.78   49.20
  -3   3   6 1113.49   48.30
  -3  -3  -6 1251.27   48.80
  -3   3   6 1107.59   48.00
  -3  -3  -6 1219.68   49.10
   3   3  -6 1216.88   48.50
   3  -3   6 1128.49  100.39
   3   3  -6 1255.47   95.19
   3   3  -6 1238.68   46.70
   3   3  -6 1109.79  151.18
  -3  -3  -6 1253.97  111.29
   3  -3   6 1114.59   48.70
  -3  -3  -6 1200.48   48.10
  -3   3   6 1111.99   47.20
   3  -3   6 1037.40  141.29
  -3  -3  -6 1253.67   87.69
   3   4   6   24.20    4.00
   3   4   6    8.30   32.60
  -3   4  -6   14.10    3.90
   3   4   6   20.90    3.90
  -3  -4   6   20.60    4.40
   3  -4  -6   60.89   56.69
   3  -4  -6  -16.80   33.50
  -3   4  -6   54.99   41.40
  -3   4  -6   18.50   59.19
   3   4   6   23.00    3.90
   3   4   6   -5.80   66.89
   3   4   6   24.30    3.50
   3   4  -6   27.70   39.30
  -3   4   6   23.10    3.50
   3   4  -6 -129.49   76.19
  -3  -4  -6   35.10   70.29
  -3   4   6   22.00    3.20
  -3  -4  -6   30.10   31.30
  -3  -4  -6   12.80    3.70
   3  -4   6  -68.89   64.09
  -3   4   6   43.20   47.70
  -3   4   6   22.30   32.10
   3   4  -6   16.10    3.50
   3  -4   6   13.00   44.50
  -3  -4  -6   14.80    3.20
  -3   5  -6 1057.69  105.19
   3   5   6 1315.27   52.29
  -3   5  -6 1171.48  163.48
  -3   5  -6 1149.98   51.99
   3   5   6 1280.27  149.09
   3   5   6 1288.57   52.39
   3   5   6 1269.77  100.59
   3  -5  -6 1487.75  158.48
  -3   5  -6 1238.48  154.58
   3  -5  -6 1694.83  252.67
  -3  -5   6 1296.77   52.59
   3   5   6 1330.07   50.89
   3   5   6 1328.57   51.89
  -3   5  -6 1117.09   97.99
  -3   5   6 1112.59   94.39
   3   5  -6 1187.38  112.59
  -3  -5  -6 1180.08   98.99
   3  -5   6 1222.08   51.99
   3   5  -6 1121.89  142.79
  -3   5   6 1209.48   50.79
  -3   5   6 1209.98   51.59
   3   5  -6 1163.38  149.59
  -3  -5  -6 1036.30  120.99
  -3   5   6 1217.28   50.29
  -3  -5  -6 1204.08   50.89
  -3  -5  -6 1230.88   51.59
  -3   5   6 1246.18  144.49
   3   5  -6 1231.08   51.49
   3   5  -6 1090.99   98.99
   3   6   6  153.68   10.60
  -3   6  -6  129.49   10.30
   3  -6  -6  122.99   10.50
   3  -6  -6  114.59   49.70
  -3   6  -6  107.69   86.19
  -3   6  -6  101.79   56.99
   3   6   6  157.28    9.40
   3   6   6   61.39   83.39
   3   6   6  162.68   10.70
   3  -6  -6  208.98   84.69
  -3  -6   6  156.08   11.20
   3   6   6   99.69   54.19
  -3   6  -6  115.69   57.09
   3   6   6  158.38   10.30
  -3   6  -6  154.38  118.79
  -3  -6  -6  133.19    9.30
  -3   6   6  147.29    9.10
   3   6  -6  169.58  107.19
  -3   6   6  146.49    9.40
   3  -6   6  147.09   10.60
  -3   6   6  200.58   54.29
  -3   6   6  250.97  108.19
  -3  -6  -6  170.38   52.39
   3   6  -6  104.89   63.49
  -3  -6  -6  186.78  101.09
   3   6  -6  240.28   59.19
   3   6  -6  150.78   10.10
   3   6  -6  169.58  128.09
  -3   7  -6  176.68  105.09
   3  -7  -6  265.77   67.49
  -3   7  -6  205.08   13.30
   3  -7  -6  203.68   11.60
   3   7   6  170.58   12.50
   3   7   6   59.99   60.79
   3  -7  -6  150.28  115.19
   3   7   6  182.48   13.00
  -3  -7   6  167.68   13.10
  -3   7  -6   91.59  143.19
   3   7   6  178.28   12.30
  -3   7  -6  226.48   70.79
   3   7   6   73.79  126.39
  -3   7  -6  222.48   77.19
  -3  -7  -6   83.39   58.59
  -3   7   6  295.37   71.29
  -3  -7  -6  -10.00  116.49
   3   7  -6  232.98   71.89
   3   7  -6  209.78   80.89
  -3   7   6  203.68   13.50
   3   7  -6   96.99  130.89
   3  -7   6  204.88   13.30
  -3   7   6  313.47  126.19
   3   7  -6  186.68   12.50
   3   7  -6  293.27  141.59
  -3   7   6  196.18   11.40
  -3   7   6  191.98   11.70
  -3   8  -6 -105.99   88.19
  -3   8  -6 -115.39  172.88
   3  -8  -6    5.50    3.90
  -3   8  -6   11.50  165.18
  -3  -8   6    1.90    4.60
  -3   8  -6  118.79   78.49
   3   8   6    5.70    4.30
   3   8   6    4.50    4.80
   3  -8  -6  -52.59  150.18
  -3  -8   6    3.90    4.50
   3   8   6   59.19   79.99
   3   8   6    5.70  111.79
   3  -8  -6  185.28   76.19
  -3   8  -6    4.90    4.10
   3   8   6    4.20    4.10
   3   8  -6   46.80   77.69
   3   8  -6    2.90    3.80
   3   8  -6    0.50  104.49
  -3   8   6    1.60    4.30
  -3  -8  -6    8.20    4.70
  -3   8   6    6.40    3.90
   3   8  -6  -51.39   87.99
   3  -8   6    6.70    4.50
   3   8  -6  120.19  195.08
  -3   8   6    4.20    3.60
  -3  -8  -6  -83.29  100.89
  -3  -8  -6   10.90   69.99
  -3   9  -6   97.69   98.99
   3  -9  -6  -25.30  191.98
   3   9   6  121.39   12.30
  -3   9  -6  227.88  153.98
   3   9   6  114.79   12.10
  -3   9  -6  148.29   13.00
   3  -9  -6  162.58   91.59
  -3  -9   6  114.79   13.70
   3  -9   6  143.19   13.50
   3   9  -6   51.99  118.59
  -3   9   6  137.59   13.40
  -3   9   6  186.98   92.69
   3   9  -6   38.30  183.48
  -3   9   6  139.29   11.30
  -3   9   6  137.49   14.90
  -3   9   6  153.28  142.79
   3   9  -6  132.19   11.90
   3  10   6  406.26   23.90
  -3  10  -6  392.36   23.90
   3 -10  -6  386.86   21.50
   3  10   6  383.56   23.40
   3 -10   6  380.16   24.40
   3  10  -6  397.06   23.10
  -3  10   6  380.26   24.10
  -3  10   6  344.67   25.20
   3 -10   6  372.06   22.50
   4   0   6 1139.49   45.60
   4   0  -6  846.82   85.49
  -4   0  -6 1128.09  104.39
  -4   0   6 1107.89   43.70
  -4   0   6 1101.49   45.60
   4   0  -6  957.40  119.09
   4   0   6 1129.39   45.70
  -4   0  -6 1151.58   45.30
   4   0   6 1137.09   45.30
  -4   0   6  983.20   81.29
  -4   0  -6 1174.58   46.20
   4   0  -6 1116.29   43.90
  -4   0  -6 1160.28   83.79
  -4   0   6 1022.10  112.79
   4   1   6  172.78    9.20
  -4  -1   6  173.88    9.50
  -4  -1   6  116.19   64.69
  -4   1  -6  178.08    9.20
   4   1   6  172.98    9.50
  -4   1  -6  188.08   10.00
  -4  -1   6  130.39   37.90
  -4   1  -6  215.68   67.89
   4  -1  -6  160.68   33.90
   4  -1  -6  157.18   55.89
   4   1   6  174.68    9.70
  -4   1  -6  139.39   37.30
  -4   1   6  174.08    9.40
  -4   1   6  173.68    8.00
  -4   1   6  214.68   60.99
   4   1  -6  172.48    8.70
   4   1  -6  174.28    7.70
   4  -1   6  178.08    9.60
   4   1  -6  186.38   37.70
   4  -1   6  176.18    9.30
   4   1  -6  201.68   61.59
  -4  -1  -6  175.18    9.90
  -4  -1  -6  121.29   41.40
  -4  -1  -6  171.88    9.10
  -4   1   6  259.97   46.10
  -4  -1  -6  179.08   75.49
   4  -2  -6 2633.64  166.08
  -4  -2   6 2575.04  145.89
   4   2   6 2500.15  100.39
  -4  -2   6 2443.86  179.48
  -4   2  -6 2538.35  101.09
  -4  -2   6 2548.34  100.79
  -4   2  -6 2522.15  100.09
   4  -2  -6 2685.73  135.69
   4   2   6 2579.04   99.99
   4   2   6 2520.25  100.99
   4  -2   6 2542.65  100.59
  -4   2   6 2511.65  100.29
  -4  -2  -6 2512.75  100.89
  -4  -2  -6 2613.04  138.49
  -4  -2  -6 2628.44  100.89
  -4  -2  -6 2491.35  100.09
   4   2  -6 2499.35  173.08
   4   2  -6 2489.85   99.79
  -4   2   6 2566.94  100.19
  -4   2   6 2498.75  136.39
  -4   2   6 2578.34  169.88
  -4  -2  -6 2500.45  172.28
  -4   2   6 2498.15   98.89
   4   2  -6 2447.06   98.29
   4  -2   6 2547.34  100.19
   4   2  -6 2442.96  138.49
   4   3   6  283.87   14.00
  -4   3  -6  260.77   84.69
  -4  -3   6  278.07   14.40
  -4   3  -6  279.37   13.50
  -4   3  -6  262.97   57.99
  -4   3  -6  291.47   14.50
   4  -3  -6  234.28   67.29
  -4  -3   6  284.17   63.49
   4   3   6  273.07   13.60
   4   3   6  274.57   14.40
  -4  -3   6  212.58   84.69
   4   3   6   96.09   67.69
   4   3   6  273.97   13.90
   4  -3  -6  306.67   51.59
   4  -3   6  280.57   14.10
   4   3  -6  289.77   62.99
  -4  -3  -6  385.86   82.29
  -4   3   6  287.27   13.50
   4  -3   6   83.09   87.59
  -4  -3  -6  271.97   14.20
   4   3  -6  225.68   89.59
  -4  -3  -6  271.97   13.60
  -4   3   6  251.87   50.69
  -4   3   6  288.87   12.80
  -4   3   6  286.37   13.90
  -4   3   6  275.77   72.49
  -4  -3  -6  243.08   48.80
   4   3  -6  276.77   13.40
   4   3  -6  274.87   11.80
   4   4   6 1054.09   43.20
   4   4   6  933.51   87.79
   4   4   6 1036.40   44.00
  -4   4  -6  923.31  138.99
  -4   4  -6 1056.19   44.50
  -4  -4   6  968.90   45.50
   4   4   6 1046.10   44.70
   4  -4  -6 1050.49   83.79
   4   4   6 1066.09   43.90
   4  -4  -6 1020.90  123.89
   4   4   6 1083.39  133.59
  -4   4  -6 1073.69   94.49
   4   4  -6 1010.70  140.59
   4   4  -6  995.30   97.29
  -4  -4  -6 1074.69   44.30
  -4   4   6 1005.80   88.39
  -4  -4  -6 1066.29  128.29
  -4   4   6 1069.19   42.70
  -4   4   6 1043.60   43.90
  -4   4   6 1058.59  126.49
   4   4  -6 1048.40   43.50
   4   4  -6 1064.89   41.60
  -4  -4  -6 1074.59   87.19
  -4  -4  -6 1036.10   43.50
  -4   4   6 1068.49   43.30
   4  -4   6  752.52  150.28
   4  -4   6 1064.79   44.10
   4  -5  -6  274.87   87.79
   4   5   6  259.67   12.90
  -4   5  -6  321.07   71.09
  -4   5  -6  218.18  109.59
   4   5   6  259.47   13.50
  -4  -5   6  257.47   14.40
  -4   5  -6  220.08   13.70
  -4   5  -6  179.88   57.79
   4  -5  -6  176.38   51.39
   4   5   6  229.08   78.19
   4   5   6  250.37   14.20
   4   5   6  253.27   13.70
  -4   5  -6  215.38  101.29
   4   5   6  251.27   58.39
  -4  -5  -6  475.95   91.69
   4  -5   6  237.08   13.60
  -4   5   6   48.20   91.49
  -4  -5  -6  247.98   12.90
  -4   5   6  224.98   12.40
   4   5  -6   73.99   89.99
  -4   5   6  405.76   70.59
   4   5  -6  285.97   89.79
   4   5  -6  364.06   80.89
  -4   5   6  230.58   12.20
   4   5  -6  237.98   13.00
  -4  -5  -6  298.17   65.39
  -4  -5  -6  246.18   13.80
   4   6   6  421.86   19.30
  -4   6  -6  423.06   97.79
   4   6   6  355.66   99.09
  -4   6  -6  415.86  125.19
   4   6   6  419.76   20.50
  -4   6  -6  401.26  127.79
   4   6   6  413.06   21.00
   4  -6  -6  358.96   78.99
  -4   6  -6  282.07   65.49
   4   6   6  385.06   70.29
   4  -6  -6  279.57  109.69
   4   6   6  430.06   20.30
  -4   6  -6  357.56   20.40
  -4  -6   6  419.16   21.30
  -4   6   6  435.36   19.40
  -4  -6  -6  556.64  108.09
  -4   6   6  460.35   83.09
   4   6  -6  410.66   96.09
   4   6  -6  358.56  115.69
   4   6  -6  202.68   64.69
  -4   6   6  438.36  121.29
   4  -6   6  399.26   20.60
  -4   6   6  423.56   19.10
   4   6  -6  370.56   19.50
   4   6  -6  555.34  134.99
  -4  -6  -6  314.77   64.39
  -4  -6  -6  363.96   19.30
   4   7   6  245.18   14.80
   4   7   6  237.48   14.90
   4   7   6  323.07   79.89
  -4   7  -6  273.87   80.39
  -4   7  -6  273.17   16.00
  -4  -7   6  235.08   15.80
   4  -7  -6  164.88   66.39
  -4   7  -6  225.88  136.89
   4   7   6  236.18   15.50
   4   7   6  318.17  139.09
  -4   7  -6  262.87  157.18
   4  -7  -6  621.94  133.79
  -4   7  -6  211.68   67.89
  -4   7   6  246.38   13.80
  -4  -7  -6  211.38   99.29
   4   7  -6  268.67   14.80
   4   7  -6  287.27   88.29
  -4   7   6  247.38   13.80
   4   7  -6  337.77  156.38
   4   7  -6   61.69  137.99
  -4   7   6  247.08   15.70
  -4  -7  -6  303.37   68.49
   4  -7   6  247.88   15.40
   4   7  -6  234.78   72.69
   4   8   6  802.72   37.30
  -4  -8   6  796.32   38.00
  -4   8  -6  618.54  177.58
   4  -8  -6  609.54  121.79
  -4   8  -6 1139.69  229.68
   4   8   6  810.02   37.90
  -4  -8   6  783.12   38.00
   4   8   6  801.12   35.60
   4  -8  -6  338.07  184.48
   4  -8  -6  809.02   35.00
  -4   8  -6  828.42   38.10
  -4   8   6  793.02   35.40
  -4   8   6  773.42   37.90
  -4   8   6  670.93  177.18
  -4   8   6  779.32   35.40
   4   8  -6  933.91  204.58
   4   8  -6  816.32   36.60
   4   8  -6 1005.60  152.38
   4  -8   6  801.02   35.70
  -4   8   6  847.12  127.99
  -4  -8  -6  799.82   37.10
   4   9   6   98.09   11.20
   4   9   6   89.49   10.80
   4   9   6   86.09   11.00
  -4   9  -6   57.19   10.00
   4  -9   6   64.89   11.70
  -4   9   6   75.29    9.00
   4   9  -6   70.69    9.60
  -4   9   6   77.69   11.20
   4  10   6  209.68   17.10
  -4  10  -6  232.28   17.90
   4  10   6  216.18   17.40
   4  10   6  202.48   17.40
   4 -10  -6  208.58   15.60
   4 -10   6  210.88   18.40
   4 -10   6  216.08   17.00
  -4  10   6  206.28   17.70
  -4  10   6  209.88   15.40
   4  10  -6  230.68   16.80
   5   0  -6  -17.60   25.00
  -5   0  -6   74.49   58.39
   5   0   6   22.90   30.80
  -5   0  -6  -17.50   29.80
  -5   0   6   95.99   59.89
   5   0   6 -115.59   58.09
  -5   0   6   12.40   28.70
   5   0  -6   33.80   51.69
   5   1   6   59.99   58.19
  -5   1  -6  104.09    6.40
  -5   1  -6  194.08   73.39
   5  -1  -6  101.79   35.80
  -5   1  -6   89.99   35.10
  -5  -1   6   63.49   32.60
   5   1   6   79.19    6.40
   5   1   6   91.69    6.20
   5  -1  -6  111.69   67.29
  -5  -1   6   63.69   59.19
  -5   1  -6  105.69    7.00
   5   1   6   89.49   34.00
  -5  -1   6   78.59    6.20
  -5  -1  -6  112.09   37.30
  -5   1   6  101.29    4.90
  -5   1   6   29.50   52.69
   5  -1   6  105.29    6.30
   5  -1   6  110.09    6.50
  -5  -1  -6  165.18   68.69
   5   1  -6   84.69   67.09
   5   1  -6   44.10   34.50
  -5   1   6   51.19   31.20
  -5  -1  -6   87.29    6.60
   5  -1   6  101.59   66.69
   5  -1   6  121.99   38.60
  -5   1   6  102.99    6.30
  -5  -1  -6   83.89    6.00
  -5   2  -6  390.76   18.70
   5   2   6  391.76   17.90
   5   2   6  395.96   17.80
  -5  -2   6  389.36   18.50
   5  -2  -6  467.15   54.79
   5   2   6  387.86   59.79
  -5  -2   6  387.16   64.89
   5  -2  -6  324.97   71.59
   5   2   6  358.26   83.29
  -5   2  -6  417.16   91.89
   5   2   6  395.36   18.70
  -5   2  -6  396.06   18.00
  -5  -2   6  502.75  108.79
   5   2   6  398.66   18.00
  -5   2  -6  458.35   67.89
   5   2  -6  348.17   85.29
   5   2  -6  374.66   16.70
  -5   2   6  386.86   18.00
  -5   2   6  401.66   17.90
  -5  -2  -6  377.66   17.80
   5  -2   6  402.96   17.90
   5  -2   6  389.46   17.80
  -5  -2  -6  388.06   18.60
  -5   2   6  417.96   56.99
  -5  -2  -6  468.15   90.89
   5   2  -6  384.86   58.49
   5  -2   6  394.46   92.79
  -5   2   6  399.56   16.70
  -5  -2  -6  400.86   18.60
   5  -2   6  460.15   66.19
  -5  -2  -6  410.76   55.09
  -5   2   6  323.97   80.89
   5   3   6  516.25   22.40
   5  -3  -6  460.85   60.49
   5   3   6  426.96   65.19
   5   3   6  506.35   23.50
   5   3   6  500.15   22.40
  -5  -3   6  501.35   23.20
   5   3   6  497.95   22.40
   5   3   6  475.75  100.99
   5  -3  -6  433.56   91.99
  -5   3  -6  699.43  124.99
  -5   3  -6  493.55   22.40
  -5   3  -6  486.35   23.10
  -5   3  -6  628.74   76.59
  -5  -3  -6  468.35   22.80
  -5   3   6  472.65   62.69
  -5   3   6  542.05   22.10
   5  -3   6  541.95   22.60
  -5  -3  -6  465.15   22.90
  -5   3   6  524.25   21.30
   5  -3   6  430.46  104.69
   5   3  -6  473.65   68.59
   5   3  -6  493.35  101.39
   5  -3   6  592.14   75.39
  -5  -3  -6  490.55   65.69
   5   3  -6  452.35   21.30
   5  -3   6  545.45   22.20
  -5   3   6  508.75  105.59
  -5  -3  -6  462.75   22.20
  -5   3   6  541.15   22.70
  -5  -3  -6  338.87   92.09
   5   4   6  318.47   15.70
   5   4   6  309.27   15.40
  -5   4  -6  411.36   80.89
  -5   4  -6  333.37   16.60
   5  -4  -6  290.37   61.49
   5  -4  -6  429.56   90.79
  -5  -4   6  269.47   17.20
  -5   4  -6  328.37  110.09
   5   4   6  303.67   16.60
   5   4   6  298.57   15.50
  -5   4  -6  320.57   15.40
  -5  -4  -6  291.37   68.99
   5   4  -6  363.86   88.09
  -5   4   6  221.38   87.29
   5   4  -6  181.48   87.09
  -5  -4  -6  335.27   16.50
   5   4  -6  320.17   14.90
  -5  -4  -6  318.67   15.60
  -5  -4  -6  286.87  101.49
  -5   4   6  318.57   14.60
   5   4  -6  328.37   13.20
   5   4  -6  324.37   62.09
  -5   4   6  321.17   15.00
   5  -4   6  317.17   15.70
  -5   4   6  302.77   62.49
   5   4  -6  370.76   63.89
  -5  -5   6  262.17   15.80
   5   5   6  253.97   15.80
  -5   5  -6  310.37  111.19
   5   5   6  276.97   14.60
   5   5   6  275.07   15.00
   5  -5  -6  282.37   66.59
  -5   5  -6  318.87   64.69
   5   5   6  269.87   15.00
   5  -5  -6  333.97   95.89
  -5   5  -6  338.87   16.70
  -5   5   6  361.96   70.79
   5   5  -6  273.67   59.19
  -5   5   6  322.27   14.50
  -5  -5  -6  279.07   15.70
  -5   5   6  319.37   14.40
  -5   5   6  229.88   85.49
  -5  -5  -6  283.67   14.90
   5  -5   6  332.17   15.70
   5   5  -6  330.47  127.39
   5   5  -6   59.39   95.89
   5   5  -6  278.37   14.40
  -5  -5  -6  170.98   78.09
  -5  -5  -6  292.17   61.39
   5   5  -6  350.06   71.59
   5   6   6  360.96  129.69
  -5   6  -6  238.48  136.29
  -5  -6   6  387.06   21.20
  -5   6  -6  416.36   85.29
   5   6   6  398.06   21.30
   5   6   6  394.06   91.59
   5  -6  -6  430.16   81.39
  -5   6  -6   16.40  117.99
  -5   6  -6  425.76   21.30
   5   6   6  391.26   20.00
   5  -6  -6  354.86  112.89
  -5  -6   6  390.76   21.20
  -5   6   6  397.66   19.00
   5   6  -6  411.96   19.40
   5  -6   6  406.56   20.10
   5   6  -6  383.96  158.48
  -5  -6  -6  407.46   19.70
  -5   6   6  399.96   18.80
  -5  -6  -6  321.47   69.19
  -5  -6  -6  522.35  113.89
  -5  -6  -6  408.06   20.80
   5   6  -6  343.57   87.09
   5   6  -6  366.76  146.39
   5   7   6  145.49   10.30
   5   7   6  154.18   11.10
   5   7   6  153.68   12.10
   5  -7  -6  -40.90  137.99
  -5   7  -6  133.09   76.09
   5   7   6  157.68   11.10
  -5   7  -6  257.37  186.18
   5  -7  -6  104.29   66.99
  -5   7  -6  304.97  152.58
  -5   7  -6  118.19   11.30
  -5  -7   6  162.38   12.60
  -5   7  -6  -66.99   93.79
  -5   7   6  393.56  141.29
   5  -7   6  134.39   10.90
  -5   7   6  130.39   72.09
  -5  -7  -6   44.40  131.79
   5   7  -6  114.69   86.49
  -5   7   6  129.49   11.60
   5   7  -6   56.19  152.88
  -5   7   6  136.19    9.40
  -5  -7  -6  147.69   11.90
  -5   7   6  130.19    9.90
  -5  -7  -6   87.59   68.19
   5   7  -6  145.99   10.20
  -5  -8   6   23.20    7.20
   5   8   6   27.50    7.80
  -5   8  -6   21.20    7.70
   5   8   6   18.90    7.40
   5   8   6   24.00    6.90
   5   8  -6   21.40    4.90
   5  -8   6   22.30    6.20
   5   8  -6   21.90    6.90
  -5   8   6   40.70    7.90
  -5   8   6   39.90    8.80
   5  -8   6   28.20    7.40
  -5   9  -6   91.79   12.10
   5   9   6  129.39   13.10
   5   9   6  122.79   12.10
   5   9   6  122.89   12.50
  -5   9   6  101.39   12.80
   5   9  -6  131.79   10.80
  -5   9   6  100.39   10.00
   5  -9   6   89.19   11.40
   5   9  -6   99.99   14.30
  -6   0   6  628.94  101.09
   6   0   6  611.54   26.80
  -6   0  -6  637.54   27.30
   6   0   6  610.34   25.40
  -6   0  -6  642.34   26.70
  -6   0   6  530.75   63.29
   6   0  -6  661.23   89.89
  -6   0  -6  612.54   64.69
   6   0  -6  633.44   59.79
   6   0   6  510.95   69.69
  -6   0  -6  548.95   96.39
  -6   0   6  598.74   26.40
   6   0   6  673.13  103.89
  -6   1  -6  249.08   50.79
   6   1   6  286.57   13.70
  -6  -1   6  236.58   53.39
   6   1   6  318.77   57.39
   6   1   6  283.27   14.10
   6  -1  -6  283.27   63.89
  -6  -1   6  261.27   71.79
  -6   1  -6  216.38   81.49
   6   1   6  284.67   12.50
  -6   1  -6  258.27   13.50
   6   1   6  495.25  102.29
  -6  -1   6  276.37   13.60
   6  -1  -6  347.37   47.80
   6   1   6  281.17   12.70
  -6   1  -6  267.27   14.00
   6  -1   6  275.47   12.50
  -6  -1  -6  323.47   77.29
   6  -1   6  256.67   89.29
   6   1  -6  349.57   53.39
  -6  -1  -6  268.77   14.00
  -6   1   6  307.47   52.09
   6  -1   6  322.17   61.69
  -6   1   6  266.37   11.50
  -6   1   6  320.87   75.09
  -6   1   6  268.47   13.30
  -6  -1  -6  269.77   13.50
   6   1  -6  393.16   88.59
   6  -1   6  281.37   13.60
  -6  -1  -6  357.06   57.39
   6   2   6  167.38    8.80
  -6   2  -6  184.78    9.90
   6   2   6  167.28    9.80
   6   2   6  182.68   75.59
  -6  -2   6  148.19   46.90
  -6  -2   6   84.69   77.99
   6  -2  -6  172.58   39.00
  -6   2  -6  183.48   10.50
  -6   2  -6  161.08   46.50
   6   2   6  164.68   41.50
  -6  -2   6  160.38    9.90
   6   2   6  171.08   10.50
   6   2   6  181.08    9.10
   6  -2  -6  185.68   68.39
  -6   2  -6  322.97   92.19
  -6  -2  -6  184.58   10.60
  -6  -2  -6  176.78    9.60
  -6   2   6  173.78    9.70
   6   2  -6  153.68   79.49
  -6   2   6  172.48    9.30
   6  -2   6  328.97   62.39
  -6  -2  -6  372.16   84.49
  -6  -2  -6  184.48   10.30
  -6   2   6  171.38    8.20
  -6  -2  -6  194.28   43.40
   6  -2   6  212.98   83.09
   6   2  -6  194.48   44.80
  -6   2   6  138.69   36.90
   6  -2   6  163.08    9.30
  -6   2   6  218.48   73.89
   6  -2   6  168.88    8.80
   6   3   6  303.17   62.09
  -6   3  -6  364.56   99.39
  -6  -3   6  330.47   17.00
   6  -3  -6  434.76   96.99
  -6   3  -6  374.76   16.90
   6   3   6  319.17   95.89
   6   3   6  327.57   15.70
  -6   3  -6  310.97   70.49
  -6   3  -6  369.46   17.60
   6   3   6  319.57   15.80
   6   3   6  325.87   17.40
   6   3   6  338.47   16.50
   6  -3  -6  343.17   58.69
  -6  -3  -6  340.97   17.20
  -6  -3  -6  338.97   17.10
   6   3  -6  281.97   64.29
  -6  -3  -6  343.07   61.79
  -6  -3  -6  340.97   16.50
  -6   3   6  347.47   15.20
   6   3  -6  573.24  101.19
  -6  -3  -6  242.78   88.29
   6  -3   6  339.17   77.49
   6  -3   6  299.57   97.69
   6   3  -6  433.76   99.39
   6  -3   6  368.96   16.10
  -6   3   6  344.07   16.50
   6   3  -6  332.17   57.19
   6  -3   6  349.57   15.70
  -6   3   6  356.36   15.90
   6   4   6 1014.80  151.58
  -6   4  -6 1262.77  116.79
  -6   4  -6 1228.58  142.79
   6   4   6 1219.38   50.59
  -6  -4   6 1254.07   52.09
   6   4   6 1143.29  106.39
   6   4   6 1294.37   51.09
  -6   4  -6 1255.67   52.29
   6   4   6 1242.68   50.59
   6  -4  -6 1037.60   91.29
  -6   4  -6 1322.87  101.99
  -6   4  -6 1233.48   51.19
   6   4   6 1262.87   52.59
  -6   4  -6 1123.79  162.38
   6  -4  -6 1155.78  140.29
   6  -4   6 1172.58   50.09
   6   4  -6 1272.97  139.89
   6  -4   6 1197.68   50.29
  -6  -4  -6 1290.17   51.29
  -6   4   6 1194.58   49.80
  -6  -4  -6 1084.69  145.29
   6   4  -6 1155.68  106.49
  -6  -4  -6 1328.97  108.09
  -6  -4  -6 1352.56   52.39
   6   4  -6 1286.67  169.68
  -6   4   6 1184.98   51.29
  -6   4   6 1184.58   49.99
   6   4  -6 1267.67   49.30
   6   4  -6 1343.37  100.39
   6   5   6  550.64  113.89
   6   5   6  425.96   19.70
  -6   5  -6  407.66   20.90
  -6   5  -6  401.16  133.29
   6  -5  -6  282.57  101.39
  -6  -5   6  423.96   21.10
  -6  -5   6  406.96   21.30
  -6   5  -6  466.15   97.99
   6   5   6  404.16   19.30
   6   5   6  411.76   21.40
   6  -5  -6  445.96   78.99
   6   5   6  399.36   19.40
   6   5   6  304.57   69.69
   6   5  -6  484.35  126.39
   6   5  -6  436.56   16.80
  -6   5   6  392.86   18.70
  -6  -5  -6  335.27   68.99
   6   5  -6  404.66   75.59
  -6   5   6  388.66   18.50
   6  -5   6  378.26   19.00
   6   5  -6  352.76   75.19
   6   5  -6  282.57  104.29
  -6  -5  -6  430.66   21.00
  -6  -5  -6  420.36   19.80
  -6  -5  -6  351.76  119.49
   6   5  -6  410.96   16.90
   6   5  -6  421.26   18.50
   6   6   6  999.60   41.50
   6   6   6  954.50   43.30
  -6   6  -6 1046.40  117.19
   6   6   6  978.80   41.30
  -6  -6   6  983.40   43.20
  -6   6  -6  877.71  174.58
  -6   6  -6  887.41  127.09
  -6   6  -6  800.92  166.18
  -6   6  -6  954.10   43.00
   6  -6  -6 1042.90  107.09
  -6  -6   6  974.10   43.50
   6  -6  -6  785.92  178.58
   6   6   6  688.93  124.99
   6   6  -6 1016.70  129.79
  -6   6   6  968.00   40.10
  -6   6   6  935.31  170.78
   6   6  -6  942.61   38.80
  -6   6   6  980.10   40.70
  -6  -6  -6  981.70   42.90
   6   6  -6 1119.19  104.09
   6   6  -6  745.43  159.18
  -6  -6  -6  948.61   41.50
  -6  -6  -6  941.41  109.29
   6   6  -6  977.90   40.40
  -6  -6  -6 1095.09  186.58
   6  -6   6  938.51   40.90
  -6   6   6  778.72  105.49
   6   6  -6  797.82  181.18
   6   7   6  288.07   18.40
   6   7   6  289.37   16.50
   6   7   6  292.87   16.60
  -6  -7   6  293.47   18.60
  -6  -7   6  300.47   19.40
   6   7   6  300.87   16.50
  -6   7   6  318.67   16.40
   6   7  -6  278.27   15.50
   6   7  -6  270.07   14.10
   6  -7   6  337.27   16.00
   6  -7   6  325.97   17.10
  -6   7   6  329.57   18.70
  -6   7   6  319.17   15.40
  -6  -7  -6  268.87   17.90
   6   8   6  564.14   27.30
  -6  -8   6  547.55   30.00
   6   8   6  583.84   28.00
   6   8   6  585.84   28.00
   6   8   6  570.64   29.90
  -6   8  -6  611.54   32.40
  -6   8   6  551.24   27.10
  -6   8   6  552.64   29.40
   6  -8   6  572.74   26.50
  -6   8   6  551.34   25.80
   6   8  -6  620.04   27.10
   6  -8   6  557.94   27.60
   6   8  -6  522.55   27.00
   6   9   6  124.59   14.10
  -6   9  -6  133.59   14.20
   6   9   6  120.59   12.60
   6   9  -6  130.39   10.90
  -6   9   6  114.69   13.80
   6  -9   6  127.89   12.20
  -6   9   6  125.49   10.20
   6   9  -6  133.49   11.80
  -7   0   6    3.00    2.10
   7   0   6    2.30    2.20
  -7   0   6  -10.20   32.50
  -7   0  -6    2.10    2.10
   7   0   6  -52.89   75.89
  -7   0  -6  -12.70   34.20
   7   0   6  -24.00   37.70
   7   0  -6    6.00   53.39
   7   0  -6  -24.20   26.70
  -7   0  -6    2.00    2.00
  -7   0   6   -0.30   63.59
  -7   0  -6  -31.10   67.39
  -7  -1   6  177.18    9.50
   7   1   6  121.69   47.40
   7   1   6  184.58   10.10
   7  -1  -6  136.59   57.59
  -7   1  -6  174.38   78.79
  -7  -1   6  146.49   77.89
  -7   1  -6  134.29    9.00
  -7   1  -6  143.59    9.40
  -7  -1   6  166.28   43.10
  -7   1  -6  182.68   46.50
   7  -1  -6  121.39   33.70
   7   1   6   99.99   81.99
  -7  -1  -6  197.88   72.39
   7  -1   6  135.49   45.20
  -7   1   6  245.48   77.19
  -7  -1  -6  170.38    9.40
  -7   1   6  107.29   39.00
   7   1  -6  100.69   64.39
  -7  -1  -6  123.49   37.40
   7  -1   6   62.39   90.59
  -7  -1  -6  171.28    9.90
   7  -1   6  144.59    8.90
  -7   1   6  144.59    8.90
   7   2   6  446.36   20.30
   7  -2  -6  381.76   56.39
  -7   2  -6  538.65  112.59
  -7  -2   6  419.06   20.20
  -7   2  -6  453.15   20.90
   7   2   6  530.75  119.69
   7   2   6  478.45   72.19
  -7   2  -6  379.96   70.29
  -7   2  -6  442.46   20.30
   7   2   6  427.86   20.80
   7  -2  -6  638.24   95.49
  -7   2   6  409.16   19.20
  -7   2   6  402.36   18.00
  -7  -2  -6  316.07   92.19
  -7   2   6  491.95   64.49
  -7  -2  -6  450.55   20.70
  -7  -2  -6  386.46   63.99
   7   2  -6  520.95   65.79
   7  -2   6  415.56   19.40
   7   2  -6  581.84  112.69
  -7   2   6  407.06   85.89
  -7  -2  -6  469.85   20.90
   7  -2   6  665.93  133.09
  -7  -2  -6  449.56   20.10
   7  -2   6  488.05   78.89
  -7   2   6  411.86   19.70
   7   2  -6  517.95   59.09
   7  -3  -6  393.96   64.39
   7   3   6  604.04   81.09
   7  -3  -6  363.16   82.59
  -7  -3   6  463.65   20.90
  -7   3  -6  346.37   80.89
   7   3   6  397.36  108.19
   7   3   6  482.05   20.40
  -7   3  -6  397.16   20.60
  -7   3  -6  397.66   20.00
   7   3   6  462.65   21.40
  -7   3  -6  472.85  112.39
   7   3  -6  483.75   73.39
   7   3  -6  665.33  131.59
  -7   3   6  386.46   18.30
   7  -3   6  389.76   18.90
  -7   3   6  406.26   19.80
  -7  -3  -6  464.05   21.10
  -7  -3  -6  475.25   73.29
  -7  -3  -6  450.25   20.80
   7   3  -6  389.76   64.09
  -7   3   6  396.56   18.80
   7   3  -6  431.66   90.89
  -7  -3  -6  379.36   96.19
  -7  -3  -6  455.65   20.30
   7  -4  -6  550.44   75.19
  -7  -4   6  593.04   26.40
   7   4   6  527.25   84.09
   7   4   6  570.64   23.60
   7  -4  -6  397.16  103.09
   7   4   6  578.94   25.30
  -7   4  -6  429.06   93.69
  -7   4  -6  493.25   25.00
  -7   4  -6  502.15   25.70
  -7  -4   6  601.74   27.00
   7   4   6  643.14  128.29
   7   4   6  558.34   23.70
  -7   4  -6  378.36  122.89
   7   4   6  587.24   27.00
  -7   4   6  571.44   23.80
  -7  -4  -6  520.95  117.39
   7   4  -6  436.46   84.69
  -7  -4  -6  493.75   83.79
  -7  -4  -6  499.85   24.90
  -7   4   6  573.54   25.40
  -7  -4  -6  514.15   26.00
  -7   4   6  587.74   24.00
   7   4  -6  838.12  137.29
   7  -4   6  558.74   23.80
   7   5   6   18.90    4.70
  -7  -5   6   28.70    6.50
  -7   5  -6   13.80   53.59
   7   5   6   26.10    6.60
   7   5   6   80.39   59.29
  -7   5  -6   22.80  111.69
   7   5   6   22.60    4.20
   7  -5  -6  -67.09  137.79
  -7   5  -6  -61.19   63.99
   7   5   6  -30.80  112.29
  -7  -5   6   17.80    5.40
  -7   5  -6   32.90  134.79
   7  -5  -6  -38.60   54.49
  -7   5   6   15.80    4.70
   7   5  -6    7.80  148.99
   7  -5   6   19.50    3.80
   7  -5   6   15.60    3.80
  -7  -5  -6   95.09   61.19
  -7  -5  -6  -12.70  100.79
   7   5  -6   26.60   69.49
   7   5  -6  171.68   97.99
  -7  -5  -6   17.30    5.20
  -7   5   6   23.70    3.90
  -7  -5  -6   27.70    6.80
   7   5  -6  -10.70   48.00
   7   6   6  177.88   11.10
   7   6   6  185.78   12.20
  -7  -6   6  193.48   14.80
  -7   6  -6  202.98   13.60
   7   6   6  177.68   13.50
   7   6   6  182.98   10.90
  -7  -6   6  180.08   13.70
  -7   6   6  191.08   10.20
   7  -6   6  187.28   10.20
  -7   6   6  196.58   11.50
  -7  -6  -6  178.78   11.90
  -7  -6  -6  184.98   13.70
  -7   7  -6   47.50    9.00
  -7  -7   6   59.69   10.60
   7   7   6   52.79    7.90
   7   7   6   52.09    8.60
   7   7   6   56.19    7.30
  -7   7   6   45.00    9.20
  -7   7   6   44.70    8.00
   7   7  -6   59.49    5.20
  -7   7   6   43.80    5.60
   7   7  -6   52.29    5.80
   7  -7   6   50.49    6.80
   7   8   6   55.49   10.80
   7   8   6   58.89    8.90
  -7   8  -6   44.10   10.10
   7   8   6   52.49    9.40
   7  -8   6   59.59    8.00
  -7   8   6   46.10    6.30
   7   8  -6   59.59    6.90
  -7   8   6   48.90   10.00
  -7   8   6   36.20    9.80
   7   8  -6   56.19    7.40
  -8   0  -6  755.42   32.20
   8   0   6  740.63   31.70
  -8   0   6  546.55  107.79
   8   0   6  555.64  121.49
   8   0  -6  731.43   61.89
  -8   0  -6  742.53   31.70
  -8   0  -6  810.62   78.19
  -8   0  -6  562.84  118.59
   8   0   6  701.83   88.99
  -8   0   6  693.83   71.59
  -8   0   6  715.43   31.10
   8   0  -6  873.41   93.89
  -8   1  -6  750.22   31.60
   8   1   6  923.81  141.59
  -8   1  -6  734.03   31.20
  -8  -1   6  707.43   30.70
  -8   1  -6  653.03  125.89
   8   1   6  694.33   89.19
  -8   1  -6  767.02   81.19
   8  -1  -6  760.42   92.89
   8  -1  -6  711.73   60.69
   8   1   6  691.43   31.20
   8  -1   6  709.43   90.79
  -8  -1  -6  716.73   31.30
  -8  -1  -6  721.93   78.19
  -8   1   6  674.93  108.79
  -8  -1  -6  720.63   31.00
  -8  -1  -6  585.74  118.79
   8  -1   6  859.21  146.99
  -8   1   6  680.13   70.29
   8   1  -6  645.44   63.89
   8   1  -6  565.14   96.79
  -8   1   6  708.53   30.40
   8  -1   6  696.23   30.50
  -8   2  -6  926.51  121.69
   8   2   6 1148.49   48.40
   8   2   6 1166.48   47.60
  -8   2  -6 1172.88   47.80
  -8   2  -6  754.62  175.48
  -8  -2   6 1165.78   47.70
   8   2   6 1114.49  214.28
   8  -2  -6 1112.09  114.09
  -8   2  -6 1209.28   48.40
   8  -2  -6 1043.70   78.79
  -8  -2  -6 1123.19   47.50
  -8   2   6 1156.68   47.10
  -8   2   6 1083.79  126.49
   8  -2   6 1055.19  167.88
  -8   2   6 1208.78   89.19
  -8   2   6 1157.68   45.00
   8  -2   6 1075.39  110.69
   8   2  -6 1119.19   90.19
   8   2  -6  886.91  129.59
   8   2  -6 1131.09   83.09
  -8  -2  -6 1159.48   48.10
   8  -2   6 1149.29   46.60
  -8   2   6 1163.68   46.40
   8   2  -6  827.32  127.29
  -8  -2  -6 1153.58   48.00
   8   3   6  -49.70   97.89
  -8  -3   6   57.09    7.60
  -8   3  -6   19.20  100.59
   8   3   6   62.99    7.40
   8   3   6  -18.30   49.10
  -8   3  -6   70.69    6.90
   8  -3  -6  123.79   77.59
  -8   3  -6   98.09   56.49
   8   3   6   62.49    6.70
  -8  -3   6   55.39    8.20
  -8   3  -6   69.69    7.00
   8  -3  -6   52.79   39.00
  -8  -3  -6  109.59   97.49
  -8  -3  -6   58.29    7.10
  -8   3   6   34.50   83.79
   8   3  -6   47.70   47.20
  -8  -3  -6   64.49   49.80
  -8   3   6   41.00   42.90
  -8   3   6   63.69    7.00
  -8   3   6   65.09    4.80
  -8  -3  -6   59.19    6.70
   8   3  -6   49.40   42.80
  -8   3   6   67.19    5.00
   8   3  -6  -76.79   91.29
  -8  -3  -6   58.39    6.30
   8  -3   6   67.39    5.20
   8   3  -6   63.59   82.39
  -8   4  -6  617.54  100.29
   8   4   6  250.27  119.69
   8   4   6  423.66   98.89
  -8   4  -6  337.17  133.69
  -8   4  -6  401.26   20.20
  -8  -4   6  381.06   19.90
   8   4   6  372.06   20.30
  -8  -4   6  384.46   20.90
  -8   4  -6  381.76   19.30
  -8  -4  -6  394.76   19.10
  -8   4   6  381.66   19.00
   8   4  -6  333.87   76.99
   8  -4   6  377.06   17.10
  -8  -4  -6  431.66  111.19
  -8   4   6  378.66   17.50
  -8   4   6  384.06   16.90
  -8  -4  -6  415.86   20.50
   8   4  -6  601.74  131.99
  -8  -4  -6  331.67   65.49
  -8  -5   6   52.19    9.70
  -8   5  -6   42.80    6.60
  -8   5  -6   42.10    7.50
  -8  -5   6   48.40    8.20
   8   5   6   58.79   12.30
  -8   5   6   39.20    4.20
  -8   5   6   35.70    5.80
  -8  -5  -6   56.79    8.70
   8  -5   6   39.80    4.50
  -8  -5  -6   46.00    6.70
  -8  -6   6  493.65   26.90
   8   6   6  485.15   24.00
  -8   6  -6  483.45   25.50
  -8  -6   6  496.85   26.00
   8   6   6  507.55   26.30
  -8   6  -6  541.15   26.70
  -8   6   6  513.15   23.20
   8  -6   6  507.25   21.60
  -8   6   6  492.85   25.30
  -8  -6  -6  472.15   25.70
   8  -6   6  478.45   21.20
  -8  -6  -6  455.65   29.70
   8   7   6  372.06   19.70
  -8   7  -6  332.87   20.80
   8   7   6  374.76   22.00
  -8  -7   6  358.46   22.20
  -8   7   6  335.97   21.10
  -8   7   6  344.67   19.00
   9   0  -6   -1.90   24.70
   9   0  -6   20.60   45.00
   9   0  -6   10.60   21.50
  -9   0  -6    2.90    2.80
  -9   0  -6    3.00    2.80
  -9   0   6    4.50    3.30
   9   0   6    4.10    2.80
   9   0  -6   16.00   39.80
  -9   0   6    1.50    2.50
  -9  -1   6  173.58   10.70
  -9  -1   6  163.88   11.40
   9   1   6  178.08   11.40
   9   1   6   -0.80  125.69
   9  -1  -6  385.16   65.29
   9   1   6  226.08   96.69
  -9   1  -6  198.78   11.40
  -9   1  -6  210.78   11.70
   9  -1  -6  156.18   28.90
   9   1  -6  168.28   56.69
  -9  -1  -6  190.28   11.40
   9   1  -6  213.58   38.80
   9   1  -6  148.59   31.40
  -9  -1  -6  191.38   11.30
   9   1  -6  194.68   52.49
  -9   1   6  186.38   10.50
   9  -1   6  180.38   10.30
   9  -2  -6  472.45   50.69
   9   2   6  180.88  122.49
   9   2   6  432.06   21.40
   9   2   6  594.64   95.09
   9  -2  -6  261.37   68.29
  -9  -2   6  456.75   21.80
  -9   2  -6  436.56   20.90
  -9  -2   6  437.06   20.70
  -9   2  -6  429.26   21.00
  -9   2   6  287.47   61.29
  -9  -2  -6  419.16  116.49
  -9  -2  -6  441.46   21.00
  -9   2   6  305.67   83.39
  -9  -2  -6  443.76   20.70
   9   2  -6  525.25   92.69
  -9  -2  -6  330.07   78.69
   9   2  -6  377.76   56.29
  -9  -2  -6  444.36   21.20
  -9   2   6  425.46   18.90
  -9   2   6  435.26   20.10
   9  -2   6  412.16   19.20
  -9   3  -6   12.60  120.09
  -9   3  -6   -9.90   63.39
  -9   3  -6  117.29    9.40
  -9   3  -6  116.59    9.60
  -9  -3   6  125.39   10.80
  -9  -3   6  133.69   10.00
   9   3   6  132.09   10.40
  -9  -3  -6  113.69   10.00
   9  -3   6  128.39    7.50
  -9   3   6  133.09    7.00
  -9  -3  -6  108.19    8.90
  -9   3   6  134.19    7.00
  -9  -3  -6  107.09    9.40
  -9  -3  -6  203.28  108.99
   9   3  -6  220.98   76.79
   9   3  -6  139.09   41.70
  -9  -3  -6   17.30   54.49
  -9   3   6  138.39    9.20
  -9   4  -6  699.03   30.80
  -9  -4   6  657.33   31.00
   9   4   6  636.14   31.60
  -9  -4   6  642.34   32.00
  -9   4  -6  704.83   31.50
  -9   4   6  664.13   30.20
  -9   4   6  655.73   28.30
  -9  -4  -6  680.13   31.60
  -9  -4  -6  699.83   30.50
   9   5   6  136.89   12.40
  -9   5  -6  148.29   11.50
  -9  -5   6  145.49   12.50
  -9   5  -6  149.19   12.00
   9   5   6  133.99   11.50
  -9  -5   6  136.19   13.80
  -9  -5  -6  127.19   10.70
  -9   5   6  174.28    9.90
  -9  -5  -6  123.59   12.80
  -9  -6   6  259.67   18.00
   9   6   6  254.17   16.40
  -9   6  -6  247.98   17.40
  -9   6  -6  273.87   16.30
   9   6   6  247.08   18.00
  -9   6   6  272.47   15.10
  -9   6   6  292.17   17.50
  -9  -6  -6  255.97   15.70
 -10   0  -6  963.40   39.20
 -10   0  -6  949.90  137.49
 -10   0   6  861.21   37.80
  10   0   6  858.41   38.10
  10   0   6 1019.70  161.18
  10   0   6  925.51  102.49
 -10   0  -6  891.21   86.39
 -10   0  -6  954.20   39.00
 -10   0   6  830.32   37.90
  10   1   6  704.13  159.78
 -10  -1   6  515.75   24.40
 -10   1  -6  524.95   24.40
  10   1   6  529.95   24.30
 -10   1  -6  477.85   77.39
 -10   1  -6  528.05   24.60
 -10   1  -6  450.15  100.59
 -10  -1   6  526.45   23.70
 -10  -1  -6  530.25   24.40
 -10  -1  -6  432.16   80.59
 -10   1   6  485.45   22.80
 -10   1   6  515.45   23.40
 -10  -1  -6  290.07  101.79
  10  -1   6  523.65   23.10
 -10  -1  -6  521.05   24.20
 -10   2  -6  157.38   10.90
 -10   2  -6  121.09   12.00
 -10  -2   6  155.68   12.50
 -10   2  -6  118.79  102.19
  10   2   6  162.48   11.50
 -10  -2   6  150.28   11.80
 -10   2  -6  146.99   54.29
 -10  -2  -6  148.29   10.60
 -10   2   6  146.59    8.70
 -10   2   6  154.58   11.10
 -10  -2  -6  148.49   10.80
 -10   2   6  158.18    8.30
  10  -2   6  162.78    8.90
 -10  -3   6   33.00    7.70
 -10  -3   6   28.00    7.00
  10   3   6   28.80    8.00
 -10   3  -6   36.00    7.80
 -10   3  -6   36.20    7.00
 -10   3   6   32.60    3.80
  10   3  -6   35.80   34.10
 -10  -3  -6   24.20    8.50
 -10  -3  -6   24.00    6.70
  10   3  -6   52.49   65.89
 -10   3   6   36.50    6.80
 -10   4  -6  241.48   15.10
 -10   4  -6  245.08   16.40
  10   4   6  213.28   15.30
  10   4   6  208.18   14.20
 -10  -4   6  201.98   16.00
 -10  -4   6  202.08   14.80
 -10   4   6  213.88   11.40
 -10   4   6  222.48   13.80
 -10  -4  -6  244.68   15.70
 -10  -5   6  111.89   12.80
 -10   5  -6  119.09   11.00
  10   5   6  135.99   18.60
 -10   5  -6  114.49   11.80
  10   5   6  107.99   11.70
 -10   5   6  112.39    9.20
 -10  -5  -6  118.29   10.50
 -11   0  -6   -5.80   44.30
 -11   0  -6  235.48   94.29
 -11   1  -6   50.79    7.80
  11   1   6   42.00    7.70
 -11  -1   6   23.60    8.20
 -11   1  -6   96.89   65.59
 -11   1  -6   32.50    7.60
 -11   1   6   47.90    5.20
 -11   1   6   40.80    6.10
 -11  -1  -6   31.00    7.40
 -11   1   6   42.60    7.20
 -11  -2   6  213.28   14.70
 -11   2  -6  210.78   13.70
 -11   2  -6  208.58   14.00
 -11  -2   6  224.78   14.00
  11   2   6  221.28   14.40
 -11  -2  -6  207.68   13.70
 -11   2   6  216.28   12.90
 -11  -2  -6  171.08   14.90
 -11   3  -6   33.00    8.50
 -11   3  -6   34.30    8.70
  11   3   6   47.30   10.00
 -11  -3   6   49.70   11.20
 -11  -3   6   55.99    9.80
 -11  -3  -6   37.30    9.70
 -11  -3  -6   46.20    8.30
 -11   3   6   26.80    8.20
   0   0   7   -0.90    1.80
   0   0   7  -15.10   28.10
   0   0   7   -1.20    1.20
   0   0  -7   -1.20    1.30
   0   0  -7   -6.50   53.59
   0   0  -7   -2.80    1.00
   0   0   7  -17.00   57.29
   0   0  -7  -33.00   25.70
   0  -1  -7 1105.89   46.10
   0   1  -7 1087.99   46.10
   0  -1   7 1089.29  127.39
   0   1   7 1139.19   86.79
   0  -1  -7 1149.98  107.79
   0   1  -7 1083.49   44.60
   0  -1   7 1158.78   89.79
   0  -1  -7 1085.69   44.80
   0   1   7 1117.69   44.70
   0   1  -7 1153.18   86.59
   0   1  -7  991.70  117.49
   0   1   7 1110.09  111.69
   0  -1   7 1113.79   46.30
   0  -2  -7  -31.70   46.60
   0  -2   7    3.60    2.30
   0  -2   7   70.09   56.09
   0   2   7  -59.29   61.69
   0   2   7   -8.10   30.40
   0  -2  -7  -26.50   27.80
   0   2  -7  -11.60   63.59
   0   2  -7   43.00   30.40
   0  -2   7  -55.99   31.10
   0   3   7  707.33   74.49
   0   3  -7  727.83   77.69
   0  -3   7  635.74   29.90
   0  -3  -7  718.33   28.80
   0   3   7  635.04   29.20
   0  -3  -7  621.74   69.29
   0   3  -7  768.62  108.59
   0   3  -7  720.03   28.30
   0  -3  -7  692.13   92.89
   0   3   7  701.53  114.59
   0   3   7  645.04   28.20
   0  -3   7  708.83   84.09
   0   3   7  651.33   29.40
   0  -3   7  716.93  130.39
   0  -4  -7   41.80   35.30
   0  -4   7    2.10    3.20
   0   4  -7   32.10   83.09
   0   4   7    2.90   37.10
   0  -4   7  -64.39   65.39
   0  -4   7    2.60   47.10
   0   4   7   25.00   74.99
   0  -4  -7   -6.80   53.79
   0   4   7    1.90    1.70
   0   4  -7    1.50    1.90
   0   4   7    1.70    2.00
   0  -4  -7    1.00    1.60
   0  -4  -7    2.20    2.10
   0   4  -7    1.80    1.50
   0   4   7    0.60    2.00
   0   5   7 2854.11  114.29
   0   5  -7 2949.30  229.58
   0   5   7 2798.62  167.08
   0   5   7 3011.60  114.69
   0  -5  -7 2381.26  196.78
   0  -5  -7 2796.72  113.79
   0   5   7 2987.50  113.09
   0  -5  -7 2789.22  169.78
   0  -5  -7 2821.92  113.59
   0   5  -7 2750.32  114.69
   0   5   7 3070.09  211.78
   0   5  -7 2877.51  180.78
   0  -5   7 2912.11  115.19
   0   6  -7   37.10   79.99
   0   6  -7  100.69  136.59
   0  -6  -7 -116.29  105.49
   0  -6  -7    7.70    3.30
   0  -6   7    9.10    3.70
   0   6  -7    7.20    3.20
   0   6   7    7.10    3.40
   0   6   7    0.50   49.70
   0   6   7    5.70    3.30
   0   6   7   14.10  102.39
   0   6  -7  -49.20   64.59
   0   6   7    5.60    3.10
   0   6   7    6.70    2.90
   0   6  -7   -6.40   55.49
   0  -6  -7   23.00   57.19
   0   7   7 3340.87  198.88
   0   7  -7 3009.10  267.57
   0   7  -7 3105.29  125.49
   0   7   7 2828.72  241.08
   0   7  -7 2687.73  211.38
   0   7  -7 3003.60  250.27
   0   7  -7 3224.08  201.18
   0   7   7 3148.98  125.89
   0   7   7 3171.58  124.99
   0   7   7 3184.38  123.79
   0  -7  -7 2959.10  193.58
   0   8  -7 -145.39   72.19
   0  -8  -7  113.29   71.79
   0   8  -7 -109.69   86.99
   0   8  -7 -246.78  188.78
   0   8   7  -92.39  109.59
   0   8  -7   33.60  176.48
   0   8   7    2.60   70.69
   0   8   7   10.10    4.90
   0  -8  -7  -25.00  111.49
   0  -9  -7 2533.05  319.97
   0  -9   7 2211.78   98.89
   0   9   7 2415.36  201.58
   0   9   7 2302.17   97.69
   0   9  -7 2700.23  239.78
   0   9   7 2332.97   99.09
   0   9  -7 2441.56   98.79
   0  -9  -7 2309.27  204.18
   0   9  -7 2541.45  211.48
   0   9  -7 2793.32  366.46
   0  -9  -7 2519.25   97.59
   0  -9   7 2292.57   97.69
   0   9   7 2222.88   97.69
   0   9  -7 2541.55  282.87
   0   9   7 2339.97  313.17
   0  10  -7    6.40    5.90
   0  10   7    8.80    5.90
   0  10   7   -1.70    6.20
  -1   0  -7   25.90   56.09
  -1   0  -7   37.50   29.30
   1   0  -7   23.90    2.70
  -1   0   7    9.80   28.70
  -1   0  -7   21.70    2.70
   1   0  -7   19.70    3.20
   1   0   7   21.40    3.60
  -1   0  -7   19.50    3.40
  -1   0   7   20.70    2.50
  -1   0   7   20.90    3.40
   1   0  -7   28.10   56.59
   1   0  -7   45.60   29.30
   1   0   7   18.50    2.70
   1   0   7  105.99   51.29
   1   0   7   15.30    3.10
  -1   0   7   55.99   59.09
   1   0   7  -12.90   28.90
   1   1   7  287.87   13.10
  -1   1  -7  340.97   89.59
  -1  -1   7  338.47   55.59
   1   1   7  273.77   51.69
  -1   1  -7  279.87   14.30
   1   1   7  284.57   14.30
  -1  -1   7  292.47   14.40
  -1   1  -7  285.87   13.10
   1  -1  -7  278.17   14.00
   1  -1  -7  277.77   13.00
  -1  -1   7  240.88   66.79
   1  -1  -7  309.17   67.79
   1  -1  -7  266.97   49.50
   1   1   7  319.47   75.69
   1   1   7  284.17   14.00
  -1   1  -7  238.88   50.69
   1   1  -7  296.77   12.80
  -1  -1  -7  293.67   14.40
  -1  -1  -7  294.47   13.30
   1  -1   7  285.77   54.79
   1   1  -7  263.57   53.39
  -1   1   7  270.87   13.80
   1  -1   7  275.17   14.30
  -1   1   7  399.26   89.59
  -1   1   7  276.77   14.10
   1  -1   7  200.98   83.19
   1   1  -7  295.27   14.30
  -1   1   7  269.57   12.70
   1   1  -7  238.58   79.29
  -1  -1  -7  279.87   65.59
  -1  -1  -7  265.47   50.09
  -1   1   7  328.07   51.99
  -1   2  -7 1638.04  109.39
  -1  -2   7 1635.24   66.09
  -1  -2   7 1504.65  154.78
   1   2   7 1594.94   65.59
   1   2   7 1645.44   65.79
  -1   2  -7 1574.94   64.39
   1   2   7 1643.64   64.59
   1  -2  -7 1605.64   64.49
   1   2   7 1613.04  148.49
  -1   2  -7 1627.34  137.09
  -1  -2   7 1724.13  115.39
   1  -2  -7 1710.33  143.29
   1  -2  -7 1583.84  104.39
   1   2   7 1569.04  106.29
  -1  -2  -7 1630.64   64.79
  -1  -2  -7 1663.63  106.99
   1  -2   7 1548.65  113.49
  -1   2   7 1658.33  106.39
   1   2  -7 1640.44  148.89
  -1   2   7 1585.04   64.19
   1   2  -7 1621.04   65.79
  -1   2   7 1610.14   65.69
   1   2  -7 1737.23  112.99
   1  -2   7 1689.53  157.18
  -1  -2  -7 1468.35  130.19
  -1   2   7 1542.65   65.29
  -1  -2  -7 1638.54   65.99
   1  -2   7 1615.34   66.09
   1   2  -7 1612.74   63.99
   1  -3  -7   77.89   36.10
   1  -3  -7   91.29    6.20
   1  -3  -7   27.70   65.29
   1   3   7  104.69    7.20
  -1   3  -7   91.39    6.00
  -1  -3   7   68.39   63.69
   1   3   7  101.79    7.10
  -1  -3   7  102.29    7.60
  -1  -3   7   88.49   45.40
  -1   3  -7   96.59    7.30
   1   3   7  233.08   51.89
  -1   3  -7  129.49   63.69
   1   3   7  172.98   65.39
   1   3   7   97.09    6.10
  -1   3  -7   65.29   37.00
  -1   3   7  100.69    6.90
  -1  -3  -7   95.39    6.40
   1   3  -7  108.09   44.40
  -1   3   7  100.89    6.10
  -1   3   7   97.99   56.79
   1  -3   7   52.79   80.99
   1  -3   7  101.79    7.60
  -1  -3  -7   72.39   34.20
   1  -3   7   33.80   39.70
  -1   3   7  130.89   37.60
   1   3  -7  149.39   72.89
  -1   3   7  103.09    7.20
  -1  -3  -7   44.50   50.89
   1   3  -7   86.99    6.80
   1   3  -7   96.29    5.70
   1  -4  -7  831.62   36.10
   1  -4  -7  946.11   86.59
  -1  -4   7  897.31   38.10
  -1   4  -7  799.62   37.30
   1   4   7  887.21   36.00
   1   4   7  854.51   37.20
  -1  -4   7  941.41  100.19
   1  -4  -7  723.33  126.09
  -1   4  -7  815.92   35.60
  -1   4  -7  781.52  117.39
   1   4   7  869.01  131.39
  -1   4  -7  855.21   89.89
   1   4   7  940.41   85.59
  -1  -4   7  969.50  160.48
   1   4  -7  857.01   37.40
  -1   4   7  833.22   36.80
  -1   4   7  844.32   84.89
   1   4  -7  876.01   35.30
  -1   4   7  833.42   37.00
   1   4  -7  933.81   96.49
  -1  -4  -7  915.01   84.19
  -1  -4  -7  927.21  110.89
  -1   4   7 1029.10  133.99
  -1  -4  -7  857.91   36.30
   1  -4   7  859.41  101.69
   1  -4   7  739.73  124.29
  -1  -4  -7  892.11   37.00
   1   4  -7  972.30  150.88
   1   5   7   60.19    6.20
  -1  -5   7   63.99    7.00
   1  -5  -7   80.79   49.70
   1   5   7   26.30   44.40
   1   5   7   38.20   83.29
   1  -5  -7   63.59    6.00
  -1   5  -7   62.99    6.60
  -1   5  -7    6.20  105.79
  -1   5  -7  113.09   54.29
   1   5   7   62.39    5.50
   1  -5  -7    0.10   94.09
   1   5   7   61.89    6.40
  -1   5   7  -24.40   77.69
  -1   5   7   59.49    6.00
  -1  -5  -7   63.49    6.20
   1   5  -7   40.30   88.09
  -1   5   7   98.69   50.69
  -1   5   7   59.19    6.20
  -1  -5  -7   68.09    5.90
   1  -5   7   63.09    7.00
  -1  -5  -7  153.08   71.19
  -1   5   7   56.89    5.30
   1   5  -7   50.09   53.19
   1   5  -7   65.19    6.40
   1   5  -7  103.09   53.69
  -1  -5  -7   66.19   49.30
   1   6   7 1274.17  178.78
   1   6   7 1215.88   50.09
  -1   6  -7 1163.08  183.08
  -1   6  -7 1390.56  202.58
  -1   6  -7  983.60  126.69
   1   6   7 1053.29  107.59
   1   6   7 1199.08   50.19
   1  -6  -7  999.70  166.38
   1   6   7 1204.88   50.69
  -1   6  -7 1092.19   50.09
   1  -6  -7 1112.39   48.80
  -1   6  -7 1144.89  125.79
  -1   6   7 1007.20  168.78
   1   6  -7 1296.07  135.19
  -1   6   7 1177.98  109.49
  -1  -6  -7 1289.87  172.68
   1   6  -7 1163.58   50.19
   1   6  -7 1308.37  205.98
  -1   6   7 1151.48   49.60
   1   6  -7 1145.79  111.69
  -1   6   7 1157.08   48.30
   1  -6   7 1139.79   50.49
  -1  -6  -7 1244.18   49.70
   1   6  -7  969.60  170.18
   1  -7  -7  100.79    8.50
   1   7   7   91.09    9.30
   1   7   7  108.29   65.19
  -1   7  -7   98.99    9.50
  -1   7  -7  -23.20  162.68
   1  -7  -7  123.79   64.19
  -1   7  -7  172.28   83.79
   1  -7  -7   67.89  120.19
   1   7   7   83.89    8.60
   1   7   7  158.88  108.69
  -1   7  -7  -89.89  119.69
  -1   7  -7  130.89   66.99
  -1  -7  -7  156.38   69.49
  -1   7   7   98.29    9.70
  -1   7   7  275.37  107.39
   1   7  -7  225.88  142.99
   1   7  -7  109.49   66.49
   1   7  -7   61.79  126.79
  -1   7   7  226.18   71.09
  -1   7   7  100.89    8.00
  -1   7   7   92.89    8.60
   1   7  -7   86.49    9.00
  -1  -7  -7   87.09  123.79
   1   7  -7  142.69  211.78
   1   8   7  -57.79  155.38
  -1   8  -7   11.20    4.60
  -1  -8   7   15.10    5.90
   1   8   7   68.19   83.69
   1   8   7   14.00    6.60
   1  -8  -7  197.88   79.89
   1   8   7   18.90    7.10
  -1   8  -7  294.47  180.58
   1  -8  -7 -280.37  158.48
   1   8   7   20.90    6.90
  -1   8  -7 -114.59   76.79
  -1   8   7   10.60    5.00
   1   8  -7   23.70    6.80
  -1   8   7 -174.68  104.29
  -1  -8  -7  161.18   79.29
   1   8  -7 -340.57  177.68
   1   8  -7  391.26  140.49
   1   8  -7  109.09   88.69
   1   8  -7   84.99   86.69
  -1   8   7   11.20    5.00
  -1  -8  -7   14.40    5.30
  -1   8   7   31.30   71.79
  -1  -8  -7   56.69  125.99
   1  -8   7   11.00    5.30
  -1   8   7    8.80    3.90
   1   9   7   87.39   11.10
   1  -9  -7   79.39   10.40
  -1  -9   7   90.19   13.30
  -1   9  -7  130.59  104.39
   1   9   7   85.79   10.40
   1   9   7   81.39   11.20
   1  -9  -7  -10.20  151.28
   1   9   7  414.06  210.18
   1   9   7   -6.10  100.89
  -1   9  -7   82.19   11.00
   1  -9  -7   48.90  100.99
  -1  -9   7   85.69   11.70
  -1   9  -7  -37.30  162.88
   1   9  -7   99.89  109.99
   1  -9   7   96.29   12.60
  -1   9   7   85.79   88.69
   1   9  -7  369.76  239.48
  -1   9   7   83.09   10.00
  -1  -9  -7   84.39   11.10
   1   9  -7   78.69   11.00
  -1   9   7   72.39   12.80
  -1   9   7   -1.40  202.18
  -1   9   7   93.19   11.40
   1  -9   7   87.79   11.40
  -1  -9  -7  145.39   96.99
  -1  -9  -7   50.09  204.98
   1 -10  -7  393.56  194.48
   1  10   7  341.77   22.20
   1  10   7  314.97   20.90
  -1  10  -7  323.87   21.70
   1 -10  -7  203.28  126.29
   1  10  -7  338.97   21.60
  -1  10   7  286.77   27.80
  -1  10   7  352.06   22.40
  -1  10   7  376.76  143.49
  -1  10   7  759.72  313.27
  -2   0  -7  151.08   37.60
   2   0   7  199.28   11.00
  -2   0  -7  185.48   56.99
   2   0   7  204.48   10.70
  -2   0  -7  181.28    9.70
  -2   0   7  197.28   10.80
   2   0  -7  179.08    9.10
  -2   0   7  194.38    9.10
   2   0  -7  110.59   52.69
   2   0   7  216.08   48.00
   2   0  -7  217.18   51.29
   2   0   7  277.37   80.89
  -2   0   7  186.48   43.40
   2   0  -7  181.78   10.30
   2   0   7  200.48    9.90
  -2   0   7  197.48   75.09
  -2   0  -7  178.78   10.70
  -2   1  -7 5693.83  312.37
   2  -1  -7 6113.19  312.57
  -2  -1   7 6158.78  319.07
   2   1   7 6036.10  232.68
   2  -1  -7 5495.55  231.98
  -2  -1   7 5805.22  232.68
   2   1   7 5971.20  320.57
  -2   1  -7 5644.04  231.38
  -2   1  -7 6284.97  279.57
   2   1   7 6267.37  279.87
   2   1   7 5894.71  231.48
  -2  -1   7 6379.36  282.97
   2  -1  -7 5967.60  273.27
   2   1   7 5754.12  232.58
  -2  -1  -7 5868.91  310.07
  -2   1   7 5718.53  230.68
   2  -1   7 6072.39  321.67
   2  -1   7 5784.12  232.78
  -2   1   7 6032.60  275.67
  -2  -1  -7 6347.56  276.57
   2   1  -7 6567.24  320.87
  -2   1   7 5914.31  315.57
   2  -1   7 5980.30  281.57
  -2   1   7 5801.52  232.38
  -2  -1  -7 5753.12  231.58
   2   1  -7 6307.37  278.77
   2  -2  -7  263.37   12.10
  -2  -2   7  269.37   53.29
   2  -2  -7  347.07   71.09
  -2   2  -7  321.17   55.29
   2   2   7  300.87   72.09
  -2   2  -7  256.37   13.40
   2   2   7  242.58   13.00
   2   2   7  250.77   13.20
   2  -2  -7  294.97   50.89
  -2   2  -7  105.19   74.09
   2   2   7  244.88   12.10
  -2  -2   7  249.28   13.40
  -2  -2   7  203.68   79.19
   2   2   7  221.98   52.49
  -2   2  -7  262.77   12.30
  -2  -2  -7  254.07   49.90
  -2   2   7  248.28   13.00
  -2   2   7  245.98   12.70
   2   2  -7  202.88   47.50
  -2  -2  -7  256.07   12.40
   2   2  -7  259.57   11.50
  -2  -2  -7  164.88   71.69
   2   2  -7  253.17   13.00
   2  -2   7  256.17   13.50
   2  -2   7  338.27   64.19
  -2  -2  -7  253.87   13.30
  -2   2   7  311.07   52.19
  -2   2   7  249.28   11.60
  -2   2   7  288.97   82.99
   2  -2   7  137.59   67.09
   2   2  -7  301.47   74.09
   2   3   7 3515.65  179.48
   2  -3  -7 3338.27  205.78
   2   3   7 3155.78  127.79
  -2   3  -7 3171.78  128.09
  -2  -3   7 3338.67  184.78
  -2  -3   7 3264.07  128.29
   2  -3  -7 3193.88  126.59
  -2   3  -7 3142.89  126.49
   2   3   7 3236.78  127.79
   2   3   7 3336.97  222.18
  -2   3  -7 3301.37  217.98
   2  -3  -7 3276.67  171.58
  -2   3  -7 3539.75  182.48
   2   3   7 2985.20  126.69
  -2  -3   7 3061.09  216.98
   2   3  -7 3172.68  125.69
  -2   3   7 3238.28  126.09
   2  -3   7 3339.47  128.39
  -2   3   7 3222.78  127.59
   2   3  -7 3326.67  181.68
   2  -3   7 3330.17  186.98
  -2   3   7 3244.18  127.39
  -2  -3  -7 3196.38  171.78
   2   3  -7 3147.79  216.38
  -2  -3  -7 3136.09  126.79
   2   3  -7 3162.08  127.59
  -2  -3  -7 3151.28  127.99
  -2   3   7 3596.54  223.78
  -2  -3  -7 2755.82  128.59
  -2   3   7 3759.62  180.88
  -2  -3  -7 3170.88  210.98
   2  -3   7 3027.90  234.48
  -2  -4   7    8.50    3.20
   2   4   7   12.50    3.10
  -2   4  -7   14.50    2.90
   2  -4  -7  -66.19   70.79
   2   4   7  136.89   64.19
  -2   4  -7   17.30    4.00
  -2  -4   7   86.29  128.29
  -2   4  -7  -14.10   86.29
   2   4   7    9.80    3.10
  -2   4  -7  -40.30   39.50
  -2  -4   7   76.19   59.19
   2   4   7    8.40    3.00
   2  -4  -7    7.20   38.60
   2   4   7   19.90   37.70
   2  -4   7   64.59   75.19
  -2   4   7   11.30    3.30
  -2   4   7   10.50    3.10
   2   4  -7    8.50    2.30
  -2  -4  -7   12.20    3.70
  -2  -4  -7    9.80    2.70
  -2   4   7   11.60    3.60
  -2  -4  -7   23.70   37.60
  -2   4   7   42.20   39.20
  -2   4   7   19.00   59.99
  -2  -4  -7   21.60   71.79
   2  -4   7   -2.50   49.50
   2   4  -7   11.20    3.50
   2  -4   7   15.30    4.30
   2  -5  -7  488.55   77.09
   2   5   7  389.36   20.10
   2  -5  -7  490.15  101.79
   2   5   7  404.66   18.70
   2   5   7  466.25   78.89
  -2   5  -7  469.25  113.09
   2   5   7  466.75  115.49
   2   5   7  387.76   20.00
  -2  -5   7  376.06   20.20
  -2   5  -7  424.76   20.60
  -2   5  -7  421.06   83.29
   2   5   7  391.76   19.70
   2   5  -7  400.16   19.80
  -2   5   7  396.56  112.59
  -2  -5  -7  403.96   19.60
  -2   5   7  391.86   18.30
   2   5  -7  358.06   75.19
   2   5  -7  445.36   83.19
  -2  -5  -7  393.86   66.09
   2   5  -7  203.48  131.19
  -2   5   7  305.77   69.59
  -2  -5  -7  586.34  103.69
   2  -5   7  404.26   20.50
  -2   5   7  385.76   19.20
  -2   5   7  397.06   19.80
  -2  -5  -7  398.66   19.00
  -2  -6   7  119.69   10.00
  -2   6  -7   36.70  124.39
   2  -6  -7  107.89    8.20
  -2   6  -7  106.29    9.30
   2  -6  -7   69.79   59.29
  -2   6  -7  176.78   67.49
  -2   6  -7  142.69   60.49
   2   6   7  126.79    9.60
  -2   6  -7    3.00   81.79
   2   6   7   24.80   55.69
   2   6   7  122.99    9.30
   2   6   7   85.49   83.69
   2  -6  -7  167.28  119.69
   2   6   7  125.69    9.70
  -2  -6  -7  120.59   10.60
  -2  -6  -7  113.99   58.89
  -2   6   7  319.17  111.19
  -2  -6  -7   -2.90  105.59
   2  -6   7  106.49    9.60
   2   6  -7  128.09    9.30
  -2   6   7  101.39    7.80
  -2   6   7   76.19   49.60
   2   6  -7  151.78  139.99
   2   6  -7  222.68   76.39
  -2  -6  -7  109.89    8.40
  -2   6   7  103.99    8.50
  -2   6   7  101.99    8.90
   2   6  -7  105.99   84.69
   2   6  -7  168.38   61.29
  -2   7  -7  322.37  140.39
  -2   7  -7  434.66   91.79
   2  -7  -7  377.76  144.49
  -2   7  -7  618.44  124.19
   2  -7  -7  390.26   19.40
   2   7   7  300.37   76.89
   2   7   7  541.65  157.38
  -2   7  -7  377.66   20.70
   2   7   7  366.06   20.60
   2   7   7  368.96   20.50
   2  -7  -7  249.48   78.99
  -2   7  -7  758.32  154.68
  -2   7   7  570.34  156.48
  -2   7   7  379.46   20.50
  -2   7   7  381.26   18.80
   2   7  -7  371.56   20.30
   2   7  -7  381.06  167.98
   2   7  -7  399.66  119.29
  -2   7   7  375.86   19.60
  -2  -7  -7  618.34  156.68
   2   7  -7  507.85  107.09
   2   7  -7  348.27   85.39
  -2  -7  -7  371.06   82.79
  -2   7   7  394.96   21.30
  -2   7   7  607.64  104.99
   2   8   7   35.00    8.10
  -2   8  -7 -281.97  135.09
   2  -8  -7  126.79  124.89
  -2   8  -7  -28.40   93.69
  -2   8  -7   97.69  172.98
   2  -8  -7   45.30   75.69
  -2   8  -7   25.30   75.99
   2   8   7   42.90    8.20
   2   8   7   36.90    8.00
   2   8   7  -25.50  159.08
  -2   8  -7   27.40    7.60
   2   8   7   35.00    7.00
   2   8   7  -19.50   73.29
  -2  -8   7   49.00    9.30
  -2  -8   7   39.20    9.00
   2   8  -7   39.90    7.60
  -2  -8  -7  108.49   78.79
  -2   8   7  113.09  159.98
   2   8  -7   38.70   80.19
  -2   8   7   30.80    7.70
   2   8  -7  -40.50  196.18
   2   8  -7   21.90  170.48
  -2   8   7   47.60    7.20
  -2  -8  -7  114.49  129.99
   2  -8   7   35.40    8.80
  -2  -8  -7   35.80    8.20
  -2   8   7   60.19   78.29
  -2   8   7   28.90    8.10
   2   8  -7  184.88   97.99
  -2   8   7   25.90    7.30
   2  -9  -7 -237.68  204.08
   2   9   7   20.50    6.80
   2  -9  -7  100.99   93.19
  -2   9  -7   25.50    8.50
   2   9   7   31.80   12.50
   2   9  -7 -135.89  178.08
   2   9  -7  -30.10  118.09
  -2   9   7   86.09  148.19
  -2   9   7   17.90   99.39
   2  -9   7   26.10    7.50
  -2   9   7   32.70    9.60
   2  -9   7   27.80    7.50
   2 -10  -7   25.30    7.70
   2  10   7   16.50    7.30
  -2  10  -7   22.30    7.50
   2  10   7   18.90    7.30
   2  10  -7   16.50    6.70
  -2  10   7   20.20    7.00
  -2  10   7   20.30    7.20
   3   0  -7  -13.60   29.30
   3   0   7   19.30    3.20
  -3   0  -7   -5.00   48.80
   3   0   7   -0.90   32.20
  -3   0   7   14.30    3.30
   3   0   7   14.90    3.40
   3   0   7   29.70   70.39
   3   0  -7   49.00   62.69
   3   0  -7   14.50    2.20
  -3   0  -7   15.20    3.30
  -3   0   7   38.00   66.29
  -3   0   7   28.10   34.10
  -3   0   7   15.60    2.10
   3   0  -7   14.20    2.80
  -3   0  -7   13.60    2.60
  -3   0  -7    8.00   29.30
   3   0   7   12.60    2.70
   3  -1  -7    6.60    1.70
   3  -1  -7  -31.50   41.70
  -3   1  -7   36.20   31.60
  -3  -1   7  100.29  108.09
   3   1   7    5.00    2.10
  -3  -1   7    3.20    2.10
  -3   1  -7    8.80    3.00
  -3   1  -7   13.20   47.80
   3   1   7  -16.90   70.39
   3  -1  -7   81.29   66.89
  -3   1  -7    6.00    1.90
   3   1   7    6.90    2.10
  -3  -1   7   12.10   53.09
   3   1   7    1.20   33.50
   3   1   7    6.90    2.40
   3   1  -7    6.90    1.60
   3  -1   7   -3.40   35.20
   3  -1   7    4.60    1.90
   3  -1   7 -111.19   70.79
  -3  -1  -7   -3.40   28.20
  -3  -1  -7    7.00    2.50
   3   1  -7    6.80    2.10
   3   1  -7   67.79   77.29
   3  -1   7    5.50    2.40
  -3   1   7    4.60    2.10
  -3  -1  -7   21.20   54.69
   3   1  -7    2.90   38.20
  -3   1   7  -12.20  105.79
  -3   1   7    5.10    1.40
  -3  -1  -7    6.60    2.00
   3   2   7 1358.16   54.49
  -3   2  -7 1287.67   98.89
   3  -2  -7 1313.97  130.29
  -3  -2   7 1366.76  105.79
   3  -2  -7 1294.77   94.99
   3  -2  -7 1280.17   52.69
  -3   2  -7 1261.17   53.19
  -3  -2   7 1369.26   54.49
   3   2   7 1204.98   96.49
  -3  -2   7 1363.96  148.19
   3   2   7 1170.68  121.79
  -3   2  -7 1275.67   54.39
  -3   2  -7 1194.28  139.09
   3   2   7 1341.57   54.19
   3  -2   7 1574.14  161.78
  -3   2   7 1174.18  132.29
   3   2  -7 1290.17   51.89
  -3   2   7 1424.96   96.69
   3  -2   7 1352.26   54.49
   3   2  -7 1163.18   97.69
  -3   2   7 1314.37   53.99
   3   2  -7 1449.85  130.49
  -3  -2  -7 1308.57   54.39
   3   2  -7 1286.47   53.69
  -3  -2  -7 1361.36   94.89
  -3  -2  -7 1327.57   53.39
  -3   2   7 1361.86   53.89
  -3   2   7 1316.97   52.29
  -3  -2  -7 1271.37  127.89
   3  -2   7 1305.57  107.49
  -3   3  -7  256.47   13.00
   3   3   7  270.07   14.20
   3   3   7  291.77   74.39
  -3  -3   7  343.77  104.39
  -3  -3   7  274.67   14.40
   3  -3  -7  197.88   69.09
   3  -3  -7  299.77   56.89
   3   3   7  161.18   48.60
  -3   3  -7  257.27   14.20
  -3   3  -7  209.08   83.39
  -3   3  -7  303.67   60.09
  -3  -3   7  330.67   71.19
   3   3   7  271.37   14.00
   3   3   7  271.47   13.20
   3  -3   7  273.17   14.30
  -3  -3  -7  182.58   65.89
  -3  -3  -7  267.17   14.10
   3   3  -7  302.07   66.19
  -3   3   7  260.77   12.30
   3   3  -7  350.26   92.29
  -3  -3  -7  268.77   13.90
  -3   3   7  345.57   87.49
  -3  -3  -7  321.27   54.89
   3   3  -7  268.97   11.80
  -3   3   7  256.47   13.30
  -3   3   7  267.57   13.80
  -3  -3  -7  260.97   13.20
   3  -3   7  269.47   60.39
  -3   3   7  244.48   51.69
   3   3  -7  263.27   13.60
   3  -3   7  135.49   90.79
  -3  -4   7  572.04   92.79
   3   4   7  596.84   80.99
  -3   4  -7  456.05  123.39
   3  -4  -7  664.83   79.19
   3   4   7  564.84   26.60
  -3  -4   7  550.54   27.00
   3  -4  -7  661.53  123.29
  -3   4  -7  629.94   27.50
  -3   4  -7  496.65   81.59
  -3  -4   7  435.86  118.29
   3   4   7  541.25   26.80
   3   4   7  574.34  103.09
  -3   4  -7  614.94   25.70
   3   4   7  563.24   25.50
  -3   4   7  592.84   26.60
   3  -4   7  593.54   27.10
  -3  -4  -7  596.44   26.70
   3  -4   7  930.11  166.48
   3  -4   7  568.34   91.39
  -3   4   7  506.15   97.49
  -3  -4  -7  588.04   26.00
   3   4  -7  585.74   26.40
   3   4  -7  556.24  128.99
  -3   4   7  592.04   25.20
  -3   4   7  609.34   26.20
  -3  -4  -7  611.24   94.69
   3   4  -7  592.24   86.59
  -3  -4  -7  588.54   69.49
   3   4  -7  583.84   24.40
  -3   4   7  650.43   77.99
  -3   5  -7  238.28   85.99
   3   5   7  136.09  105.19
   3   5   7  217.08   13.60
  -3  -5   7  228.18   14.00
   3   5   7  232.08   13.30
   3  -5  -7  187.98   58.19
   3  -5  -7  228.68   88.29
  -3   5  -7  189.38   58.49
   3   5   7  219.78   13.50
   3   5   7  188.08   55.99
   3   5   7  234.78   12.40
  -3   5  -7  247.68   14.10
  -3   5  -7  353.36   78.89
   3   5  -7  181.18  105.59
  -3   5   7  298.47  102.69
  -3   5   7  241.48   12.80
   3   5  -7  200.18   12.70
   3   5  -7  183.58   53.89
  -3  -5  -7  230.88   98.99
  -3   5   7  242.68   13.30
  -3  -5  -7  257.57   55.89
  -3  -5  -7  202.48   12.30
  -3   5   7  203.28   57.99
   3   5  -7  234.58   69.79
   3   5  -7  219.98  100.89
  -3   5   7  247.08   12.10
   3  -5   7  266.57   14.30
  -3   6  -7 1169.38   49.40
  -3   6  -7 1303.67  182.18
   3   6   7 1063.39   48.80
   3   6   7 1107.19   49.00
  -3   6  -7 1039.30  167.58
  -3   6  -7 1074.19  125.49
  -3   6  -7 1246.28  119.59
   3   6   7 1145.39   48.60
   3   6   7 1016.20  116.19
  -3  -6   7 1100.59   49.50
   3   6   7 1306.67  189.38
  -3   6   7 1158.68   47.10
   3  -6   7 1158.18   49.10
  -3   6   7 1205.68  178.98
  -3  -6  -7 1126.49   47.90
   3   6  -7 1123.99  116.89
   3   6  -7 1279.57  174.48
  -3  -6  -7 1000.50  109.29
   3   6  -7  991.50  128.19
  -3   6   7 1184.38   48.20
   3   6  -7 1108.19   48.40
  -3   6   7 1153.18   48.70
  -3  -6  -7  882.21  138.09
   3   6  -7 1110.89  176.58
  -3   6   7 1171.08  112.99
   3   7   7   44.20    7.40
  -3  -7   7   42.00    8.60
   3   7   7   49.99    6.70
  -3   7  -7 -199.08  134.89
   3  -7  -7   42.70   61.99
  -3   7  -7   46.60   73.49
  -3   7  -7   50.59    8.70
   3   7   7   32.00   66.89
  -3   7  -7   26.10   66.09
   3   7   7  108.69  110.79
   3  -7  -7  187.88  130.29
  -3   7  -7   27.40  144.89
   3   7   7   41.00    7.40
  -3   7   7   31.40   96.89
  -3  -7  -7  138.19  127.39
   3   7  -7   62.39   67.19
  -3   7   7   44.90    7.40
   3   7  -7  229.38  159.68
  -3   7   7   76.99   66.19
   3   7  -7   47.30    7.10
   3   7  -7  147.39  140.89
  -3   7   7   43.90    6.40
   3   7  -7  140.09   75.39
  -3  -7  -7  129.09   67.69
  -3   7   7   42.80    6.50
   3  -7   7   49.40    8.20
  -3   7   7   47.90    7.70
  -3  -8   7  109.29   11.80
  -3  -8   7  113.89   12.10
   3  -8  -7  -63.59  153.18
  -3   8  -7   81.29   10.20
   3  -8  -7   99.19   81.19
   3   8   7   97.99    9.40
   3   8   7  110.09   10.90
   3   8   7  104.69   10.80
   3   8   7  111.19   10.70
  -3   8   7   18.30  144.39
   3  -8   7   87.39   11.80
  -3   8   7   75.99   10.10
   3   8  -7   77.89  142.99
   3   8  -7  159.28   99.09
  -3   8   7   84.79    9.30
  -3   8   7   88.19    8.90
  -3  -8  -7  119.49   11.10
  -3   8   7   88.09   10.60
  -3   8   7   42.30   99.99
   3   9   7   36.10    9.40
   3   9   7   38.10    9.30
  -3   9  -7   43.60  109.29
   3  -9  -7   46.80    9.10
  -3   9  -7   52.09    9.70
  -3   9  -7  288.97  237.18
   3   9   7   39.40   10.40
  -3   9   7   40.80    8.40
   3  -9   7   33.90   10.20
   3  -9   7   51.39   11.40
  -3   9   7   42.40   10.00
   3   9  -7   47.00    8.90
   3  10   7  598.44   31.50
  -3  10  -7  557.64   31.20
   3 -10  -7  526.75   29.00
   3  10   7  593.24   31.40
   3  10  -7  598.24   30.80
   3 -10   7  570.44   30.50
  -3  10   7  598.84   29.60
  -3  10   7  562.24   31.80
  -4   0  -7  818.82   76.19
   4   0   7  800.02   33.30
   4   0   7  777.82   33.90
  -4   0  -7  822.62   34.50
   4   0   7  798.42   33.90
  -4   0   7  781.52   33.80
  -4   0   7  782.42   31.70
   4   0  -7  785.42   31.90
  -4   0   7  718.13  111.49
   4   0  -7  794.12   76.19
  -4   0  -7  789.62   33.30
  -4   0   7  714.63   74.39
  -4   0  -7  922.51  114.79
   4   0  -7  840.82  111.99
  -4  -1   7  136.19   43.00
  -4  -1   7  183.88   10.20
   4  -1  -7  162.88   37.50
   4  -1  -7  168.98    8.50
  -4   1  -7  169.08    9.40
  -4   1  -7  129.59   77.29
   4   1   7  176.78   10.00
   4   1   7  183.58   10.20
   4   1   7  189.28    9.70
   4   1   7   79.49   75.09
  -4   1  -7  174.18   10.30
   4  -1  -7  203.28   70.39
  -4   1  -7  145.59   41.30
   4   1   7   59.99   36.90
  -4  -1   7  209.78   68.79
  -4  -1  -7  179.08    9.50
  -4  -1  -7  185.08   10.30
  -4   1   7  169.78    9.80
  -4  -1  -7  391.26   86.79
   4   1  -7  173.08    8.00
   4  -1   7  170.98    9.70
   4   1  -7  179.48    9.30
  -4   1   7  157.88   66.79
   4   1  -7  201.88   70.49
   4  -1   7  102.19   81.79
  -4   1   7  116.69   37.90
  -4   1   7  168.38    8.20
  -4  -1  -7  146.99   41.20
   4   1  -7  155.28   43.10
   4  -1   7  169.18   10.00
   4  -2  -7   29.40   37.80
  -4  -2   7   68.79   41.40
   4   2   7   22.90   38.90
   4   2   7   95.09   63.49
  -4  -2   7   28.80    4.40
  -4  -2   7   -7.70   70.19
  -4   2  -7   34.20   59.49
  -4   2  -7   26.10   35.50
  -4   2  -7   21.60    3.80
   4   2   7   27.20    4.20
   4   2   7   28.10    4.20
   4  -2  -7  -14.10   71.79
   4   2   7   30.70    3.90
  -4   2  -7   19.80    3.30
   4   2  -7  -11.60   68.39
  -4  -2  -7   18.90    3.80
  -4  -2  -7  -22.50   63.69
  -4  -2  -7   42.80   32.10
   4   2  -7   21.50    2.30
   4  -2   7   29.30    4.40
   4  -2   7   21.50   90.29
  -4   2   7   25.50    3.90
   4  -2   7   24.70    3.60
  -4   2   7   27.90    3.70
  -4  -2  -7   17.40    3.30
   4   2  -7    3.70   37.50
   4   2  -7   22.10    3.40
  -4   2   7   71.29   63.09
  -4   2   7   24.80    2.80
  -4   2   7   18.40   33.10
   4  -2   7  -23.70   40.20
  -4   3  -7  726.73   83.29
   4   3   7  784.32   31.90
   4  -3  -7  886.91  119.69
  -4   3  -7  715.33   32.90
   4  -3  -7  737.13   73.19
  -4   3  -7  709.53   31.70
  -4  -3   7  741.73   35.00
   4   3   7  782.02   33.20
  -4  -3   7  799.22   92.59
   4   3   7  775.12   32.60
  -4  -3   7  680.23  134.09
   4   3   7  841.42  110.89
  -4   3  -7  475.65  102.39
   4   3   7  748.23   82.19
  -4  -3  -7  715.13   32.80
   4   3  -7  683.63   81.59
  -4  -3  -7  711.33   31.90
  -4   3   7  857.21  124.29
   4   3  -7  706.43   29.90
   4  -3   7  586.44  115.89
  -4   3   7  785.62   30.90
  -4  -3  -7  782.82  116.69
  -4   3   7  769.02   32.70
   4   3  -7  712.03   31.80
  -4  -3  -7  663.83   73.19
  -4   3   7  780.62   32.10
  -4  -3  -7  726.33   32.60
  -4   3   7  850.41   78.99
   4  -3   7  874.41   95.39
   4   3  -7  750.82  124.59
   4  -3   7  780.52   32.90
   4   4   7   40.80    5.50
   4   4   7   35.10    5.40
   4   4   7    5.70   69.49
   4   4   7   72.19   50.49
  -4  -4   7   39.70    5.80
  -4   4  -7  -33.30   85.69
  -4   4  -7   41.60    4.60
  -4   4  -7  117.89   48.60
   4   4   7   39.90    4.80
  -4   4  -7   41.30    5.70
   4   4   7   34.10    5.10
   4  -4  -7   47.70   42.60
   4  -4  -7  -32.90   77.69
   4  -4   7   62.99  106.59
  -4  -4  -7   35.00    4.70
  -4   4   7   45.90    4.80
  -4   4   7   42.40    5.20
  -4   4   7  239.18   83.69
   4   4  -7   36.40    4.70
  -4   4   7   63.09   43.60
   4   4  -7   34.40    3.20
  -4  -4  -7   46.30   43.60
   4   4  -7   75.39  103.19
  -4   4   7   46.40    4.30
  -4  -4  -7   32.90    5.20
   4   4  -7  -54.39   47.70
   4  -4   7  -54.39   53.99
  -4  -4  -7  -28.90   76.59
   4  -4   7   45.40    5.80
   4   5   7 1980.60   79.19
  -4   5  -7 1922.81   79.59
  -4  -5   7 1964.50   79.79
  -4   5  -7 1872.01  137.39
   4   5   7 1711.33  199.68
   4   5   7 1958.70   78.79
   4   5   7 1948.31   79.69
  -4   5  -7 1688.13  202.48
  -4   5  -7 1904.11  147.39
   4  -5  -7 1894.41  187.18
   4   5   7 1925.71  140.79
   4   5   7 1957.40   77.79
  -4  -5  -7 1955.30   79.09
   4   5  -7 1833.02  148.09
  -4   5   7 1868.91  135.59
   4   5  -7 1957.50   75.99
  -4  -5  -7 1898.01   78.09
   4   5  -7 1942.81   78.29
  -4   5   7 1919.51   77.19
   4   5  -7 1874.21  170.98
  -4   5   7 2264.57  196.28
   4   5  -7 1897.21  137.19
   4   5  -7 1902.61  202.48
  -4   5   7 1911.81   78.69
  -4   5   7 1893.01   77.79
  -4  -5  -7 2001.50  133.69
  -4  -5  -7 1743.43  181.48
   4   6   7   61.09   58.89
   4  -6  -7  164.98   61.49
  -4   6  -7   93.39    8.80
  -4   6  -7  128.99   66.09
   4   6   7  160.88  129.59
   4   6   7   80.69    8.60
   4   6   7   90.89    8.50
   4  -6  -7  207.78  116.89
  -4  -6   7   88.09    9.30
   4   6   7   95.19    8.70
  -4   6  -7   53.49  122.59
  -4   6  -7  191.68   71.09
  -4  -6  -7  178.68   58.79
   4   6  -7   51.39  130.99
  -4   6   7  -35.60   51.89
   4   6  -7   60.89   62.89
   4   6  -7   97.49    8.10
  -4  -6  -7  -20.50  113.99
   4   6  -7   87.09   67.79
  -4   6   7   80.89    8.20
  -4   6   7   78.39    7.30
  -4   6   7   87.79    7.20
   4  -6   7   80.09    8.60
  -4  -6  -7   95.89    8.00
   4   6  -7   21.30   90.59
   4   7   7 2682.33  105.49
   4   7   7 2677.93  235.38
   4   7   7 2594.34  106.49
  -4   7  -7 2937.21  204.68
   4  -7  -7 2568.24  177.98
   4  -7  -7 2203.18  251.37
   4   7   7 2467.05  187.08
  -4   7  -7 3353.26  301.67
  -4   7  -7 2262.77  109.49
  -4  -7   7 2648.24  108.09
  -4  -7   7 2725.23  110.59
   4   7   7 2741.23  107.49
   4   7   7 2703.23  108.19
   4   7  -7 2615.24  203.08
  -4  -7  -7 2765.62  254.07
   4  -7   7 2623.84  107.09
   4   7  -7 2714.13  106.49
  -4   7   7 2532.65  107.79
  -4   7   7 2603.14  105.09
  -4   7   7 2638.44  105.59
  -4  -7  -7 2552.54  179.38
   4   7  -7 2773.32  294.77
  -4   7   7 2582.84  106.89
  -4   8  -7  299.47  192.88
   4   8   7  216.48   15.60
  -4   8  -7  417.46  103.49
   4   8   7  213.88   14.50
   4   8   7  240.68   16.20
  -4  -8   7  211.48   17.00
   4   8   7  228.18   17.10
  -4   8  -7  244.98   17.00
  -4   8   7  254.47   17.10
  -4   8   7  245.08   16.40
  -4   8   7  252.07   14.80
   4   8  -7  343.67  268.37
   4   8  -7  205.18   14.80
  -4   8   7  252.47   14.50
   4   9   7 1591.64   71.49
   4   9   7 1658.63   70.39
   4   9   7 1617.84   71.19
  -4   9  -7 1605.44   71.49
  -4   9   7 1709.93   72.39
   4   9  -7 1599.34   69.69
  -4   9   7 1690.53   68.89
   4  -9   7 1633.04   70.99
   5   0   7   16.80    3.50
   5   0   7   46.40   74.79
  -5   0   7    1.10   64.89
  -5   0   7   18.30    3.80
   5   0  -7   12.40   33.70
  -5   0  -7   -0.10   37.70
  -5   0  -7  -59.29   57.79
   5   0   7   14.40    3.70
  -5   0   7   33.80   38.40
  -5   0  -7   14.50    3.70
   5   0   7   23.40   37.00
   5   0  -7 -131.09   59.59
  -5   0  -7   14.80    3.10
  -5   0   7   15.10    1.90
  -5   1  -7  111.09   43.30
  -5  -1   7   75.39    6.00
   5  -1  -7   54.79   65.99
   5   1   7   63.89    5.50
  -5  -1   7   51.49   39.40
   5   1   7   62.19    5.70
  -5  -1   7   81.49   72.89
   5   1   7   65.49    5.50
   5   1   7   54.69   40.60
  -5   1  -7   53.49    5.10
   5  -1  -7   46.40   35.30
   5   1   7    2.10   73.99
  -5   1  -7   56.89    5.70
  -5   1  -7   84.09   73.89
   5  -1   7  131.09   47.10
   5  -1   7  -13.20   74.49
   5  -1   7   55.99    5.40
  -5   1   7   49.99   36.40
   5   1  -7   69.09    3.60
   5   1  -7  143.99   73.09
  -5   1   7   56.29    3.70
  -5  -1  -7   93.79   62.59
  -5  -1  -7   64.69   37.70
  -5   1   7   57.99    5.40
  -5  -1  -7   62.49    5.80
  -5   1   7   70.59   68.29
   5  -1   7   55.69    5.20
  -5  -1  -7   66.49    5.40
   5   1  -7   75.89   39.00
  -5  -2   7  932.21  137.79
  -5   2  -7 1048.70   44.60
   5   2   7 1161.68   44.90
   5   2   7 1091.79   94.59
   5  -2  -7 1014.60   84.49
   5  -2  -7 1060.39  121.19
  -5   2  -7 1090.49   45.80
  -5   2  -7 1060.89  146.29
  -5   2  -7 1120.19   98.79
   5   2   7 1085.29   44.80
   5   2   7 1017.00  140.79
   5   2   7 1095.39   45.60
  -5  -2   7  886.31   94.19
  -5  -2   7 1127.39   45.60
  -5   2   7 1057.39   44.60
   5   2  -7  916.11  131.49
   5  -2   7 1035.90   44.60
   5  -2   7  968.80   97.99
  -5   2   7 1143.89  128.49
  -5   2   7 1028.80   43.00
   5   2  -7  970.20   91.99
  -5  -2  -7 1114.09   92.29
  -5  -2  -7 1135.89   45.70
  -5  -2  -7 1099.49   44.70
   5  -2   7 1257.97  153.88
   5   2  -7 1100.69   43.70
   5  -2   7 1041.10   44.70
  -5  -2  -7 1149.58   45.50
  -5   2   7 1051.99   44.90
  -5   2   7 1007.00   87.79
  -5  -2  -7 1119.29  134.99
  -5  -3   7  201.98   13.80
  -5  -3   7  200.48   95.49
  -5   3  -7  306.37  102.69
  -5   3  -7  225.28   12.10
   5   3   7  234.28   13.20
   5  -3  -7  248.68   48.70
   5   3   7  238.38   12.20
   5   3   7  229.68   12.40
  -5  -3   7  238.18   60.39
  -5   3  -7  249.38   59.89
   5  -3  -7  284.27   84.79
   5   3   7  237.68   12.40
  -5   3  -7  216.78   12.90
   5  -3   7  178.58   71.69
  -5   3   7  217.28   10.80
   5   3  -7  234.68    9.70
   5  -3   7  258.97  122.09
  -5   3   7  209.08   50.79
   5  -3   7  207.08   12.20
  -5   3   7  217.88   11.80
  -5  -3  -7  233.08   12.20
  -5  -3  -7  232.28   13.00
  -5  -3  -7  249.58   13.10
  -5   3   7  315.07   90.29
   5   3  -7  338.07  102.79
   5  -3   7  213.88   11.80
   5   3  -7  241.08   11.60
   5   3  -7  168.38   52.99
  -5   4  -7  420.06   98.79
  -5  -4   7  493.95   23.70
   5  -4  -7  375.56  101.79
  -5   4  -7  463.45   22.30
   5   4   7  511.75   22.90
  -5   4  -7  551.34  148.79
   5   4   7  499.15   23.90
   5  -4  -7  545.45   73.69
   5   4   7  499.95   22.80
   5   4   7  514.15   22.40
  -5   4  -7  461.15   23.40
  -5   4   7  493.85   23.00
   5   4  -7  469.05   19.90
   5   4  -7  376.76   73.89
  -5  -4  -7  465.25   22.40
   5   4  -7  466.45   21.80
  -5  -4  -7  422.36   72.79
   5   4  -7  544.65  120.09
   5   4  -7  661.13  146.79
  -5   4   7  566.24  129.49
  -5  -4  -7  451.15   96.99
   5   4  -7  391.56   88.79
   5  -4   7  518.05   23.00
  -5   4   7  506.95   22.20
  -5  -4  -7  478.55   23.20
  -5   4   7  491.35   21.40
  -5   4   7  446.06   77.79
   5  -5  -7   44.00   52.79
   5   5   7  214.98   66.69
   5   5   7   39.30    5.80
   5   5   7  129.19  121.69
  -5   5  -7 -123.39  104.49
  -5   5  -7   37.60    6.20
  -5   5  -7   39.30   60.89
  -5   5  -7 -248.58  117.09
  -5   5  -7   61.49   50.69
  -5  -5   7   41.70    7.00
   5  -5  -7  104.99   94.09
   5   5   7   34.30    5.70
  -5   5  -7   34.70    5.10
   5   5   7   34.20    6.40
  -5   5   7   39.90  114.89
  -5  -5  -7  -61.49   50.59
  -5  -5  -7  -28.30   99.29
   5   5  -7   47.70   60.59
  -5   5   7  -12.70   72.89
  -5  -5  -7   38.10    5.60
   5   5  -7  114.99  123.09
   5   5  -7   40.40    5.10
  -5  -5  -7   39.10    6.40
   5   5  -7   44.20    3.40
   5   5  -7   69.39   60.89
   5  -5   7   31.00    6.00
   5   5  -7   39.50   95.09
  -5   5   7   33.00    4.70
  -5   5   7   33.10    5.70
  -5   5   7   32.30    4.80
  -5   6  -7  863.91   41.20
   5   6   7  943.71   40.80
  -5  -6   7  947.61   42.00
   5   6   7  948.51   42.00
   5   6   7  751.42  118.99
  -5   6  -7  916.31  202.48
   5  -6  -7  882.31  112.29
   5  -6  -7  911.51  167.18
   5   6   7  737.43  162.18
   5   6   7  961.50   40.70
  -5   6  -7 1044.40  128.19
  -5   6   7  888.31   40.70
  -5  -6  -7  954.00   40.30
   5   6  -7  858.11  183.58
   5  -6   7  915.81   40.70
  -5   6   7  821.22  111.79
  -5   6   7  647.94  156.48
   5   6  -7  963.50   40.00
  -5  -6  -7  907.21  177.38
  -5  -6  -7 1026.50  111.39
  -5  -6  -7  937.81   41.30
  -5   6   7  919.21   39.10
   5   6  -7  813.82  135.29
  -5   6   7  898.81   39.40
  -5  -7   7   10.50    5.90
   5   7   7   11.20    4.30
  -5  -7   7   11.20    5.60
  -5   7  -7  -37.90  154.78
  -5   7  -7 -100.09   72.99
  -5  -8   7    9.50    6.90
   5   8   7   10.00    5.90
   5   8   7    8.80    4.90
  -5   8  -7   18.70    6.40
  -5   8   7   15.70    4.90
  -5   8   7   15.90    5.60
   5  -8   7    0.20    5.30
  -5   8   7   16.10    6.40
   5   8  -7   11.50    5.00
   5  -8   7   25.50    8.40
   5   9   7   41.90   11.10
   5   9   7   57.49   18.90
  -5   9  -7   51.69   10.70
   5   9   7   50.39   11.20
  -5   9   7   51.79    9.10
  -5   9   7   56.39   11.50
   5   9  -7   33.40    9.10
   5   9  -7   40.00    9.40
   5  -9   7   41.30   12.10
  -6   0  -7  519.75  103.09
   6   0   7  803.22  126.59
   6   0   7  593.54   24.30
  -6   0   7  385.26   80.99
   6   0   7  598.34   25.30
   6   0  -7  324.27   88.39
   6   0  -7  432.26   65.29
  -6   0   7  378.56  107.09
  -6   0  -7  587.74   77.09
  -6   0  -7  522.15   24.60
   6   0   7  505.65   79.39
  -6   0  -7  534.15   25.50
  -6   0   7  604.84   25.20
   6  -1  -7 3575.94  222.98
  -6   1  -7 3805.12  199.48
   6   1   7 3776.62  147.89
  -6   1  -7 3831.42  245.08
   6   1   7 3694.73  148.49
  -6  -1   7 3802.22  148.19
  -6   1  -7 3765.22  148.79
   6   1   7 3787.92  147.29
   6   1   7 4086.99  247.88
  -6   1  -7 3718.23  147.89
   6   1   7 3870.11  199.88
   6  -1  -7 3646.84  184.98
  -6  -1  -7 3770.12  193.18
   6  -1   7 3866.11  249.88
   6   1  -7 3785.12  190.48
   6  -1   7 3733.43  147.09
   6  -1   7 3692.63  147.89
  -6  -1  -7 3720.73  147.79
  -6   1   7 3711.13  145.49
  -6  -1  -7 3828.32  237.78
  -6   1   7 3764.62  147.89
   6  -1   7 3736.03  202.68
  -6  -1  -7 3726.53  148.59
   6   2   7  331.97   15.70
  -6   2  -7  330.87   63.19
   6  -2  -7  309.87   61.29
  -6   2  -7  351.06   17.30
  -6   2  -7  274.27  101.69
   6   2   7  335.17   16.40
   6  -2  -7  376.96   88.59
   6   2   7  314.17   17.00
  -6  -2   7  331.57   16.90
  -6   2  -7  350.56   16.50
   6   2   7  321.17   15.80
   6   2   7  469.85   75.79
   6   2   7  358.16  101.09
  -6   2   7  331.97   16.50
   6   2  -7  298.27   96.29
   6  -2   7  326.77   16.10
  -6  -2  -7  145.49   89.19
  -6  -2  -7  354.36   17.20
  -6   2   7  332.97   16.10
   6   2  -7  383.56   67.39
   6  -2   7  264.97   63.39
   6  -2   7  326.37   15.70
  -6  -2  -7  307.67   67.49
   6  -2   7  255.07  103.49
  -6   2   7  328.17   14.50
  -6  -2  -7  358.76   16.50
  -6  -2  -7  357.56   17.10
   6   3   7 2118.69  142.89
   6   3   7 2117.09   83.59
  -6   3  -7 2089.69   85.09
  -6  -3   7 2149.28   84.89
   6   3   7 2170.68   83.89
  -6   3  -7 2092.19   83.99
   6   3   7 2139.89   83.49
   6  -3  -7 1892.61  126.49
   6   3   7 2107.49  194.38
  -6   3  -7 2033.70  146.59
  -6   3  -7 1856.61  200.28
   6   3   7 2157.08   85.39
   6  -3  -7 1944.71  166.58
   6   3  -7 1977.80   81.69
   6  -3   7 2162.08   83.49
  -6  -3  -7 2027.90   83.89
  -6  -3  -7 1769.52  178.58
  -6  -3  -7 2068.09   84.69
  -6  -3  -7 1895.71  133.79
  -6   3   7 2198.48   84.39
   6  -3   7 2357.56  215.98
   6  -3   7 2153.78   83.59
   6   3  -7 1877.41  136.09
   6  -3   7 1941.91  149.49
  -6   3   7 2187.78   83.49
  -6  -3  -7 2029.00   84.79
  -6   3   7 2149.08   82.29
   6   3  -7 2043.60  186.48
   6   4   7 -109.19   88.49
  -6  -4   7   80.09    7.70
   6   4   7   71.29    6.20
   6   4   7   76.49    6.80
   6   4   7   54.99   53.89
   6  -4  -7   46.70   48.20
  -6   4  -7   60.39    6.30
  -6   4  -7   53.69    7.10
   6   4   7   77.49    6.70
  -6   4  -7   16.90   56.89
   6   4   7   73.59    7.60
  -6   4  -7   -9.20  110.69
   6  -4  -7   12.90   84.19
   6  -4   7   57.29    6.20
  -6  -4  -7   69.49    6.70
  -6  -4  -7 -103.49   95.89
  -6   4   7   54.69    5.50
  -6  -4  -7   76.79    7.60
  -6  -4  -7   92.59   54.99
   6   4  -7   85.69  107.39
  -6   4   7   61.89    5.30
  -6   4   7   59.69    6.60
   6  -4   7   53.99    5.60
   6   4  -7   71.89    5.10
   6   4  -7   57.09   51.99
  -6   5  -7  685.63  132.09
  -6   5  -7  389.36  174.98
  -6   5  -7  438.96   83.49
  -6   5  -7  363.46  151.08
   6  -5  -7  517.15  121.69
   6   5   7  329.37  139.99
  -6   5  -7  487.45   23.70
   6  -5  -7  368.66   86.19
   6   5   7  502.45  105.49
   6   5   7  442.56   21.90
  -6  -5   7  456.75   23.50
   6   5   7  436.66   23.50
   6   5   7  451.15   21.90
  -6   5  -7  483.65   22.30
  -6   5   7  465.35   22.60
   6   5  -7  468.55   20.90
  -6   5   7  396.46   76.79
  -6  -5  -7  600.54  139.19
  -6  -5  -7  363.26   75.29
   6  -5   7  458.15   22.00
  -6   5   7  461.95  140.39
   6   5  -7  299.57  122.39
   6   5  -7  463.15   19.00
   6   5  -7  483.35   18.90
  -6  -5  -7  485.15   23.50
  -6  -5  -7  460.45   22.20
  -6   5   7  464.45   21.00
   6   5  -7  541.25   91.19
   6   5  -7  396.76   81.59
   6   5  -7  471.45  148.89
  -6   5   7  456.15   21.10
  -6   6  -7   72.39    7.50
  -6  -6   7   75.69    9.70
  -6  -6   7   74.39   10.10
   6   6   7   68.79    7.60
   6   6   7   71.09    7.90
  -6   6  -7   65.19    8.70
   6   6   7   75.69    9.30
  -6  -6  -7   87.09    9.70
   6   6  -7   75.09    6.70
  -6   6   7   60.29    6.80
  -6  -6  -7   77.39    7.90
   6   6  -7   74.39    5.30
   6   6  -7   81.99    4.90
  -6   6   7   66.79    8.30
  -6   6   7   57.09    6.30
   6  -6   7   61.19    7.80
   6   7   7   59.19    8.90
  -6  -7   7   70.89   11.00
   6   7   7   54.09    8.50
   6   7   7   70.69   11.10
  -6   7  -7   68.09    9.60
   6   7   7   63.89    8.40
  -6   7   7   52.69    9.30
   6   7  -7   57.29    7.00
   6  -7   7   59.19    9.10
  -6   7   7   60.29    7.20
  -6   7   7   63.99    9.40
  -6   7   7   60.09    7.90
  -6  -7  -7   52.99    8.20
   6   7  -7   59.59    6.10
  -6   8  -7  254.67   18.20
   6   8   7  317.17   18.60
   6   8   7  310.87   19.40
  -6   8   7  253.57   15.30
  -6   8   7  274.17   16.60
  -6   8   7  253.97   22.10
   6  -8   7  276.57   16.60
   6   8  -7  289.77   16.40
   6  -8   7  259.47   17.50
  -7   0   7   23.90    4.70
   7   0   7  -10.20   46.20
  -7   0   7  130.19  101.79
   7   0  -7   23.90   65.29
  -7   0  -7  184.68   84.49
   7   0   7  -13.30   92.39
   7   0   7   24.40    4.40
  -7   0  -7   23.60    4.70
  -7   0   7   28.50   46.20
  -7   0  -7   24.60    4.40
  -7   0  -7  -40.10   38.10
   7   0  -7   -4.90   33.80
  -7   1  -7   94.39    7.20
  -7   1  -7   90.99   49.30
  -7  -1   7   93.39    7.60
  -7   1  -7   91.39    7.60
  -7   1  -7   46.60   87.99
   7  -1  -7  150.68   78.69
   7   1   7   90.59    7.40
   7   1   7   53.99   97.79
   7  -1  -7  118.09   43.30
   7   1   7   80.79   53.69
  -7   1   7   89.49    7.10
  -7  -1  -7  115.29   45.40
   7  -1   7  226.88  105.29
  -7  -1  -7  184.28   86.59
   7  -1   7  123.99   52.19
  -7  -1  -7   98.09    7.10
   7   1  -7  150.38   44.00
  -7  -1  -7   96.99    7.60
   7   1  -7  257.17   85.89
   7  -1   7   85.49    6.80
   7   2   7  779.82   36.50
  -7   2  -7 1011.90  231.48
   7  -2  -7  892.31   79.79
   7  -2  -7  880.21  121.69
   7   2   7  776.32   33.90
  -7   2  -7  827.02  129.99
   7   2   7  693.03  103.69
   7   2   7  802.62   35.80
   7   2   7  794.32   33.80
   7   2   7  940.71  172.08
  -7   2  -7  910.41   37.00
  -7   2  -7  882.11   36.10
   7  -2   7  879.11   35.60
  -7  -2  -7  844.02   35.90
   7  -2   7  885.61  107.79
  -7   2   7  839.32   33.50
  -7   2   7  842.22   37.20
  -7  -2  -7  844.02   36.60
   7  -2   7  701.83  153.28
   7   2  -7  639.54  121.69
  -7   2   7  861.81   35.40
   7   2  -7  726.83   84.89
   7   3   7  645.34  145.89
   7  -3  -7  400.26   96.59
  -7   3  -7  332.17   17.40
   7   3   7  362.96   16.00
   7   3   7  373.86   18.80
   7  -3  -7  288.47   57.09
  -7   3  -7  301.57   69.79
  -7  -3   7  365.96   18.30
  -7   3  -7  330.37   18.20
   7   3   7  506.55   86.69
  -7   3  -7  399.86  127.99
   7   3   7  356.26   16.20
   7  -3   7  426.26   96.09
  -7   3   7  365.66   16.70
   7   3  -7  244.18   63.69
  -7   3   7  361.26   17.60
   7  -3   7  350.66   15.50
   7   3  -7  244.58  112.29
  -7  -3  -7  350.66   18.30
   7  -3   7  385.16  136.49
  -7   3   7  366.26   15.70
  -7  -3  -7  260.57  105.49
  -7  -3  -7  326.87   17.30
  -7  -3  -7  208.38   60.69
   7  -3   7  362.16   16.80
  -7  -3  -7  336.07   18.10
  -7   4  -7  299.77   17.20
   7   4   7  377.56   16.50
  -7   4  -7  290.57  132.69
   7   4   7  367.56   16.60
   7   4   7  126.39  116.69
  -7   4  -7  358.96  116.59
   7  -4  -7  246.88   58.89
   7   4   7  371.36   19.30
  -7   4  -7  294.37   18.10
  -7  -4   7  392.16   19.00
   7  -4  -7  320.77  107.39
  -7   4  -7  474.55   89.19
   7   4   7  453.85   90.09
  -7   4  -7  315.77   74.49
  -7   4   7  346.27   16.00
   7  -4   7  352.66   16.60
   7   4  -7  387.86   81.39
   7   4  -7  372.66  113.29
  -7  -4  -7  327.47   17.50
  -7   4   7  358.06   17.80
   7  -4   7  341.67   15.90
   7   4  -7  257.07  126.99
  -7   4   7  337.47   16.30
   7   4  -7  210.28   69.99
  -7  -4  -7  269.17  106.59
  -7  -4  -7  337.37   18.40
  -7  -4  -7  470.95   95.59
   7   5   7  476.75   28.40
   7   5   7  470.15   21.90
  -7   5  -7  472.75   23.20
  -7   5  -7  479.95   24.60
   7   5   7  482.55   23.10
  -7  -5   7  464.85   25.00
   7   5   7  468.25   22.10
  -7  -5   7  486.95   24.60
  -7   5   7  499.15   21.80
  -7   5   7  502.75   21.80
  -7  -5  -7  468.25   24.40
   7  -5   7  485.15   21.70
  -7  -5  -7  478.25   23.20
   7  -5   7  478.15   21.60
  -7   5   7  492.75   23.60
  -7   6  -7  345.87   17.90
   7   6   7  324.97   17.80
  -7  -6   7  304.27   20.20
   7   6   7  318.77   17.10
   7   6   7  326.97   19.60
  -7  -6   7  313.47   19.40
   7   6   7  318.07   16.80
  -7   6   7  338.57   16.80
   7  -6   7  333.07   16.20
  -7  -6  -7  326.47   17.80
   7  -6   7  338.77   16.60
  -7   6   7  339.87   16.10
  -7  -6  -7  329.27   19.70
  -7   6   7  339.67   18.60
   7   6  -7  321.27   14.90
   7   7   7    9.20    4.50
   7   7   7    8.80    6.00
  -7  -7   7    8.30    6.60
  -7   7  -7    7.10    4.30
   7   7   7   -1.70    6.20
  -7   7  -7    2.90    5.00
  -7  -7  -7    5.00    4.70
  -7   7   7    7.20    4.70
   7   7  -7    6.60    3.50
   7  -7   7    7.60    6.40
  -7   7   7   11.50    3.90
   7  -7   7    9.90    4.90
  -7   7   7   13.40    5.70
  -7   7   7    5.00    5.50
   7   7  -7    9.70    2.90
   7   8   7  116.09   11.70
  -7   8  -7  125.19   13.70
   7   8   7  122.19   12.50
   7   8   7   98.09   13.80
   7  -8   7  132.09   11.50
  -7   8   7  130.19    9.80
  -7   8   7  138.59   14.30
   7  -8   7  134.19   14.70
   8   0   7  532.45   91.59
   8   0   7  392.36  118.39
  -8   0   7  388.76   19.20
  -8   0  -7  416.26   19.70
  -8   0   7  430.06  105.89
   8   0   7  392.46   19.60
  -8   0   7  446.56   79.59
   8   0  -7  480.85   65.59
   8   0  -7  317.57   85.69
  -8   0  -7  437.86  109.19
  -8   0  -7  421.26   20.30
  -8   0  -7  348.37   78.29
  -8  -1   7  240.68   14.50
  -8   1  -7  239.98   14.00
  -8   1  -7  254.97   13.70
  -8   1  -7  256.97   59.39
   8   1   7  248.58   65.29
   8   1   7  242.78   13.80
  -8   1  -7  147.39   94.69
   8  -1  -7  218.98   80.99
   8   1   7  343.87  113.69
   8  -1  -7  146.49   43.30
  -8  -1  -7  253.37   14.10
  -8   1   7  330.17   99.29
   8   1  -7  314.17   88.79
  -8  -1  -7  203.68   56.89
   8  -1   7  143.49  118.89
   8  -1   7  248.18   13.10
  -8  -1  -7  247.28   13.50
  -8  -1  -7  137.89  101.59
  -8   1   7  392.46   75.39
   8  -1   7  208.78   65.19
   8   1  -7  176.48   44.70
  -8   1   7  256.17   13.40
  -8   2  -7   59.99    7.10
   8   2   7   41.80   55.49
   8  -2  -7   72.59   43.40
  -8   2  -7   63.79    6.90
   8   2   7   77.29    7.60
  -8  -2   7   72.99    7.40
  -8   2  -7   86.49  114.59
  -8   2  -7  107.59   58.89
   8  -2  -7   38.40   79.49
   8   2   7  224.68  117.69
   8  -2   7  130.19   65.59
   8   2  -7  130.29   89.69
  -8  -2  -7   99.69  100.99
  -8  -2  -7   64.29    6.80
  -8  -2  -7   59.39    7.00
  -8   2   7   78.89    7.00
  -8   2   7   79.09    6.20
  -8   2   7   96.49   52.19
  -8  -2  -7  -16.30   51.09
   8   2  -7   15.80   93.89
  -8   2   7  127.19   97.29
   8   2  -7   39.70   49.40
   8  -2   7   69.79    6.30
   8   2  -7   54.39   50.09
   8  -2   7  109.39  124.39
  -8   2   7   77.19    4.30
  -8  -3   7  524.55   24.20
   8   3   7  537.45  177.28
   8   3   7  516.85   24.80
  -8   3  -7  603.74  149.39
  -8   3  -7  478.05   23.50
  -8   3  -7  530.35  100.09
  -8   3  -7  474.35   24.20
  -8   3   7  511.15   22.10
  -8  -3  -7  507.85   94.79
  -8   3   7  503.85   21.00
   8   3  -7  457.85   79.99
  -8  -3  -7  484.75   24.20
   8   3  -7  470.25  114.89
  -8  -3  -7  324.47  119.49
  -8   3   7  529.05   23.50
  -8  -3  -7  468.15   23.30
   8  -3   7  508.35   22.30
  -8  -3  -7  468.75   23.90
   8   4   7   11.00    5.00
   8   4   7   14.10    4.70
  -8   4  -7   14.30    4.70
  -8  -4   7   20.70    6.00
  -8   4  -7   15.60    4.40
  -8  -4   7   15.80    5.10
  -8   4   7   18.00    4.10
  -8   4   7   21.50    6.20
  -8  -4  -7   11.90    4.20
   8  -4   7   15.30    4.60
  -8   4   7   20.60    4.40
  -8  -4  -7    6.20    4.70
  -8   5  -7  982.50   44.40
  -8  -5   7 1019.00   44.70
  -8  -5   7 1040.10   45.80
   8   5   7  988.70   43.00
  -8   5  -7  972.00   43.20
   8   5   7 1002.80   45.10
   8  -5   7  958.50   41.00
  -8   5   7 1008.20   43.60
  -8  -5  -7 1016.90   44.60
  -8   5   7  987.30   41.40
  -8   5   7  964.90   40.90
  -8   6  -7  362.46   19.70
   8   6   7  353.16   22.30
   8   6   7  361.06   19.80
  -8   6  -7  370.16   21.10
  -8  -6   7  364.96   21.80
  -8   6   7  377.26   18.40
  -8  -6  -7  366.96   19.50
  -8   6   7  363.96   20.30
   8  -6   7  353.16   17.00
  -8   6   7  358.96   16.90
   8   7   7 1470.15   64.79
  -8   7  -7 1474.85   64.09
  -8   7  -7 1451.05   62.09
  -8  -7  -7 1495.45   62.19
  -8   7   7 1409.86   58.69
  -8   7   7 1463.65   63.29
  -8   7   7 1479.85   63.99
  -8   7   7 1445.56   60.79
   9   0   7   73.89   67.09
  -9   0  -7  -29.90  100.79
   9   0   7  231.78  138.89
  -9   0  -7   38.60   52.69
  -9   1  -7  107.49   59.29
   9   1   7   89.99    8.40
  -9   1  -7   84.69    8.30
  -9   1  -7   96.39    8.20
  -9   1  -7  121.59  115.39
  -9  -1   7   94.69    8.30
  -9   1   7   97.79    8.60
  -9  -1  -7   84.89    8.20
   9   1  -7  280.37   83.39
  -9  -1  -7   82.59    8.30
  -9  -1  -7   89.89  109.59
  -9  -1  -7   79.39   56.49
   9   1  -7  196.88   44.60
   9  -1   7  107.69    7.80
  -9   2  -7  322.67   18.00
   9   2   7  369.96   18.70
  -9  -2   7  335.07   18.40
  -9  -2   7  337.17   17.60
  -9   2   7  312.27   15.80
  -9   2   7  322.07   17.00
   9   2  -7  651.23  116.29
   9  -2   7  303.77   16.10
  -9  -2  -7  362.36   18.30
   9   2  -7  288.27   66.19
  -9  -2  -7  365.96   17.70
  -9  -3   7  558.54   26.00
  -9  -3   7  541.95   26.90
  -9   3  -7  554.54   26.40
   9   3   7  521.85   25.30
  -9   3  -7  536.35   25.50
   9   3   7  541.55   26.60
  -9   3   7  505.95   25.00
   9  -3   7  506.05   23.50
  -9   3   7  486.45   23.10
  -9   3   7  502.75   22.30
  -9  -3  -7  572.64   26.40
  -9  -3  -7  567.04   25.60
  -9  -3  -7  590.24   26.70
   9   4   7  104.49   10.90
  -9   4  -7  104.19   10.50
  -9  -4   7  111.79   12.40
   9   4   7  119.19   10.50
  -9  -4   7  108.09   11.20
  -9   4  -7  101.99    9.60
  -9  -4  -7   90.29    9.40
  -9   4   7  117.29    7.60
   9  -4   7  112.29    7.40
  -9   4   7  120.09   10.10
  -9  -4  -7   97.69   11.10
  -9   4   7  113.49    7.00
  -9  -5   7  225.18   18.40
   9   5   7  239.58   16.60
  -9  -5   7  244.78   16.80
  -9   5  -7  237.78   23.50
  -9   5  -7  249.78   15.30
   9   5   7  238.68   15.80
  -9  -5  -7  231.28   14.90
  -9   5   7  238.48   15.50
  -9  -5  -7  261.27   21.20
  -9   6  -7  582.64   29.70
   9   6   7  587.24   30.50
  -9  -6   7  554.84   30.20
  -9   6  -7  579.04   28.20
  -9   6   7  571.24   26.20
  -9   6   7  549.25   28.60
 -10   0   7  923.81   41.50
 -10   0  -7 1014.30   42.90
  10   0   7  957.90   41.90
 -10   0   7  968.80   41.70
 -10   0  -7 1011.90   42.30
 -10   1  -7 1616.94   65.39
  10   1   7 1534.15   64.69
 -10   1  -7 1576.84   64.79
 -10  -1   7 1576.44   64.39
 -10  -1   7 1575.34   64.99
 -10   1   7 1411.36   64.89
 -10  -1  -7 1504.15   64.49
 -10  -1  -7 1524.55   64.99
 -10   1   7 1577.74   63.19
 -10   1   7 1631.54   64.19
  10  -1   7 1618.74   63.79
 -10  -2   7  124.39   10.70
 -10   2  -7  104.89   10.50
 -10   2  -7  121.89   10.40
 -10  -2   7  122.09   11.60
  10   2   7  113.99   10.80
 -10   2   7  126.79    8.50
 -10   2   7  129.49    8.00
  10   2  -7   19.00   61.99
 -10   2   7  132.79   10.20
 -10  -2  -7   98.79   10.30
  10  -2   7  134.59    8.80
  10   2  -7   79.79   36.40
 -10  -2  -7   98.89    9.70
 -10  -3   7  885.51   39.50
 -10  -3   7  862.01   40.60
  10   3   7  879.71   41.90
 -10   3  -7  906.01   40.10
 -10   3  -7  821.92   45.20
 -10   3   7  907.11   38.80
 -10  -3  -7  904.31   39.00
 -10  -3  -7  884.11   39.80
 -10   4  -7   35.60    9.30
 -10   4  -7   31.80    8.20
  10   4   7   36.50    9.60
 -10  -4   7   23.20    8.50
 -10  -4   7   43.10   10.40
  10   4   7   37.40    9.80
 -10  -4  -7   27.80    7.80
 -10  -4  -7   33.30   11.10
 -10   4   7   22.50    5.30
  11   0   7   11.50    5.10
 -11   0  -7   12.00    5.20
 -11   0  -7   13.60    5.30
 -11   0   7   11.40    5.20
 -11   0   7   11.20    5.60
 -11  -1   7  104.89   11.20
 -11  -1   7  108.69   10.60
 -11   1  -7  103.59   10.90
  11   1   7  107.79   10.80
 -11   1  -7   79.89   15.50
 -11   1   7  112.69   10.30
 -11   1   7   90.99   12.30
 -11  -1  -7  104.59   10.30
 -11  -1  -7  102.29   10.80
 -11   1   7   92.39    7.80
   0   0   8 1638.24   62.39
   0   0   8 1620.24   64.29
   0   0  -8 1505.85  108.59
   0   0   8 1756.52  149.29
   0   0  -8 1444.56   63.69
   0   0  -8 1501.65   62.39
   0   0   8 1610.74  113.19
   0   1  -8    3.80    1.50
   0   1   8    4.20    1.80
   0   1   8    7.70   34.20
   0  -1  -8    4.20    1.70
   0   1  -8  -25.00   34.60
   0   1  -8   39.90   57.29
   0   1   8    2.10    1.90
   0  -1   8   19.20   40.50
   0  -1  -8    8.50   33.80
   0   1   8   57.09   78.09
   0   1  -8    3.00    2.10
   0  -1  -8    2.50    2.00
   0  -1   8    1.50    2.10
   0  -1   8  -50.19   53.59
   0  -1  -8  -28.90   50.19
   0   1   8    2.30    2.10
   0   2  -8 2555.44  153.28
   0   2   8 2437.86  197.68
   0  -2   8 1997.90  197.08
   0   2   8 2503.55   99.59
   0   2   8 2419.56  147.39
   0   2  -8 2724.93  209.78
   0  -2   8 2450.85   99.79
   0   2   8 2537.65   97.99
   0   2   8 2530.35   99.49
   0   2  -8 2503.65   99.69
   0  -2   8 2397.66  155.98
   0  -2  -8 2462.85   98.19
   0  -2  -8 2508.75   99.59
   0  -2  -8 2533.85  148.99
   0   2  -8 2476.25   97.79
   0  -2  -8 2397.96  192.38
   0   3  -8  -94.99   62.09
   0   3   8    1.20    2.10
   0  -3  -8   -8.70   35.60
   0  -3   8   -0.90    2.30
   0   3  -8    0.30    2.00
   0  -3  -8   22.20   63.29
   0  -3  -8    0.40    1.70
   0   3  -8   51.39   42.60
   0   3   8   23.60   58.19
   0  -3   8  -60.89   40.80
   0   3   8   -0.50    1.90
   0   3  -8   -0.30    1.40
   0   3   8   73.99   41.70
   0  -3   8   10.80   74.99
   0   3   8    1.90    1.80
   0   4   8  400.56  101.29
   0  -4  -8  468.45   22.50
   0   4  -8  496.85   85.39
   0  -4   8  445.46   81.09
   0   4   8  488.15   80.79
   0  -4  -8  752.32  115.49
   0   4  -8  486.15   21.80
   0  -4  -8  488.45   78.29
   0   4  -8  491.35   23.80
   0   4   8  507.55   23.70
   0   4   8  507.45   23.70
   0   4  -8  515.25  114.49
   0   4   8  522.45   22.30
   0  -4   8  455.45  115.19
   0  -4   8  505.25   24.40
   0   5  -8    5.50    2.20
   0   5   8   10.00    2.90
   0  -5  -8    8.80    3.10
   0   5   8    5.50    3.00
   0   5  -8    7.60    3.20
   0  -5   8  -43.50  124.89
   0  -5  -8   23.60   82.29
   0   5   8  -49.70  103.59
   0  -5   8   95.09   70.49
   0   5  -8  102.39   93.69
   0   5   8  -13.30   50.69
   0   5   8    8.70    3.40
   0  -5   8    8.80    3.90
   0   5  -8   75.99   60.79
   0  -5  -8   56.59   54.19
   0  -5  -8    9.70    3.40
   0   6  -8  120.59   65.29
   0   6  -8  113.79    9.60
   0   6   8  100.79    7.90
   0  -6  -8  151.98   66.89
   0  -6  -8   39.60   94.89
   0  -6  -8  119.09    9.20
   0   6   8   99.29    9.00
   0   6   8   14.60   86.69
   0   6   8  132.19   62.79
   0   6  -8   -9.30  128.79
   0   7   8  -59.09   70.19
   0  -7   8    7.60    5.00
   0  -7  -8    5.60   69.89
   0   7   8    8.80    3.80
   0   7  -8  137.49  186.08
   0   7   8    7.50    5.10
   0   7  -8 -153.68  179.88
   0  -7  -8   92.09  124.79
   0   7  -8  149.69   88.09
   0   7   8  193.88  152.28
   0   7   8   14.20    4.80
   0   7  -8  134.89   84.59
   0   8  -8  441.36  229.38
   0   8  -8  299.97   18.60
   0  -8  -8  174.68  145.49
   0   8  -8  285.07  197.18
   0   8   8  310.17   19.60
   0   8   8  289.47   18.10
   0  -8  -8  263.47  100.49
   0   8   8   73.29  190.18
   0   8  -8  117.79  106.19
   0   8   8  300.67   16.90
   0  -8   8  310.77   19.70
   0   8   8  291.87   18.50
   0   8   8  202.28   94.79
   0  -8  -8  313.57   17.90
   0   9  -8  -49.00  218.88
   0   9   8  -99.89  107.19
   0  -9  -8  -93.99  111.39
   0  -9  -8  259.87  229.68
   0   9   8   94.19  214.08
   0   9  -8   63.79  233.18
   0  10   8  596.54   30.80
   0  10   8  593.04   32.40
   0  10  -8  522.75   30.70
   1   0  -8    0.40    1.20
  -1   0   8  -41.40   71.79
  -1   0   8    4.90   33.90
  -1   0  -8  -38.40   34.10
   1   0   8   -0.10    1.40
   1   0   8  -42.40   29.50
   1   0  -8    0.20    1.40
   1   0   8    9.40   61.89
   1   0  -8    7.60   74.79
   1   0   8    0.50    1.50
  -1   0  -8    0.40    1.70
  -1   0  -8    1.60    1.40
  -1   0  -8 -121.09   67.99
   1   0  -8  -80.19   33.00
  -1   0   8   -0.20    1.20
   1   0   8    2.20    2.10
  -1   0   8    1.10    2.00
  -1   1  -8  114.29   41.40
  -1  -1   8   83.49   76.89
  -1  -1   8  267.67   62.39
   1   1   8   81.59   86.19
  -1   1  -8  206.18   63.49
  -1   1  -8  132.89    8.00
  -1   1  -8  127.19    9.00
   1  -1  -8  130.99    8.80
   1  -1  -8  131.79    7.80
   1  -1  -8  237.58   75.99
   1   1   8  181.78   45.60
   1  -1  -8  110.49   41.10
  -1   1   8  139.39    7.70
   1   1  -8  371.96   84.19
   1  -1   8  144.69   47.90
   1   1  -8  173.38    9.60
  -1   1   8  138.09    9.10
  -1  -1  -8  171.68    8.50
   1  -1   8  146.79    9.50
  -1   1   8   97.49   60.79
  -1   1   8  100.49   41.20
  -1   1   8  133.69    8.80
  -1  -1  -8  116.79   58.29
   1   1  -8  174.18   48.60
  -1  -1  -8  167.18    9.60
   1  -1   8   81.89   66.79
  -1  -1  -8  162.58   40.30
   1   1  -8  176.88    8.10
   1  -2  -8   48.80   41.50
  -1   2  -8   46.10   40.90
   1  -2  -8   60.39    4.70
  -1   2  -8  -12.80   61.59
   1   2   8   52.69    5.50
  -1   2  -8   56.59    5.70
   1  -2  -8   54.19    5.40
  -1  -2   8   48.70    6.60
  -1  -2   8  103.59   70.59
  -1  -2   8   69.29   45.60
   1  -2  -8  -37.20   57.39
   1   2   8  102.59   43.10
   1   2   8   24.50   76.89
  -1   2  -8   55.09    4.50
   1   2   8   50.39    5.20
   1  -2   8   59.99    6.10
  -1   2   8   54.39   39.70
  -1  -2  -8   49.50    5.30
   1   2  -8   56.39    4.20
  -1  -2  -8   27.90   36.10
   1  -2   8   57.89   48.50
  -1   2   8   65.79    4.60
   1   2  -8   85.09   89.99
  -1  -2  -8   56.29    4.70
  -1   2   8   54.29    6.30
   1  -2   8   80.09   96.09
   1   2  -8   48.30    5.30
   1   2  -8   39.40   38.90
  -1   2   8  160.58   81.59
  -1  -2  -8    2.00   75.49
  -1   2   8   62.19    5.40
  -1   3  -8  540.15   79.39
  -1   3  -8  566.64  119.09
  -1  -3   8  584.14   26.70
   1   3   8  579.74   26.10
   1   3   8  526.45  104.89
  -1   3  -8  555.24   26.20
   1  -3  -8  473.55   72.49
   1   3   8  545.05   76.09
   1   3   8  566.04   24.60
   1  -3  -8  573.34   24.90
  -1   3  -8  553.14   24.50
   1   3   8  571.94   26.10
  -1  -3   8  672.63   90.59
  -1  -3   8  430.66  123.19
   1  -3  -8  472.45  109.79
   1   3  -8  595.74   24.20
  -1   3   8  627.64  103.99
   1   3  -8  596.44   26.30
   1   3  -8  628.34  111.19
  -1   3   8  540.35   74.39
  -1  -3  -8  588.84   74.09
   1  -3   8  536.25   26.80
  -1   3   8  535.55   25.80
   1  -3   8  460.05  123.99
  -1  -3  -8  597.94  102.59
   1   3  -8  734.33   85.09
  -1  -3  -8  596.44   25.20
   1  -3   8  396.76   82.79
  -1   3   8  541.95   25.70
  -1   4  -8   70.49    7.10
   1   4   8   76.79    6.00
  -1   4  -8   76.39    5.70
   1   4   8   78.79    7.10
   1   4   8  131.79   53.19
   1  -4  -8   78.69    6.20
   1   4   8  122.59   78.69
  -1  -4   8   -0.90   50.69
  -1  -4   8   78.59    7.60
   1  -4  -8  225.88  106.69
   1  -4  -8   71.69   50.19
  -1   4  -8   56.89  119.49
   1   4   8   78.09    6.90
  -1   4  -8  198.78   60.59
  -1  -4   8  322.17  129.49
   1   4  -8  110.79   92.49
  -1   4   8   78.69    7.10
  -1   4   8  166.88   92.69
   1  -4   8   76.89    7.70
  -1   4   8   74.79    6.70
   1  -4   8   25.10   56.19
  -1  -4  -8   80.59    6.40
  -1   4   8  127.99   57.19
  -1  -4  -8  135.39   78.39
   1   4  -8   64.59   54.09
  -1   4   8   78.49    5.90
   1  -4   8  260.07  102.69
   1   4  -8   77.49    5.40
  -1  -4  -8   71.09    6.60
  -1  -4  -8   97.89   46.80
   1   4  -8   75.99    7.00
  -1   5  -8  835.22  147.49
  -1   5  -8  734.53   34.50
   1   5   8  789.52   34.40
   1  -5  -8  623.54   93.09
  -1   5  -8  575.64  103.99
   1   5   8  883.51  160.78
   1   5   8  771.92   32.80
  -1   5  -8  735.33   32.30
   1   5   8  657.83   96.79
   1  -5  -8  748.53   33.10
   1  -5  -8  485.35  107.79
   1   5   8  754.32   34.20
   1  -5   8  571.64  166.98
   1  -5   8  897.71  122.59
  -1   5   8  714.33   96.29
  -1  -5  -8  724.13  153.68
  -1  -5  -8  675.43   91.39
   1   5  -8  807.72   34.80
  -1   5   8  726.83   33.80
  -1   5   8  691.83  152.38
   1   5  -8  718.83  109.89
  -1  -5  -8  835.32   34.30
   1   5  -8  809.82   32.10
  -1  -5  -8  791.82   33.40
   1  -5   8  738.63   34.80
   1   5  -8  728.83  158.08
  -1   5   8  738.83   32.40
   1  -6  -8   10.20    3.70
   1   6   8 -121.49   82.19
   1   6   8   -5.00   61.69
  -1   6  -8 -159.98  130.79
  -1   6  -8   76.39   68.59
   1   6   8    7.80    3.70
   1   6   8   10.70    4.30
  -1   6  -8   10.70    4.20
  -1   6  -8   17.90  134.39
  -1   6  -8  -83.39   61.79
  -1  -6  -8    6.70    3.20
   1   6  -8  126.49  102.29
   1   6  -8    0.70   70.19
   1   6  -8  -29.80   60.59
  -1   6   8   14.20    3.60
   1   6  -8   35.30  106.29
  -1  -6  -8   48.40   63.09
  -1   6   8   15.90    4.60
   1   6  -8    7.80    3.90
  -1   6   8  -21.90   55.79
  -1   6   8   44.70   86.39
  -1  -6  -8  107.49  101.89
   1   7   8  143.29  164.48
   1   7   8   54.69   75.39
   1  -7  -8  128.89   77.79
   1   7   8   18.70    5.40
  -1   7  -8   69.39   85.79
   1  -7  -8   28.80  143.49
  -1   7  -8   -0.10  157.98
   1   7   8   24.00    6.80
  -1   7  -8  -28.50   74.69
  -1   7  -8   14.00    4.70
   1   7   8   23.70    7.90
  -1   7  -8 -107.79  135.49
  -1   7   8   38.20  144.29
  -1   7   8   20.60    6.10
  -1  -7  -8  -68.59  125.69
   1   7  -8  -82.99   74.29
  -1  -7  -8 -116.49   81.29
  -1   7   8   16.00    5.50
   1   7  -8  163.98  183.78
   1   7  -8   46.60   87.09
   1   7  -8  164.78  120.59
   1   7  -8   24.30    7.80
  -1  -7  -8   20.90    6.60
   1  -7   8   18.60    5.90
  -1   7   8  -90.49   67.99
  -1   7   8   21.00    4.80
  -1   8  -8  302.77  188.38
   1   8   8  219.38   15.50
  -1  -8   8  216.18   16.50
  -1   8  -8  251.27  100.39
   1  -8  -8  301.67   92.39
   1  -8  -8 -112.39  124.69
   1   8   8  213.98   13.70
  -1   8  -8  251.07  115.49
  -1   8  -8  632.14  179.08
  -1   8  -8  215.58   16.00
   1   8   8  226.08   15.50
   1   8   8  164.98   86.29
   1   8   8  210.18   14.90
   1  -8  -8  201.18   14.30
   1   8   8  274.97  186.38
  -1   8   8  296.17  190.48
   1   8  -8  265.07  111.09
   1   8  -8  273.87  238.88
   1   8  -8  816.32  233.28
  -1   8   8  200.48   15.70
  -1  -8  -8  126.29  176.88
  -1   8   8  200.18   13.40
  -1  -8  -8  134.59   92.89
  -1  -8  -8  233.78   15.30
  -1   8   8  190.08   14.80
  -1   8   8  186.18   84.99
   1  -8   8  216.88   16.40
   1   8  -8  222.28   15.30
  -1   8   8  200.28   15.10
   1   9   8  396.56   22.90
  -1   9  -8  461.05  133.59
   1   9   8  387.46   23.60
   1  -9  -8  278.27  112.89
   1  -9  -8   94.59  224.78
  -1   9  -8  387.16   23.20
   1  -9  -8  389.66   22.20
  -1   9  -8  499.15  231.08
   1   9  -8  489.35  219.48
   1  -9   8  375.16   23.00
   1   9  -8  358.96   22.60
  -1   9   8  424.76   24.30
   1   9  -8   48.10  137.49
  -1   9   8  402.56   22.60
   1  10   8   22.30    8.50
   1  10   8   29.90    8.90
  -1  10  -8   30.10   10.70
  -1  10   8   34.30   11.10
  -1  10   8   30.40    8.30
   1  10  -8   31.90   11.10
   2   0   8  474.25   22.20
  -2   0   8  492.55   68.59
   2   0   8  488.85  112.49
   2   0   8  384.46   66.99
  -2   0  -8  484.25   22.30
  -2   0  -8  626.24   70.79
   2   0  -8  437.66   67.09
   2   0  -8  463.55   89.89
  -2   0   8  456.95   20.00
  -2   0   8  462.65   21.90
   2   0  -8  478.95   20.20
  -2   0   8  636.44  116.69
  -2   0  -8  475.35   20.90
   2   0  -8  473.65   21.70
  -2   0  -8  451.15   93.09
   2   0   8  444.96   21.60
  -2  -1   8  123.39   61.89
  -2  -1   8  144.89   45.90
   2   1   8  115.09    8.10
  -2   1  -8  138.29   42.60
  -2   1  -8  106.49    6.80
   2   1   8   -5.90   56.19
  -2  -1   8  119.59    8.30
   2   1   8   68.69   42.00
   2  -1  -8  127.49   42.80
   2   1   8  113.19    7.20
   2  -1  -8   97.59   68.69
   2   1   8  118.29    7.90
  -2   1  -8   14.90   81.79
   2  -1  -8  110.89    6.60
  -2   1  -8  109.49    8.00
   2  -1  -8  108.19    7.50
   2   1  -8   34.00   84.49
  -2  -1  -8   97.79   39.30
  -2  -1  -8  115.89   79.59
  -2   1   8  123.29    8.10
   2  -1   8  123.89    8.50
   2   1  -8  110.19    7.60
  -2   1   8  166.28   80.89
   2   1  -8  112.69    6.30
  -2  -1  -8  114.19    7.10
   2   1  -8  109.89   45.50
   2  -1   8   27.20   61.49
  -2   1   8  118.89    6.50
   2  -1   8  155.68   49.00
  -2   1   8   80.59   39.40
  -2  -1  -8  105.89    7.90
  -2  -2   8  258.07  114.69
   2   2   8  218.58   76.79
   2   2   8  186.78   10.60
  -2   2  -8  198.38   50.69
   2  -2  -8  162.08    9.10
  -2   2  -8  157.68   89.59
   2   2   8  187.38   10.80
  -2   2  -8  154.18   10.40
   2   2   8  292.67   64.19
   2   2   8  191.98    9.70
  -2   2  -8  183.18    9.50
  -2  -2   8  227.68   62.99
   2  -2   8  187.38   50.29
   2  -2   8  184.18   11.00
  -2   2   8  185.28   10.30
  -2  -2  -8  158.38    9.30
  -2  -2  -8  192.68   46.40
   2   2  -8  151.88    9.90
   2   2  -8  157.58    8.50
  -2  -2  -8  155.08   10.30
   2   2  -8  180.28   53.99
   2   2  -8  112.89   70.99
  -2  -2  -8  178.18   65.59
   2  -2   8  254.77   98.19
  -2   2   8  192.88    9.00
  -2  -3   8   99.49   59.29
  -2  -3   8  122.29    8.90
  -2   3  -8  111.19    8.40
  -2   3  -8  169.58   84.09
   2   3   8  114.69    8.40
  -2   3  -8  173.38   54.09
   2   3   8   93.39   11.10
   2  -3  -8  112.39    7.20
   2   3   8  228.58   97.99
  -2  -3   8  113.59   82.09
  -2   3  -8  111.59    7.20
   2   3   8  120.29    7.40
   2   3   8   58.29   45.20
   2  -3  -8   48.80   66.19
   2  -3  -8  158.78   49.40
   2   3  -8  122.39    6.60
   2  -3   8  121.29   81.29
  -2  -3  -8  122.89    8.70
  -2   3   8  108.59    8.20
  -2   3   8  115.09    6.90
   2   3  -8  162.28   52.39
  -2   3   8   85.59   44.70
   2  -3   8  183.48   58.99
  -2  -3  -8  159.68   47.90
   2   3  -8  114.29    8.10
  -2  -3  -8  121.39    7.70
  -2  -3  -8  191.28   87.69
   2   3  -8  103.39  102.19
  -2   3   8  108.09   93.29
  -2   3   8  113.79    7.90
  -2  -4   8  782.02  105.59
  -2   4  -8  711.33   31.10
   2   4   8  866.61  157.38
  -2   4  -8  547.85  123.39
   2   4   8  773.42   31.40
   2  -4  -8  757.32   88.89
   2  -4  -8  717.23   31.40
  -2  -4   8  746.63   33.40
  -2   4  -8  573.94   91.29
   2  -4  -8  676.23  114.29
  -2   4  -8  706.23   32.90
   2   4   8  747.23   32.70
   2   4   8  739.73   32.90
  -2  -4   8  678.63  134.89
   2   4   8  738.53   92.49
   2   4  -8  738.33   32.60
   2   4  -8  724.63   98.59
   2  -4   8  476.35  122.89
  -2   4   8  678.83  147.69
   2  -4   8  630.54  100.49
  -2   4   8  676.23   88.89
  -2   4   8  732.43   32.30
  -2  -4  -8  808.22  136.29
   2   4  -8  734.93  150.48
  -2   4   8  741.43   32.60
  -2   4   8  720.23   30.80
  -2  -4  -8  558.94   79.59
   2   4  -8  741.03   30.30
   2  -4   8  732.23   33.20
  -2  -4  -8  727.83   31.70
  -2  -4  -8  729.13   32.40
  -2   5  -8  125.79  127.39
   2  -5  -8  115.99  108.69
  -2  -5   8   96.89    9.20
  -2   5  -8  103.79    8.80
   2   5   8   90.19    8.30
  -2   5  -8  102.69    7.10
  -2   5  -8  160.98   62.89
   2   5   8  246.68   97.19
   2   5   8   84.29    8.20
   2  -5  -8   91.69   55.49
   2   5   8   82.49   52.19
   2   5  -8   95.29    6.30
   2   5  -8   11.60  112.19
  -2   5   8  110.39    8.20
  -2  -5  -8   95.49    7.60
   2   5  -8   94.09    8.20
  -2   5   8  107.39    8.60
  -2   5   8  105.79    7.20
  -2   5   8   99.69   81.19
  -2  -5  -8   60.59   80.19
  -2  -5  -8   51.99   51.59
   2  -5   8   42.50  141.89
   2   5  -8   67.69   81.09
  -2   5   8   22.50   51.39
   2  -5   8  147.99   73.39
   2  -5   8  104.69    9.20
   2   6   8 1884.71  227.38
  -2   6  -8 2187.78  174.58
   2   6   8 1913.61  155.48
   2  -6  -8 2120.39  193.98
  -2   6  -8 1910.91  236.88
  -2   6  -8 2039.60  156.68
   2   6   8 2071.19   84.99
   2   6   8 2053.69   84.79
   2  -6  -8 2010.10  154.68
  -2   6  -8 2057.49   84.99
  -2   6  -8 2324.17  251.87
  -2   6   8 2029.10   83.69
   2   6  -8 2120.69   84.59
   2   6  -8 2160.18  172.88
  -2   6   8 1997.10  153.28
  -2   6   8 2027.10   84.19
   2   6  -8 1838.42  233.88
  -2   6   8 2021.20   82.29
  -2  -6  -8 2077.29   83.49
   2  -6   8 2056.89   85.09
  -2  -6  -8 1887.81  155.78
  -2   6   8 1501.55  205.28
   2   6  -8 2347.57  164.58
   2   6  -8 2235.98  224.98
  -2  -6  -8 1835.72  195.28
   2   7   8    8.50    5.10
   2  -7  -8    3.90    3.70
  -2   7  -8    9.80    4.50
  -2   7  -8  -42.40   70.89
  -2   7  -8  221.68  179.88
  -2   7  -8  358.96  169.48
   2   7   8    9.20    5.60
   2  -7  -8    3.30   68.89
  -2   7  -8 -161.08   76.59
   2   7   8  151.48  115.49
   2  -7  -8  -52.39  100.89
   2   7   8  -24.60   75.49
   2   7  -8   90.59   80.09
   2   7  -8   12.40   75.69
  -2   7   8    9.30    4.30
   2   7  -8 -129.39  157.58
  -2  -7  -8   42.30   72.19
  -2  -7  -8 -203.78  104.69
   2   7  -8   10.10    4.40
  -2   7   8    9.60    4.00
  -2   7   8 -146.19   99.59
  -2   7   8    9.40    4.40
   2   7  -8   65.39  165.28
  -2   7   8  -27.20   71.19
  -2  -7  -8   10.50    4.60
  -2   7   8    8.80    4.60
  -2  -8   8 1505.85   65.59
   2   8   8 1520.35   64.59
   2  -8  -8 1476.05   62.69
   2  -8  -8 1217.28  155.48
  -2   8  -8 1368.46  292.77
   2   8   8 1517.45   63.39
   2  -8  -8 1149.19  232.58
   2   8   8 1550.64   65.19
  -2   8  -8 1466.35  175.58
   2   8   8 1521.45   64.09
  -2  -8  -8 1397.96   63.39
  -2  -8  -8  878.51  222.18
  -2   8   8 1523.35   63.59
   2   8  -8 1456.65   63.99
  -2   8   8 1496.65   61.99
   2   8  -8 1396.26  302.17
   2  -8   8 1540.35   65.29
  -2   8   8 1468.45   63.99
   2   8  -8 1471.55  194.28
   2  -9  -8   49.30  327.07
   2   9   8   85.49   11.60
   2  -9  -8  111.09   12.20
   2  -9  -8  317.77  133.69
   2   9   8   94.99   12.50
  -2   9  -8  125.09   12.80
   2  -9   8  106.39   13.40
   2  -9   8  131.99   15.50
   2   9  -8  393.16  216.48
  -2   9   8  130.09   13.20
  -2   9   8  118.19   12.00
   2   9  -8 -188.88  132.29
  -2   9   8   78.19  129.99
  -2   9   8  174.58  188.98
   2   9  -8   98.29   11.80
   3   0  -8  116.69   78.39
   3   0  -8   37.10   42.80
  -3   0  -8   43.60   39.10
  -3   0  -8   81.29   77.39
  -3   0   8   32.20   78.49
   3   0   8   71.09   43.70
   3   0   8  -40.00   58.59
  -3   0   8  -14.40   38.30
   3  -1  -8  674.93  115.49
   3  -1  -8  528.35   72.69
   3   1   8  571.34   26.00
  -3  -1   8  658.23   81.29
   3   1   8  560.04   24.90
  -3   1  -8  590.04   26.30
  -3  -1   8  541.45  115.69
  -3  -1   8  566.64   26.10
  -3   1  -8  565.04   71.19
  -3   1  -8  461.85  107.59
   3  -1  -8  570.14   24.10
  -3   1  -8  592.84   25.00
   3   1   8  674.03  125.99
   3   1   8  593.74   77.29
   3   1   8  555.44   25.80
  -3   1   8  581.84   23.80
  -3  -1  -8  536.85   25.90
   3   1  -8  584.04   76.39
   3  -1   8  603.94   25.80
   3  -1   8  602.84   26.30
  -3  -1  -8  544.45   24.90
  -3  -1  -8  652.33  107.09
  -3   1   8  591.84   25.90
  -3  -1  -8  604.64   68.69
  -3   1   8  466.95   74.59
   3   1  -8  539.85   23.60
   3  -1   8  738.93  136.39
   3   1  -8  546.85   25.30
   3   1  -8  370.66   99.09
   3  -1   8  509.45   82.29
  -3   1   8  566.44  121.99
   3   2   8   29.10    4.40
   3  -2  -8  131.89   84.29
   3   2   8 -105.49   86.19
   3   2   8   57.39   42.70
  -3   2  -8    3.00   40.20
   3  -2  -8   29.10    3.50
   3   2   8   32.40    4.80
  -3  -2   8   51.49   42.90
   3   2   8   31.40    4.00
   3  -2  -8   84.09   41.50
  -3   2  -8   33.00    3.90
  -3   2  -8   38.30   84.89
  -3  -2   8   34.30    5.40
  -3   2  -8   30.40    4.60
  -3  -2   8  119.59   81.29
   3  -2   8   29.60    5.00
  -3  -2  -8   74.59   74.89
   3   2  -8  119.29   86.19
  -3  -2  -8   32.50    4.70
  -3   2   8   24.00    5.30
  -3  -2  -8   21.50   35.50
   3   2  -8   31.20    4.20
   3   2  -8   45.10   47.50
   3  -2   8   43.10   47.50
  -3   2   8   30.80    3.30
   3   2  -8   33.00    3.00
  -3   2   8   30.90    4.30
  -3  -2  -8   34.70    4.10
  -3   2   8    3.10   76.69
  -3   2   8   11.50   38.50
   3  -2   8   88.89   75.59
   3  -3  -8  785.22  172.88
   3  -3  -8  707.23   28.70
   3   3   8  570.64  113.29
  -3  -3   8  769.72  147.39
   3   3   8  645.94   30.10
   3   3   8  654.93   28.80
  -3   3  -8  704.23   30.60
  -3   3  -8  585.44  108.59
  -3   3  -8  694.33   29.00
   3  -3  -8  476.95  110.69
   3   3   8  647.04   81.99
  -3  -3   8  640.44   30.30
  -3  -3   8  664.73   91.19
   3   3   8  635.34   31.40
  -3   3  -8  614.74   83.49
   3  -3   8  445.06   93.39
   3  -3   8  700.13   30.50
  -3  -3  -8  654.83   29.10
   3   3  -8  687.83   29.70
  -3   3   8  679.43   29.90
   3   3  -8  678.73   27.50
   3   3  -8  901.01  212.68
  -3   3   8  653.63   79.49
  -3  -3  -8  547.85   75.19
  -3  -3  -8  656.63   30.20
   3  -3   8  837.12  165.08
  -3   3   8  658.23   29.40
  -3   3   8  673.93   28.10
  -3  -3  -8  537.25   99.69
  -3   3   8  707.63  136.49
  -3   4  -8  679.93   89.79
  -3   4  -8  585.54  122.29
   3   4   8  578.24   91.29
   3  -4  -8  805.62  116.89
  -3  -4   8  606.04  100.79
   3  -4  -8  744.23   84.39
  -3   4  -8  657.83   30.60
   3   4   8  475.65  129.89
  -3  -4   8  516.35  139.99
   3   4   8  682.33   30.20
  -3  -4   8  668.23   30.80
   3   4   8  685.63   29.90
  -3   4  -8  668.13   29.00
   3   4   8  654.63   30.40
  -3   4   8  642.74   28.10
  -3   4   8  694.23   87.09
   3   4  -8  634.94  130.89
  -3   4   8  667.53   29.60
   3  -4   8  653.23   30.50
  -3   4   8  669.23  146.29
   3  -4   8  813.92  182.28
  -3   4   8  668.43   30.00
   3   4  -8  672.33   27.50
  -3  -4  -8  639.14   80.39
   3   4  -8  662.33   29.80
  -3  -4  -8  654.63  108.79
  -3  -4  -8  674.13   30.10
   3  -4   8  527.45  105.49
   3   4  -8  432.06   91.99
  -3  -4  -8  660.53   29.40
  -3   5  -8   31.20   60.69
   3   5   8  169.98   64.09
   3   5   8   32.80   88.39
   3  -5  -8  111.79   56.39
  -3   5  -8   45.40  129.09
   3  -5  -8  107.89  109.89
   3   5  -8   14.60   53.99
  -3  -5  -8  -19.60  102.99
  -3   5   8   71.39    6.90
  -3   5   8  185.18   90.49
   3  -5   8  109.09  108.29
  -3   5   8   67.49    6.10
   3  -5   8   76.39    8.10
  -3   5   8  146.99   60.29
   3   5  -8   64.49  130.79
   3   5  -8  119.09   69.09
  -3   5   8   68.09    7.20
  -3  -5  -8   58.29   52.69
   3   6   8   46.60    7.20
  -3   6  -8  -40.60  144.19
   3   6   8   45.40    7.20
   3   6   8   52.39    7.40
  -3   6  -8   56.59    7.70
  -3   6  -8   33.20   69.89
  -3   6  -8  217.78  118.59
   3  -6  -8  109.29  103.69
   3   6   8  -38.50   96.69
   3  -6  -8   46.10   67.09
  -3   6  -8  153.28   70.49
   3   6   8   34.80   67.59
  -3  -6   8   41.20    7.90
   3   6  -8  169.98  136.29
  -3   6   8  -95.89   89.59
  -3   6   8   85.89   66.29
  -3  -6  -8   19.60  128.49
  -3   6   8   60.09    6.80
   3   6  -8  201.48  152.08
  -3  -6  -8  -13.80   59.39
  -3   6   8   61.19    6.30
   3   6  -8  182.88   77.09
   3  -6   8   63.59    8.50
   3   6  -8   50.79   64.09
  -3   6   8   49.70    7.10
  -3  -6  -8   46.40    6.30
   3   6  -8   52.89    6.80
  -3   7  -8  296.67   92.39
  -3   7  -8  232.88  150.08
  -3   7  -8  245.78   99.39
   3  -7  -8  246.18  148.79
   3   7   8  212.48   13.30
  -3   7  -8   15.40  117.09
  -3   7  -8  242.08   15.50
   3  -7  -8  255.37   81.99
   3   7   8  169.78   80.09
   3   7   8 -122.39  155.98
   3   7   8  213.68   14.80
  -3  -7   8  208.58   15.80
  -3  -7  -8  327.97   83.29
  -3  -7  -8  232.98   13.90
  -3   7   8  217.38   13.80
   3   7  -8  221.48   14.50
   3   7  -8  298.37  100.79
  -3   7   8  207.68   12.90
  -3   7   8  211.28   14.40
   3   7  -8  304.17  175.18
  -3  -7  -8  292.97  158.78
  -3  -7  -8  210.28   14.90
  -3   8  -8   62.29    9.60
  -3  -8   8   57.69   11.50
   3  -8  -8  -79.89   85.99
   3   8   8   60.59    9.80
   3  -8  -8  -15.50  194.68
   3   8   8   55.09   10.20
   3  -8   8   68.69   11.40
   3   8  -8  218.78  117.09
  -3   8   8   63.79   15.80
  -3   8   8  -42.70   94.29
  -3   8   8   54.59    8.40
  -3   8   8   69.49    9.00
  -3   8   8   66.09   10.20
   3   8  -8  184.68  167.28
   3   8  -8   74.79    9.60
  -3   8   8   36.10  192.48
   3   9   8  359.66   22.10
   3   9   8  378.96   22.60
   3   9   8  398.16   25.30
  -3   9  -8  340.67   22.20
   3  -9   8  323.07   22.70
   3  -9   8  323.27   21.20
   3   9  -8  356.16   21.40
  -3   9   8  335.37   22.40
  -3   9   8  333.27   20.30
   4   0  -8 2908.41  168.08
  -4   0  -8 3067.39  171.88
  -4   0   8 3024.20  119.59
   4   0   8 3236.58  222.88
  -4   0  -8 2873.51  118.59
   4   0  -8 2900.71  117.19
   4   0   8 3153.28  179.38
  -4   0  -8 2954.70  213.68
  -4   0   8 3090.49  170.98
  -4   0  -8 2911.51  119.89
  -4   0   8 2979.60  116.99
   4   0   8 3041.90  119.49
  -4   0   8 3214.88  219.78
   4   0  -8 2907.51  205.58
   4   0   8 3050.39  119.59
   4   0   8 3043.60  118.69
  -4  -1   8  207.88   94.89
   4   1   8  309.57   15.80
   4   1   8  587.54  131.89
  -4  -1   8  220.08   56.79
   4  -1  -8  321.57   14.00
   4  -1  -8  390.16   85.19
  -4   1  -8  308.07   14.90
   4   1   8  414.86   75.79
  -4   1  -8  301.57   67.29
   4   1   8  302.97   15.70
   4   1   8  310.67   15.00
   4  -1  -8  313.77   61.79
  -4  -1   8  273.87   19.10
  -4   1  -8  334.47   99.29
  -4   1  -8  318.07   16.20
   4   1  -8  356.06  101.49
  -4   1   8  296.47   17.10
   4   1  -8  295.87   13.40
  -4  -1  -8  385.46   93.19
  -4   1   8  325.87   13.60
   4   1  -8  301.97   65.09
  -4  -1  -8  287.27   15.80
  -4   1   8  312.47   64.89
   4  -1   8  363.46   79.69
  -4   1   8  282.37   84.59
   4   1  -8  301.27   14.80
   4  -1   8  317.47   15.90
  -4  -1  -8  293.07   14.80
   4  -1   8  316.17   15.50
   4  -1   8  440.36  120.89
  -4  -1  -8  280.97   62.69
  -4  -2   8 1209.38   53.19
  -4  -2   8 1072.79  157.98
   4   2   8 1234.18   53.19
   4   2   8 1025.20  162.28
  -4  -2   8 1334.27  108.89
  -4   2  -8 1296.87   53.59
   4  -2  -8 1255.47  145.09
   4   2   8 1244.28   51.99
   4   2   8 1251.57   52.99
   4   2   8 1257.27  111.49
  -4   2  -8 1217.68  109.39
  -4   2  -8 1309.87  165.38
   4  -2  -8 1339.77  102.29
  -4   2  -8 1318.77   52.19
  -4  -2  -8 1314.77   52.39
   4  -2   8 1347.07  154.88
   4   2  -8 1315.77   52.29
   4  -2   8 1271.67   53.19
   4   2  -8 1424.56  109.19
  -4   2   8 1228.18   52.79
  -4   2   8 1169.98  147.19
  -4  -2  -8 1343.47   53.69
  -4  -2  -8 1282.17  147.89
  -4  -2  -8 1175.88  103.79
   4  -2   8 1252.07   52.59
  -4   2   8 1287.67  104.09
   4   2  -8 1242.88  151.78
  -4   2   8 1212.48   50.69
   4  -2   8 1325.57  119.19
  -4   2   8 1215.48   52.39
   4   2  -8 1337.57   50.39
   4   3   8   61.99    6.30
  -4  -3   8    9.80   52.29
   4   3   8   69.49    5.90
  -4   3  -8   45.40    6.10
  -4  -3   8   67.69    7.00
  -4   3  -8   87.09   53.09
  -4   3  -8   44.10    5.10
   4   3   8   19.50   70.49
  -4  -3   8   29.20  106.89
   4   3   8   61.39    6.40
   4  -3  -8   29.60   44.00
   4  -3  -8   16.70   87.59
  -4   3  -8   78.19   80.69
   4   3   8   84.49   47.10
  -4   3   8   49.60    6.00
   4   3  -8   41.10   48.80
  -4  -3  -8   59.29    6.40
  -4   3   8   50.69    5.50
   4  -3   8   29.70   84.59
  -4   3   8   51.69    4.60
  -4  -3  -8   65.89    6.40
  -4  -3  -8   81.69   78.89
  -4   3   8   86.89   46.30
   4   3  -8   59.39    5.60
   4   3  -8   -3.20   87.69
   4  -3   8    9.60   56.09
  -4  -3  -8   54.39    5.50
   4  -3   8   52.89    6.40
   4   3  -8   58.79    3.90
  -4  -3  -8   48.10   45.60
  -4   3   8   24.30   83.89
  -4  -4   8  185.78   69.89
  -4   4  -8  141.79    9.00
   4   4   8  137.79    9.90
   4   4   8  137.49    9.00
  -4  -4   8  122.59   10.20
   4  -4  -8   -8.90   97.79
   4   4   8  133.09   85.39
  -4   4  -8  150.88   10.40
  -4  -4   8  226.48  130.79
   4   4   8  136.49    9.80
  -4   4  -8  153.28   82.29
   4   4   8  125.89   10.00
  -4   4  -8  195.48   57.49
   4  -4  -8  219.08   58.69
   4   4   8  203.98   62.39
   4  -4   8   23.70  105.59
   4  -4   8  195.88   76.39
  -4   4   8  153.28  103.49
   4   4  -8  144.19    7.20
   4   4  -8   81.79   85.09
   4   4  -8  158.48   63.59
  -4  -4  -8  165.78   10.50
  -4   4   8  141.69   56.59
  -4  -4  -8  121.29   49.60
  -4   4   8  135.79    8.10
  -4   4   8  139.39    9.10
  -4  -4  -8  214.28  103.29
   4   4  -8  144.39    9.40
  -4   4   8  137.99    9.70
   4  -5  -8   89.79  101.49
  -4   5  -8   44.90    6.90
  -4  -5   8   39.70    7.30
  -4   5  -8   45.00    5.40
   4   5   8   35.60    6.60
  -4   5  -8   66.59  137.69
   4   5   8   48.90   61.29
   4  -5  -8   63.09   59.19
  -4   5  -8   88.09   62.99
   4   5   8   40.10    6.60
   4   5   8   40.90    6.20
   4   5   8  119.79  120.89
  -4  -5  -8   97.49   55.89
   4  -5   8   48.70    7.30
  -4   5   8    5.80   93.19
   4   5  -8   96.99   65.09
   4   5  -8    3.50   57.09
  -4   5   8   50.19    5.30
   4   5  -8  -52.19  133.39
  -4   5   8  124.59   56.89
   4   5  -8   38.50    5.80
   4   5  -8   64.59  123.29
  -4   5   8   46.30    6.50
  -4  -5  -8   38.30    6.50
  -4  -5  -8  -36.50   75.09
  -4   5   8   48.10    5.80
   4   5  -8   38.40    3.80
  -4  -5  -8   36.40    5.70
   4   6   8  215.38   12.50
   4   6   8  391.16   89.79
  -4   6  -8  172.98   13.70
  -4  -6   8  215.78   14.80
   4   6   8  314.67  147.59
  -4   6  -8  176.58   13.10
   4   6   8  216.78   13.80
  -4   6  -8  325.17  153.98
   4   6   8  210.28   16.30
   4  -6  -8  139.79   72.29
  -4   6  -8  222.68   80.99
  -4   6  -8    7.10  154.08
   4   6   8  220.58   13.80
  -4   6   8  208.18   12.60
  -4  -6  -8  455.95  131.29
  -4   6   8  202.98   13.50
  -4  -6  -8  184.78   12.40
   4   6  -8  190.88   10.20
  -4   6   8  213.78   11.90
   4   6  -8  127.89  145.59
  -4  -6  -8  193.88   14.50
   4   6  -8  205.08   12.90
   4   6  -8  118.19   75.29
  -4  -6  -8  134.29   69.69
   4   6  -8  300.97  168.18
   4  -6   8  220.48   14.30
   4   6  -8  216.98   88.49
   4   7   8  431.76   30.80
  -4   7  -8  635.34  241.58
  -4   7  -8  371.06  113.49
  -4   7  -8  446.46   24.60
   4  -7  -8  261.07   89.79
   4  -7  -8  647.44  173.78
  -4  -7   8  463.75   25.40
   4   7   8  487.95   22.90
   4   7   8  470.25   24.80
  -4  -7  -8  496.85   23.50
   4   7  -8  477.55   23.50
   4   7  -8  483.25  113.79
  -4   7   8  435.56   22.70
  -4   7   8  349.96   94.79
  -4   7   8  434.86   21.90
  -4  -7  -8  470.45   24.50
  -4   7   8  251.07  166.48
   4   7  -8   -3.80  174.58
  -4   7   8  441.56   23.80
   4   8   8  289.57   18.40
  -4   8  -8  297.67   19.20
   4   8   8  297.97   18.90
   4   8   8  277.37   18.90
   4  -8   8  286.97   19.20
  -4   8   8  268.57   16.40
  -4   8   8  285.77   19.40
  -4   8   8  287.17   17.00
   4   8  -8  297.27   17.60
   4   9   8   57.99   12.20
   4   9   8   68.39   11.90
  -4   9  -8   49.40   11.20
   4   9   8   66.49   11.50
   4  -9   8   54.59   13.50
   4   9  -8   52.89   12.20
   4  -9   8   68.49   12.40
  -4   9   8   54.09   11.80
  -4   9   8   54.89   12.40
  -5   0  -8   55.99   70.39
  -5   0  -8    0.60    1.90
  -5   0  -8 -143.79   99.69
   5   0  -8   43.00   39.20
   5   0   8    1.40    2.20
  -5   0   8   33.60   81.59
  -5   0  -8    1.80    2.40
   5   0  -8    2.40    1.50
   5   0   8    3.30    2.60
  -5   0   8   52.79   45.20
   5   0  -8  -27.00   68.09
   5   1   8   62.79    6.30
  -5   1  -8   81.29    7.10
  -5  -1   8  247.98   96.79
   5   1   8   70.89    6.10
  -5  -1   8   82.69   49.40
  -5  -1   8   63.79    7.00
   5  -1  -8   25.80   40.80
   5   1   8   72.59    6.70
   5  -1  -8    7.30   75.89
  -5   1  -8   81.49    6.20
  -5   1   8   61.79   77.59
   5   1  -8   45.50   42.80
  -5   1   8   65.19    4.40
   5   1  -8  160.98   76.89
   5  -1   8   66.09    6.10
  -5   1   8   79.69   44.80
  -5  -1  -8   74.79    6.80
  -5   1   8   57.69    7.50
   5   1  -8   78.19    4.30
  -5  -1  -8   72.59    6.10
   5  -1   8   73.49    6.60
   5   2   8   50.99    6.00
  -5  -2   8   49.70    6.20
   5  -2  -8   71.69   43.90
  -5  -2   8   87.09   52.39
   5   2   8   32.70   55.89
   5  -2  -8  -57.59   78.79
  -5   2  -8   55.89   54.29
  -5  -2   8   19.30   94.09
  -5   2  -8   62.19    5.50
  -5   2  -8  -19.60   77.19
   5   2   8   61.19    5.90
  -5   2  -8   62.59    6.40
   5   2   8 -145.39   98.69
   5   2   8   55.89    6.00
  -5   2   8  250.67   99.29
  -5   2   8   51.99    5.50
  -5  -2  -8   70.29    5.90
   5   2  -8  118.99   49.30
  -5  -2  -8   66.19    6.50
  -5   2   8   52.29    5.90
  -5  -2  -8  -12.70   62.49
  -5   2   8   39.00   45.00
   5  -2   8   49.80    5.40
   5   2  -8   66.29    3.70
   5   2  -8  -76.29   89.89
   5  -2   8   49.10    6.00
  -5   2   8   51.49    4.10
   5   2  -8   65.69    5.10
  -5  -2  -8   42.60   44.00
  -5  -3   8  303.27   16.30
   5  -3  -8  234.98   95.49
  -5   3  -8  273.27   14.80
   5   3   8  306.67   16.20
  -5  -3   8  290.77   71.69
  -5  -3   8  552.54  135.49
   5   3   8  314.47   15.10
   5  -3  -8  377.76   72.39
  -5   3  -8  281.27   16.10
   5   3   8  315.17   15.70
   5   3   8   34.30  101.99
  -5   3  -8  363.86   72.89
  -5   3  -8  166.48  122.39
  -5  -3  -8  308.47   15.20
  -5   3   8  276.57   14.70
   5   3  -8  202.28  110.99
   5   3  -8  296.17   14.40
   5   3  -8  251.07   61.19
  -5   3   8  268.97   15.20
   5   3  -8  294.77   12.50
  -5  -3  -8  401.46   75.29
  -5  -3  -8  304.67   15.80
   5  -3   8  272.27   14.80
  -5   3   8  185.18   97.39
  -5   3   8  251.27   61.29
   5  -3   8  268.37   15.30
  -5  -3  -8  295.57   84.69
  -5   3   8  272.07   13.40
  -5  -3  -8  295.87   16.10
  -5   4  -8  425.56   90.79
   5   4   8  399.06   19.40
  -5   4  -8  362.66   20.00
   5   4   8  402.26   19.80
   5  -4  -8  377.96   80.99
   5  -4  -8  369.26  113.49
   5   4   8  396.96   20.50
   5   4   8  373.26  136.49
  -5  -4   8  395.66   20.50
   5   4   8  233.38   70.39
  -5   4  -8  424.86  135.59
  -5   4  -8  365.76   18.60
  -5  -4  -8  383.36   73.49
  -5   4   8  415.06   17.80
   5  -4   8  202.58   82.69
  -5  -4  -8  303.27  115.99
   5   4  -8  412.46   78.89
   5  -4   8  187.68  126.29
  -5   4   8  110.79  111.49
   5  -4   8  416.76   19.90
  -5  -4  -8  361.26   18.90
  -5   4   8  410.16   19.70
  -5   4   8  415.46   19.00
  -5  -4  -8  361.36   19.60
   5   4  -8  320.67  124.39
   5   4  -8  365.96   18.30
   5   4  -8  366.96   16.20
  -5   5  -8  544.65  102.59
  -5   5  -8  824.42  182.38
  -5   5  -8  569.94   27.30
   5   5   8  620.84   29.50
   5  -5  -8  673.03  140.39
   5   5   8  598.84   28.10
   5   5   8  453.15  105.59
  -5  -5   8  632.54   29.60
  -5   5  -8  578.54   29.10
   5   5   8  407.76  140.19
   5  -5  -8  496.55   99.19
   5   5   8  623.74   28.20
  -5  -5  -8  715.83  129.09
   5  -5   8  576.24   28.20
  -5  -5  -8  614.14   28.70
  -5   5   8  582.24   27.10
   5   5  -8  657.03  149.49
  -5   5   8  579.24   28.10
  -5  -5  -8  621.54   28.00
   5   5  -8  626.64   24.90
   5   5  -8  626.24   27.40
   5   5  -8  560.84  107.49
   5   5  -8  737.53  170.58
  -5  -5  -8  573.24  102.19
  -5   5   8  589.44   26.30
  -5   6  -8   19.30    6.80
   5  -6  -8  116.19   74.09
   5   6   8   25.40    6.60
   5   6   8   26.50    7.10
   5   6   8   40.40    6.90
  -5   6  -8   55.19   74.19
  -5   6  -8   22.80    5.30
   5  -6  -8 -139.59  138.29
   5   6   8   34.50    7.40
  -5  -6   8   26.60    8.20
  -5   6  -8  -12.30  152.88
  -5  -6  -8   28.30    7.80
  -5   6   8 -108.59  130.39
  -5   6   8   31.70    5.80
  -5   6   8   26.00    5.70
  -5   6   8   42.50   73.99
   5   6  -8  470.45  179.08
   5  -6   8   28.60    7.50
   5   6  -8   20.40    5.60
  -5  -6  -8   25.70    6.50
  -5   6   8   30.60    7.20
   5   6  -8   23.50    3.70
   5   6  -8   29.80   82.49
   5   7   8  105.29   14.20
  -5   7  -8  107.39   11.10
  -5  -7   8   91.99   12.30
   5   7   8   90.69    9.90
   5   7   8   99.09   10.60
  -5   7   8  101.29    9.10
   5   7  -8   98.49    6.80
   5   7  -8   96.49    9.50
   5  -7   8  110.89   11.50
  -5   7   8  111.09    9.50
  -5  -7  -8  100.79    9.70
  -5   7   8  105.09   11.00
  -5   8  -8   81.19   11.50
   5   8   8   98.59   12.10
   5   8   8  106.59   11.60
   5   8   8   96.69   12.10
  -5   8   8   88.09   10.00
  -5   8   8   96.69   12.40
  -5   8   8   95.99   12.30
   5   8  -8  100.19   12.30
   6   0  -8  448.16   76.19
   6   0   8  565.74   25.70
   6   0  -8  485.55  108.69
  -6   0  -8  568.34   25.20
  -6   0  -8  552.54  127.19
  -6   0  -8  431.96   82.99
  -6   0  -8  569.24   26.20
   6   0   8  607.64   90.89
   6   0   8  611.34  132.79
   6   0   8  558.14   24.90
  -6   0   8  554.84   25.50
  -6  -1   8  411.26   19.80
   6  -1  -8  331.27   71.79
   6  -1  -8  398.96  102.09
   6   1   8  410.96   19.90
   6   1   8  412.06   19.20
  -6   1  -8  419.66  118.89
  -6   1  -8  421.86   19.40
  -6   1  -8  381.36   79.59
   6   1   8  505.45   88.39
   6   1   8  256.07  116.79
  -6   1  -8  403.36   20.20
   6   1   8  401.76   19.00
  -6   1   8  397.36   19.50
   6   1  -8  385.86   77.99
   6  -1   8  395.16   18.80
   6   1  -8  192.18  102.49
   6  -1   8  510.55  129.69
   6  -1   8  394.56   19.30
  -6  -1  -8  404.36   20.10
  -6  -1  -8  271.67   61.29
  -6  -1  -8  393.26   19.10
   6  -1   8  506.25   88.79
  -6   1   8  389.96   16.70
  -6  -1  -8  363.06  112.59
   6   2   8  249.88   12.40
  -6   2  -8  202.08   13.10
  -6   2  -8  201.88   12.30
   6  -2  -8  146.49   48.90
   6   2   8  250.07   13.80
   6   2   8  175.38   63.89
   6  -2  -8  221.78   95.89
  -6   2  -8  177.08   71.29
   6   2   8  238.28   12.70
   6   2   8  282.27  113.69
  -6   2  -8  429.66  153.58
   6   2   8  227.88   12.70
  -6  -2   8  249.78   13.60
   6  -2   8  263.47  125.89
   6  -2   8  235.18   12.60
  -6   2   8  237.58   12.60
   6  -2   8  231.38   12.50
   6   2  -8  245.88  104.39
  -6  -2  -8  197.98   13.10
  -6  -2  -8  201.18  127.39
  -6  -2  -8  255.07   92.79
  -6   2   8  254.27   13.20
   6   2  -8  137.69   51.89
  -6   2   8  239.58   10.70
   6  -2   8  131.29   63.99
  -6  -2  -8  202.78   12.30
   6  -3  -8  118.49   51.49
   6   3   8  163.88  112.09
  -6   3  -8  160.28   10.20
   6  -3  -8  158.88   93.79
   6   3   8  164.48   11.50
  -6  -3   8  172.38   11.50
   6   3   8   62.09   59.09
   6   3   8  168.58   10.40
  -6   3  -8  165.78   11.40
  -6   3  -8  223.68   67.49
   6   3   8  165.08   10.00
  -6   3  -8   56.79  105.89
   6  -3   8  174.98   10.10
  -6  -3  -8  166.68   10.40
   6  -3   8   75.39   67.99
  -6  -3  -8  143.49   58.09
   6  -3   8  169.48  130.39
  -6  -3  -8  142.79  113.19
  -6  -3  -8  170.48   11.20
  -6   3   8  163.78   10.70
  -6   3   8  159.48    9.90
   6  -3   8  159.28   10.20
   6   3  -8  -42.70  102.79
   6   3  -8   40.40   55.29
   6   3  -8  159.18    8.60
  -6  -3  -8  165.28   11.30
  -6   3   8  164.88    8.70
   6   4   8  379.16   19.00
  -6   4  -8  371.46   18.90
   6   4   8  424.46  157.78
   6   4   8  446.16   99.79
   6   4   8  383.76   20.50
  -6   4  -8  363.56   20.10
  -6  -4   8  381.86   20.20
  -6   4  -8  346.97   84.59
  -6   4  -8  233.68  111.79
   6  -4  -8  369.96   85.49
   6  -4  -8  289.97  116.59
   6   4   8  387.66   18.80
  -6  -4  -8  475.15  112.59
   6  -4   8  420.56   94.29
  -6   4   8  375.56   17.30
  -6   4   8  306.97  119.69
  -6   4   8  334.97   74.69
  -6  -4  -8  406.86   20.30
   6   4  -8  368.76   68.69
  -6   4   8  359.46   19.20
  -6  -4  -8  393.26   19.20
  -6   4   8  379.66   18.40
  -6  -4  -8  395.46   74.09
   6  -4   8  378.86   18.90
   6  -4   8  518.25  159.78
   6  -4   8  381.76   18.50
   6   4  -8  173.28  113.79
   6   4  -8  313.77   78.29
   6   4  -8  365.76   17.30
   6   4  -8  437.36  144.09
   6   5   8  111.49   13.90
  -6   5  -8  155.88   71.79
  -6   5  -8  147.99   10.30
   6   5   8  145.29   10.40
   6   5   8  145.99   10.50
  -6   5  -8  147.09   11.70
  -6  -5   8  144.59   12.00
  -6   5  -8  180.78  141.49
  -6   5   8  150.98   11.10
   6   5  -8  139.29    6.90
  -6   5   8  153.68    9.70
  -6  -5  -8  143.29   11.40
   6  -5   8  171.18   11.00
   6   5  -8  142.69    9.10
  -6  -5  -8  139.29   10.90
  -6   5   8  146.59    9.20
   6   6   8 1312.47   58.29
   6   6   8 1319.67   56.39
   6   6   8 1349.47   56.59
   6   6   8 1286.27   55.79
  -6  -6   8 1282.87   57.99
  -6   6  -8 1328.77   58.09
  -6   6  -8 1336.87   56.09
  -6  -6  -8 1341.77   57.69
  -6   6   8 1284.37   54.89
   6   6  -8 1384.76   55.29
  -6   6   8 1270.77   56.89
  -6   6   8 1301.67   55.39
   6  -6   8 1315.47   56.39
   6   6  -8 1392.96   52.69
  -6  -6  -8 1429.26   56.79
  -6  -7   8   97.49   13.30
   6   7   8  100.99   10.90
   6   7   8  104.89   12.20
  -6   7  -8  106.49    9.60
   6   7   8   98.39   10.60
  -6   7  -8  102.99   14.90
   6   7  -8   96.69    6.70
   6  -7   8  115.19   11.50
   6   7  -8   89.79    9.40
  -6   7   8  109.99   11.80
  -6  -7  -8  100.69   16.40
  -6   7   8  122.19    9.50
  -6   7   8  113.09    9.80
   6   7  -8   92.89    7.70
  -6   8  -8 1681.63   76.19
   6   8   8 1815.32   76.99
   6   8   8 1810.82   74.79
  -6   8   8 1821.62   76.79
   6   8  -8 1682.33   72.89
  -6   8   8 1776.92   72.99
   7   0   8    2.70    3.00
  -7   0   8    1.10    3.00
  -7   0  -8    4.90   96.49
   7   0  -8  -73.69   40.80
  -7   0  -8 -109.79   47.50
   7   0   8    1.70    2.30
   7   0  -8  -34.50   85.89
  -7   0  -8    3.00    2.80
   7   0   8 -188.38  109.59
  -7   0  -8    1.50    3.00
   7   0   8   43.20   56.09
   7  -1  -8   88.49   44.20
   7  -1  -8   90.29   88.89
   7   1   8   81.39   57.09
  -7  -1   8   87.39    8.10
   7   1   8   87.49    7.80
  -7   1  -8   89.09    8.10
  -7   1  -8   67.49   56.69
   7   1   8   88.69    6.00
  -7   1  -8   83.89    7.30
   7   1   8  -91.09  107.09
   7   1   8   89.79    6.50
  -7   1  -8    4.00  103.09
  -7   1   8   90.59    4.60
  -7  -1  -8   92.29    7.50
   7   1  -8   56.19   94.79
   7  -1   8   88.69    6.30
   7  -1   8   84.29   62.69
  -7   1   8   97.49    7.90
  -7  -1  -8   83.39    8.00
   7   1  -8  188.08   55.89
  -7  -1  -8  -40.20  103.79
   7  -1   8   90.39    7.50
  -7  -1  -8   82.09   51.59
   7  -1   8   25.20  116.79
  -7   2  -8  707.23  161.28
  -7  -2   8  714.23   31.70
   7   2   8  719.63   29.60
   7   2   8  579.94  145.79
   7  -2  -8  593.54   84.59
  -7   2  -8  702.43   32.10
   7   2   8  724.63   32.30
   7  -2  -8  667.33  139.29
   7   2   8  701.53   29.80
   7   2   8  812.72  102.39
  -7   2  -8  698.93   31.10
  -7   2  -8  647.54  103.59
   7  -2   8  421.16  137.49
   7  -2   8  699.13   29.50
   7  -2   8  694.93   30.70
  -7  -2  -8  675.43   31.00
  -7  -2  -8  814.62  158.28
   7   2  -8 1102.99  165.38
  -7   2   8  700.93   31.20
  -7  -2  -8  678.73   95.49
  -7   2   8  689.23   30.50
  -7   2   8  692.33   28.40
  -7  -2  -8  697.23   32.00
   7   2  -8  752.92   96.69
   7  -2   8  596.84  110.59
  -7   3  -8  320.07   17.40
  -7   3  -8  284.07  135.69
  -7   3  -8  327.97   16.80
  -7   3  -8  360.66   82.29
   7   3   8  287.07   17.20
   7   3   8  287.07   14.80
   7   3   8  250.87   72.79
   7   3   8  123.69  129.89
  -7  -3   8  300.67   17.00
   7   3   8  286.27   15.10
   7  -3   8  258.17   80.49
  -7   3   8  306.27   15.40
  -7  -3  -8  305.67   17.10
  -7  -3  -8  236.48  115.29
  -7  -3  -8  313.87   16.90
   7   3  -8  246.18   61.89
   7  -3   8  305.27   14.80
  -7   3   8  319.77   16.50
  -7  -3  -8  311.47   16.30
   7  -3   8  312.57   15.70
  -7  -3  -8  294.57   67.79
   7  -3   8  380.66  149.39
  -7   3   8  311.37   14.00
  -7   4  -8  292.07   16.80
  -7   4  -8  278.57   15.40
   7   4   8  269.57   14.50
   7   4   8  280.57   16.80
   7   4   8  285.87   15.60
   7   4   8  271.37   14.20
  -7  -4   8  277.47   16.50
   7  -4   8  269.87   14.50
  -7   4   8  267.87   14.20
  -7  -4  -8  293.87   16.70
  -7   4   8  254.07   14.70
  -7   4   8  282.57   15.70
  -7  -4  -8  292.87   15.70
   7  -4   8  252.47   13.90
   7   5   8  270.77   17.40
   7   5   8  267.97   16.00
   7   5   8  268.27   15.20
  -7   5  -8  287.87   15.90
  -7   5  -8  290.97   19.70
  -7  -5   8  277.57   17.60
   7   5   8  263.17   14.80
  -7  -5  -8  243.58   16.80
  -7   5   8  295.47   14.30
  -7   5   8  300.77   14.70
   7  -5   8  290.27   14.70
  -7  -5  -8  260.17   15.80
   7  -5   8  280.37   14.80
  -7   5   8  276.87   16.40
   7   6   8  521.15   27.10
  -7  -6   8  539.45   28.20
  -7   6  -8  547.65   27.90
  -7   6  -8  567.84   26.30
   7   6   8  538.35   25.80
   7   6   8  478.55   30.70
   7   6   8  526.55   25.40
  -7   6   8  537.85   27.10
   7   6  -8  529.55   23.20
  -7  -6  -8  523.75   26.10
  -7   6   8  549.95   24.70
  -7   6   8  548.65   24.80
   7  -6   8  539.35   25.30
   7  -6   8  535.95   24.80
   7   7   8   88.09   10.80
   7   7   8   90.69    9.90
  -7   7  -8   58.49   10.80
  -7   7  -8   71.09    9.10
   7   7   8   84.29   11.90
  -7   7   8   65.09    9.30
  -7   7   8   59.89    8.30
  -7  -7  -8   95.09   10.30
  -7   7   8   64.09   11.70
  -8   0  -8  845.92  108.99
  -8   0   8 1241.08   49.30
  -8   0  -8  863.51  170.08
  -8   0  -8 1137.79   49.80
   8   0   8 1206.18   49.30
   8   0   8 1468.35  333.37
  -8   0  -8 1120.29   48.90
   8   0   8 1507.45  171.58
  -8   1  -8  402.96   19.70
  -8  -1   8  370.56   19.40
   8   1   8  382.36   19.80
  -8   1  -8  403.66   20.40
  -8   1  -8  228.38  128.19
  -8   1  -8  403.26   95.09
   8  -1   8  400.56   19.10
  -8  -1  -8  362.96   19.20
  -8  -1  -8  374.46   20.00
  -8  -1  -8  279.97  127.89
  -8   1   8  399.86   19.40
  -8  -1  -8  357.66   71.09
  -8   2  -8  635.14   29.50
   8   2   8  591.44   29.40
  -8  -2   8  607.54   29.20
  -8   2  -8  702.33   30.40
   8   2  -8  773.42   94.39
  -8  -2  -8  670.43   30.00
   8  -2   8  608.24   28.20
  -8  -2  -8  673.43   29.10
  -8   2   8  600.04   27.80
  -8   2   8  613.54   25.50
  -8   2   8  609.44   28.80
  -8  -3   8   60.59    8.70
  -8   3  -8   78.89    8.00
   8   3   8   68.29    8.60
   8   3   8   70.19    9.00
  -8   3  -8   84.49    8.90
  -8   3   8   77.29    5.50
   8  -3   8   79.69    7.10
  -8   3   8   88.89    8.50
  -8   3   8   90.69    7.20
  -8  -3  -8   64.49    8.40
   8   4   8  322.77   19.20
  -8   4  -8  335.67   17.90
  -8  -4   8  337.77   19.30
  -8   4  -8  346.67   19.40
   8   4   8  341.47   18.20
  -8   4   8  281.97   17.00
  -8  -4  -8  340.57   18.10
   8  -4   8  320.57   16.50
  -8   4   8  329.57   16.30
  -8  -4  -8  353.06   19.40
  -8   4   8  340.57   18.40
  -8   5  -8  161.48   13.50
  -8   5  -8  149.59   12.00
   8   5   8  191.48   14.70
   8   5   8  178.48    9.90
  -8  -5   8  190.28   16.00
  -8  -5   8  174.28   14.50
   8   5   8  187.68   13.40
  -8   5   8  160.48   10.50
   8  -5   8  168.88   10.70
  -8   5   8  164.08   10.40
  -8  -5  -8  191.38   17.20
  -8  -5  -8  175.48   12.70
  -8   5   8  173.48   13.10
  -8   6  -8   45.10    8.50
  -8   6  -8   42.70   13.30
   8   6   8   51.99   10.90
  -8  -6   8   39.40   12.00
  -8   6   8   57.39    6.90
  -8   6   8   64.09    8.30
   8  -6   8   61.89    7.50
  -8  -6  -8   41.50    8.80
  -8   6   8   55.39   10.60
  -9   0   8    4.50    4.10
  -9   0  -8   -2.20    3.40
  -9   0  -8    1.40    3.80
   9   0   8    2.70    3.90
  -9   1  -8  190.08   12.70
  -9  -1   8  215.68   13.30
   9   1   8  203.78   13.20
  -9   1  -8  182.58   13.30
  -9  -1  -8  206.78   12.80
  -9   1   8  197.08   12.70
   9  -1   8  198.88   12.40
   9   1  -8  214.08   86.99
  -9  -1  -8  213.68   13.70
  -9   2  -8  280.67   16.50
  -9  -2   8  323.27   17.30
  -9   2  -8  296.17   17.60
   9   2   8  312.67   17.60
  -9   2   8  308.17   16.70
  -9   2   8  301.77   15.20
   9  -2   8  295.47   15.60
  -9  -2  -8  284.87   16.40
  -9  -2  -8  278.07   17.00
  -9   3  -8   44.30    8.50
  -9   3  -8   54.29   13.70
  -9  -3   8   55.59   10.30
  -9  -3   8   62.19    9.50
   9   3   8   54.29    8.90
  -9  -3  -8   41.40    7.50
  -9  -3  -8   55.19    8.60
   9  -3   8   38.70    6.30
  -9   3   8   41.40    5.80
  -9   3   8   39.70    7.70
  -9   3   8   39.80    4.90
   9   4   8  470.75   26.00
   9   4   8  492.65   26.90
  -9  -4   8  442.06   26.40
  -9  -4   8  489.55   25.90
  -9   4  -8  525.15   24.90
   9  -4   8  484.95   22.40
  -9  -4  -8  491.95   26.00
  -9  -4  -8  518.45   24.70
  -9   4   8  523.75   25.20
  -9   4   8  481.75   22.10
  -9   4   8  493.15   21.60
  -9   5  -8   17.80    6.50
   9   5   8   27.80    7.60
  -9  -5   8   21.50    7.80
  -9   5  -8   19.80    5.90
  -9   5   8   16.20    4.60
  -9  -5  -8   29.00    8.60
  -9   5   8   22.50    6.80
  -9   5   8   20.30    5.40
  10   0   8  166.98   12.70
 -10   0  -8  220.18   13.70
 -10   0  -8  206.28   13.90
 -10   0   8  175.58   13.20
 -10   1  -8  501.15   24.80
 -10   1  -8  465.55   30.20
 -10  -1   8  448.46   23.70
  10   1   8  462.15   24.10
 -10  -1   8  441.66   24.10
 -10  -1  -8  500.35   24.70
 -10  -1  -8  487.35   23.80
  10  -1   8  482.65   22.90
 -10   1   8  486.55   23.70
 -10   1   8  472.85   22.30
 -10  -2   8  305.77   17.70
 -10  -2   8  296.47   18.30
 -10   2  -8  256.47   17.30
  10   2   8  295.47   17.80
 -10   2  -8  263.37   16.40
 -10   2   8  299.37   18.40
 -10  -2  -8  252.37   17.20
  10  -2   8  290.37   15.20
 -10   2   8  286.57   14.70
 -10  -2  -8  263.77   17.00
 -10  -3   8  281.17   19.60
 -10   3  -8  275.67   17.00
 -10  -3   8  320.57   25.80
 -10   3  -8  294.47   22.20
  10   3   8  293.67   18.30
 -10   3   8  275.17   14.00
 -10  -3  -8  249.97   19.90
   0   0   9   14.60   68.99
   0   0  -9   24.10   42.90
   0   0  -9  106.89   76.29
   0   0   9    7.50   44.50
   0   1   9 3154.78  125.09
   0   1  -9 3182.88  181.88
   0  -1   9 3184.78  186.78
   0  -1  -9 3337.37  182.18
   0  -1  -9 2987.60  229.18
   0   1   9 3475.65  185.68
   0  -1   9 3112.59  225.58
   0   1  -9 3064.79  125.09
   0  -1  -9 3081.99  124.99
   0   1  -9 2920.71  219.78
   0   1   9 3335.07  224.28
   0   1  -9 3154.28  123.19
   0  -1   9 3247.38  125.49
   0   1   9 2800.12  123.99
   0   1   9 3142.39  124.89
   0  -1  -9 3123.09  123.39
   0   2  -9    2.50    1.70
   0  -2  -9  -22.80   44.30
   0   2   9    2.70    2.70
   0   2   9   26.00   43.30
   0   2  -9   46.80  104.69
   0  -2   9  -60.59  109.99
   0  -2  -9    2.20    2.00
   0   2   9  -18.90   87.39
   0  -2   9    2.40   52.39
   0  -2   9   -2.10    2.50
   0  -2  -9 -142.29   87.79
   0   2  -9    0.00    2.00
   0   2   9    1.50    2.60
   0   2   9    1.30    1.80
   0  -2  -9   -1.30    2.00
   0   2  -9    9.50   48.50
   0  -3   9  542.65  152.78
   0  -3  -9  674.53  151.58
   0   3  -9  785.22   99.59
   0  -3  -9  858.61   93.99
   0   3   9  793.42   35.60
   0  -3  -9  820.72   34.60
   0  -3   9  851.61  105.69
   0   3  -9  821.02   36.20
   0  -3   9  797.42   36.30
   0   3   9  806.52   35.90
   0   3  -9  826.32   33.90
   0   3  -9  945.11  135.89
   0   3   9  767.82   93.79
   0   3   9  864.21  130.79
   0   3   9  787.72   34.00
   0   4  -9  -14.50   58.89
   0  -4  -9   71.49  112.39
   0  -4  -9    4.40    2.50
   0   4   9   -9.10   48.70
   0   4   9    4.20    3.10
   0  -4   9   11.20   66.69
   0  -4  -9   -9.00   50.39
   0   4  -9  185.98  126.99
   0   4   9 -129.49   95.79
   0   4  -9    5.90    3.20
   0  -4   9    2.00    3.40
   0   4   9    6.90    2.80
   0  -4   9  -79.09   94.19
   0   4  -9    6.10    2.30
   0   4   9    4.60    3.10
   0   5  -9 1888.31   80.19
   0  -5  -9 2046.70  197.78
   0   5  -9 1940.21   77.79
   0   5   9 1694.83  150.18
   0  -5  -9 1978.40   78.99
   0   5   9 1920.01   78.09
   0   5   9 1961.70   80.09
   0   5   9 2019.80  201.08
   0  -5  -9 2034.60  150.38
   0  -6  -9   97.59   67.99
   0  -6  -9   15.40  101.79
   0   6  -9  -82.19   71.59
   0   6   9   55.69  108.89
   0   6   9   -4.20   65.89
   0   6  -9   39.60   80.99
   0   6  -9   30.90  158.98
   0  -7  -9 1286.37   54.19
   0  -7   9 1250.57   55.99
   0   7   9 1214.98   55.59
   0   7   9 1211.78   52.59
   0   7  -9 1573.44  172.68
   0   7  -9 1284.57   55.39
   0   7  -9 1555.44  158.58
   0   7  -9 1596.04  224.68
   0   7   9 1053.59  144.89
   0   7  -9 1331.97  266.57
   0  -7  -9 1330.17  153.48
   0   7   9 1125.19  218.78
   0  -7  -9  980.30  194.88
   0   7   9 1211.78   54.59
   0   8   9   49.10  207.48
   0   8  -9  275.07  125.29
   0  -8  -9    3.30    5.40
   0   8   9    4.50    6.10
   0   8  -9 -248.18  170.38
   0   8  -9    3.10    4.50
   0   8   9    2.60    5.20
   0  -8   9    3.50    6.50
   0   8   9  -85.99   91.19
   0  -8  -9   85.09  100.49
   0   8   9    4.80    5.20
   0   9   9 1318.57   59.99
   0   9   9 1368.36   59.09
   0   9  -9 1245.38   58.69
  -1   0  -9   30.00    3.80
   1   0   9   31.10    5.10
   1   0  -9   79.49   89.69
   1   0   9  -14.40   68.29
  -1   0  -9   31.90    4.70
  -1   0  -9   37.80   45.50
   1   0  -9   28.40    3.50
   1   0  -9   31.90    4.60
  -1   0   9   33.40    4.80
   1   0  -9   51.39   46.50
   1   0   9    8.80   47.70
   1   0   9   29.80    4.50
  -1   0  -9   50.59   68.49
   1   0   9   30.30    3.80
  -1   0   9  145.69   98.79
  -1   0   9   29.70    3.60
  -1   0   9   -9.10   44.20
  -1   1  -9  119.09   93.99
   1   1   9  164.08   54.39
  -1   1  -9  177.28   54.29
   1  -1  -9  240.28   11.90
  -1   1  -9  231.98   11.90
   1  -1  -9  239.68   13.30
  -1   1  -9  228.28   13.30
   1  -1  -9  307.87   69.89
   1   1   9  234.98   13.10
  -1  -1   9  261.77  111.09
   1   1   9  241.28   13.60
  -1  -1   9  209.68   57.99
   1  -1  -9  198.28  102.49
   1   1   9  240.78   12.00
   1   1   9  273.97   79.69
  -1  -1  -9  233.58   13.40
  -1   1   9  274.37   59.69
  -1   1   9  234.58   13.10
  -1  -1  -9  291.37   96.69
   1   1  -9   45.50   78.39
  -1   1   9  476.85  108.29
  -1   1   9  241.18   13.50
   1  -1   9  240.68   13.70
   1   1  -9  231.98   13.20
  -1  -1  -9  270.57   58.49
   1  -1   9  191.98   57.09
  -1   1   9  238.98   11.60
   1   1  -9  208.78   58.39
  -1  -1  -9  239.58   12.10
   1   1  -9  243.68   11.70
   1  -1   9  321.57   89.99
  -1   2  -9  967.30   38.40
   1  -2  -9  948.11   40.00
   1  -2  -9  963.70   97.69
   1  -2  -9  941.61   38.50
  -1  -2   9 1037.00  164.88
  -1  -2   9  883.61   40.10
   1   2   9  892.51   38.20
   1   2   9  850.61   39.40
   1   2   9  915.01   40.00
  -1   2  -9 1043.30  163.88
  -1   2  -9  927.41   40.10
   1   2   9  962.50   99.29
   1   2   9 1031.30  155.48
  -1   2  -9  837.32  100.89
  -1  -2   9  869.61  103.49
   1  -2  -9  798.72  148.19
   1   2  -9  713.03  158.98
  -1   2   9  965.30   97.99
  -1  -2  -9  722.83   90.99
  -1  -2  -9  703.43  144.29
  -1  -2  -9  807.92   38.20
  -1   2   9  995.50   38.40
  -1   2   9 1037.30   40.10
   1   2  -9  817.22   39.40
  -1   2   9 1003.70   40.20
   1   2  -9  864.71   37.70
  -1  -2  -9  824.32   39.60
   1  -2   9 1046.00   41.00
   1  -2   9 1055.99  107.19
  -1   2   9  893.81  151.48
   1  -2   9 1061.09  168.08
   1   2  -9  753.12   96.89
   1  -3  -9   12.30    3.50
   1   3   9   20.30    4.00
   1   3   9   75.89   52.09
   1  -3  -9  -32.20   47.10
   1   3   9   14.50    4.20
  -1  -3   9   22.30    5.30
  -1   3  -9   13.10    3.30
  -1   3  -9   12.00    4.40
   1   3   9  193.48   87.79
  -1   3  -9    7.10  111.69
   1   3   9   16.60    4.60
  -1   3  -9   27.70   56.49
   1  -3  -9   64.79   79.19
   1   3  -9   18.90    3.20
  -1   3   9   17.30    4.40
   1  -3   9  149.29   64.39
  -1  -3  -9   19.00   42.70
  -1  -3  -9  111.19  110.79
   1  -3   9  125.69  115.99
  -1   3   9   17.90    3.50
  -1  -3  -9   14.00    3.70
  -1  -3  -9   12.90    4.40
  -1   3   9  -15.00   74.19
   1   3  -9   17.10    4.30
   1  -3   9   14.30    5.00
  -1   3   9  116.59   50.89
  -1   3   9   17.00    4.60
   1   4   9 1202.18   52.19
   1  -4  -9 1455.55  181.48
   1   4   9 1199.98  180.58
  -1   4  -9 1379.76  199.68
   1  -4  -9 1335.27   52.89
  -1   4  -9 1373.16   52.49
  -1   4  -9 1536.05  129.39
  -1  -4   9 1182.28  133.49
   1   4   9 1236.68  120.29
   1   4   9 1145.19   53.59
   1   4   9 1206.18   53.79
  -1   4  -9 1323.77   54.59
  -1  -4   9 1252.27  213.98
   1  -4  -9 1120.69  115.69
  -1  -4  -9 1264.07  176.98
   1  -4   9 1351.86  140.79
  -1   4   9 1136.89  180.48
  -1   4   9 1342.77   52.29
   1   4  -9 1211.58   51.59
   1   4  -9 1138.29  122.99
  -1  -4  -9 1224.58   52.89
   1   4  -9 1208.78   53.89
  -1  -4  -9 1092.09  111.69
   1  -4   9 1261.07  175.28
   1  -4   9 1403.66   55.39
  -1   4   9 1355.96   54.19
   1   4  -9 1162.68  193.88
  -1   4   9 1329.67  119.69
   1  -5  -9   65.99    6.90
   1   5   9   72.89    6.60
  -1   5  -9   63.29    7.70
   1  -5  -9  149.19  168.98
  -1  -5   9  -44.80  109.49
  -1   5  -9  121.29  156.18
   1   5   9   84.89    7.90
   1  -5  -9  112.99  110.29
   1   5   9  102.29  100.79
  -1   5  -9   36.50   69.89
   1   5   9  102.59   66.59
  -1  -5   9   45.30   81.79
  -1   5  -9   65.09    5.90
   1   5  -9   69.49    5.60
  -1   5   9   70.39    7.40
   1   5  -9   -8.80  108.79
  -1   5   9   63.79    6.40
   1   5  -9   62.09    7.50
  -1  -5  -9   61.29   62.89
  -1   5   9   82.79   65.79
   1   5  -9  126.19   72.79
   1  -5   9  129.99  154.68
   1  -5   9   60.19    8.10
  -1  -5  -9   68.29    6.80
  -1  -5  -9   43.20   92.89
  -1   5   9  198.08  105.09
   1  -5   9  -16.70   79.09
   1   6   9  294.77   15.80
   1  -6  -9  493.35  106.69
   1   6   9  283.17   17.40
  -1   6  -9  339.27   86.29
   1  -6  -9  326.47  157.88
  -1   6  -9  259.07   97.79
  -1   6  -9  615.64  199.18
  -1   6  -9  335.27   15.60
   1   6  -9  249.78   91.79
  -1   6   9  415.96  151.18
  -1   6   9  352.26   17.90
  -1   6   9  356.26   84.99
  -1  -6  -9  283.57   16.30
  -1  -6  -9  295.97   19.40
   1   6  -9  442.36  180.98
   1   6  -9  274.57   17.20
   1   6  -9  279.47   89.39
   1   6  -9  512.75  132.19
  -1  -6  -9  486.45  197.88
   1   6  -9  275.37   14.70
  -1   7  -9  177.58   96.09
  -1   7  -9  531.25  160.18
   1   7   9   35.90  124.39
   1  -7  -9  379.26  186.48
   1  -7  -9  144.29   89.69
  -1   7  -9  149.39   90.69
  -1   7  -9   71.69    9.30
  -1   7  -9  338.67  192.58
   1   7   9  137.49   89.49
   1   7   9   70.39    8.30
   1   7   9   72.19    9.30
  -1  -7   9   67.39   10.90
   1   7   9   76.19   10.00
   1   7   9   77.29    9.70
  -1   7   9   78.19    9.90
  -1   7   9   70.19    7.80
  -1   7   9   58.99    9.20
   1   7  -9  136.39   87.79
  -1   7   9  221.38  158.88
   1   7  -9  229.18  152.58
  -1  -7  -9  186.28  132.19
   1   7  -9  -87.39  121.49
   1  -7   9   73.39   10.80
   1   7  -9   81.09    9.50
   1   7  -9   93.79   97.09
  -1  -7  -9   77.09   87.39
  -1  -7  -9   69.39    9.40
  -1   7   9  114.39   83.19
  -1   7   9   69.19    9.00
   1   8   9   62.89   10.30
   1   8   9 -306.77  287.77
   1   8   9   68.99   10.90
  -1   8  -9   97.89   11.00
   1  -8  -9   89.99   10.60
   1   8   9   66.69   11.00
  -1   8  -9   29.70   95.89
   1  -8  -9  131.09   98.09
  -1   8  -9  -77.69  164.18
   1  -8  -9  182.58  156.38
   1   8  -9  286.77  234.38
  -1   8   9  -85.79  108.09
  -1  -8  -9  140.09   97.89
  -1   8   9  102.59   11.60
   1   8  -9  -26.00  114.89
  -1   8   9  104.99   10.90
  -1  -8  -9  715.23  216.08
   1   8  -9   67.79   10.20
  -1   8   9 -215.28  224.08
   1  -8   9   87.69   12.50
   1  -9  -9   85.59  124.79
   1  -9  -9  339.37  275.37
  -1   9   9  -24.80  190.58
  -1   9   9  207.08  124.89
   2   0   9  153.98   10.20
  -2   0   9  160.78    8.50
   2   0   9  127.89   80.89
   2   0   9  180.18   58.59
  -2   0   9    9.10   73.69
   2   0   9  153.18    9.10
   2   0  -9  158.68   98.19
  -2   0  -9  214.88   96.69
   2   0  -9  173.78   10.30
  -2   0  -9  166.08   10.70
   2   0  -9  175.48    8.80
  -2   0  -9  174.88    9.40
  -2   0   9  159.98   10.50
  -2   0   9  231.88   62.59
   2   0   9  154.68   10.80
  -2   0  -9  202.98   51.99
   2   0  -9  121.59   53.49
  -2  -1   9 2677.33  223.18
   2  -1  -9 2484.85   97.29
  -2  -1   9 2386.06  159.38
   2  -1  -9 2485.05  154.48
   2  -1  -9 2426.66  187.48
   2   1   9 2367.46  192.78
  -2   1  -9 2474.65   97.79
  -2   1  -9 2477.35   99.59
   2   1   9 2454.35   99.19
  -2   1  -9 2526.65  211.48
   2   1   9 2483.25   97.69
   2  -1  -9 2446.76   98.79
   2   1   9 2427.66  157.58
  -2  -1   9 2415.56   99.29
  -2   1  -9 2535.75  154.08
   2   1   9 2439.66   99.29
   2  -1   9 2488.15  163.28
  -2   1   9 2556.64  156.88
  -2  -1  -9 2420.96   97.89
   2   1  -9 2451.15   98.89
  -2   1   9 2472.75   96.89
  -2  -1  -9 2496.25  151.68
  -2   1   9 2404.66   99.09
  -2  -1  -9 2424.66   99.39
   2  -1   9 2471.75   99.59
   2   1  -9 2442.46   96.89
   2   1  -9 2240.28  211.78
  -2   1   9 2408.46   98.69
   2   1  -9 2477.85  156.28
   2  -1   9 2552.64  223.68
  -2  -1  -9 2736.83  191.98
  -2   1   9 2529.65  199.58
   2   2   9   35.60    5.40
  -2   2  -9   28.00    5.10
  -2  -2   9   58.49  112.39
   2   2   9 -133.39  102.19
  -2   2  -9  126.39   74.19
  -2  -2   9  -62.59   49.00
  -2   2  -9   21.70   43.50
   2   2   9   32.80    5.00
   2  -2  -9  -91.59   86.89
  -2   2  -9   31.10    4.00
   2   2   9   38.60    4.50
   2  -2  -9   28.10    3.90
   2  -2  -9   48.60   46.30
  -2  -2   9   34.80    5.60
   2   2   9    5.50   47.50
   2  -2   9   33.90    5.80
  -2   2   9   33.60   50.99
  -2   2   9   32.20    3.90
  -2   2   9   27.60    4.60
   2  -2   9   29.60   53.19
   2   2  -9    1.90   50.59
  -2  -2  -9   30.60    5.00
   2  -2   9   96.59  118.89
  -2  -2  -9  -65.59   62.29
   2   2  -9   34.80    4.90
  -2  -2  -9   20.40   45.30
  -2  -2  -9   29.60    4.20
  -2   2   9  -79.89   69.19
   2   2  -9   35.30    3.60
   2   2  -9   -8.90   71.39
  -2   2   9   32.20    5.20
  -2  -3   9 1448.16   58.59
  -2   3  -9 1294.97   55.99
   2  -3  -9 1324.37  113.59
  -2   3  -9 1291.37   57.89
  -2  -3   9 1458.95  131.79
   2   3   9 1444.76   58.19
   2  -3  -9 1201.28  169.58
  -2  -3   9 1452.45  200.48
   2   3   9 1461.85   58.09
   2  -3  -9 1330.67   56.19
   2   3   9 1477.05  186.88
  -2   3  -9 1384.96  160.98
   2   3   9 1438.36   56.39
  -2   3  -9 1105.99  116.29
   2   3   9 1602.04  123.49
  -2   3   9 1410.36   55.69
  -2   3   9 1411.66   57.79
   2   3  -9 1625.74  194.48
  -2  -3  -9 1330.37   56.59
   2  -3   9 1449.06  134.19
  -2   3   9 1453.15  118.49
  -2   3   9 1348.67  173.18
   2  -3   9 1431.06   58.49
   2   3  -9 1333.67   57.49
  -2  -3  -9 1319.27   57.89
  -2  -3  -9 1365.86  114.69
   2  -3   9 1174.28  203.18
   2   3  -9 1183.18  119.19
  -2  -3  -9 1320.97  148.99
   2   3  -9 1339.77   55.29
  -2   3   9 1388.86   57.39
   2  -4  -9  173.58  107.49
  -2   4  -9  109.59   93.39
   2  -4  -9  100.89   55.79
  -2   4  -9   11.90   54.49
   2  -4  -9   89.19    7.10
   2   4   9   77.19   53.39
  -2  -4   9   62.09   69.99
   2   4   9  103.09    8.60
   2   4   9  129.79  116.19
  -2   4  -9   85.49    6.90
  -2  -4   9  176.28  134.19
  -2   4  -9   84.59    8.40
  -2  -4   9  108.69    9.40
   2   4   9  110.29    8.80
  -2   4   9   27.10   52.49
   2  -4   9   80.89   76.49
   2   4  -9  114.79    6.50
  -2  -4  -9   29.90   48.60
  -2  -4  -9   99.99    7.70
   2   4  -9  101.79    8.30
  -2  -4  -9   17.30  104.69
   2  -4   9   84.49    8.80
  -2   4   9   87.49    7.80
  -2   4   9  185.58   91.19
  -2   4   9   87.39    8.10
   2   4  -9  122.89   57.19
  -2   4   9   83.19    6.60
   2  -4   9  133.39  112.79
   2   4  -9  106.49  123.19
   2   5   9 1371.76  219.88
  -2   5  -9 1318.97   56.19
   2  -5  -9 1133.29  119.99
  -2  -5   9 1276.57  148.79
   2   5   9 1338.37  135.59
  -2   5  -9 1124.39  179.88
   2   5   9 1307.67   55.79
  -2   5  -9 1419.36  141.69
   2   5   9 1148.69   54.99
   2  -5  -9 1016.90  187.48
  -2   5  -9 1305.77   53.79
  -2  -5   9 1237.18  227.88
  -2   5   9 1505.65  210.38
   2  -5   9 1185.28  151.28
  -2   5   9 1336.27   55.69
   2  -5   9 1319.27   56.29
  -2  -5  -9 1319.07  167.68
   2   5  -9 1363.76   52.89
   2   5  -9 1230.28  228.28
   2  -5   9 1259.77  242.98
  -2   5   9 1364.26  129.79
   2   5  -9 1385.16  141.19
   2   5  -9 1345.07   55.69
  -2  -5  -9 1295.27   54.49
  -2   5   9 1299.57   55.19
  -2  -5  -9 1263.67  127.59
  -2   5   9 1293.47   53.49
   2   6   9  224.18  158.88
   2  -6  -9   85.49   74.19
  -2   6  -9   23.80   78.89
  -2   6  -9   55.49    6.00
  -2   6  -9   33.10  129.29
   2   6   9   69.79   76.79
  -2   6  -9   61.59   72.69
   2  -6  -9  -17.40  111.19
   2   6   9   57.09    9.00
  -2   6  -9   54.59    8.00
   2   6   9   56.49    7.90
  -2   6   9   63.79    8.20
  -2   6   9   59.49    6.60
  -2   6   9   70.79    7.80
   2   6  -9  -61.29  150.38
   2   6  -9   45.30    7.30
  -2  -6  -9   86.69  106.59
   2   6  -9   53.89    5.20
  -2   6   9   48.40   73.69
  -2  -6  -9  126.99   69.39
  -2  -6  -9   47.20   10.70
   2   6  -9  172.38   85.39
  -2  -6  -9   44.50    6.80
   2   6  -9  -36.70   71.79
  -2   6   9  372.26  160.88
   2   6  -9  -92.99  164.58
  -2   7  -9  891.21  147.09
   2   7   9 1255.27  152.78
  -2   7  -9 1376.46  271.17
   2   7   9 1126.29  194.98
   2   7   9 1067.09   47.40
   2  -7  -9 1047.20  148.49
  -2  -7   9 1113.49   50.79
  -2   7  -9 1080.49   49.90
   2  -7  -9  967.30  185.08
  -2   7  -9 1424.06  303.07
  -2   7  -9 1223.28  171.88
   2   7   9 1106.39   49.90
   2   7   9 1125.79   50.29
   2   7   9 1128.59   49.60
   2   7  -9 1093.09   49.40
  -2   7   9 1120.89   49.50
  -2  -7  -9 1064.29   48.90
   2  -7   9 1144.19   50.69
   2   7  -9 1290.07  220.98
   2   7  -9 1125.69  165.08
   2   7  -9 1129.49   46.30
  -2   7   9 1121.79   49.10
  -2  -7  -9  974.40  148.99
  -2   7   9 1135.09   47.40
  -2  -7  -9 1431.76  203.78
   2   8   9  114.69   11.70
  -2   8  -9   94.19   11.40
   2  -8  -9   28.50   96.09
   2   8   9  102.49   12.10
   2   8   9  104.69   11.90
   2  -8  -9  -91.39  212.18
  -2   8   9   99.69   10.90
   2  -8   9   77.69   13.00
   2   8  -9   -7.00  123.49
   2   8  -9  445.06  201.48
  -2   8   9  258.97  161.68
  -2   8   9   94.79   12.00
  -2   8   9   18.00  101.39
   2   8  -9   89.79   17.60
   2   9   9  502.35   28.60
  -2   9  -9  468.25   27.70
   2   9   9  488.95   28.10
  -2   9   9  540.25   35.50
   2   9  -9  501.15   27.70
  -2   9   9  503.05   29.00
   3   0   9  105.19   54.19
   3   0   9   29.40    4.20
  -3   0  -9   30.50    4.10
   3   0   9   36.90    4.90
  -3   0  -9   62.49   47.40
  -3   0   9  -11.40   65.19
   3   0  -9   33.40    3.50
  -3   0   9   50.89   47.10
  -3   0   9   28.70    3.30
   3   0  -9  -26.20   46.90
  -3   0   9   32.70    5.10
   3   0  -9   29.50    4.50
   3   0   9   55.19  101.89
   3   0  -9  -20.70   94.59
  -3   0  -9   29.70    5.10
  -3   0  -9   32.10   88.09
   3   0   9   28.40    8.70
   3  -1  -9   31.30   48.00
   3   1   9   31.20    4.80
  -3  -1   9   18.30   51.59
  -3   1  -9  153.88  105.09
  -3  -1   9  130.09  105.69
   3   1   9   32.40    4.40
  -3   1  -9   35.20    4.20
  -3   1  -9   32.30    5.20
   3  -1  -9   26.10   70.89
   3  -1  -9   33.90    3.90
   3   1   9    2.90   48.20
   3   1   9   30.60    6.60
   3   1   9  225.48  104.49
  -3  -1   9   33.10    5.40
  -3   1  -9   44.90   43.80
  -3   1   9  -70.99   40.50
   3   1  -9   36.00    4.80
   3  -1   9   70.09   56.79
   3   1  -9  199.78  110.59
   3   1  -9   36.50    3.50
  -3  -1  -9   77.69   89.39
  -3  -1  -9   31.10    5.20
  -3   1   9   99.69   86.59
  -3  -1  -9   51.79   43.80
  -3   1   9   30.70    3.60
  -3   1   9   33.50    5.20
   3   1  -9    4.70   47.40
   3  -1   9  129.29   84.49
   3  -1   9   31.80    4.80
  -3  -1  -9   33.80    4.40
   3   2   9   43.70   97.39
   3  -2  -9  266.17   57.19
  -3  -2   9  327.17   16.10
  -3   2  -9  241.48   13.80
  -3   2  -9  304.47   67.79
   3  -2  -9  275.57   99.69
   3   2   9  381.66   81.39
   3  -2  -9  239.98   13.30
  -3   2  -9  173.58   90.69
  -3   2  -9  249.97   15.30
   3   2   9  336.77   16.00
  -3  -2   9  292.87  121.19
  -3  -2   9  374.86   85.69
   3  -2   9  153.38   64.49
  -3  -2  -9  304.67   15.80
   3   2  -9  398.66   80.49
  -3   2   9  247.18   14.80
   3  -2   9  252.17   15.30
   3   2  -9  319.07   13.10
  -3   2   9  258.17   13.10
   3   2  -9  193.78  115.79
  -3  -2  -9  312.37   70.29
  -3   2   9  286.07   62.29
  -3   2   9  257.47   14.60
  -3  -2  -9  308.67   14.60
  -3  -2  -9  285.37  105.09
   3   2  -9  312.37   15.20
   3  -2   9  549.95  125.69
  -3   2   9  278.57   93.09
  -3   3  -9  262.77  123.29
   3  -3  -9  261.47   61.99
  -3  -3   9  223.28   14.00
   3  -3  -9  251.17   12.30
   3   3   9  186.98   91.69
   3   3   9  225.08   13.40
   3   3   9  216.98   13.50
  -3  -3   9  263.47  138.59
   3  -3  -9  216.08  110.39
  -3   3  -9  252.97   65.39
  -3  -3   9  183.28   68.79
   3   3   9  166.38   60.19
  -3   3  -9  234.78   12.30
  -3   3  -9  230.18   13.90
  -3   3   9  226.48   13.40
  -3   3   9  238.38   62.99
  -3  -3  -9  222.38   13.60
  -3   3   9  100.49  115.09
   3  -3   9  228.98  108.29
   3  -3   9  229.48   14.10
   3   3  -9  415.46   88.79
  -3   3   9  238.78   13.10
  -3  -3  -9  343.37   74.19
   3   3  -9  230.08   13.10
   3   3  -9  237.38   11.10
  -3   3   9  222.98   11.50
  -3  -3  -9  222.78   12.50
   3   3  -9  327.27  103.99
   3  -3   9  201.88   68.89
  -3  -3  -9  312.37  112.99
  -3   4  -9 1582.24   68.29
  -3  -4   9 1867.81  155.48
  -3   4  -9 1514.35  136.69
   3   4   9 1810.92   70.29
   3   4   9 1822.32  142.59
   3   4   9 1317.87  205.08
   3  -4  -9 1537.05  166.88
  -3  -4   9 1849.02  235.08
   3  -4  -9 1606.54  133.39
  -3   4  -9 1434.26  182.98
  -3   4  -9 1626.94   70.39
  -3  -4   9 1819.02   71.09
   3   4   9 1729.83   70.39
   3   4  -9 1784.92   69.79
   3   4  -9 1773.92   67.09
  -3  -4  -9 1817.42  171.68
  -3   4   9 1635.44   67.59
   3  -4   9 1640.54   70.29
  -3   4   9 1609.94   69.59
   3   4  -9 1702.43  146.89
  -3   4   9 1708.93  134.19
  -3   4   9 1616.84   69.19
  -3  -4  -9 1799.72   69.29
  -3  -4  -9 1745.23  134.49
   3   4  -9 1576.84  215.58
   3  -4   9 1163.58  149.49
  -3   4   9 1609.14  202.58
   3  -4   9 1241.08  230.68
   3   5   9  -62.39  102.89
   3   5   9   97.89   71.99
   3   5   9   41.00    7.00
   3  -5  -9  158.38   67.19
   3   5   9   49.30    7.30
  -3   5  -9   53.29    5.90
   3  -5  -9  149.59  131.29
  -3   5  -9   46.40    7.50
  -3   5  -9   57.89   64.09
  -3   5  -9   42.00  144.59
  -3  -5   9   46.40    8.10
  -3   5   9   63.59   64.39
   3  -5   9  -56.49   85.29
   3   5  -9  156.58  121.69
  -3  -5  -9   93.39   63.49
  -3   5   9   39.30    6.30
  -3   5   9   45.00  121.99
   3   5  -9   54.29    4.70
   3   5  -9   54.39    6.80
  -3   5   9   39.30    5.40
  -3  -5  -9  -47.00  127.69
  -3  -5  -9   54.19    6.50
   3  -5   9   40.10    7.60
  -3   5   9   45.80    6.80
   3   5  -9   95.89   72.79
   3  -5   9   31.90  122.69
   3   6   9  537.35  143.09
  -3   6  -9  298.87   98.59
   3  -6  -9  531.25  163.28
  -3  -6   9  543.85   26.50
   3  -6  -9  355.66   92.49
  -3   6  -9  358.96  184.48
   3   6   9  524.95   26.00
  -3   6  -9  577.14  120.49
  -3   6  -9  424.56   24.70
   3   6   9  535.15   26.20
  -3   6  -9  301.67  128.49
   3   6   9  346.67   91.99
   3   6  -9  133.29  135.59
   3   6  -9  560.84  116.89
  -3   6   9  469.45   23.90
  -3   6   9  456.35   24.50
  -3  -6  -9  600.44  114.29
   3   6  -9  481.05   24.40
  -3  -6  -9  458.65   24.10
   3   6  -9  581.74  171.18
  -3   6   9  467.25   22.60
   3   6  -9  418.86  101.99
   3   6  -9  516.35   21.70
  -3  -6  -9  421.86  165.78
  -3  -7   9   42.40   10.20
   3  -7  -9  297.27  184.18
   3   7   9   41.10    9.00
   3  -7  -9   -6.20   80.69
   3   7   9   40.40    8.40
  -3   7  -9   39.40    6.40
  -3   7  -9   41.70    9.80
   3   7   9   49.60    8.00
   3   7   9   45.20    8.90
  -3  -7  -9   38.60    7.50
  -3   7   9   50.99    7.50
   3  -7   9   36.20    9.60
   3   7  -9   43.60    7.90
  -3   7   9   46.90    8.80
  -3   7   9   49.20    8.00
  -3   7   9  -21.30   84.09
  -3   7   9  244.08  177.98
  -3  -7  -9   36.00    9.10
   3   7  -9   99.19  205.68
   3   7  -9   -4.90  102.39
   3   7  -9   38.00    5.30
  -3   8  -9  273.87  244.58
  -3   8  -9  164.38  116.19
   3   9   9   38.90   11.30
   3   9   9   35.10   11.20
  -3   9  -9   35.00   10.50
  -3   9   9   39.30   10.50
  -3   9   9   56.49   12.40
   3   9  -9   34.70   10.40
   4   0   9  762.72   32.80
   4   0  -9  611.44   92.39
   4   0   9  754.42  156.38
  -4   0  -9  526.85  125.89
   4   0   9  747.13  101.89
  -4   0   9  820.52  152.28
  -4   0  -9  728.53   31.70
   4   0  -9  705.93   30.20
  -4   0   9  660.93   90.99
   4   0  -9  590.54  134.39
  -4   0  -9  711.73   33.00
   4   0   9  754.92   32.60
  -4   0   9  748.23   32.80
  -4   0  -9  770.92   91.99
  -4   0   9  735.93   29.90
   4   1   9 1286.17  125.29
   4  -1  -9 1688.63  122.29
  -4   1  -9 1629.84  179.88
  -4  -1   9 1418.06  184.08
  -4   1  -9 1576.24  126.29
   4  -1  -9 1517.55  166.38
  -4   1  -9 1561.64   63.49
  -4  -1   9 1289.87  127.19
  -4  -1   9 1606.04   64.89
   4   1   9 1567.24   64.59
   4   1   9 1470.15  187.88
   4  -1  -9 1568.04   62.29
   4   1   9 1564.64   64.69
  -4   1  -9 1556.44   64.99
  -4   1   9 1592.74   61.89
  -4   1   9 1587.14   64.49
   4  -1   9 1576.24   64.29
   4   1  -9 1662.83  181.98
  -4  -1  -9 1551.74   64.99
  -4   1   9 1584.24  125.79
  -4   1   9 1437.56  170.08
   4   1  -9 1554.94  123.89
  -4  -1  -9 1519.45   63.49
   4  -1   9 1470.05  132.29
   4  -1   9 1676.13   64.99
  -4  -1  -9 1540.65  118.99
   4   1  -9 1515.95   61.79
  -4  -1  -9 1598.74  173.18
   4   1  -9 1526.25   63.49
   4  -1   9 1524.55  205.38
   4  -2  -9   36.30   48.70
  -4   2  -9  -41.70   47.20
   4  -2  -9  164.38  103.19
   4   2   9   73.09   52.29
   4  -2  -9   13.20    3.40
   4   2   9   11.40    4.60
   4   2   9    9.70    3.40
  -4  -2   9   64.29   57.69
  -4  -2   9   30.00  100.19
  -4   2  -9   14.70    3.90
  -4  -2   9    8.50    3.60
   4   2   9 -131.59   76.89
  -4   2  -9   12.70    4.70
  -4   2  -9  -38.40   71.39
  -4   2   9   11.10    3.60
   4  -2   9   16.70    4.30
  -4  -2  -9   15.70    4.60
   4   2  -9  -68.19  101.59
   4   2  -9   16.60    2.70
  -4  -2  -9   14.20    4.10
  -4   2   9   12.60    4.50
  -4   2   9    9.60    2.40
  -4   2   9  -42.70   86.19
  -4  -2  -9  -80.69   87.89
  -4  -2  -9  -47.50   43.60
   4   2  -9   13.40    3.80
   4  -2   9  -98.79  116.09
  -4   2   9   45.00   49.80
   4   2  -9   32.00   52.39
   4  -2   9    3.70   59.49
   4   3   9 2239.28   91.19
   4   3   9 1973.80  197.58
   4   3   9 2308.47   90.79
   4  -3  -9 2225.48  149.79
  -4   3  -9 2142.89  225.98
  -4   3  -9 2205.38   89.39
   4   3   9 2102.39  157.58
   4  -3  -9 2452.15  213.28
  -4   3  -9 2106.59  157.98
  -4  -3   9 2539.75  232.38
  -4  -3   9 2296.37   91.49
  -4   3  -9 2234.78   91.39
  -4  -3   9 2114.09  167.28
   4   3  -9 2113.39  196.68
  -4   3   9 2016.60  151.68
  -4   3   9 2232.48   90.59
  -4  -3  -9 2209.28  150.48
  -4  -3  -9 2237.58  206.68
  -4   3   9 2216.18  215.88
   4  -3   9 2309.07  173.08
   4  -3   9 2109.39  248.48
   4  -3   9 2227.58   90.89
  -4  -3  -9 2268.17   91.29
  -4  -3  -9 2275.67   89.99
   4   3  -9 2223.38   89.79
   4   3  -9 2235.88   87.59
   4   3  -9 2236.18  158.78
  -4   3   9 2216.98   90.09
   4   4   9   10.40   61.69
  -4   4  -9  -63.59   59.39
  -4  -4   9  117.69  146.49
   4   4   9   40.50    6.50
   4  -4  -9   60.79   60.59
   4   4   9   54.89  100.29
   4   4   9   45.00    6.90
  -4  -4   9   41.00    7.30
  -4   4  -9   39.10    6.80
   4  -4  -9  -35.40  110.49
  -4   4  -9   36.40    5.30
  -4   4  -9  134.29   96.39
  -4  -4   9  114.79   74.89
  -4  -4  -9  149.09  109.29
   4   4  -9   39.00   64.79
   4   4  -9   35.80    5.60
   4  -4   9  171.68  149.88
   4  -4   9  -56.59   75.49
  -4   4   9   41.50   56.69
   4  -4   9   40.90    7.00
  -4  -4  -9   -3.20   54.99
  -4   4   9   36.50    5.60
   4   4  -9   51.69  117.89
  -4  -4  -9   33.80    5.60
   4   4  -9   41.90    4.00
  -4   4   9  -35.10  115.99
  -4  -4  -9   40.80    6.60
  -4   4   9   37.50    6.30
  -4   4   9   44.40    4.90
   4  -5  -9 1011.80  196.38
   4  -5  -9 1251.97  129.69
  -4   5  -9 1154.58   50.09
  -4  -5   9 1218.58   52.69
   4   5   9 1152.68  129.29
   4   5   9 1237.68   52.69
   4   5   9 1241.58   51.49
   4   5   9 1252.67   51.99
   4   5   9 1106.79  208.08
  -4   5  -9 1123.19   51.89
  -4   5  -9 1151.28  137.39
  -4   5  -9 1435.26  223.88
   4   5   9 1213.08   50.29
  -4  -5  -9  910.71  154.98
   4  -5   9 1210.38   51.99
  -4  -5  -9 1171.18   50.59
   4   5  -9 1184.28   48.00
   4  -5   9 1317.17  161.58
   4   5  -9 1051.29  232.68
  -4  -5  -9  989.40  123.19
   4   5  -9 1187.38  128.79
   4  -5   9 1061.99  228.88
  -4  -5  -9 1169.48   51.39
   4   5  -9 1207.08  145.09
  -4   5   9 1208.58   49.20
  -4   5   9 1182.18   51.39
   4   5  -9 1157.98   50.59
  -4   5   9 1210.28   50.79
  -4   6  -9  145.59   12.00
  -4  -6   9  120.39   12.40
   4  -6  -9  107.09  142.69
   4   6   9  122.79   10.10
   4   6   9  124.69   11.40
   4   6   9  112.09   11.30
  -4   6  -9  146.39    9.90
   4  -6  -9  130.99   78.79
   4   6  -9  343.27  200.88
  -4   6   9  138.19    9.60
  -4   6   9  132.59   11.30
   4   6  -9  138.09   10.70
  -4   6   9  274.47  150.98
   4   6  -9  130.89    7.90
  -4  -6  -9  124.09   10.20
  -4   6   9  179.48   85.89
   4   6  -9  126.59   93.59
  -4   6   9  142.59   10.60
  -4  -6  -9  121.19   11.40
  -4   7  -9  959.40   43.90
  -4   7  -9  867.61   46.10
  -4   7  -9  821.92  234.68
  -4  -7   9  886.91   43.70
  -4   7  -9  705.13  152.48
   4   7   9  922.11   42.30
   4   7   9  884.61   44.60
   4   7   9  968.60   43.10
   4  -7   9  963.70   43.40
  -4   7   9  907.71   40.00
  -4   7   9  895.11   42.40
   4   7  -9  958.40   38.70
  -4   7   9  939.41   41.50
   4   7  -9  934.61   44.50
   4   8   9  182.28   16.10
  -4   8  -9  175.88   15.40
   4   8   9  195.08   16.30
   4   8   9  184.48   15.60
   4   8  -9  184.88   11.10
   4  -8   9  195.28   16.90
  -4   8   9  183.78   13.90
   4   8  -9  191.38   14.30
  -4   8   9  180.08   16.00
  -5   0  -9  177.88  108.49
  -5   0   9   18.00    5.00
  -5   0  -9   14.60    4.00
   5   0   9   17.90    5.20
  -5   0   9   81.69   96.69
   5   0   9   20.50    5.00
  -5   0   9   14.50   52.59
   5   0  -9    7.10   48.50
   5   0  -9   21.50    3.10
   5   0   9  -49.30   55.59
  -5   0  -9   44.40   51.69
   5   0   9  -41.90  116.39
  -5   0  -9   20.80    5.20
   5   0  -9  170.68  100.09
  -5   1  -9   27.90  102.19
   5   1   9   13.60    4.60
   5   1   9   13.80    4.10
  -5   1  -9   18.90    4.20
   5  -1  -9    0.60   95.49
  -5  -1   9   -2.70   51.19
  -5   1  -9   41.60   55.39
  -5  -1   9   16.60    5.30
  -5  -1   9  -10.70  105.69
   5   1   9  -14.70   62.49
   5  -1  -9   -8.40   52.69
   5   1   9  -68.09  111.39
  -5   1  -9   19.30    5.20
   5  -1   9  105.89  126.79
   5  -1   9   23.00    5.30
  -5   1   9   77.69   55.69
   5  -1   9  -18.80   61.39
  -5  -1  -9   12.20   45.40
   5   1  -9   66.29   93.99
  -5  -1  -9   14.80    4.90
   5   1  -9  -44.80   47.20
   5   1  -9   15.90    2.90
   5  -1   9   19.10    4.60
  -5   1   9  151.88  103.79
  -5  -1  -9   17.80    4.20
  -5  -1  -9  -72.79   93.59
  -5   2  -9  219.98   13.40
  -5  -2   9   35.90   62.39
   5   2   9  196.08   12.90
   5   2   9  293.77  128.29
  -5   2  -9  224.68   12.20
   5  -2  -9  193.88   58.89
   5  -2  -9  164.08   93.39
  -5   2  -9  125.39   57.49
   5   2   9  256.57   73.39
  -5  -2   9  -31.10  121.89
  -5  -2   9  202.88   13.10
  -5   2  -9  293.97  118.59
   5   2   9  204.28   12.70
   5   2  -9  239.78   65.39
   5  -2   9  257.37  147.49
  -5  -2  -9  181.18   12.70
  -5   2   9  251.37   10.70
   5   2  -9  282.07  112.59
  -5  -2  -9  255.47  110.49
   5  -2   9  266.67   81.19
  -5  -2  -9  226.48   57.19
  -5   2   9   33.70  100.79
  -5  -2  -9  179.58   11.70
  -5   2   9  254.17   13.40
  -5   3  -9  282.77   15.00
  -5   3  -9  274.47  105.49
   5   3   9  229.58   76.89
   5   3   9  286.87   16.40
  -5   3  -9  258.77   77.09
   5  -3  -9  259.07   65.59
   5  -3  -9  297.97  105.59
  -5   3  -9  280.67   16.50
  -5  -3   9  298.37   16.80
   5   3   9  305.77  117.49
   5   3   9  292.77   17.40
   5  -3   9  304.37   15.60
  -5  -3  -9  272.07   16.20
   5  -3   9  401.86  168.58
  -5   3   9  300.77   13.70
   5   3  -9  352.36  133.89
   5  -3   9  149.29   83.79
   5   3  -9  267.57   12.50
   5   3  -9  275.87   14.50
  -5  -3  -9  255.37  115.09
  -5  -3  -9  234.78   65.39
  -5  -3  -9  265.17   15.10
   5   3  -9  323.87   75.49
  -5   3   9  304.97   16.10
  -5   3   9  302.87   15.50
   5   4   9 1374.86   60.89
  -5   4  -9 1569.74  214.08
  -5   4  -9 1533.25   61.39
   5   4   9 1373.96   58.89
   5  -4  -9 1365.86  127.99
   5   4   9 1392.66   59.79
   5   4   9 1377.86   59.79
   5   4   9 1171.58  208.28
   5  -4  -9 1295.37  192.58
  -5   4  -9 1522.85  141.49
  -5   4  -9 1504.05   59.39
  -5  -4   9 1384.36   60.79
   5   4   9 1412.36  143.19
  -5   4   9 1492.75   60.29
  -5   4   9 1530.05   59.59
  -5  -4  -9 1327.07   59.89
   5   4  -9 1373.66   56.29
  -5  -4  -9 1355.56   59.29
  -5  -4  -9 1326.07  123.19
   5  -4   9 1523.45   60.49
  -5   4   9 1545.35  156.38
   5   4  -9 1301.67  140.49
  -5   4   9 1517.45   57.89
  -5  -4  -9 1400.16  191.68
   5  -4   9 1392.76  158.88
   5  -4   9 1606.64  247.58
   5   4  -9 1537.05  219.58
   5   4  -9 1331.47   58.59
   5   5   9  438.56   22.10
  -5   5  -9  417.76   21.00
   5  -5  -9  426.26  145.29
   5   5   9  432.66   21.30
   5   5   9  436.16   22.20
   5  -5  -9  432.56   89.59
  -5  -5   9  429.36   23.40
   5   5   9  436.16   23.30
   5   5  -9  396.16   95.29
  -5   5   9  336.27   86.19
  -5  -5  -9  432.16   21.70
   5   5  -9  263.57  167.08
  -5   5   9  425.66   19.90
  -5  -5  -9  421.36   22.50
   5   5  -9  421.96   21.10
  -5   5   9  347.67  159.98
   5   5  -9  436.76   18.50
  -5   5   9  418.26   22.20
   5  -5   9  438.56   22.50
  -5   5   9  420.36   21.30
   5   6   9  113.59   11.50
  -5  -6   9  113.99   12.50
  -5   6  -9  143.29   10.20
  -5   6  -9  143.39   12.10
   5   6   9  123.29   11.20
   5   6   9  118.89   10.60
   5   6  -9  114.09   10.00
  -5  -6  -9  114.99   10.20
   5   6  -9  108.69    7.10
   5   7   9   35.30    9.30
  -5   7  -9   30.90    8.80
   5   7   9   38.60    9.00
   5   7   9   33.00    9.70
  -5   7  -9   27.90    6.90
  -5  -7  -9   23.70    6.00
  -5   7   9   31.30    7.90
   5   7  -9   32.10    5.10
  -5   7   9   38.10    8.00
   5   7  -9   27.90    7.60
   5   8   9   33.60   11.70
   5   8   9   23.40    7.90
   5   8   9   26.70   10.10
  -5   8  -9   22.30    7.40
  -5   8  -9   29.60    7.80
   5  -8   9   20.00    8.40
  -5   8   9   33.60   10.80
  -5   8   9   24.10    7.00
   5   8  -9   28.20    5.80
   5   8  -9   29.10    9.30
  -6   0  -9   43.30    6.60
  -6   0  -9   26.30   53.59
  -6   0   9   31.40    6.00
   6   0   9   31.30    5.80
  -6   0  -9  116.59  112.49
   6   0   9   -2.00   63.59
   6   0   9   36.20    5.70
   6   0   9  181.68  112.19
   6   0  -9   -0.90   95.59
   6   0  -9   82.09   56.29
  -6   0  -9   43.30    5.50
   6  -1  -9 1526.15  128.09
  -6   1  -9 1709.63   71.09
   6   1   9 1735.13  216.28
   6   1   9 1745.13   70.79
   6   1   9 1712.23   69.69
  -6   1  -9 1706.53  210.28
  -6  -1   9 1764.72   70.69
   6   1   9 1636.84  139.39
  -6   1  -9 1679.13   69.69
  -6   1  -9 1676.33  143.39
   6  -1  -9 1697.23  178.98
  -6  -1  -9 1624.64  134.69
  -6   1   9 1734.53   67.09
   6   1  -9 1469.75  182.58
   6  -1   9 1987.80  152.88
   6  -1   9 1593.04  202.98
  -6  -1  -9 1541.05  192.18
  -6  -1  -9 1682.13   70.89
   6  -1   9 1718.33   69.69
   6  -1   9 1788.12   70.39
  -6  -1  -9 1671.33   69.69
  -6   1   9 1740.33   70.39
   6   1  -9 1508.45  131.59
  -6   2  -9  411.26   95.79
  -6   2  -9  372.16   18.30
   6   2   9  348.57   19.20
   6   2   9  364.56  141.99
  -6  -2   9  291.47  140.09
   6   2   9  278.57   77.89
  -6   2  -9  378.56  133.09
  -6  -2   9  348.07   19.10
   6   2   9  349.37   18.30
   6  -2  -9  281.57  109.69
  -6   2  -9  379.46   19.80
   6  -2  -9  287.07   64.99
  -6  -2   9  285.17   78.79
  -6  -2  -9  335.07   73.99
   6  -2   9  897.61  180.08
   6  -2   9  373.16   18.50
   6   2  -9  287.87  129.19
  -6  -2  -9  333.37  105.09
  -6   2   9  370.96   19.00
  -6   2   9  364.46   16.00
   6  -2   9  691.33  118.09
   6  -2   9  376.96   18.50
  -6   2   9  429.66   91.19
  -6  -2  -9  372.16   19.60
  -6  -2  -9  355.96   18.30
  -6   2   9  402.26  126.99
   6   2  -9  330.57   74.59
  -6   2   9  367.06   18.30
   6  -3  -9 1018.60  108.69
  -6   3  -9 1127.59   48.90
  -6   3  -9  782.52  180.38
   6   3   9 1023.00   43.90
   6   3   9 1019.80   45.40
   6  -3  -9  834.52  178.98
   6   3   9 1007.20   43.80
  -6   3  -9  789.82  128.89
  -6   3  -9 1076.69   45.70
   6   3   9 1032.60   44.20
  -6  -3   9 1038.70   45.30
  -6  -3   9  738.23  170.68
  -6  -3   9  790.32  130.49
   6  -3   9 1041.00   43.90
   6  -3   9 1208.58  219.98
  -6   3   9 1014.30   41.80
   6   3  -9  914.41  208.18
  -6   3   9  872.71  112.79
   6   3  -9 1030.70   42.30
   6  -3   9  876.11  143.59
  -6  -3  -9 1049.89  191.98
  -6   3   9 1030.50  196.18
   6  -3   9 1029.60   44.10
  -6  -3  -9 1076.89   44.20
  -6   3   9 1008.10   44.40
  -6   3   9 1022.40   43.80
  -6  -3  -9  902.51  130.19
  -6  -3  -9 1070.49   45.60
   6   3  -9  817.82  119.59
  -6   4  -9   59.19    7.00
   6   4   9   58.09    7.20
   6   4   9   53.89    7.70
   6   4   9   51.39   11.80
  -6   4  -9   52.19    8.20
  -6  -4   9   59.89    8.80
   6   4   9   63.59   12.50
   6  -4   9   52.49    6.60
  -6   4   9   55.79    6.70
   6  -4   9   51.09    7.60
  -6  -4  -9   57.19    8.20
  -6   4   9   54.49    7.80
  -6   4   9   51.99    5.70
   6   4  -9   54.79    5.80
  -6  -4  -9   51.19    8.10
   6   5   9  614.24   28.20
   6   5   9  617.04   28.20
   6   5   9  610.94   29.90
  -6  -5   9  594.24   29.80
  -6   5  -9  568.34   27.60
  -6   5  -9  553.54   29.20
   6   5   9  604.14   27.90
  -6   5   9  595.54   28.70
   6   5  -9  579.34   26.50
   6   5  -9  564.34   23.90
   6  -5   9  592.44   27.20
  -6   5   9  584.64   27.30
  -6  -5  -9  574.94   27.90
  -6  -5  -9  567.24   29.00
   6  -5   9  596.94   28.20
  -6   5   9  584.74   26.00
   6   6   9  138.79   13.10
  -6   6  -9  131.49   10.80
   6   6   9  145.89   11.90
   6   6   9  144.89   12.40
  -6  -6   9  142.79   14.20
  -6   6  -9  143.39   13.80
  -6   6   9  134.69   12.60
   6   6  -9  144.59   10.40
   6  -6   9  150.18   12.80
  -6   6   9  133.49   10.20
  -6   6   9  143.89   11.10
   6   6  -9  147.09    7.60
  -6   7  -9  454.55   26.20
  -6   7  -9  469.15   23.90
   6   7   9  466.35   24.90
   6   7   9  468.05   27.00
  -6   7   9  453.05   23.10
   6   7  -9  459.85   23.30
  -6  -7  -9  485.95   24.70
  -6   7   9  479.55   23.70
   7   0   9   22.30    5.70
  -7   0  -9   16.30    6.00
   7   0   9   17.40    5.10
  -7   0  -9  138.79  113.69
  -7   0  -9   16.50   61.39
  -7   0  -9   21.30    5.20
   7   0   9 -142.99  150.48
  -7   0   9   30.20    6.10
  -7  -1   9  292.17   16.20
   7   1   9  286.67   14.70
  -7   1  -9  354.06  142.99
  -7   1  -9  286.17   16.60
   7   1   9  285.07   14.20
  -7   1  -9  305.57   78.39
   7   1   9  286.57   16.20
  -7   1   9  283.97   15.90
  -7   1   9  276.37   12.20
  -7  -1  -9  249.68   75.79
   7  -1   9  279.17   15.60
  -7  -1  -9  290.27   15.90
   7  -1   9  273.37   14.40
  -7  -1  -9  395.06  140.89
  -7  -1  -9  297.17   16.70
  -7  -2   9  398.86   19.60
   7   2   9  394.86   17.80
   7   2   9  395.66   18.90
   7   2   9  394.06   19.70
  -7   2  -9  308.67   19.00
   7   2   9  393.56   17.30
  -7   2  -9  312.97   17.80
  -7  -2  -9  345.07   19.20
  -7   2   9  337.47   15.40
   7  -2   9  320.47   17.80
   7  -2   9  327.17   17.00
  -7   2   9  337.77   18.50
  -7   2   9  331.87   17.80
  -7  -3   9  123.29   11.00
   7   3   9  128.69    9.70
   7   3   9  125.39    9.00
   7   3   9  119.89   10.30
  -7   3  -9  142.59   10.20
   7   3   9  120.69   11.10
  -7   3  -9  153.68   11.60
  -7   3   9  136.09   10.60
  -7   3   9  134.79    9.50
  -7  -3  -9  146.69   11.30
  -7   3   9  137.09    7.80
   7  -3   9  136.99    9.70
   7  -3   9  131.79    9.50
  -7  -3  -9  139.19   10.20
   7   4   9  928.01   39.20
   7   4   9  923.51   38.90
   7   4   9  931.81   39.80
  -7  -4   9  938.41   41.40
  -7   4  -9  872.81   39.40
   7   4   9  918.11   41.60
  -7   4   9  874.91   37.30
  -7   4   9  848.22   38.80
  -7  -4  -9  964.40   40.10
   7  -4   9  864.41   38.90
  -7  -4  -9  950.90   41.00
   7  -4   9  828.82   38.40
  -7   4   9  844.62   40.00
   7   5   9  161.88   11.40
   7   5   9  166.08   14.40
  -7   5  -9  161.18   13.30
  -7  -5   9  162.88   14.20
  -7   5  -9  161.48   11.70
   7   5   9  167.88   12.10
  -7   5   9  168.08   10.30
   7  -5   9  148.49   10.80
  -7   5   9  151.48   10.90
   7   5  -9  149.69    8.70
  -7  -5  -9  167.28   12.50
  -7   5   9  151.08   12.60
   7  -5   9  150.48   11.60
  -7  -6   9  131.59   15.80
   7   6   9  130.49   13.90
   7   6   9  141.09   11.40
  -7   6  -9  103.79   10.60
  -7   6  -9   98.89   12.40
   7   6   9  144.19   12.60
  -7   6   9  119.09   10.10
  -7  -6  -9  108.39   10.90
  -7   6   9  120.59   13.10
  -7   6   9  139.39   10.30
   7  -6   9  117.89   10.30
   7   7   9   40.80   11.30
   7   7   9   47.10   10.10
   7   7   9   41.10   11.20
  -7   7  -9   65.19    9.20
  -7   7  -9   56.29   11.30
  -7  -7  -9   49.70    9.90
   7  -7   9   60.39   11.80
  -7   7   9   50.09    8.80
   7  -7   9   57.79    9.00
  -7   7   9   54.59   10.10
  -8   0   9  605.94   28.40
  -8   0  -9  593.94   27.90
   8   0   9  593.34   28.10
  -8   0  -9  607.04   29.10
  -8  -1   9  973.10   42.60
  -8   1  -9  979.20   43.40
   8   1   9  980.30   42.90
  -8   1  -9  971.50   42.10
  -8   1   9  951.20   42.20
  -8  -1  -9  993.80   43.40
   8  -1   9  929.11   41.80
  -8  -1  -9  965.80   42.10
  -8   2  -9   86.49   10.00
  -8   2  -9   91.29    8.80
  -8  -2   9   89.19    9.80
   8   2   9   96.69   10.00
  -8   2   9   89.29    5.30
  -8   2   9   90.09    8.20
   8  -2   9   93.09    8.50
  -8  -2  -9   84.69    8.70
  -8   2   9   95.19    9.60
  -8  -2  -9   94.89    9.70
  -8  -3   9 1272.67   54.69
  -8   3  -9 1265.17   56.39
   8   3   9 1251.27   54.99
   8   3   9 1245.28   50.59
   8   3   9 1248.88   50.79
   8   3   9 1216.78   53.39
  -8   3   9 1248.58   50.39
  -8   3   9 1247.58   52.49
  -8  -3  -9 1282.17   53.69
  -8   3   9 1318.67   54.19
   8  -3   9 1253.77   52.89
   8   4   9    8.90    3.50
   8   4   9    8.60    5.60
  -8  -4   9    6.20    6.30
   8   4   9    9.20    3.90
  -8   4  -9   10.10    4.60
  -8   4  -9   11.40    5.30
  -8   4   9   11.70    5.60
  -8  -4  -9   20.10    7.50
   8  -4   9   14.10    4.60
  -8   4   9   10.10    3.70
  -8   4   9   14.10    4.30
  -8  -5   9  494.45   27.80
  -8   5  -9  492.05   25.20
   8   5   9  502.25   27.70
  -8   5  -9  551.54   30.90
  -8  -5  -9  503.25   25.60
  -8   5   9  501.45   26.30
  -8   5   9  519.75   25.60
  -8   5   9  489.35   23.60
   8  -5   9  494.55   23.90
  -9   0  -9    7.90    4.80
   9   0   9    6.20    4.50
  -9   0   9    8.00    4.80
  -9   0  -9    3.40    4.70
  -9   1  -9  107.39   10.70
  -9  -1   9  112.79   10.80
   9   1   9  104.49   10.50
  -9   1  -9   74.39   11.00
  -9  -1  -9  129.99   11.90
  -9  -1  -9  110.49   10.50
  -9   1   9   87.49   10.20
   9  -1   9   96.59    9.50
  -9   1   9   91.39    8.90
  -9   2  -9   71.09   14.60
  -9  -2   9   30.20    9.20
  -9   2  -9   43.50    7.90
  -9   2   9   44.30    8.90
  -9   2   9   40.90    6.90
   9  -2   9   49.00    7.60
  -9   3  -9  525.25   25.90
   9   3   9  521.45   27.20
  -9  -3   9  517.25   27.20
  -9   3  -9  516.35   27.20
  -9  -3  -9  529.95   27.10
  -9  -3  -9  532.25   25.90
   9  -3   9  513.45   24.60
  -9   3   9  532.55   26.40
  -9   3   9  508.85   21.80
  -9   3   9  522.55   24.30
  -9  -4   9  417.86   25.40
  -9   4  -9  492.15   24.20
   9   4   9  422.06   25.60
  -9   4  -9  476.85   25.60
   9  -4   9  476.15   22.40
  -9   4   9  481.85   20.70
  -9   4   9  478.85   21.90
  -9   4   9  484.85   24.80
  -9  -4  -9  419.16   23.60
 -10   0  -9  219.48   14.80
 -10   0  -9  185.98   16.00
  10   0   9  244.48   15.50
 -10   0   9  243.98   23.10
 -10  -1   9  714.53   40.70
  10   1   9  750.72   34.80
 -10   1  -9  720.63   34.10
 -10   1  -9  751.62   35.50
  10  -1   9  711.33   33.40
 -10   1   9  714.63   36.40
 -10  -1  -9  769.92   34.30
 -10   1   9  715.13   32.90
 -10  -1  -9  765.52   35.30
   0   0 -10 1010.90  145.59
   0   0  10 1057.39  116.99
   0   0 -10 1035.20   44.10
   0   0  10  961.70  152.08
   0   0  10  959.10   43.40
   0   0  10  997.00   41.90
   0   0 -10 1063.69   42.30
   0   0  10 1007.40   44.20
   0   0 -10  994.10  111.59
   0  -1 -10    0.20    2.00
   0  -1  10    1.10    3.00
   0   1 -10  -26.90  117.39
   0   1 -10    4.00    2.00
   0   1  10    4.20    2.30
   0   1  10 -105.59   79.69
   0  -1  10 -181.58  113.49
   0  -1  10   32.70   59.69
   0  -1 -10    0.10    2.00
   0   1 -10    0.20    2.30
   0  -1 -10  -38.60   51.19
   0   1  10  -35.00   48.30
   0   1  10    2.10    2.90
   0   1 -10   36.60   55.79
   0   1  10    1.70    2.40
   0  -1 -10   87.19   79.59
   0   2  10 1132.09   46.70
   0   2 -10 1031.50   46.10
   0  -2 -10  822.22  176.58
   0  -2  10 1111.89   46.70
   0  -2 -10  956.30  110.19
   0   2 -10 1021.70  118.59
   0  -2  10  945.51  196.48
   0   2  10 1090.29   44.20
   0   2  10 1058.19  155.28
   0   2  10 1111.99   46.20
   0   2  10 1150.88  115.59
   0  -2 -10 1027.30   44.40
   0   2 -10 1033.70   43.90
   0  -2 -10 1007.40   45.90
   0   2 -10 1241.68  165.38
   0  -2  10 1026.20  120.39
   0  -3  10   73.09  104.39
   0   3 -10   -2.80   59.99
   0  -3  10   35.10   70.09
   0   3 -10   23.80  101.59
   0   4  10  884.81   38.10
   0  -4 -10  798.42  110.69
   0  -4 -10  931.41   39.00
   0   4  10  763.22  172.58
   0   4 -10  919.11   40.60
   0  -4  10  812.92  137.99
   0   4  10  897.31   40.10
   0   4 -10  922.01   37.90
   0   4  10  852.61  114.89
   0  -4  10  807.22  195.88
   0   4 -10  909.01  126.09
   0   4 -10  714.93  181.68
   0  -4 -10  721.93  147.29
   0   5  10    7.90    3.60
   0  -5  10  147.49   94.19
   0   5 -10 -148.09  146.09
   0   5  10  -63.49  104.09
   0   5 -10  -88.09   74.99
   0   5 -10    4.40    2.70
   0   5  10  -15.30   70.89
   0  -5  10    2.10    4.60
   0  -5 -10   31.40  103.79
   0  -5 -10    7.30    3.50
   0   5  10    5.30    3.30
   0   5 -10    0.80    3.40
   0  -5  10   69.89  142.79
   0  -5 -10  -61.29   64.69
   0   6  10 1070.49  157.38
   0  -6 -10 1083.19   49.20
   0  -6  10 1164.98   51.39
   0   6  10 1241.48  265.37
   0   6 -10 1090.59   50.09
   0   6 -10  768.82  239.48
   0   6 -10 1148.79   47.50
   0   6  10 1139.09   47.90
   0   6  10 1140.29   50.09
   0   6 -10 1246.18  158.48
   0   6 -10 1439.86  155.48
   0  -6 -10  789.12  195.08
   0  -6 -10 1214.28  145.59
   0  -7  10    5.70    6.20
   0   7 -10   14.30   92.49
   0   7  10    5.50    5.50
   0   7  10    0.20    4.60
   0   7  10   49.30  106.19
   0  -7 -10   -7.30  143.69
   0   7 -10 -326.37  147.69
   0   7  10   58.79  146.39
   0   7  10    5.20    4.80
   0   7 -10  -39.60  101.59
   0   7 -10  161.18  208.48
   0   7 -10    4.00    5.70
   0   7  10   -1.60    4.90
   0  -7 -10   93.69  103.59
   0   8  10 1266.77   56.49
   0  -8 -10 1676.03  255.07
   0  -8 -10  844.82  184.78
   0   8 -10 1195.98   51.69
   0   8 -10 1213.68   55.49
   0   8  10 1242.78   55.09
   0   9  10    7.20    7.00
   0   9 -10   13.10    7.10
   0   9  10   14.30    6.90
   1   0  10  -16.50   60.59
  -1   0 -10    4.40   49.80
  -1   0 -10  192.08   89.19
  -1   0  10   84.39   59.69
   1   0 -10  124.79   87.59
  -1   0 -10    3.80    2.20
   1   0 -10    3.90    2.10
   1   0 -10    6.10   51.29
  -1   0  10    6.80    2.30
  -1   0  10    3.60    2.90
   1   0  10    5.90    2.50
   1   0  10    4.90    3.00
   1   0 -10    4.60    2.80
   1   0  10    3.80    2.40
  -1   0  10  102.59   90.59
  -1   0 -10    2.30    2.50
   1   0  10  -38.30   89.69
   1   1  10  933.41  150.58
   1   1  10  955.70   40.10
   1  -1 -10  616.04  126.79
  -1   1 -10 1004.40  181.08
   1  -1 -10  880.51   38.10
  -1   1 -10  863.51   40.10
   1   1  10  961.20   40.50
   1  -1 -10  796.12  100.49
  -1  -1  10  902.91   40.40
  -1   1 -10  754.72  101.99
   1   1  10 1058.19  110.29
  -1  -1  10  827.22  109.79
   1   1  10  988.50   38.50
   1  -1 -10  864.11   39.80
  -1   1 -10  880.51   38.20
  -1  -1  10 1133.99  154.58
   1  -1  10  834.62   40.10
  -1   1  10  941.71  107.59
  -1  -1 -10  987.00   40.60
   1   1 -10 1000.90  110.29
  -1   1  10  795.02   39.60
  -1  -1 -10 1022.60   38.90
   1  -1  10  833.22  114.59
   1   1 -10  751.32  167.88
   1   1 -10 1008.30   38.20
  -1   1  10  759.72  157.58
  -1  -1 -10 1310.17  146.59
  -1  -1 -10 1125.19  108.39
   1   1 -10  999.20   40.50
   1  -1  10  831.42  181.88
  -1   1  10  831.22   37.70
  -1   1  10  804.22   39.40
  -1   2 -10   24.00    5.50
   1   2  10   29.90   55.49
   1   2  10  -92.49   80.99
   1  -2 -10   30.80    4.50
   1  -2 -10 -133.09   72.09
  -1   2 -10   83.59   60.29
  -1   2 -10   26.40    4.10
   1  -2 -10   17.10   53.49
   1   2  10   26.10    5.50
   1  -2 -10   25.00    5.20
   1   2  10   35.00    4.70
  -1  -2  10    9.20   62.59
   1   2  10   30.80    5.20
  -1  -2  10 -109.89   87.39
  -1   2 -10   38.20   89.79
   1   2 -10  101.29   56.49
  -1  -2 -10  -28.70   49.00
  -1   2  10  -48.60   82.69
   1   2 -10  -10.80   86.19
   1   2 -10   28.70    5.30
  -1   2  10   34.90    4.30
   1  -2  10   29.90    6.30
  -1  -2 -10   30.10    5.40
  -1  -2 -10   96.09  116.49
  -1  -2 -10   25.90    4.40
   1   2 -10   26.20    3.70
   1  -2  10  208.48  131.79
  -1   2  10   95.39   53.59
  -1   2  10   31.70    5.30
   1  -2  10   19.20   63.19
   1   3  10  721.53  107.99
   1  -3 -10  503.55  143.79
   1  -3 -10  589.24   28.10
  -1  -3  10  645.54  166.68
  -1   3 -10  568.64   29.60
   1   3  10  632.04  137.19
  -1  -3  10  809.42  111.59
  -1   3 -10  573.04   27.60
   1   3  10  684.53   30.10
   1   3  10  714.23   30.40
  -1   3 -10  565.14  106.39
  -1   3 -10  648.94  143.89
   1   3  10  689.63   28.20
   1  -3 -10  553.54   94.59
   1   3 -10  584.64  135.19
  -1   3  10  581.24   29.20
  -1   3  10  667.93  144.39
   1  -3  10  408.36  136.59
   1   3 -10  697.93   27.70
  -1  -3 -10  675.73   30.40
  -1   3  10  583.14   27.50
   1   3 -10  698.73  105.69
   1   3 -10  660.73   29.90
  -1  -3 -10  688.63  100.49
   1  -3  10  588.34   30.10
   1  -3  10  630.14  114.09
  -1   3  10  576.34  100.89
  -1  -3 -10  672.53   28.80
  -1  -3 -10  722.13  159.28
   1  -4 -10   95.69   62.79
  -1   4 -10    5.60  149.29
  -1  -4  10   99.49   85.79
   1  -4 -10   -2.30   92.39
  -1   4 -10   79.89    8.40
  -1  -4  10  144.89  118.59
   1   4  10   26.10  131.39
   1   4  10   93.39   64.89
   1   4  10   69.09    6.70
  -1   4 -10   71.49    6.40
   1   4  10   66.09    7.80
  -1   4 -10   60.99   67.29
   1  -4 -10   74.19    7.00
   1   4 -10   14.00  253.87
   1   4 -10   75.99    6.00
  -1   4  10   75.29    6.50
   1   4 -10   68.39  120.39
   1  -4  10  -49.10   77.19
   1   4 -10   65.69    7.90
  -1  -4 -10  119.09   68.39
  -1  -4 -10   78.09    7.20
  -1  -4 -10   13.60  101.59
  -1   4  10  -31.60   61.19
   1  -4  10   25.30  158.28
  -1   4  10  171.98  134.99
  -1   4  10   82.39    8.10
  -1   5 -10  674.53  189.58
   1   5  10  273.37  154.28
   1   5  10  396.16   18.60
  -1   5 -10  336.87   17.90
   1  -5 -10  350.76   18.80
  -1  -5  10  417.66  105.29
  -1  -5  10  654.63  207.78
   1   5  10  384.66   20.40
  -1   5 -10  209.98   88.59
   1  -5 -10  606.84  168.18
   1   5  10  500.05  149.09
   1  -5 -10  338.47   88.49
   1   5 -10  452.35  185.58
   1   5 -10  382.66   17.60
  -1   5  10  290.37   81.89
  -1   5  10  357.96   19.90
  -1  -5 -10  374.56   19.10
  -1   5  10  357.46   18.00
  -1   5  10  413.96  145.19
   1   5 -10  312.07   94.89
   1  -5  10  256.77  153.58
   1  -5  10  384.26  101.69
   1   5 -10  374.66   20.30
  -1   6 -10  368.66  101.99
   1  -6 -10  329.07   90.79
  -1   6 -10  248.58   13.70
   1   6  10  247.88   14.20
  -1  -6  10  236.68   17.10
  -1   6 -10  238.48   16.10
  -1   6 -10  -53.19  203.28
   1  -6 -10  147.99  170.08
   1   6  10  364.16  101.09
   1   6  10  236.68   15.70
   1   6  10  236.98   16.00
   1   6  10  284.47  184.68
  -1   6  10  259.67   16.80
   1   6 -10  244.18   13.20
   1   6 -10   29.40  203.28
   1   6 -10  198.38  102.49
  -1  -6 -10   54.89  156.48
  -1  -6 -10  232.78   14.60
   1   6 -10  343.77   96.99
  -1   6  10  239.78   14.00
  -1   6  10  275.57  188.38
  -1  -6 -10  340.97   95.19
  -1   6  10  251.87   15.70
  -1   6  10  254.77   94.79
   1  -6  10  248.98   17.10
   1   6 -10  247.08   15.90
   1  -7 -10  738.93  220.18
  -1   7 -10  399.36   21.10
  -1   7 -10  505.35  223.98
   1   7  10  460.35   24.40
   1   7  10  491.15   25.80
   1   7  10  473.85   24.70
   1  -7 -10  509.15  117.29
  -1   7 -10  408.76   24.20
  -1   7 -10  454.85  119.39
  -1   7 -10  370.76  214.68
   1   7  10  321.77  116.79
  -1  -7  10  460.35   25.90
   1   7  10  718.63  179.18
  -1   7  10  397.06   21.70
  -1  -7 -10  445.66  158.38
   1  -7  10  377.16   25.00
  -1  -7 -10  502.65  111.59
   1   7 -10  703.73  165.68
   1   7 -10  509.65   21.40
  -1   7  10   85.09  109.59
  -1   7  10  -58.99  148.79
  -1   7  10  402.66   23.60
  -1   7  10  388.36   23.80
   1   7 -10  516.85  195.08
  -1  -7 -10  475.15   24.60
   1   8  10   34.80   10.30
   1   8  10   27.30    9.60
  -1   8 -10   33.50    9.50
   1  -8 -10   46.20  114.79
   1  -8 -10  452.05  192.18
  -1   8 -10   33.70    8.30
  -1   8  10   34.40   13.20
   1   8 -10  143.99  204.38
  -1   8  10  -22.50  186.08
  -1   8  10   35.90   10.30
   1   8 -10   25.40    9.60
  -1   8  10    5.10  124.39
   1   8 -10  203.68  144.49
   1   8 -10   26.70    6.60
   1   9  10  218.58   18.40
  -1   9 -10  283.57   19.70
   1   9  10  204.48   18.90
  -1   9  10  274.97   20.60
   1   9 -10  224.28   14.80
  -1   9  10  258.47   18.40
   1   9 -10  231.58   18.80
  -2   0 -10 1240.18  121.49
   2   0  10 1256.67   52.89
   2   0 -10 1934.01  324.67
   2   0 -10 1230.68   50.29
   2   0  10 1222.48   52.29
  -2   0  10 1275.57  186.58
  -2   0 -10 1265.77  182.18
  -2   0  10 1230.18   52.59
   2   0  10 1245.28   50.89
  -2   0 -10 1174.38   52.49
   2   0  10 1282.97  126.79
  -2   0  10 1152.28  115.29
   2   0  10 1597.24  179.08
  -2   0 -10 1221.48   50.99
   2   0 -10 1226.68   52.19
  -2   0  10 1245.58   50.09
  -2  -1  10   35.40    6.00
   2  -1 -10   -9.50  133.89
  -2  -1  10    7.30   56.79
  -2   1 -10   59.59   54.69
  -2  -1  10  226.68  127.59
  -2   1 -10   41.20    5.90
   2  -1 -10   62.09   95.59
   2   1  10   31.90    4.80
  -2   1 -10   68.29   83.89
  -2   1 -10   39.10    4.60
   2   1  10  -62.69  118.89
   2   1  10   86.69   60.99
   2   1  10   35.70    5.70
   2   1  10   43.00    6.40
  -2   1  10   36.90    5.90
  -2   1  10   35.70    4.30
   2  -1  10   51.69   63.59
  -2  -1 -10   60.89   50.99
   2   1 -10   44.80    4.30
   2   1 -10  -24.10  154.18
   2   1 -10   42.80    5.60
  -2   1  10   18.20   51.19
  -2   1  10   36.10    5.40
  -2  -1 -10   37.30    5.80
   2  -1  10   33.30    6.20
  -2  -1 -10  -35.20   75.79
  -2  -1 -10   36.20    4.70
   2  -1  10   55.29  117.69
   2   1 -10   -5.90  104.69
  -2   1  10   89.79   85.19
   2  -1  10   34.10    5.30
   2   2  10 1145.49   47.90
  -2   2 -10 1184.68  119.49
  -2  -2  10  934.31  186.68
   2  -2 -10  912.61  174.48
  -2   2 -10  952.80  186.28
   2  -2 -10 1162.68   47.80
   2   2  10 1169.58   49.70
   2   2  10 1284.37  120.69
  -2   2 -10 1149.69   47.90
   2  -2 -10 1252.77  115.39
   2   2  10 1148.39   49.70
   2   2  10 1250.47  163.28
  -2  -2  10 1170.98   50.19
  -2  -2  10 1219.68  127.69
  -2   2 -10 1145.79   49.99
  -2  -2 -10 1264.17  155.38
  -2  -2 -10 1140.19   48.20
  -2   2  10 1156.08   49.60
  -2  -2 -10 1139.89   49.80
  -2   2  10 1131.39  118.09
   2   2 -10 1162.58   47.10
  -2   2  10 1087.39  186.78
   2   2 -10 1131.19  120.19
   2  -2  10 1027.60  126.59
  -2   2  10 1162.98   47.20
   2   2 -10 1084.89  196.88
  -2  -2 -10 1060.89  111.79
   2  -2  10 1060.69  205.28
   2   2 -10 1123.39   49.30
  -2   2  10 1146.19   49.20
   2  -2  10 1218.28   50.39
   2   3  10  252.57   15.30
  -2   3 -10  233.38   72.69
  -2   3 -10  256.37   13.50
  -2  -3  10  251.77   15.70
  -2  -3  10  222.88  115.39
  -2  -3  10  239.08   79.79
  -2   3 -10  254.17   15.50
  -2   3 -10  301.87  140.29
   2   3  10  487.15  126.19
   2   3  10  262.27   13.80
   2  -3 -10  260.27   13.60
   2  -3 -10  338.77  110.79
   2   3  10  245.78   15.20
   2   3  10  248.68   67.59
   2  -3 -10  273.27   71.19
  -2   3  10  270.77   14.90
  -2  -3 -10  255.57   15.40
   2  -3  10  277.67   16.20
   2  -3  10  431.26  139.89
  -2  -3 -10  257.87   14.10
  -2   3  10  131.09   68.49
  -2   3  10   54.89  129.19
   2  -3  10  270.57   87.79
   2   3 -10  342.07   81.09
   2   3 -10  200.98  142.29
  -2   3  10  279.37   13.30
  -2  -3 -10  149.09  127.09
  -2   3  10  275.17   15.40
   2   3 -10  247.48   14.80
  -2  -3 -10  265.07   64.49
   2   3 -10  254.87   12.80
   2   4  10  287.57   15.70
  -2  -4  10  211.18   84.39
  -2   4 -10  310.47   17.70
   2  -4 -10  318.07   16.10
  -2  -4  10  380.26  156.58
   2   4  10  275.57   76.99
  -2   4 -10  268.57   80.49
   2   4  10  294.27   17.40
  -2  -4  10  294.77   20.10
  -2   4 -10  276.27  115.99
   2  -4 -10  511.55  150.08
   2   4  10  -57.69  147.09
   2  -4 -10  270.87   75.39
  -2   4 -10  319.37   15.70
  -2  -4 -10  322.67   16.50
  -2   4  10  294.77   76.49
  -2   4  10  299.47   16.90
   2  -4  10  200.18  172.68
  -2   4  10  507.75  125.19
   2   4 -10  318.67  145.09
  -2   4  10  308.77   17.40
   2   4 -10  320.97   81.49
   2   4 -10  319.17   17.40
   2  -4  10  290.27   98.69
  -2  -4 -10  186.18   67.09
   2   4 -10  322.37   14.80
  -2  -4 -10  227.58  107.39
  -2   4  10  301.27   15.20
   2   5  10  205.08   83.79
   2   5  10  153.08   12.30
   2   5  10  161.78   10.60
  -2   5 -10  -25.70   83.19
  -2  -5  10  100.59  129.99
  -2  -5  10   -0.10   89.99
  -2   5 -10  273.57  130.59
   2  -5 -10  130.59  116.89
  -2   5 -10  134.89   11.80
  -2   5 -10  147.09    9.90
   2  -5 -10  174.58   73.69
  -2  -5  10  145.29   16.60
   2   5  10    6.10  155.88
  -2   5  10  152.58    9.80
  -2  -5 -10   98.09  147.39
  -2   5  10  159.08   11.80
   2  -5  10  144.19  151.98
  -2  -5 -10  135.59   10.70
  -2   5  10  582.14  165.98
  -2   5  10   71.69   78.09
   2   5 -10  -91.19  167.08
   2   5 -10  204.48   87.99
   2   5 -10  153.48    8.90
   2   5 -10  145.59   11.40
  -2   5  10  153.28   11.30
  -2  -5 -10  149.49   79.79
   2  -5  10  283.77  102.59
  -2   6 -10  742.63   35.90
  -2   6 -10  770.92   38.30
   2   6  10  860.11   38.40
   2  -6 -10  588.34  133.59
   2   6  10  825.42   36.20
   2  -6 -10  825.82  177.08
  -2  -6  10  843.62   39.50
  -2   6 -10  751.02  183.88
   2   6  10  849.61   38.70
   2   6  10  750.52  121.79
   2   6  10  494.05  200.28
  -2   6 -10  734.83  155.68
  -2   6  10  839.62   35.90
  -2  -6 -10  660.53  194.88
  -2  -6 -10  826.82  138.69
  -2  -6 -10  796.82   36.80
  -2   6  10  829.92   37.60
   2   6 -10  834.42   34.90
   2   6 -10  566.14  226.98
   2   6 -10  874.21  155.38
  -2   6  10  807.72   38.00
   2   6 -10  812.32   37.90
   2  -6  10  833.02   39.10
   2   7  10   51.79   10.20
  -2   7 -10   54.59    9.60
  -2   7 -10   76.99  220.48
   2   7  10   48.90   12.50
  -2   7 -10   56.19    7.20
   2  -7 -10  -97.79  149.99
   2   7  10   58.39   10.30
   2  -7 -10  128.99   99.69
  -2   7 -10  -12.80   98.69
  -2   7  10  195.98  212.38
  -2  -7 -10   63.49    9.10
   2   7 -10   58.99    6.60
  -2   7  10   48.80    8.10
   2   7 -10 -182.68  213.98
   2  -7  10   55.09   11.30
   2   7 -10   44.00  108.19
   2   7 -10   65.19    9.30
  -2   7  10   95.19  103.49
  -2   7  10   60.59    9.40
  -2   8 -10  439.06   25.20
  -2   8 -10  430.66   21.80
  -2   8 -10  350.76  138.59
  -2   8 -10  338.97  274.57
   2   8  10  417.46   25.20
   2   8  10  425.96   24.80
  -2   8  10  410.86   25.40
  -2   8  10  408.16   23.90
   2   8 -10  449.16   24.50
   3   0 -10    1.90    2.30
  -3   0  10   -6.30   56.49
  -3   0 -10 -140.99   72.49
   3   0  10    2.10    3.00
  -3   0  10  -56.59  107.89
  -3   0 -10    1.50    2.60
  -3   0 -10    2.00    2.40
  -3   0 -10   31.90   50.89
   3   0 -10   42.20  115.19
  -3   0  10    2.90    1.80
   3   0 -10   10.30   60.29
   3   0  10  -15.30   58.19
   3   0  10    3.50  129.39
  -3   0  10    2.90    3.10
   3   0 -10    4.10    2.10
   3   0  10    3.70    2.90
   3   0  10    3.40    2.50
  -3   1 -10   75.29    6.20
  -3   1 -10  158.98  118.69
  -3   1 -10   86.99   57.79
   3  -1 -10   68.19   58.29
   3   1  10   63.89    7.30
   3  -1 -10   83.29    5.90
  -3   1 -10   78.19    7.70
   3   1  10 -105.29   88.69
  -3  -1  10   56.69    7.20
   3   1  10  -43.80   53.79
  -3  -1  10   69.09   57.69
   3   1  10   58.59    6.20
   3  -1 -10  192.18  114.09
   3   1  10   59.49    7.00
  -3  -1  10   27.30  121.39
  -3   1  10   90.29   58.09
   3  -1  10   83.79    7.30
   3  -1  10  112.19   67.39
  -3  -1 -10   63.19    6.10
   3   1 -10   74.29  113.79
  -3  -1 -10  156.58  102.69
  -3  -1 -10    1.80   53.49
  -3   1  10   86.89    7.20
  -3  -1 -10   57.79    7.00
   3   1 -10   85.29   59.89
   3   1 -10   59.59    6.50
   3   1 -10   61.99    5.10
  -3   1  10   82.89    5.60
  -3   1  10  130.69   95.19
   3  -1  10  103.89  117.89
   3   2  10  -13.40  125.49
   3  -2 -10   97.09   52.19
  -3  -2  10 -320.17  124.09
   3   2  10  -32.40   56.79
  -3  -2  10   11.70   61.79
  -3   2 -10 -102.99   54.39
   3  -2 -10  -39.60   79.59
  -3   2 -10    1.50  116.49
  -3  -2 -10  146.69  113.49
   3  -2  10  -16.50   63.59
  -3   2  10  -32.10   56.19
   3   2 -10   32.20   93.89
   3   2 -10    3.10   60.69
   3  -2  10  -30.80  102.39
  -3  -2 -10   -2.00   52.19
  -3   2  10    3.30  114.69
  -3   3 -10  422.06  153.08
   3  -3 -10  713.23   29.90
   3   3  10  627.44   31.40
   3   3  10  644.74   31.20
  -3   3 -10  709.83   32.10
   3  -3 -10  691.13  100.49
   3  -3 -10  697.73  134.59
  -3   3 -10  638.44  109.99
  -3  -3  10  698.03  117.69
   3   3  10  657.93  164.38
   3   3  10  686.83  111.49
  -3  -3  10  593.44  144.09
  -3   3 -10  717.73   30.00
  -3  -3  10  632.44   31.80
  -3  -3 -10  626.64   30.00
  -3   3  10  718.03   31.10
  -3  -3 -10  636.44   31.50
  -3   3  10  712.83   29.00
   3   3 -10  507.55  109.69
  -3  -3 -10  518.75  100.19
  -3  -3 -10  616.64  137.09
   3  -3  10  804.12  125.09
   3  -3  10  740.23   32.40
   3   3 -10  659.93   28.40
  -3   3  10  716.03   31.60
  -3   3  10  803.52  181.98
   3   3 -10  636.14   30.70
   3   3 -10  630.74  144.69
  -3   3  10  638.44  102.49
   3  -3  10  700.83  192.48
  -3   4 -10  153.38    9.90
  -3   4 -10  183.58   78.59
  -3   4 -10  156.98   11.80
  -3  -4  10  316.97  174.38
   3   4  10  127.89   70.59
   3   4  10  201.68  116.89
  -3  -4  10  145.59   12.10
   3  -4 -10  234.18   71.89
  -3  -4  10  160.68   86.99
  -3   4 -10   27.30  137.09
   3   4  10  148.09   11.60
   3  -4 -10  178.28  137.99
  -3  -4 -10   92.69   66.79
   3   4 -10  154.48   10.90
   3  -4  10  163.48   95.29
  -3   4  10  152.58   11.40
  -3   4  10  151.98   10.90
  -3   4  10  141.49    9.20
   3  -4  10  210.58  136.79
   3   4 -10  154.78    8.50
  -3  -4 -10  151.98   10.50
   3  -4  10  153.78   12.10
   3   4 -10  109.59   77.39
   3   4 -10  484.05  160.68
  -3  -4 -10  254.57  141.09
  -3   4  10  334.87  146.29
  -3   4  10   24.30   65.49
   3   5  10  338.07   96.19
  -3   5 -10  624.14   28.30
  -3   5 -10  680.63  131.39
  -3   5 -10  487.15  189.58
   3   5  10  458.95   26.70
   3  -5 -10  591.14  112.89
   3   5  10  287.07  131.89
  -3  -5  10  144.99  168.98
  -3  -5  10  466.55   27.40
   3  -5 -10  638.24  172.38
   3   5 -10  666.03  158.28
  -3  -5 -10 1083.79  216.48
   3  -5  10  541.05  117.59
   3   5 -10  531.85   26.50
  -3   5  10  571.34   27.20
  -3  -5 -10  525.35   25.90
   3   5 -10  551.24   23.70
  -3   5  10  594.34   26.90
   3  -5  10  393.26  210.78
  -3   5  10  560.74   24.70
   3   5 -10  586.74  125.79
  -3  -5 -10  510.55  116.39
   3  -6 -10 -191.88  120.79
  -3   6 -10 -100.49  101.99
  -3  -6  10    9.20    5.70
  -3   6 -10    8.20    3.70
  -3   6 -10    7.80    4.80
   3  -6 -10   21.30   89.09
   3   6  10    5.50    4.50
   3   6  10    6.60    4.70
   3   6  10   12.40    4.70
   3   6  10   11.10    5.20
  -3  -6 -10    2.70    5.00
  -3   6  10  -76.89   85.59
  -3   6  10  265.27  192.68
  -3   6  10    9.40    4.10
  -3  -6 -10    5.50    3.80
   3   6 -10  -44.40   91.59
  -3   6  10    7.60    5.10
   3   6 -10   10.50    3.30
  -3   6  10   10.40    4.90
   3  -6  10   12.30    6.00
  -3   7 -10  264.77  175.28
  -3   7 -10  100.69   11.40
   3   7  10   78.39   10.80
   3   7  10   81.69   11.50
  -3   7 -10   60.99  112.09
   3   7  10   65.09   11.10
  -3   7  10   89.49    9.40
   3   7 -10   74.59   10.20
  -3   7  10   91.29   12.60
  -3  -7 -10   84.39    9.80
   3  -7  10   87.99   12.90
   3   7 -10   70.49    7.20
  -3   8 -10   10.80    6.40
   3   8  10   11.10    6.70
  -3   8 -10   13.80    5.30
   3   8  10   10.60    6.70
   3   8 -10   11.70    6.00
   3   8 -10   14.60    4.70
  -3   8  10    4.10    5.90
  -3   8  10   12.60    6.70
  -4   0  10  657.83   29.00
   4   0  10  732.03  168.68
   4   0 -10  722.73   29.60
  -4   0  10  700.43   32.30
   4   0 -10  605.44   96.59
   4   0  10  687.43   32.10
  -4   0  10  739.13  105.19
  -4   0 -10  695.23  133.59
   4   0 -10  898.21  167.78
  -4   0 -10  716.63  103.49
   4   0  10  687.83   31.90
  -4   0  10  818.92  139.99
  -4   0 -10  721.43   31.10
   4   0  10  807.42  114.89
  -4   0 -10  727.23   32.80
   4  -1 -10  298.67   67.39
  -4  -1  10  369.46  139.19
  -4   1 -10  327.97   18.10
  -4   1 -10  204.88   68.69
   4   1  10  251.47  132.39
   4   1  10  347.87   83.89
  -4   1 -10  155.08  125.79
   4   1  10  331.87   17.90
  -4  -1  10  333.37   18.00
   4  -1 -10  316.47   15.30
  -4   1 -10  315.17   16.40
   4  -1 -10  473.25  130.59
   4   1  10  335.77   17.80
  -4  -1  10  216.48   76.69
  -4  -1 -10  328.77   18.10
   4  -1  10  184.08   76.29
  -4   1  10  329.67   17.80
  -4  -1 -10  312.87   16.50
  -4   1  10  335.47   15.00
   4   1 -10  323.77   16.70
   4   1 -10  320.67   14.90
   4   1 -10  402.26   81.79
  -4   1  10  318.37  123.09
   4  -1  10  333.77   17.50
  -4   1  10  568.64  100.99
  -4  -1 -10  337.57   71.79
   4   1 -10  292.67  138.79
  -4  -1 -10  448.76  132.99
   4  -1  10  339.87   18.00
   4  -1  10  433.56  132.69
   4   2  10  758.22   32.60
  -4   2 -10  614.04  144.79
   4  -2 -10  616.74  147.99
   4   2  10  818.02  169.68
  -4  -2  10  810.32  117.49
  -4   2 -10  596.44   98.79
  -4   2 -10  679.23   32.60
  -4  -2  10  742.93   32.80
  -4   2 -10  659.13   30.70
   4   2  10  528.85  107.89
   4  -2 -10  656.53   29.90
   4   2  10  759.52   32.90
  -4  -2  10  532.15  157.48
   4  -2 -10  653.93  105.79
   4  -2  10  727.03   32.10
  -4   2  10  421.76   99.59
   4  -2  10  990.40  192.38
  -4  -2 -10  748.93  143.39
  -4  -2 -10  690.73   32.60
   4  -2  10  730.63   32.70
   4  -2  10  651.63  120.69
   4   2 -10  831.92  146.19
   4   2 -10  690.53   29.10
  -4  -2 -10  674.73   31.00
  -4   2  10  730.03   32.40
  -4  -2 -10  580.34   94.79
   4   2 -10  668.43  109.19
  -4   2  10  705.63   31.80
  -4   2  10  456.05  145.09
   4   2 -10  677.03   31.10
   4   3  10  -31.70  138.19
  -4  -3  10  193.28  170.38
  -4   3 -10   23.20    6.40
  -4  -3  10   36.60    7.20
  -4   3 -10   32.70    5.20
  -4  -3  10   35.80   85.49
   4  -3 -10   72.39   92.89
   4  -3 -10   24.40   62.69
   4   3  10   32.20    6.60
   4   3  10  156.18   72.49
  -4   3 -10   22.40   68.39
  -4   3 -10 -153.08  127.79
   4   3  10   34.60    6.90
  -4  -3 -10   57.99   94.29
   4  -3  10  183.08  146.39
  -4   3  10   36.80    6.00
  -4  -3 -10   21.30    5.20
   4   3 -10   27.30    3.70
  -4   3  10   38.10    4.60
   4   3 -10   24.20    5.50
   4   3 -10 -145.09   65.39
  -4  -3 -10   27.00    6.30
   4  -3  10   35.20    7.20
  -4   3  10   36.60    6.60
  -4  -3 -10   64.79   62.09
   4  -3  10  109.29   80.49
   4   3 -10  221.58  128.79
  -4   4 -10  754.42  191.68
   4   4  10  821.02  124.49
  -4   4 -10  873.31  124.49
   4   4  10  939.41   40.20
  -4  -4  10  874.01   40.70
   4  -4 -10  469.75  167.48
   4   4  10  799.72  171.98
   4  -4 -10  764.62  118.59
   4   4  10  896.51   43.40
  -4   4  10  898.01   37.30
  -4   4  10  892.61   39.30
  -4  -4 -10  877.91  118.39
   4  -4  10 1657.03  267.77
  -4  -4 -10 1093.79  188.38
  -4   4  10  872.91   39.80
   4   4 -10  771.22  132.19
   4  -4  10  914.51   40.50
   4   4 -10  867.21   39.00
   4  -4  10  732.83  146.49
   4   4 -10 1265.87  185.38
   4   4 -10  855.31   36.30
  -4   5 -10   11.10    3.70
   4  -5 -10 -221.88  136.19
   4  -5 -10  119.09   80.49
   4   5  10   12.90    5.30
  -4   5  10    7.50    4.50
  -4   5  10    7.20    4.40
  -4   5  10 -344.17  148.39
   4   5 -10  -33.60  172.58
  -4   5  10  109.89   81.39
  -4   5  10   12.30    4.00
   4  -5  10    2.10    4.60
   4   5 -10   15.30   84.49
  -4   6 -10 1264.67   53.79
   4   6  10 1390.46   65.19
  -4   6 -10 1269.17  171.18
  -4  -6  10 1152.18   54.69
  -4   6 -10 1129.09   58.19
   4   6  10 1192.28   53.99
   4   6  10 1178.58   53.39
   4   6 -10 1233.08   52.99
  -4  -6 -10 1379.36   57.69
   4  -6  10 1251.97   55.19
  -4   6  10 1146.19   53.49
  -4   6  10 1165.98   50.99
   4   6 -10 1242.18   49.80
  -4   6  10 1161.58   52.59
  -4   7 -10  182.58   12.70
   4   7  10  180.38   15.50
   4   7  10  168.78   14.90
  -4   7 -10  178.78   15.10
   4   7  10  138.79   16.70
  -4   7  10  202.68   16.40
   4   7 -10  181.68   10.60
  -4  -7 -10  176.28   13.40
  -4   7  10  183.98   12.60
   4  -7  10  180.28   16.30
   4   7 -10  170.18   13.80
   4   8  10  798.52   38.80
  -4   8 -10  750.92   35.70
   4   8  10  773.22   39.00
  -4   8 -10  761.82   38.80
   4   8 -10  790.52   37.40
   4  -8  10  750.22   39.20
   4   8 -10  828.32   33.90
  -4   8  10  763.02   36.80
  -4   8  10  745.73   39.10
  -5   0 -10    0.50    2.70
   5   0  10    2.40    3.70
  -5   0 -10   90.99  110.19
   5   0  10 -129.39  132.89
   5   0 -10    3.60    2.10
  -5   0 -10    0.30    3.30
   5   0 -10   68.09   61.29
   5   0  10   38.20   72.49
  -5   0 -10  -35.60   55.19
   5   0 -10   33.00  110.99
   5   0  10    1.40    3.10
  -5   0  10    0.80    3.60
   5   1  10  385.96   92.99
  -5   1 -10  412.66   22.40
   5  -1 -10  338.67   77.99
  -5   1 -10  394.06   20.70
  -5   1 -10  328.07  142.29
   5   1  10  512.95   23.20
  -5  -1  10  482.05   22.80
   5  -1 -10  327.97  134.09
  -5   1 -10  449.26   95.89
   5   1  10  500.75  169.08
   5   1  10  489.95   22.50
   5   1 -10  624.04  101.59
  -5  -1 -10  487.45   23.10
   5   1 -10  507.85  138.79
  -5  -1 -10  467.45  141.99
   5  -1  10  369.06   21.30
  -5   1  10  369.46   18.80
   5  -1  10  347.87  123.59
  -5  -1 -10  497.45   21.70
   5  -1  10  320.47   94.09
  -5   1  10  392.26   21.70
   5   1 -10  499.05   19.20
   5  -1  10  373.26   21.60
  -5  -1 -10  686.03   92.49
  -5   2 -10  331.87   19.30
  -5  -2  10  379.56   19.60
   5   2  10  320.77  159.38
  -5   2 -10  325.17   17.60
  -5   2 -10  317.07   80.09
   5   2  10  137.49   81.19
   5   2  10  371.96   19.50
   5  -2 -10  247.28  133.09
   5   2  10  385.66   19.30
   5  -2 -10  340.97   79.49
  -5   2 -10  542.85  157.88
  -5  -2 -10  427.16   78.89
  -5  -2 -10  350.16   18.00
   5   2 -10  349.47   17.50
   5  -2  10  343.47   96.39
  -5   2  10  344.97   18.30
  -5   2  10  346.07   19.00
   5  -2  10  357.86  186.08
   5  -2  10  351.96   19.10
  -5  -2 -10  266.27  136.49
   5   2 -10   67.59  135.79
  -5  -2 -10  359.86   19.50
   5   2 -10  345.87   81.09
  -5   2  10  357.36   16.20
   5  -2  10  360.06   18.60
   5   2 -10  352.56   15.50
  -5   3 -10  327.87   81.79
  -5  -3  10  343.27  154.58
   5  -3 -10  178.98   71.09
  -5   3 -10  206.98   14.50
   5   3  10  250.47   15.00
   5   3  10  -69.19  161.48
   5   3  10  250.57   13.80
  -5  -3  10  256.77   87.49
   5   3  10  248.38   14.50
   5  -3 -10  325.47  146.59
   5   3  10  240.08   83.89
  -5  -3  10  247.68   15.40
  -5   3 -10   41.10  146.79
  -5  -3 -10  244.18   14.90
   5  -3  10  186.48   13.80
  -5   3  10  195.78   13.10
   5  -3  10  204.08   13.30
   5   3 -10  238.28   10.70
  -5  -3 -10  138.69   72.69
   5  -3  10  166.08  134.49
  -5   3  10  161.88  142.19
  -5  -3 -10  257.47  124.99
   5   3 -10  258.47   13.30
  -5   3  10  193.38   11.30
   5  -3  10  289.67   98.09
   5   3 -10  196.88   81.29
  -5   3  10  161.68   72.39
  -5   3  10  191.48   13.80
   5   3 -10  283.97  124.39
  -5  -4  10  350.76  120.29
  -5  -4  10  479.15  208.08
   5   4  10  287.77   17.60
   5   4  10  275.67   16.00
  -5   4 -10  298.57   17.80
  -5   4 -10  294.47   15.90
   5   4  10  279.27   16.80
  -5  -4  10  281.77   17.90
   5   4  10  278.17   16.90
   5   4 -10  292.57   15.80
   5  -4  10  279.77   16.10
   5   4 -10  299.37   13.20
   5   4 -10  298.97  102.59
  -5   4  10  299.87   16.40
  -5  -4 -10  293.37   16.40
   5   4 -10 -215.58  234.48
   5  -4  10  302.07   17.60
  -5   4  10  292.07   14.50
  -5   4  10  275.97   16.80
  -5   5 -10  298.77   17.30
   5   5  10  347.27   20.20
   5   5  10  367.26   19.40
  -5   5 -10  296.57   19.30
  -5  -5  10  369.86   20.90
   5   5  10  347.37   18.60
  -5  -5 -10  354.76   18.60
  -5   5  10  286.07   16.20
  -5   5  10  286.47   17.60
   5   5 -10  364.56   18.20
   5   5 -10  364.96   15.00
  -5   5  10  281.47   18.60
   5  -5  10  281.57   18.90
   5   6  10  119.69   11.50
   5   6  10  124.49   16.40
  -5   6 -10  114.89   12.20
  -5   6 -10  117.59   10.10
   5   6  10  109.79   12.30
  -5  -6  10  127.39   16.70
  -5   6  10  117.39   12.30
  -5  -6 -10  112.89   10.60
  -5   6  10  115.29   10.50
   5   6 -10  108.59   10.40
   5   6 -10  109.19    7.40
  -5   6  10  123.49    9.70
  -5   7 -10   78.79    9.50
   5   7  10  107.99   12.80
   5   7  10  104.59   12.80
  -5   7 -10   89.89   12.20
   5   7  10  111.09   20.40
  -5   7  10   78.99   10.00
  -5   7  10   88.39   10.80
  -5  -7 -10  122.99   11.40
   5   7 -10  113.09   13.20
   5  -7  10   76.79   13.10
   6   0 -10  525.95  147.29
  -6   0  10  611.74   29.30
  -6   0  10  574.84  167.38
   6   0 -10  453.35   87.29
   6   0  10  595.44   29.20
  -6   0  10  527.75  120.99
  -6   0 -10  708.83   30.60
   6   0  10  600.04   28.60
  -6  -1  10  281.37   16.80
  -6   1 -10  305.97   17.40
  -6   1 -10  274.67   15.90
   6  -1 -10  360.36  160.38
  -6  -1  10  346.37  183.38
   6  -1 -10  216.38   92.59
  -6  -1  10  312.07  108.19
   6   1  10  290.97   16.80
   6   1  10  295.17   16.40
  -6   1  10  230.68  166.68
  -6   1  10  296.07   98.39
  -6   1  10  304.57   16.90
   6  -1  10  296.27   16.50
   6   1 -10  167.48  161.88
  -6   1  10  295.37   13.20
  -6  -1 -10  235.58   17.80
   6   1 -10  349.77  131.49
   6  -1  10  306.37   16.50
  -6  -1 -10  305.07   17.40
   6   2  10  970.10   42.60
  -6   2 -10  951.10   42.70
   6   2  10  939.41   41.20
  -6  -2  10  925.71   42.30
  -6   2 -10  953.10   41.10
  -6  -2 -10  905.31   42.30
  -6   2  10  962.40   38.60
   6  -2  10 1002.80   41.70
  -6   2  10  975.70   42.10
  -6  -2 -10  920.71   41.00
   6  -2  10  883.11   43.10
  -6   2  10  965.00   41.40
   6   3  10   45.70    7.50
   6   3  10   41.50    7.80
   6   3  10   43.10    6.70
  -6   3 -10   36.90    6.30
   6   3  10   28.30    9.80
  -6  -3  10   42.40    8.70
   6  -3  10   40.50    6.80
  -6  -3 -10   28.40    8.90
   6   3 -10   32.00    5.30
  -6   3  10   44.80    5.20
  -6   3  10   42.90    6.80
  -6  -3 -10   40.40    6.70
   6  -3  10   41.60    7.80
  -6   3  10   44.40    8.00
  -6  -4  10  375.86   21.30
  -6   4 -10  320.37   20.30
   6   4  10  356.36   19.40
   6   4  10  377.46   19.90
   6   4  10  365.26   21.10
   6   4  10  357.56   19.50
  -6   4 -10  332.47   18.90
   6  -4  10  368.86   19.10
   6  -4  10  373.96   20.20
  -6   4  10  365.46   19.10
   6   4 -10  336.57   17.60
  -6   4  10  375.36   20.20
  -6   4  10  396.66   17.30
  -6  -4 -10  325.47   18.90
   6   5  10  125.69   11.60
  -6   5 -10   83.69    9.20
   6   5  10  104.99   12.70
  -6  -5  10  117.09   13.30
  -6   5 -10  106.99   14.50
   6   5  10  107.49   10.80
  -6   5  10  104.29    9.90
   6   5 -10  105.09    8.80
  -6  -5 -10   98.89   10.40
   6  -5  10   92.09    9.60
   6  -5  10   90.99   11.40
  -6   5  10  103.39    8.70
  -6   5  10  101.99   11.40
  -6   6 -10   86.19    9.70
   6   6  10   92.59   12.10
  -6   6 -10   80.59   11.60
   6   6  10   90.49   11.20
  -6  -6 -10   87.99   10.20
  -6   6  10   90.99   10.10
  -6   6  10   98.59    9.40
   6   6 -10   86.79    9.30
  -6   7 -10   90.19   12.80
   6   7  10   87.59   13.60
  -6   7 -10   89.79   10.70
   6   7  10  101.19   13.90
   6   7  10   97.89   12.20
  -6  -7 -10  104.69   11.80
   6   7 -10  104.79   10.90
  -6   7  10   89.79   11.10
  -6   7  10   89.29   13.00
  -7   0 -10    1.80    3.50
  -7   0  10    3.10    4.20
   7   0  10    3.40    4.10
   7   0  10    3.90    3.80
  -7   0 -10    3.50    4.10
   7   1  10   99.99    9.50
  -7  -1  10  102.89   10.60
  -7   1 -10  150.88   10.30
   7  -1  10  151.08   10.80
  -7  -1 -10  111.59   10.90
  -7   1  10  136.09   11.10
   7  -1  10  141.39    9.90
  -7  -1 -10  114.19    9.70
   7   2  10   88.89    8.10
  -7  -2  10   97.39   10.30
   7   2  10   89.69    9.30
  -7   2 -10   76.69    8.50
   7   2  10   99.79    9.10
  -7   2  10   90.79    8.60
   7  -2  10   88.29    8.70
  -7   2  10   93.29    6.00
   7  -2  10   85.49    8.70
  -7   2  10   97.19    9.80
  -7  -2 -10   64.79   11.70
  -7  -2 -10   74.89    8.30
  -7  -3  10  348.67   21.20
  -7   3 -10  330.37   21.60
  -7   3 -10  397.66   21.80
   7   3  10  365.96   21.50
   7   3  10  353.26   19.00
   7   3  10  362.36   19.80
   7  -3  10  396.66   19.70
  -7   3  10  416.86   20.00
  -7  -3 -10  366.86   21.30
  -7   3  10  405.86   21.20
  -7   3  10  412.66   17.50
   7  -3  10  421.56   20.30
  -7  -3 -10  373.76   20.10
   7   4  10  389.86   23.50
  -7   4 -10  404.26   22.30
   7   4  10  378.46   19.90
  -7   4 -10  388.66   20.40
  -7  -4  10  369.96   22.40
  -7   4  10  375.16   21.30
  -7  -4 -10  379.96   20.70
  -7   4  10  392.96   18.10
   7  -4  10  390.06   20.40
   7  -4  10  388.16   20.30
  -7   4  10  383.16   20.00
  -7   5 -10   76.39    9.00
   7   5  10   51.99   10.70
   7   5  10   49.80   10.10
  -7  -5  10   50.59   13.00
  -7   5 -10   74.79   10.90
   7  -5  10   79.69   11.10
  -7   5  10   82.19    9.20
  -7  -5 -10   52.49    9.00
  -7   5  10   69.89    8.00
   7  -5  10   83.99    9.40
  -7   5  10   77.69   11.50
   7   6  10  105.19   11.70
   7   6  10   96.49   13.50
   7   6  10  107.79   12.80
  -7   6 -10   86.49   12.50
  -7   6 -10   93.59   10.60
   7  -6  10  106.09   12.70
  -7   6  10  103.29   10.80
   7  -6  10  100.79   10.90
  -7  -6 -10   90.59   11.10
  -8   0 -10 1203.78   54.59
   8   0  10 1262.77   53.49
  -8   0  10 1284.07   53.79
  -8   0 -10 1140.79   56.99
   8   0  10 1269.87   49.99
   8   0  10 1251.17   50.09
   8   1  10  343.77   15.70
  -8   1 -10  329.07   19.80
  -8   1 -10  337.77   18.50
   8   1  10  344.17   19.80
  -8  -1  10  366.76   19.90
   8   1  10  353.36   16.10
   8  -1  10  292.37   15.60
  -8   1  10  331.57   18.10
  -8  -1 -10  304.07   21.90
  -8   1  10  353.96   19.50
  -8  -1 -10  345.87   19.80
   8  -1  10  331.97   18.70
  -8   2 -10  104.19    9.80
  -8   2 -10   96.39   11.20
  -8  -2  10  121.39   11.90
   8   2  10  115.69   11.50
   8   2  10  115.49    7.90
   8   2  10  106.89    8.40
  -8  -2 -10   95.59    9.70
  -8   2  10  110.19   11.30
  -8   2  10  114.79    9.80
   8  -2  10  112.99   10.30
  -8  -2 -10  112.59   11.30
  -8   2  10  111.29    6.40
  -8   3 -10  100.09   11.30
   8   3  10   92.49   11.20
  -8  -3  10   88.89   11.90
  -8   3 -10   98.59    9.80
   8   3  10   97.19    7.80
  -8   3  10   83.29    6.70
  -8  -3 -10   83.99    9.80
   8  -3  10   90.09    9.70
  -8   3  10   87.19    9.10
  -8  -3 -10   90.59   10.70
  -8   3  10   96.29   11.30
  -8   4 -10  373.06   20.70
  -8  -4  10  396.26   23.50
   8   4  10  400.96   23.10
  -8   4 -10  342.47   22.30
  -8   4  10  402.26   18.00
  -8   4  10  374.56   19.80
  -8   4  10  376.26   22.10
  -8  -4 -10  361.56   20.90
   8  -4  10  396.06   20.40
   9   0  10    4.40    5.50
  -9   0 -10    6.80    4.80
  -9   0  10    3.50    6.00
  -9   0 -10    2.00    5.20
  -9  -1  10   67.79   11.10
  -9   1 -10   51.89    8.70
  -9   1 -10   57.99   10.30
   9   1  10   68.19   10.50
  -9  -1 -10   62.19    8.90
  -9  -1 -10   67.39   10.30
  -9   1  10   57.29   10.30
   9  -1  10   56.29    9.50
  -9   1  10   53.29    8.60
  -9   2 -10  135.99   13.00
  -9   2 -10  132.59   11.40
  -9  -2  10  113.39   13.30
   9   2  10  134.59   13.20
  -9  -2 -10  147.69   13.10
  -9   2  10  120.29   12.90
   9  -2  10  112.79   11.40
  -9   2  10  120.59   10.60
  -9  -2 -10  144.39   11.90
  -9  -3  10   35.00   12.20
  -9   3 -10   37.60   11.30
  -9   3 -10   35.40    8.60
   9   3  10   32.40   10.60
  -9  -3 -10   42.70   10.00
   9  -3  10   22.30    6.50
  -9   3  10   25.30    7.70
  -9  -3 -10   43.90    9.20
  -9   3  10   24.00    8.20
   0   0 -11    0.20    2.10
   0   0  11    1.70    2.80
   0   0 -11   -2.70    2.50
   0   0 -11   62.69   72.89
   0   0 -11  -18.10   97.19
   0   0  11 -227.48  129.59
   0   0  11    1.40    2.30
   0   0  11   22.80   66.59
   0   1  11 3189.98  121.29
   0  -1  11 2708.63  253.07
   0   1  11 2969.40  201.18
   0  -1  11 3436.56  213.08
   0   1 -11 3044.50  123.49
   0   1 -11 3524.75  287.47
   0  -1 -11 3487.65  271.97
   0   1  11 3070.19  123.19
   0   1 -11 2778.72  197.58
   0  -1 -11 3013.50  123.39
   0   1  11 2649.63  273.87
   0   1 -11 3096.29  121.19
   0  -1 -11 2968.80  121.39
   0  -2 -11   11.70   70.19
   0   2 -11 -182.18  147.29
   0   2 -11    2.70    3.40
   0   2 -11    2.80    2.50
   0   2  11    3.70    2.80
   0  -2 -11 -210.28   92.19
   0  -2  11   -4.50  153.48
   0   2 -11  106.39   69.49
   0  -2  11  -46.40   72.19
   0  -2 -11    4.60    3.30
   0   2  11 -238.88  126.69
   0   2  11  -73.09   64.29
   0   2  11    6.30    3.70
   0  -2 -11    3.70    2.90
   0   3 -11 1303.77   55.69
   0  -3 -11 1323.97  220.28
   0   3  11 1038.30  228.58
   0  -3 -11 1319.47   53.89
   0   3  11 1241.28   55.09
   0   3 -11 1402.16  148.59
   0   3 -11 1042.60  233.68
   0  -3 -11 1155.98  132.19
   0   3  11 1266.57   52.99
   0   3 -11 1342.27   52.99
   0   3  11 1356.26  143.09
   0  -3  11 1289.97  155.58
   0  -3  11  851.71  195.08
   0  -4  11 -164.08   82.39
   0  -4  11 -158.08  180.78
   0   4 -11  138.89  177.58
   0   4  11   -3.00    3.00
   0   4 -11  169.38   92.69
   0   4  11   56.29  117.89
   0   4  11    3.10    3.90
   0   4  11    0.40    3.50
   0  -4 -11    0.70    3.10
   0   4 -11    4.90    2.70
   0  -4  11    3.90    4.40
   0   4  11   34.40   72.09
   0   5  11  390.66   21.70
   0   5 -11  391.26   21.80
   0   5  11  399.66  105.59
   0  -5 -11  366.86  184.98
   0   5  11  353.86  165.48
   0  -5  11  368.86  123.29
   0  -5 -11  716.83  129.59
   0   5 -11  215.78  161.98
   0   5 -11  395.86   19.10
   0  -5  11  414.26   23.00
   0   5  11  393.26   19.50
   0  -5 -11  336.77   21.80
   0  -5  11  698.43  243.58
   0   5 -11  390.96  110.69
   0   5  11  400.06   22.00
   0  -6 -11  -61.59   97.39
   0   6  11   78.59   98.69
   0   6 -11  131.99  225.08
   0  -6 -11 -121.69  192.58
   0   6 -11   27.30  103.39
   0   6  11  231.08  195.88
   0   7 -11  277.27  203.28
   0   7  11  -64.89  183.38
   0   7  11  -38.50  120.89
   0  -7 -11  -26.50  108.09
   0  -7 -11  388.36  242.58
   0   7 -11  235.48  137.39
   0   7 -11   74.69    8.30
   0   7 -11   72.19   10.80
   0   7  11   78.19   11.10
   0   8 -11    5.70    6.10
   0   8 -11    7.10    4.60
   0   8  11   11.10    6.90
   0   8  11    1.70    6.60
  -1   0  11  125.19  104.49
   1   0 -11  -25.90   67.59
   1   0  11   31.60    4.90
  -1   0  11   73.69   63.09
   1   0  11   35.30    6.80
   1   0 -11   31.80    5.90
  -1   0 -11   62.69  104.69
  -1   0  11   33.50    4.70
  -1   0  11   31.90    5.60
   1   0  11  167.88  150.18
   1   0 -11   35.00    4.60
   1   0  11  -22.40   64.49
  -1   0 -11   35.60    5.00
  -1   0 -11   31.70    6.10
   1   0  11   36.70    6.00
  -1   0 -11   37.60   68.79
   1   0 -11 -119.59   99.79
  -1   1 -11  210.68   13.80
  -1  -1  11  233.78   76.49
  -1   1 -11  533.45  157.48
  -1   1 -11  217.88   11.90
  -1   1 -11  277.17   76.19
   1  -1 -11  213.28   13.30
   1  -1 -11  212.58   11.80
  -1  -1  11  382.06  165.78
   1   1  11  213.78   11.90
   1   1  11  133.39   77.09
   1   1  11  353.56  145.79
   1   1  11  211.08   13.30
  -1   1  11  224.28   11.70
  -1  -1 -11  212.18   12.00
   1   1 -11  244.38   93.49
   1  -1  11  171.78   78.29
  -1  -1 -11  209.28   73.69
   1   1 -11  204.08   13.30
   1  -1  11  160.38  118.89
  -1  -1 -11  195.18   13.40
  -1   1  11  234.98  143.59
  -1   1  11  223.58   13.40
   1   1 -11  216.98   11.50
  -1   1  11  254.77   79.39
   1   1 -11  257.37  178.08
  -1  -1 -11  376.66  139.09
  -1   2 -11  103.59  153.38
   1  -2 -11  237.18   14.30
   1   2  11  204.98   13.70
   1   2  11  215.48   77.99
   1  -2 -11  152.98  106.49
   1  -2 -11  269.77   76.69
   1   2  11  218.78   12.40
  -1   2 -11  229.78   14.50
  -1   2 -11  236.38   12.50
   1  -2 -11  241.28   12.80
  -1  -2  11  281.37   83.39
  -1  -2  11  242.18  122.19
   1   2  11  159.18  148.59
  -1   2 -11  264.27   79.39
   1  -2  11  349.96  171.88
  -1  -2 -11  152.88   79.59
  -1  -2 -11  225.48   12.80
  -1   2  11  220.88   12.10
  -1  -2 -11  240.68  126.29
  -1   2  11  227.98   14.00
  -1  -2 -11  222.28   14.30
  -1   2  11  505.15  101.09
   1   2 -11  202.58   88.39
   1   2 -11  227.38   14.10
   1  -2  11  254.17   86.79
  -1   2  11  387.56  141.19
   1   2 -11  212.58  178.68
   1   2 -11  225.08   12.00
   1  -3 -11 -137.09  137.69
  -1   3 -11   41.80   78.69
   1  -3 -11   62.19    6.80
   1   3  11   78.89  162.28
  -1   3 -11   70.59    8.30
  -1   3 -11  -52.69  117.69
   1   3  11   18.40   71.99
  -1   3 -11   68.89    6.40
   1   3  11   66.39    7.80
  -1  -3  11  149.29   81.59
   1   3  11   63.99    6.70
   1  -3 -11  172.78   69.69
  -1  -3  11   44.30  175.88
  -1   3  11   38.60   70.39
  -1   3  11   62.29    7.70
  -1  -3 -11  -43.40  135.59
  -1  -3 -11    1.00   63.89
   1  -3  11  179.98  130.19
   1   3 -11   12.60   77.39
   1  -3  11  -83.79   71.99
  -1  -3 -11   62.79    6.90
   1   3 -11   73.29    6.10
  -1   3  11   63.59    6.30
   1   3 -11   63.69    7.70
  -1   3  11  198.38  146.79
   1   3 -11   70.29  149.88
   1  -4 -11 1322.77  187.18
   1   4  11 1240.08   53.49
   1  -4 -11 1168.88   50.59
  -1   4 -11 1131.09   49.70
   1   4  11 1259.77   50.39
  -1  -4  11 1091.99  225.18
  -1   4 -11  656.43  183.68
   1   4  11 1209.48  197.58
   1   4  11 1232.98   52.59
   1  -4 -11 1199.68  135.19
   1   4  11 1194.08  146.79
  -1   4 -11 1149.78   52.59
  -1  -4  11 1213.38  167.78
   1   4 -11 1147.79   52.79
   1   4 -11 1212.98   49.50
  -1  -4 -11 1201.38   51.09
  -1   4  11 1207.28   49.90
   1  -4  11 1202.18  298.57
  -1   4  11 1221.08   52.29
  -1  -4 -11 1317.47  238.68
  -1  -4 -11 1190.08  143.79
   1  -4  11 1247.88  201.48
  -1   4  11 1031.50  136.89
   1   4 -11 1383.16  257.97
  -1   4  11 1503.85  243.78
   1   4 -11 1202.68  149.29
   1  -4  11 1223.58   53.49
   1  -5 -11  189.48  133.39
  -1  -5  11  266.37  114.39
  -1   5 -11  186.18   11.30
  -1   5 -11   14.60   97.19
  -1   5 -11   32.80  204.48
  -1  -5  11  175.38   14.70
   1   5  11  185.88   13.60
   1  -5 -11  259.07   87.69
   1   5  11  171.88   11.70
   1   5  11  160.98   13.50
   1   5  11  119.19   89.59
  -1   5 -11  185.08   13.80
   1  -5 -11  190.68   13.10
  -1  -5  11  529.55  192.18
   1   5  11  145.89  150.98
   1   5 -11  179.28   10.80
   1  -5  11  187.28   14.80
  -1  -5 -11  170.78   12.10
  -1   5  11  204.38   87.29
  -1   5  11  183.18   13.90
  -1  -5 -11  233.58   92.49
   1  -5  11  564.34  251.47
  -1   5  11  -73.69  157.18
   1  -5  11  290.67  120.59
   1   5 -11  135.79  187.58
   1   5 -11  173.28   13.20
  -1  -5 -11   42.00  174.38
  -1   5  11  178.48   11.50
   1   5 -11  180.98   96.99
   1  -6 -11   96.59  153.48
  -1   6 -11  348.27   17.60
  -1  -6  11  311.27   21.10
   1   6  11  328.87   20.00
   1  -6 -11  371.16  110.99
   1   6  11  402.96   24.80
  -1   6 -11  318.37   20.20
   1   6  11  322.07   20.30
   1   6  11  268.37  111.79
   1   6  11  259.47  214.58
  -1   6  11  314.47   20.10
   1   6 -11  325.27   20.20
  -1   6  11  327.67   17.80
   1  -6  11  340.07   21.60
  -1   6  11   22.30  208.48
  -1   6  11   61.89  103.49
  -1  -6 -11  330.87   18.70
   1   6 -11  322.47   16.90
  -1  -6 -11  -16.50  201.18
   1   6 -11  212.98  111.39
  -1   6  11  341.77   19.90
   1   6 -11  757.22  247.48
  -1  -6 -11  317.47  107.29
   1  -7 -11  195.58  215.98
   1  -7 -11  -79.89  115.29
  -1   7 -11    3.80    5.00
   1   7  11    0.10    5.00
   1   7  11   -2.30    5.10
  -1   7 -11    7.20    4.40
  -1   7  11 -464.15  213.48
   1   7 -11   63.19  198.58
   1   7 -11    3.70    5.20
   1   7 -11    4.80    3.80
   1   7 -11  128.19  127.19
  -1   7  11    7.80   10.50
  -1   8 -11  192.78   17.10
   1   8  11  209.98   17.20
  -1   8 -11  199.28   13.80
   1   8  11  208.08   17.90
   1   8 -11  217.28   13.90
   1   8 -11  221.38   17.40
  -1   8  11  212.18   18.20
  -1   8  11  194.38   16.60
  -2   0  11  114.49  136.89
   2   0 -11   87.79  137.59
   2   0  11   74.49   73.79
   2   0  11   30.20  105.69
  -2   0 -11   12.70  122.79
  -2   0 -11   40.90   68.79
   2   0 -11   42.70   66.79
  -2   0  11  -51.79   63.59
  -2  -1  11  132.09   10.90
   2   1  11  141.39   10.70
   2  -1 -11  146.19   70.49
   2  -1 -11  412.56  115.09
  -2   1 -11  140.69    9.30
   2   1  11  136.29   10.90
  -2  -1  11  355.76  128.49
  -2   1 -11  268.27   73.19
  -2  -1  11  180.38   76.29
   2   1  11 -126.39  141.39
  -2   1 -11  130.99  108.69
   2  -1 -11  152.38    9.00
   2   1  11  210.48   76.89
   2  -1 -11  144.69   10.40
  -2   1 -11  137.79   10.80
   2   1  11  141.59    9.40
   2   1 -11  133.19   10.20
  -2   1  11  144.29   10.60
   2  -1  11  146.89   11.50
  -2   1  11  144.69   10.90
   2   1 -11  138.09    8.50
  -2   1  11  140.09    8.60
  -2  -1 -11  137.79   10.80
  -2  -1 -11  140.29    9.30
   2  -1  11  134.09   10.30
   2  -1  11  181.38  154.08
  -2  -1 -11   58.59   64.29
   2   1 -11   90.19   67.79
  -2   1  11  181.88  130.29
  -2  -1 -11  184.28  134.99
   2  -1  11  168.68   82.99
  -2   1  11  201.78   72.09
   2   1 -11  140.09   99.69
  -2   2 -11   87.39   67.49
   2  -2 -11  221.08   75.19
  -2   2 -11   96.19    9.50
   2   2  11   69.09   69.79
   2   2  11  118.19    9.80
  -2  -2  11  117.89   10.50
   2   2  11  122.19    8.60
  -2   2 -11   36.10  110.69
   2  -2 -11   97.89    7.70
   2  -2 -11  206.58  143.29
  -2  -2  11  -49.90  157.08
  -2  -2  11  220.18   83.49
   2   2  11  147.79  147.49
  -2   2 -11   97.99    7.70
   2   2 -11  147.59  117.99
  -2   2  11  188.78  103.79
   2  -2  11 -192.08  156.98
  -2   2  11  102.09    9.00
  -2  -2 -11  227.88  108.99
   2   2 -11  -63.59   68.09
   2   2 -11  109.09    9.30
   2   2 -11  112.19    7.40
  -2   2  11  140.19   71.39
  -2   2  11  108.39    9.70
  -2  -2 -11  114.69    8.50
  -2  -2 -11   91.89   64.09
  -2  -2 -11  107.69    9.70
  -2   2  11  103.49    7.50
   2  -2  11  144.89   85.39
  -2  -3  11 1528.15  166.68
   2   3  11 1500.95   64.39
   2   3  11 1447.26  202.88
  -2  -3  11 1304.27  213.58
   2  -3 -11 1565.84  143.59
   2   3  11 1297.47  150.78
   2  -3 -11 1528.05  186.38
  -2   3 -11 1186.68  239.88
   2   3  11 1495.85   62.19
  -2   3 -11 1465.15  154.28
  -2   3 -11 1560.84   62.29
  -2   3 -11 1517.25   67.99
  -2  -3  11 1467.15   65.49
   2  -3 -11 1557.14   62.39
   2   3 -11 1518.45   63.99
  -2   3  11 1477.35   63.69
  -2   3  11 1512.15  149.39
  -2  -3 -11 1543.25   68.09
  -2   3  11 1527.25   61.59
  -2  -3 -11 1553.24  146.19
   2  -3  11 1752.42  171.88
  -2   3  11 1444.36   63.99
   2   3 -11 1476.95  203.18
   2  -3  11 1605.44  226.08
  -2  -3 -11 1640.94  235.88
   2   3 -11 1545.55   61.29
  -2   3  11 1701.73  234.58
  -2  -3 -11 1540.55   62.89
   2   3 -11 1401.46  156.48
  -2   4 -11  -35.30   83.29
   2   4  11   41.00    6.50
  -2   4 -11   45.10    6.00
  -2  -4  11   49.90    8.80
   2  -4 -11   37.40    6.30
  -2   4 -11   39.20    7.60
   2   4  11 -138.99  169.58
   2   4  11   38.20    8.40
   2  -4 -11   93.79  160.78
  -2  -4  11   64.79   92.99
   2   4  11  190.78   90.49
   2  -4 -11 -118.79   72.09
   2   4  11   40.80    8.10
  -2   4 -11  172.68  136.89
  -2  -4  11  238.98  197.58
  -2  -4 -11  161.18   83.79
  -2   4  11   11.40   75.99
   2  -4  11   37.50   10.40
  -2   4  11  -51.89  156.98
   2   4 -11   39.10    7.20
   2   4 -11 -125.79  170.48
   2  -4  11 -103.19  185.58
   2  -4  11  -94.99   86.39
   2   4 -11   89.39   78.19
   2   4 -11   43.30    5.10
  -2   4  11   40.70    5.90
  -2   4  11   41.20    7.10
  -2   4  11   40.10    7.80
  -2  -4 -11  172.88  154.68
  -2   5 -11  450.65  113.79
   2   5  11  235.28  114.19
  -2   5 -11  479.25  200.68
  -2   5 -11  428.36   20.40
  -2  -5  11  323.87  220.88
   2  -5 -11  209.98  183.38
   2   5  11  388.96   22.50
  -2  -5  11  405.96   23.40
   2   5  11  391.66   20.60
   2   5  11  381.56   22.20
   2  -5 -11  392.06   97.89
   2   5  11  235.78  221.58
  -2   5 -11  436.56   22.90
   2   5 -11  423.66  109.29
   2  -5  11  349.57  243.68
  -2  -5 -11  796.72  178.18
  -2  -5 -11  404.96   97.99
  -2  -5 -11  446.36   21.50
  -2   5  11  381.06   22.10
   2   5 -11  254.17  211.38
   2  -5  11  276.97  123.09
  -2   5  11  366.86   22.50
   2   5 -11  439.46   19.30
   2   5 -11  431.06   22.30
  -2   5  11  384.86   19.80
  -2   5  11 -149.79  206.98
   2  -5  11  401.66   23.30
   2   6  11   62.59   14.30
   2   6  11   57.29   10.40
  -2  -6  11   57.09   14.90
   2  -6 -11  363.76  205.18
  -2   6 -11   73.09    8.00
   2  -6 -11   83.79   93.79
  -2   6 -11   75.89    9.90
  -2   6  11   84.39   16.10
   2   6 -11   67.29    7.00
   2   6 -11   77.19    9.80
  -2   6  11  163.48  221.78
  -2   6  11   69.29    9.50
  -2   6  11   62.59    8.30
  -2  -6 -11   58.69   12.80
   2   6 -11  213.18  212.38
  -2   6  11  253.77  104.39
   2   6 -11   62.19  102.99
   2  -6  11   78.09   12.10
  -2   7 -11 2510.25  103.69
   2   7  11 2610.34  107.79
  -2   7 -11 2511.25  107.09
   2   7  11 2579.44  107.19
  -2  -7 -11 2598.74  105.39
   2   7 -11 2172.08  249.68
   2   7 -11 2562.74  106.29
  -2   7  11 2611.84  106.99
   2   7 -11 2651.93  102.89
   2   7 -11 2309.37  463.85
  -2   8 -11   36.20    8.10
   2   8  11   16.80    7.40
  -2   8 -11   35.20   11.30
   2   8  11   20.60    7.70
  -2   8  11   31.40   11.30
  -2   8  11   34.30   10.90
   2   8 -11   29.40    7.80
   3   0 -11   37.60  103.89
   3   0 -11  115.29   72.69
   3   0  11   98.89   79.49
  -3   0  11   24.40   66.69
  -3   0  11   25.20    4.00
  -3   0  11   30.00    6.50
   3   0  11  147.39  151.18
  -3   0 -11   26.80    6.00
   3   0 -11   21.40    5.40
  -3   0 -11   23.40    4.90
   3   0 -11   33.00    4.30
  -3   0  11 -131.59  136.09
  -3   0 -11   58.89   68.59
   3   0  11   27.40    6.70
   3   0  11   24.80    6.00
  -3   1 -11   46.70    7.10
  -3  -1  11  -44.10   69.09
   3   1  11  -13.90   64.39
  -3   1 -11   42.40    5.60
   3  -1 -11   42.80    5.20
   3  -1 -11   61.49   63.69
  -3   1 -11 -113.39  139.49
   3   1  11   71.99  108.49
   3   1  11   46.20    6.90
   3   1  11   49.99    6.10
  -3   1 -11  -15.90   67.39
   3  -1 -11  185.78  143.69
  -3  -1  11  193.48  110.99
  -3  -1  11   49.90    7.50
   3   1  11   48.10    7.50
  -3   1  11   36.20    7.00
   3  -1  11  117.99  167.28
  -3  -1 -11   45.60    7.00
  -3   1  11   45.10    6.50
  -3   1  11    8.90  100.99
   3   1 -11 -157.28  135.29
  -3  -1 -11   70.49   68.19
  -3  -1 -11   45.40    5.90
  -3  -1 -11  -76.79  117.09
   3   1 -11   42.40   69.99
   3  -1  11  -36.60   79.29
   3  -1  11   45.40    6.60
   3   1 -11   45.00    4.90
   3   1 -11   48.80    6.50
  -3   1  11   74.79   67.89
   3  -1  11   52.09    7.70
  -3   1  11   47.40    5.10
   3   2  11  486.85  131.69
  -3  -2  11  570.24  186.58
   3   2  11  567.44  121.29
  -3  -2  11  572.14   28.30
   3  -2 -11  709.53  112.19
   3   2  11  584.14   26.30
  -3   2 -11  549.35   26.00
   3   2  11  562.84   27.80
  -3   2 -11  639.24  113.39
  -3  -2  11  818.92  133.19
  -3   2 -11  519.15  173.28
   3  -2 -11  450.15  144.69
   3  -2 -11  575.74   25.60
  -3   2 -11  588.64   28.40
  -3  -2 -11  666.93  111.59
   3   2 -11  568.04   24.70
  -3  -2 -11  544.15   26.20
  -3   2  11 1026.90  202.88
   3  -2  11  645.64  131.99
   3   2 -11  532.75   96.39
  -3   2  11  571.94   27.80
   3  -2  11  581.04   27.40
  -3  -2 -11  563.34   28.00
   3   2 -11  650.13  181.08
   3  -2  11  528.35   27.90
  -3   2  11  593.44  112.19
   3   2 -11  572.54   27.20
  -3   2  11  552.14   27.10
   3  -2  11 1021.80  189.38
  -3  -2 -11  469.55  159.58
  -3   2  11  575.14   24.90
   3  -3 -11   72.09   72.89
  -3  -3  11   17.00   81.99
   3  -3 -11 -136.99  132.69
  -3   3 -11  110.19   81.79
  -3   3 -11  -18.70  119.29
   3   3  11  135.39  164.88
  -3  -3  11 -236.48  121.79
   3   3  11   69.79   80.39
  -3   3  11   24.30   75.49
  -3   3  11   69.19  121.49
   3   3 -11  255.07  167.28
   3   3 -11   48.90   75.89
  -3  -3 -11   17.40   71.69
   3  -3  11  148.99   90.69
   3  -3  11 -362.76  180.48
  -3  -3 -11   17.50  105.49
  -3   4 -11  546.85   27.40
   3  -4 -11  420.66  135.09
  -3   4 -11  586.04   29.90
  -3  -4  11  603.74   30.60
   3  -4 -11  654.63  127.39
  -3   4 -11  587.94  115.49
   3   4  11  608.24   27.90
   3   4  11  989.10  196.38
   3   4  11  910.81  140.69
   3   4  11  615.44   30.00
  -3   4 -11  598.74  208.28
  -3  -4 -11  705.33  130.49
   3   4 -11  590.34   29.00
  -3   4  11  623.94   29.20
  -3  -4 -11  595.04   28.40
   3  -4  11  664.83  222.88
  -3   4  11  616.04   26.90
   3   4 -11  597.94   26.10
   3   4 -11  675.43  135.89
  -3  -4 -11  423.96  137.79
   3  -4  11  694.63  135.99
  -3   4  11  624.44   29.80
   3   4 -11  616.04  160.48
  -3  -5  11  -44.80  103.69
   3   5  11    1.20    4.40
   3   5  11    5.40    4.40
   3  -5 -11  104.69  175.58
   3  -5 -11 -115.89   83.89
  -3  -5  11    6.80    6.00
  -3   5 -11   -1.90    3.30
  -3   5 -11    0.60    4.90
  -3  -5  11 -235.18  219.08
   3   5  11    5.60    5.20
  -3   5  11   81.49   87.99
   3   5 -11   86.79  140.99
  -3  -5 -11    2.50    4.40
  -3   5  11   16.20  172.48
   3  -5  11    0.90    5.40
  -3   5  11    7.60    4.70
  -3   5  11    8.90    4.80
   3   5 -11    9.70   91.99
   3   5 -11    6.80    3.00
  -3   5  11    9.00    3.90
  -3   6 -11  124.19   12.40
   3   6  11  131.89   13.40
   3   6  11  114.39   14.80
  -3   6 -11  114.39   12.10
   3   6  11  138.09   13.00
   3  -6  11  141.79   14.40
  -3   6  11  140.69   10.60
  -3   6  11  147.39   12.20
   3   6 -11  127.09    9.00
   3   6 -11  110.29   11.60
  -3  -6 -11  127.79   11.30
   3   7  11  116.59   13.60
   3   7  11  118.59   13.40
  -3   7 -11  120.69   10.80
  -3   7 -11  127.09   13.60
  -3  -7 -11  120.39   12.10
   3  -7  11  132.19   16.30
   3   7 -11  119.79    9.60
   3   7 -11  119.09   12.60
  -3   7  11  137.99   13.00
   4   0 -11   98.39    6.80
   4   0 -11  173.48   72.89
  -4   0 -11  103.89    8.10
  -4   0 -11  135.49  137.39
   4   0  11  112.09   79.99
   4   0 -11   19.70  122.99
  -4   0  11   86.69    9.40
  -4   0 -11  101.49    9.50
   4   0  11   82.49    8.70
   4   0  11   38.70  123.79
   4   0  11   90.09    9.80
  -4   0 -11   74.79   68.79
   4  -1 -11 3102.69  275.57
   4  -1 -11 3069.29  122.89
   4   1  11 3191.18  125.89
   4   1  11 3168.18  213.78
   4   1  11 3041.60  298.57
  -4   1 -11 3119.59  288.17
   4  -1 -11 3050.79  200.38
  -4   1 -11 3087.69  126.19
  -4   1 -11 3055.09  124.09
  -4  -1  11 3139.19  125.99
  -4   1 -11 3087.19  207.78
   4   1  11 3166.88  125.89
  -4  -1 -11 3198.48  199.98
   4  -1  11 3143.99  125.49
   4   1 -11 3504.15  293.47
   4  -1  11 2945.81  215.88
   4  -1  11 3211.18  125.99
   4   1 -11 3013.90  206.38
  -4  -1 -11 3112.09  124.29
   4  -1  11 3650.43  325.07
   4   1 -11 3067.19  122.39
  -4   1  11 3064.39  125.09
  -4   1  11 3135.89  122.59
   4   1 -11 3106.79  124.59
  -4  -1 -11 2724.93  239.68
  -4  -1 -11 3058.59  126.19
  -4   1  11 3135.29  125.79
   4  -2 -11  123.79   74.59
   4   2  11   44.70  165.58
   4  -2 -11  -51.19  135.29
  -4  -2  11  123.49   11.40
   4   2  11  134.09   11.40
   4   2  11  134.29   11.00
  -4   2 -11   22.30   71.49
   4  -2 -11  148.59    9.10
   4   2  11  106.29   81.29
  -4   2 -11  227.28  157.68
   4  -2  11  132.29   95.09
  -4   2  11  137.19   10.50
   4  -2  11 -186.08  173.68
   4   2 -11  135.89    8.00
   4  -2  11  131.99   10.60
   4   2 -11  183.78   77.79
  -4  -2 -11  174.88   74.99
   4  -2  11  142.39   12.00
  -4   2  11  140.19    8.50
   4   2 -11  172.78  160.98
   4   2 -11  127.39    9.90
  -4  -2 -11  201.58  138.79
  -4   2  11  141.19   11.20
  -4  -3  11  323.77  102.49
  -4   3 -11  543.85  112.29
  -4   3 -11  514.25  171.58
  -4   3 -11  415.96   20.40
   4  -3 -11  478.75  157.78
   4   3  11  390.16   23.70
   4   3  11  481.05  138.89
  -4   3 -11  430.56   22.70
   4   3  11  422.46   22.50
   4  -3 -11  339.07   89.09
  -4  -3  11  402.86   22.60
  -4  -3  11  231.48  141.89
   4   3  11   82.79  160.28
  -4   3  11  261.77   85.39
  -4   3  11  219.48  124.29
   4   3 -11  351.06  184.18
  -4   3  11  418.46   22.10
   4   3 -11  412.96   18.40
  -4   3  11  428.96   21.50
   4  -3  11  415.66   21.30
  -4  -3 -11  377.76  166.58
  -4  -3 -11  393.46   20.60
   4   3 -11  256.17   92.79
  -4  -3 -11  389.36   22.10
   4   3 -11  396.96   20.80
  -4  -3 -11  438.06   86.99
  -4   3  11  419.16   19.00
  -4  -4  11  247.38  209.28
   4  -4 -11   35.20  126.99
   4  -4 -11  129.59   84.19
  -4  -4  11   59.29    9.70
   4   4  11   47.20    8.40
  -4   4 -11   52.49    6.90
   4   4  11   49.80    7.90
  -4  -4  11 -162.78   95.89
  -4   4 -11   49.60    8.70
  -4   4  11   60.89   92.09
   4   4 -11   26.30   94.39
  -4   4  11  -90.19  183.38
   4   4 -11   53.49    5.10
   4   4 -11   41.40    7.20
  -4   4  11   50.49    7.80
  -4   4  11   56.09    6.40
  -4  -4 -11   47.10    7.30
  -4   4  11   56.09    8.90
   4   4 -11   25.00  140.19
  -4   5 -11  546.75   30.30
  -4  -5  11  456.45   26.60
   4   5  11  435.66   33.50
   4   5  11  485.55   25.70
   4   5  11  478.75   25.40
  -4   5 -11  484.55   26.30
  -4   5  11  473.55   25.50
  -4   5  11  475.55   24.50
  -4   5  11  478.65   22.50
   4   5 -11  489.45   21.30
   4   5 -11  490.75   24.60
  -4  -5 -11  430.66   26.90
   4  -5  11  455.55   27.30
   4   6  11  386.26   22.50
  -4   6 -11  350.36   19.70
  -4   6 -11  346.27   22.00
   4   6  11  355.46   28.90
   4   6  11  397.86   23.00
   4   6 -11  394.96   21.20
   4   6 -11  389.16   17.70
  -4   6  11  354.76   19.20
  -4  -6 -11  375.66   20.80
  -4   6  11  371.66   21.10
   4  -6  11  365.56   23.10
  -4   7 -11    5.50    6.10
   4   7  11   -0.20    6.00
  -4   7 -11   -1.80    4.40
   4   7  11    3.50    6.40
   4   7  11   -3.10    7.60
  -4   7  11    8.40    6.20
   4   7 -11    2.50    4.00
  -4  -7 -11    4.70    5.60
   4  -7  11   -4.40    7.70
   5   0 -11  212.38  154.38
  -5   0  11  242.78  144.99
  -5   0 -11   80.59   86.89
  -5   0  11   12.60   80.09
   5   0 -11  121.29   75.09
  -5   0 -11  122.39  161.48
  -5   1 -11  276.47   14.80
  -5  -1  11   41.40  163.88
   5   1  11  250.07   15.80
   5   1  11  253.77   15.80
  -5   1 -11  217.68   18.40
   5  -1 -11  141.59   82.09
   5   1  11  265.37   16.20
   5  -1 -11  107.69  119.19
  -5  -1  11  253.67   16.30
   5  -1 -11  270.27   13.30
  -5  -1  11  235.98   92.69
   5  -1  11  275.07   16.30
  -5   1  11  212.78   88.09
  -5  -1 -11  259.07   14.70
  -5   1  11  274.07   16.40
   5   1 -11  261.57   12.60
  -5   1  11  265.77   15.40
   5  -1  11  273.17   15.80
  -5   1  11  263.67   12.60
  -5  -1 -11  225.58   17.70
   5   1 -11  290.77   90.99
   5   1 -11  448.96  157.28
  -5   1  11  294.07  168.78
  -5  -2  11  405.26   22.10
   5   2  11  401.56   20.40
   5   2  11  412.76   21.50
  -5   2 -11  405.26   22.00
   5   2  11  327.47   26.90
  -5   2 -11  406.26   20.20
  -5  -2 -11  398.66   21.90
   5   2 -11  392.36   17.70
  -5   2  11  415.66   18.40
   5   2 -11  401.66   20.00
   5  -2  11  413.16   21.90
  -5   2  11  399.76   21.50
  -5   2  11  406.96   20.90
  -5  -2 -11  383.46   20.30
   5  -2  11  410.56   21.20
  -5  -3  11  145.69   13.40
  -5   3 -11  164.28   13.00
   5   3  11  153.18   11.70
   5   3  11  156.18   12.60
   5   3  11  153.88   12.90
  -5   3 -11  162.98   11.10
  -5   3  11  155.18   12.60
   5   3 -11  166.98   11.00
  -5  -3 -11  170.08   13.00
  -5   3  11  153.38    9.50
   5   3 -11  170.38    8.70
   5  -3  11  149.19   12.70
  -5   3  11  156.48   11.70
  -5  -3 -11  160.38   11.60
   5  -3  11  144.69   11.70
   5   4  11  278.87   17.20
  -5  -4  11  268.97   17.70
  -5   4 -11  201.98   16.30
   5   4 -11  239.08   11.80
  -5  -4 -11  249.97   20.90
  -5   4  11  230.48   15.10
   5   4 -11  232.58   14.50
  -5   4  11  240.28   13.00
  -5   4  11  232.58   16.20
   5  -4  11  237.78   15.20
  -5   5 -11  118.99   10.00
   5   5  11  105.19   12.00
  -5   5 -11  105.89   11.90
   5   5  11  101.19   11.50
   5   5  11  105.39   12.30
  -5  -5 -11   98.59   10.50
  -5   5  11  118.39   10.80
   5   5 -11  120.79    7.40
  -5   5  11  111.79   15.40
  -5   5  11  123.99    9.40
   5   5 -11  108.79   10.40
   5   6  11  454.55   32.60
   5   6  11  409.56   23.70
   5   6  11  389.76   22.90
  -5   6 -11  357.06   20.30
  -5   6 -11  360.46   22.80
  -5   6  11  310.07   24.20
   5  -6  11  394.26   23.50
  -5   6  11  359.16   19.60
   5   6 -11  390.16   17.60
  -5  -6 -11  393.66   21.50
   6   0  11  166.78   12.80
  -6   0 -11  201.68   12.30
  -6   0 -11  196.08   13.50
   6   0  11  160.08   12.70
  -6   0  11  161.48   13.20
  -6   1 -11  201.88   14.30
   6   1  11  212.18   14.00
  -6  -1  11  189.18   14.10
  -6   1 -11  196.98   12.60
  -6   1  11  190.48   12.90
   6  -1  11  182.78   13.60
  -6  -1 -11  207.18   12.60
  -6   1  11  182.48    9.80
  -6  -1 -11  214.88   14.30
   6  -1  11  178.68   13.40
  -6   1  11  177.68   13.70
   6   2  11  324.67   19.50
  -6   2 -11  326.37   18.50
   6   2  11  380.86   24.40
  -6  -2  11  344.47   19.90
  -6   2 -11  322.47   19.50
   6   2  11  333.67   18.90
  -6   2  11  322.97   19.20
   6  -2  11  347.17   19.20
  -6  -2 -11  310.67   17.90
  -6   2  11  326.87   18.30
  -6   2  11  353.06   15.80
   6  -2  11  329.87   18.50
  -6  -2 -11  325.97   19.60
   6   2 -11  307.37   14.50
  -6   3 -11  216.48   15.10
   6   3  11  174.18   14.10
  -6   3 -11  206.18   13.00
   6   3  11  179.48   14.00
  -6  -3  11  181.08   15.10
  -6  -3 -11  191.38   15.40
   6  -3  11  187.78   14.20
   6  -3  11  181.78   13.50
  -6  -3 -11  199.48   14.50
   6   3 -11  195.28    9.40
  -6   3  11  190.18   13.20
  -6   3  11  184.88   10.70
   6   3 -11  201.68   11.90
  -6   3  11  195.58   14.40
  -6   4 -11   45.90    9.40
   6   4  11   34.40    8.60
   6   4  11   31.90    9.30
   6   4  11   30.70    9.30
  -6  -4  11   44.80   11.40
  -6   4 -11   46.10    7.50
  -6  -4 -11   31.70    7.90
  -6   4  11   46.00    6.40
   6   4 -11   39.90    7.00
  -6   4  11   39.60    8.20
  -6   4  11   44.40   10.00
   6  -4  11   44.50    8.10
   6  -4  11   45.30   10.10
   6   5  11  901.81   43.70
   6   5  11  894.71   42.00
  -6   5 -11  930.01   43.70
  -6   5 -11  945.21   41.30
  -6  -5 -11  961.60   42.00
  -6   5  11  905.51   39.30
   6   5 -11  939.71   40.30
  -6   5  11  912.51   41.40
   6  -5  11  883.51   43.70
  -6   6 -11  111.89   11.60
   6   6  11  123.09   14.10
   6   6  11  118.49   12.80
   6   6  11  118.99   14.30
  -6   6 -11  108.99   13.10
   6  -6  11  115.19   11.80
   6  -6  11  121.69   22.90
  -6   6  11  125.99   11.30
   6   6 -11  115.09   11.40
  -6  -6 -11  111.59   11.70
  -7   0  11   16.00    6.10
  -7   0 -11   14.90    5.70
   7   0  11   24.70    8.20
  -7   0 -11   18.30    5.00
   7   1  11  227.58   14.50
  -7   1 -11  191.78   14.90
  -7  -1  11  216.78   15.40
   7   1  11  213.88   14.90
  -7   1 -11  190.68   13.20
  -7   1  11  204.78   13.70
  -7  -1 -11  205.68   15.00
   7  -1  11  216.58   14.60
   7  -1  11  204.88   13.70
  -7  -1 -11  197.08   13.30
  -7   1  11  201.38   14.90
  -7   2 -11  115.99   10.20
  -7   2 -11  117.89   12.00
   7   2  11  124.89   12.00
   7   2  11  125.49   10.30
  -7  -2  11  134.99   12.80
  -7  -2 -11  118.09   10.50
   7  -2  11  112.69   10.80
  -7  -2 -11  124.59   12.00
  -7   2  11  113.39    9.40
   7  -2  11  106.99   12.70
  -7   2  11  110.19   11.90
  -7   2  11  112.39   10.40
   7   3  11  204.38   14.60
  -7  -3  11  191.38   15.90
   7   3  11  205.08   13.40
  -7   3 -11  191.08   16.00
   7   3  11  172.88   17.80
  -7   3 -11  202.58   13.50
   7  -3  11  177.88   13.60
  -7   3  11  172.28   15.10
  -7  -3 -11  211.38   13.90
  -7  -3 -11  209.28   15.20
   7  -3  11  188.88   15.00
  -7   3  11  190.88   13.50
   7   4  11  307.37   18.30
   7   4  11  310.47   20.40
   7   4  11  313.17   19.00
  -7   4 -11  295.07   20.00
  -7   4 -11  292.67   17.90
  -7  -4 -11  300.77   18.50
  -7   4  11  316.97   18.20
   7  -4  11  311.37   18.50
   7  -4  11  317.17   19.00
  -7   4  11  328.87   16.00
  -7   5 -11  171.18   13.30
   7   5  11  160.08   15.70
   7   5  11  168.28   13.80
  -7   5 -11  176.78   15.40
   7   5  11  173.38   15.30
   7  -5  11  161.78   15.00
  -7  -5 -11  171.18   13.90
  -7   5  11  170.58   13.50
  -7   5  11  161.78   11.70
   7  -5  11  166.98   15.80
  -8   0 -11  483.25   24.40
   8   0  11  484.65   25.20
  -8   0  11  477.85   25.80
   8   0  11  401.76   21.40
  -8   0 -11  556.44   31.60
   8   1  11 1362.06   56.19
  -8   1 -11 1366.76   54.89
  -8  -1  11 1284.87   55.89
   8   1  11 1133.09   51.79
   8  -1  11 1052.89   61.59
  -8   1  11 1310.07   55.69
  -8   1  11 1346.17   54.89
  -8  -1 -11 1330.87   54.79
  -8  -1 -11 1203.28   64.89
  -8   2 -11  205.18   13.80
  -8   2 -11  202.28   15.70
  -8  -2  11  159.48   15.50
   8   2  11  194.18   23.50
  -8  -2 -11  195.28   15.30
  -8   2  11  181.28    9.30
   8  -2  11  179.98   13.90
  -8  -2 -11  178.58   13.60
  -8   2  11  179.08   13.30
  -8   2  11  184.38   15.20
  -8   3 -11  437.06   24.70
  -8   3 -11  447.26   23.30
   8   3  11  426.16   25.00
   8  -3  11  434.56   23.10
  -8  -3 -11  430.56   24.50
  -8   3  11  414.06   26.40
  -8   3  11  414.56   19.30
  -8   3  11  436.66   22.60
  -8  -3 -11  435.66   23.20
   0   0  12  110.39   10.10
   0   0  12 -145.09  167.68
   0   0 -12  222.08   89.99
   0   0 -12  136.39   10.90
   0   0 -12  198.58  149.88
   0   0  12  116.29    8.50
   0   0  12  -49.60   78.89
   0   0 -12  133.69    9.00
   0   1  12   -1.20    5.30
   0  -1 -12   16.30   92.09
   0  -1 -12   -5.70  129.19
   0   1  12    3.10    3.60
   0  -1 -12    6.10    3.20
   0  -1  12  -38.00   83.99
   0  -1 -12    1.70    4.10
   0   1  12    7.00  171.18
   0   1  12    3.40    3.10
   0   1  12   76.19   76.29
   0  -1  12   21.30  172.28
   0   1 -12   38.80  172.18
   0   1 -12    5.20    3.00
   0  -1  12    2.40    4.50
   0   1 -12 -136.19   79.49
   0   1 -12    0.40    3.80
   0   2 -12  138.29  228.88
   0  -2  12  120.19   89.59
   0   2  12   63.09   10.00
   0   2 -12   79.59    6.90
   0  -2 -12   78.69   10.50
   0   2 -12   76.29    9.70
   0  -2 -12   77.29    7.60
   0   2 -12  143.79  146.39
   0  -2  12  135.99  149.19
   0   2  12   66.09    8.90
   0  -2 -12   63.99   78.39
   0   2  12  186.28  169.88
   0   2  12   79.59    7.60
   0   2  12   81.59   81.59
   0  -2 -12   37.00  128.39
   0  -2  12   72.39    9.60
   0  -3  12   -0.40    4.50
   0  -3  12  112.59  152.98
   0   3 -12 -410.66  164.48
   0  -3 -12    1.50    3.20
   0   3 -12    3.00    3.10
   0   3  12   17.90   80.99
   0  -3 -12 -119.39  171.38
   0   3  12 -278.67  126.39
   0   3 -12   98.99   89.39
   0   3  12    3.10    3.60
   0   3  12    5.30    4.60
   0   3  12    3.60    4.10
   0   3 -12    6.70    4.00
   0  -3 -12   84.79   85.09
   0  -3  12    3.50  106.89
   0   4 -12  658.03   30.60
   0  -4 -12  644.54   31.60
   0  -4  12  961.70  177.28
   0   4  12  692.53  180.88
   0   4  12  703.23   31.10
   0  -4 -12  841.22  213.18
   0   4 -12  659.53   33.30
   0   4  12  928.21  152.58
   0   4 -12 1086.29  224.08
   0  -4 -12  627.34  142.99
   0   4  12  713.33   33.80
   0  -4  12  708.43   34.70
   0  -4  12  636.54  240.08
   0   4  12  716.33   33.60
   0   4 -12  688.53  152.58
   0   5 -12 -134.19   99.39
   0   5 -12    2.20    6.20
   0   5  12    3.10    5.70
   0   5  12 -167.58  150.38
   0  -5  12  105.39  125.59
   0   5  12    6.60    5.20
   0  -5  12 -236.58  249.68
   0  -5 -12    6.40    4.50
   0  -5 -12  126.89  101.29
   0   5  12    1.90    4.40
   0  -5  12    7.90    6.50
   0   5 -12    6.10    5.10
   0  -5 -12  362.66  214.58
   0   5  12  -87.49   98.79
   0   6 -12 1118.29   47.40
   0  -6 -12 1154.88   49.50
   0   6 -12 1089.09  322.17
   0  -6 -12  904.01  257.57
   0   6 -12 1134.09   51.09
   0   6  12 1085.89   50.59
   0   6 -12  905.01  171.28
   0  -6 -12 1001.30  183.78
   0   7 -12    3.10    5.20
   0   7  12    1.40    6.20
   0   7 -12   -1.30    5.70
  -1   0  12    4.80    2.80
   1   0  12   -0.10    3.00
  -1   0  12  -90.59   78.59
  -1   0  12   63.99  124.09
  -1   0 -12  106.79  104.49
  -1   0 -12  -72.79  140.19
   1   0  12   23.80   82.49
   1   0  12    2.00    4.60
   1   0 -12  -38.50   77.09
   1   0 -12  167.78  123.39
   1   0  12    3.50    3.60
  -1   0 -12    2.20    3.00
   1   0  12  -96.19  213.18
   1  -1 -12  402.36  137.29
   1   1  12  265.67  189.58
   1  -1 -12  524.25   99.49
   1   1  12  416.16   21.00
   1  -1 -12  494.35   21.50
  -1   1 -12  472.05   21.30
  -1  -1  12  487.85  101.49
   1  -1 -12  479.85   23.50
   1   1  12  410.36   22.90
  -1   1 -12  226.58  202.38
  -1   1 -12  388.86  118.89
  -1  -1  12  683.43  175.38
  -1   1 -12  392.46   24.90
   1   1  12  423.46   23.50
   1   1  12  350.46   98.49
  -1  -1 -12  279.47   97.39
   1   1 -12  391.66   22.60
   1  -1  12  340.27  106.89
   1   1 -12  528.45  123.39
   1  -1  12  526.95   24.80
  -1   1  12  371.46  138.99
   1  -1  12  578.94  215.58
  -1   1  12  520.15   23.70
   1   1 -12  406.26   20.50
  -1   1  12  312.67   95.09
  -1  -1 -12  399.26   21.00
   1   1 -12  307.37  164.58
  -1  -1 -12  477.05  148.69
  -1  -2  12   72.49  173.38
   1  -2 -12 -166.98  152.58
  -1   2 -12   79.39  130.89
   1  -2 -12   62.59    6.80
   1   2  12  -78.29   80.39
   1   2  12   46.50    6.70
  -1   2 -12    0.20   74.59
   1  -2 -12  121.89   83.49
  -1   2 -12   60.89    8.30
  -1   2 -12   58.89    6.40
  -1  -2  12  118.39   94.59
   1   2  12   50.79    8.50
   1   2  12  -97.49  168.48
   1  -2 -12   58.79    9.50
  -1  -2 -12   51.89    6.80
   1  -2  12   59.49    9.20
   1  -2  12 -194.18  133.19
   1   2 -12   54.39    6.00
  -1   2  12   59.49   82.59
  -1  -2 -12  167.08   81.99
   1   2 -12    7.70  130.49
   1  -2  12  127.29   99.39
  -1   2  12   57.89    6.40
  -1  -2 -12   97.29  126.79
   1   2 -12   75.09   80.19
  -1   2  12   56.39    8.10
   1   2 -12   51.89   11.90
  -1   2  12  163.58  132.49
  -1  -2 -12   52.09    8.10
  -1   3 -12  895.61   36.20
   1  -3 -12  930.61  135.09
  -1  -3  12 1012.30  249.28
  -1   3 -12  966.30  148.09
   1   3  12  759.02   38.00
   1   3  12  564.44  176.48
   1  -3 -12  596.34  204.48
   1   3  12  760.42   37.80
   1  -3 -12  892.21   36.80
  -1  -3  12  848.02  159.98
  -1   3 -12  973.40  225.48
   1   3  12  770.62   35.70
  -1  -3  12  900.81   48.70
  -1   3 -12  871.31   38.90
   1   3  12  829.62  148.89
  -1   3  12  702.13   39.90
   1   3 -12  855.41  145.29
  -1   3  12 1004.10  215.88
  -1   3  12 1021.90  142.99
  -1  -3 -12  996.60  217.88
   1   3 -12  599.74  207.98
   1   3 -12  822.42   38.20
  -1  -3 -12  960.20  137.49
  -1   3  12  817.22   35.60
   1  -3  12  658.23  191.58
   1   3 -12  806.92   35.20
   1  -3  12  822.12   39.10
   1  -3  12  799.22  167.18
  -1  -4  12   10.20    5.70
  -1   4 -12   16.70    6.60
  -1  -4  12  145.49  118.69
   1  -4 -12  191.58   92.79
  -1   4 -12   19.70    7.20
   1  -4 -12   53.19  179.88
  -1   4 -12  103.49  157.28
   1   4  12   18.40    4.80
  -1   4 -12  -20.80   91.59
  -1  -4  12  -20.60  216.38
   1   4  12   17.60    5.80
   1   4  12  -18.90  145.69
   1   4  12  -49.00   96.99
   1   4  12   10.10    5.20
   1  -4  12  304.97  173.58
  -1   4  12   14.00    5.10
   1  -4  12   11.70    6.40
   1   4 -12   13.50    5.60
  -1   4  12   27.80  145.89
  -1   4  12   13.80    5.80
   1   4 -12   17.50    4.20
  -1  -4 -12   15.20    5.00
   1   4 -12  -96.79   89.59
   1  -4  12  174.18  120.09
  -1   4  12   14.80    4.40
  -1   4  12   29.70   93.19
   1   4 -12  179.78  157.48
   1  -5 -12  872.51   37.80
   1  -5 -12 1389.86  296.27
   1   5  12  576.74  185.78
  -1   5 -12  840.32   36.40
  -1  -5  12  -90.89  263.67
  -1   5 -12  871.91   39.90
   1  -5 -12 1178.08  161.98
  -1   5 -12  886.81  214.78
   1   5  12  549.85  129.09
  -1   5 -12  914.31  171.18
   1   5  12  872.31   49.50
  -1  -5  12  804.32   43.00
   1   5  12  740.33   38.90
   1   5 -12  757.02  209.08
   1  -5  12 1373.86  278.97
  -1  -5 -12 1036.00  159.78
   1   5 -12  829.02  178.18
   1  -5  12  787.22   40.20
  -1  -5 -12 1473.85  293.07
  -1   5  12  806.22   38.80
  -1  -5 -12  865.31   38.30
  -1   5  12  775.62   36.30
   1  -5  12  785.32  173.58
  -1   5  12  803.62   42.40
   1   5 -12  858.31   36.10
  -1   6 -12   -0.90    3.80
   1   6  12    5.60    5.70
  -1   6 -12   -2.50    4.70
   1  -6 -12  111.39  113.89
   1  -6 -12  119.59  243.18
  -1   6  12    3.60    5.40
   1   6 -12  -62.59  265.27
   1   6 -12    3.10    4.60
  -1  -6 -12    4.60    5.30
  -1   6  12 -200.58  254.77
   1   6 -12    7.10    5.70
   1   6 -12   16.60  125.09
  -1   6  12   90.09  126.69
  -1   7 -12  134.19   13.80
  -1   7 -12  142.59   11.40
   1   7  12  127.09   14.90
   1   7  12  129.49   14.10
   1   7 -12   94.99   13.40
  -1   7  12  152.38   14.40
   1   7 -12  109.49   10.30
  -2   0  12 3915.71  154.58
  -2   0 -12 3890.61  152.28
  -2   0  12 3868.41  150.88
  -2   0  12 4132.39  252.87
  -2   0 -12 3539.35  295.17
   2   0  12 4083.79  350.26
   2   0 -12 3519.75  319.37
  -2   0 -12 3613.84  238.48
   2   0 -12 3903.31  151.38
   2   0  12 4174.78  255.77
  -2   0  12 3597.04  337.07
  -2   0  12 3686.23  153.48
  -2   0 -12 3848.91  154.48
   2   0  12 3809.82  154.08
   2   0 -12 3837.42  153.78
   2  -1 -12   77.89    9.00
  -2  -1  12   91.19   88.39
  -2   1 -12   68.49    8.70
   2   1  12  264.17  190.08
  -2   1 -12   76.79    7.40
   2   1  12   77.79   92.79
   2  -1 -12   87.09    7.30
   2   1  12   79.59    7.80
   2   1  12   75.79   13.50
   2  -1 -12  168.08  168.68
  -2   1 -12 -115.69  125.59
  -2  -1  12   81.69    9.70
  -2   1 -12  154.98   88.89
  -2  -1  12  422.26  192.08
   2   1  12   83.29   15.30
   2  -1 -12   96.29   78.49
  -2  -1 -12   73.49    9.10
  -2  -1 -12   79.09    7.60
   2   1 -12    9.50  127.09
  -2   1  12   52.99   85.89
   2   1 -12  -29.40   79.99
   2  -1  12   -9.30  145.09
  -2  -1 -12    6.40  153.68
  -2   1  12   84.19    8.80
  -2   1  12   78.19    9.40
   2  -1  12   80.09    8.70
   2  -1  12  -31.80   87.39
  -2   1  12   82.49    7.10
   2   1 -12   65.89    8.50
  -2   1  12  350.56  184.58
  -2  -1 -12  -81.39   82.99
   2   1 -12   83.99    6.80
  -2   2 -12 1425.46   61.49
   2   2  12 1441.56   61.49
   2   2  12 1430.86   58.99
  -2   2 -12 1548.55  269.77
   2   2  12 1411.46   61.19
   2   2  12 1367.46  162.58
   2  -2 -12 1309.47  233.68
  -2  -2  12 1438.46   61.89
  -2  -2  12 1472.85  228.78
  -2  -2  12 1692.53  171.68
   2  -2 -12 1433.16   58.79
  -2   2 -12 1573.44  161.18
   2   2  12 1504.05  226.88
   2  -2 -12 1276.07  143.59
  -2   2 -12 1434.76   58.99
  -2   2  12 1081.89  151.08
  -2   2  12 1316.37  243.38
  -2   2  12 1377.16   60.79
   2  -2  12 1425.56   61.79
   2   2 -12 1166.68  221.98
   2  -2  12 1682.53  182.18
  -2  -2 -12 1245.98  228.58
   2  -2  12 2024.60  246.98
  -2  -2 -12 1412.96   61.39
   2   2 -12  981.40  143.59
   2  -2  12 1309.67   62.99
   2   2 -12 1455.65   60.89
  -2   2  12 1408.46   61.09
   2   2 -12 1472.75   58.09
  -2  -2 -12 1677.63  159.88
  -2   2  12 1426.76   58.09
   2   3  12   23.00    7.80
   2   3  12   14.10    5.30
  -2   3 -12  174.48   95.49
   2  -3 -12   15.00    4.40
   2   3  12  120.19  186.18
  -2   3 -12    8.10  174.98
   2   3  12   24.30    6.40
   2  -3 -12 -131.19  119.19
  -2  -3  12 -167.68  141.29
  -2  -3  12  -99.79   97.39
   2   3  12  -39.20   88.39
  -2  -3  12   23.70    8.30
   2  -3 -12  228.38   89.29
  -2   3 -12   14.50    5.20
  -2   3 -12   10.40    6.00
   2   3 -12   15.00    4.50
   2  -3  12  -42.50  152.08
  -2   3  12   16.90    5.30
   2  -3  12   43.70  104.89
   2  -3  12   26.80    8.60
  -2   3  12   -4.40   85.59
   2   3 -12    3.90  178.98
  -2  -3 -12 -142.49  181.68
  -2  -3 -12   17.50    4.80
   2   3 -12  101.89   84.29
  -2  -3 -12   12.40    5.00
  -2  -3 -12   49.20   77.19
   2   3 -12   19.00    8.30
  -2   3  12   18.00    4.40
  -2   3  12 -133.99  162.28
   2  -4 -12  548.25  109.89
   2   4  12  520.95   26.50
   2   4  12  507.75   24.20
  -2   4 -12  474.65   23.60
   2  -4 -12  480.55   24.10
   2   4  12  651.33  184.78
  -2  -4  12  509.45   27.40
  -2   4 -12  410.76  162.58
   2   4  12  504.45   26.40
   2   4  12  400.56  110.29
  -2   4 -12  143.59  272.07
   2  -4 -12  663.23  190.38
   2   4 -12  451.95  115.59
  -2  -4 -12  446.56  212.78
  -2  -4 -12  465.55   24.30
   2  -4  12  525.35   27.60
  -2   4  12  508.55   25.70
   2   4 -12  458.15   25.30
  -2   4  12  491.65   23.30
   2   4 -12  646.74  226.48
  -2  -4 -12  463.15  111.09
  -2   4  12  502.05   26.40
   2   4 -12  486.75   22.60
  -2  -5  12  -58.69  235.18
  -2  -5  12  -82.09  126.59
  -2   5 -12    8.60    4.20
   2   5  12    8.50    5.20
   2  -5 -12    9.00    5.00
   2  -5 -12  -64.19  149.09
  -2   5 -12    3.70    4.90
   2   5  12    9.50    5.90
   2  -5 -12  118.79   99.69
   2   5 -12  -37.60  227.68
   2   5 -12    6.60    3.60
  -2   5  12    8.10    5.10
  -2   5  12  -47.50  106.09
  -2   5  12   77.79  231.98
   2   5 -12   10.80    5.40
  -2  -5 -12    4.90    4.50
  -2   5  12    4.50    4.50
   2  -5  12    7.30    6.80
   2   5 -12   15.10  109.29
  -2   6 -12  318.67   17.90
   2   6  12  350.16   21.20
  -2   6 -12  318.67   20.80
   2   6 -12   -9.40  322.37
   2   6 -12  340.17   17.10
  -2  -6 -12  342.67   19.70
  -2   6  12  282.47   22.10
   2   6 -12  329.87   20.40
   2   7  12    1.80    5.90
   2   7  12   12.30    7.30
  -2   7 -12    7.60    5.00
  -2   7 -12    4.80    6.30
  -2   7  12    7.40    6.80
  -2  -7 -12   10.00    6.30
   2   7 -12    5.60    6.40
   2   7 -12   -0.20    4.60
  -3   0 -12    1.40    3.30
   3   0 -12    2.40    2.90
   3   0 -12    1.30    3.30
   3   0  12   -7.10   91.39
   3   0 -12   41.20   76.79
  -3   0 -12   25.60   75.39
  -3   0  12    2.20    4.40
   3   0  12 -303.47  125.09
   3   0 -12  -53.39  117.99
  -3   0 -12    0.30    3.70
  -3   0 -12   49.70  167.58
  -3   1 -12   34.20    6.20
   3  -1 -12  169.68  150.78
   3  -1 -12   38.00    5.70
  -3   1 -12   20.10   85.49
   3  -1 -12   51.89   74.29
  -3   1 -12  107.59  176.28
   3   1  12   45.80    8.70
  -3  -1  12   40.70    8.30
   3   1  12  200.78  137.39
  -3   1 -12   40.70    7.60
   3   1  12  -79.29   84.29
   3   1  12   48.40    7.00
   3  -1  12   43.30    8.70
   3   1 -12   82.19  161.98
  -3   1  12   41.80    7.10
   3  -1  12   60.49   97.59
   3   1 -12  -29.80   85.79
   3   1 -12   44.70    5.50
  -3  -1 -12   47.50    8.00
  -3  -1 -12  125.29   79.59
  -3  -1 -12   41.10    6.20
  -3   1  12   36.30    5.50
  -3   1  12   41.00    8.20
   3  -1  12  226.68  187.68
   3   1 -12   44.30    7.30
  -3  -2  12  165.78   13.50
   3   2  12  158.98   11.20
  -3   2 -12  -18.40   86.69
   3   2  12  159.28   13.40
   3  -2 -12  174.68   10.60
  -3   2 -12  167.48   11.00
   3  -2 -12  249.48   92.59
  -3   2 -12  284.57  149.79
   3  -2 -12  111.49  173.18
  -3   2 -12  159.88   12.80
   3   2  12  161.88   12.60
   3   2  12  158.38   96.89
   3   2  12  191.28  184.48
  -3   2  12  155.78   12.40
   3   2 -12  101.89  136.19
  -3  -2 -12   78.69  129.59
  -3   2  12  155.98   12.90
  -3  -2 -12  158.58   11.20
   3   2 -12  159.08   12.00
   3  -2  12  164.08  199.78
  -3  -2 -12  171.68   13.10
   3   2 -12  165.38    9.60
   3   2 -12  181.68   90.99
   3  -2  12  277.57  108.19
  -3  -2 -12   40.80   79.59
  -3   2  12  159.68   10.00
   3  -2  12  151.88   15.70
   3   3  12  977.90   43.40
   3  -3 -12 1066.49  150.08
  -3   3 -12  984.50   43.20
  -3  -3  12  973.70   45.90
   3   3  12 1030.40   45.80
   3   3  12 1011.70   45.50
  -3  -3  12  601.14  187.38
  -3   3 -12  975.60   45.70
   3  -3 -12  992.10   43.10
  -3  -3  12 1025.90  175.88
   3  -3 -12  915.91  207.88
   3  -3  12  962.20   45.90
   3   3 -12 1055.79   41.80
  -3   3  12  942.51  225.38
  -3   3  12  920.61   44.90
  -3  -3 -12 1092.29   44.30
   3   3 -12 1147.39  153.58
  -3  -3 -12 1052.59  228.78
  -3  -3 -12 1033.80   46.00
   3   3 -12  958.20  212.08
  -3   3  12  945.01   42.00
  -3  -3 -12  759.22  233.48
   3   3 -12 1052.99   45.00
  -3   3  12 1202.18  153.78
  -3   4 -12   95.69    9.00
   3  -4 -12  131.99   98.39
  -3  -4  12  108.39   13.00
  -3  -4  12   72.19  175.48
   3  -4 -12   53.49  147.99
  -3   4 -12   97.99   11.10
   3  -4 -12   93.59    9.40
   3   4  12  131.39   15.20
   3   4  12  110.39   12.20
  -3  -4  12   31.30  117.29
  -3   4  12  187.58  105.99
   3   4 -12   99.29    7.80
  -3   4  12  105.99   11.80
   3   4 -12  173.78  189.68
  -3   4  12  122.39    9.20
  -3   4  12  169.28  160.48
   3   4 -12  -86.89   99.59
   3   4 -12   92.39   10.20
  -3  -4 -12  115.29   12.20
   3  -4  12  109.29   12.90
  -3   4  12  114.99   10.90
  -3   5 -12  507.55   26.00
  -3   5 -12  518.55   28.80
   3   5  12  583.44   29.30
   3   5  12  580.94   29.40
   3   5 -12  607.84   25.00
  -3  -5 -12  595.14   27.80
   3  -5  12  492.35   29.20
  -3   5  12  493.85   25.30
   3   5 -12  573.74   28.20
  -3   5  12  517.55   27.90
  -3   6 -12   38.20    8.10
  -3   6 -12   52.69   10.30
   3   6  12   64.09   11.50
   3   6  12   59.09   11.00
  -3  -6 -12   43.60    9.40
  -3   6  12   60.49   17.10
   3   6 -12   52.69    7.30
   3   6 -12   59.29   10.20
  -4   0 -12    8.60    3.70
  -4   0  12   -0.40    4.20
  -4   0  12 -113.39   86.79
  -4   0 -12    6.50    4.40
  -4   0  12 -128.09  178.98
   4   0 -12    7.90   81.69
   4   0 -12 -100.49  145.29
   4   0  12    3.90    4.20
  -4  -1  12  -20.50  191.18
  -4  -1  12   12.20   93.99
   4  -1 -12  -66.89   76.89
   4  -1 -12 -265.27  141.49
  -4   1 -12   36.40    6.30
   4   1  12   46.70    7.30
   4  -1 -12   40.00    5.70
   4   1  12   47.00    8.10
  -4  -1  12   42.00    8.70
  -4   1 -12   37.80    7.90
   4   1 -12  155.08  182.18
  -4   1  12   51.99    9.30
  -4   1  12   55.19    8.80
  -4  -1 -12   38.20    7.90
  -4  -1 -12   41.20    6.60
   4   1 -12   45.30    7.20
  -4   1  12   47.90    5.60
   4  -1  12   36.10   11.30
   4   1 -12   38.10    5.30
   4   1 -12  -44.40   86.89
  -4   1  12   60.69   91.79
  -4   1  12  229.48  170.78
   4  -2 -12   80.09    7.60
   4   2  12   75.99    8.70
  -4  -2  12   83.09   10.50
  -4   2 -12   79.69    8.00
  -4  -2  12  -13.60  115.69
   4   2  12   82.69    9.80
  -4  -2  12   14.60  209.08
  -4   2 -12   79.29    9.90
  -4  -2 -12   86.09    8.50
   4  -2  12   69.69   11.30
  -4   2  12   80.49   11.10
  -4   2  12  133.79  280.87
   4   2 -12  158.18  111.09
   4   2 -12   90.39    9.00
  -4   2  12   71.89    7.00
  -4   2  12  131.99  136.39
  -4   2  12   69.49    9.90
   4   2 -12  288.77  190.28
  -4  -2 -12   77.39    9.70
   4   2 -12   87.69    6.80
  -4   3 -12  290.67   16.10
  -4   3 -12  254.27   25.00
   4   3  12  276.27   18.00
   4   3  12  288.27   18.20
  -4  -3  12  271.57   18.80
   4   3 -12  290.77   14.00
   4  -3  12  280.77   18.50
   4   3 -12  294.87   16.90
  -4  -3 -12  296.17   18.60
   4  -3  12  271.27   17.00
  -4   3  12  299.67   14.90
  -4   3  12  264.47   17.80
  -4  -3 -12  270.97   24.90
  -4   4 -12  503.55   24.70
   4   4  12  502.45   27.00
   4   4  12  499.75   27.00
  -4   4 -12  497.85   27.10
  -4   4  12  520.35   23.70
   4   4 -12  504.35   22.50
  -4   4  12  506.85   26.00
  -4  -4 -12  498.45   25.50
   4  -4  12  498.95   27.40
  -4   4  12  526.65   31.60
   4   5  12  208.98   16.90
  -4   5 -12  248.68   17.20
   4   5  12  201.48   16.20
  -4   5 -12  209.68   14.00
  -4   5  12  205.38   15.40
   4   5 -12  211.58   11.80
  -4   5  12  201.38   13.20
  -4  -5 -12  206.08   15.00
   4   5 -12  211.58   15.10
   4  -5  12  225.18   18.20
   4   6  12 1206.08   54.29
   4   6  12 1249.47   59.59
  -4   6 -12 1103.49   53.79
   4   6  12 1175.88   54.59
  -4   6 -12 1110.39   50.89
  -4   6  12 1190.98   54.19
   4   6 -12 1185.98   48.90
   4   6 -12 1257.27   62.59
  -4  -6 -12 1162.38   52.19
   4  -6  12 1166.68   54.59
  -5   0 -12    9.40    4.50
   5   0  12    9.40    5.30
   5   0 -12    9.20    3.30
   5   0  12   -3.20    4.80
  -5   0 -12    6.00    4.40
  -5   0  12    4.10    5.50
  -5   1 -12  523.25   26.30
  -5   1 -12  504.85   26.10
   5  -1 -12  508.45   22.50
   5   1  12  443.46   25.20
  -5  -1  12  430.16   25.30
   5   1 -12  428.26   21.40
  -5  -1 -12  481.85   26.30
   5  -1  12  550.04   25.70
  -5  -1 -12  439.26   25.30
  -5   1  12  522.25   21.70
  -5   1  12  507.55   25.90
  -5  -2  12   48.70   10.40
   5   2  12   52.29    9.20
  -5   2 -12   57.59    8.10
  -5   2  12   52.59    6.30
   5   2 -12   63.39    8.00
   5   2 -12   59.79    5.90
   5  -2  12   56.09    9.00
  -5  -2 -12   63.89    8.80
  -5   2  12   48.00    9.80
   5   3  12  314.87   23.00
  -5   3 -12  382.46   21.80
  -5  -3  12  321.67   21.80
  -5   3 -12  409.66   19.90
   5   3 -12  373.26   19.50
  -5  -3 -12  366.16   19.80
   5   3 -12  376.56   16.80
   5  -3  12  354.46   20.20
  -5   3  12  337.47   21.20
  -5  -3 -12  377.96   21.70
  -5   3  12  349.96   17.50
  -5   4 -12  113.89   12.70
   5   4  12  140.59   13.50
  -5   4 -12  122.49   10.70
   5   4  12  125.39   13.00
   5  -4  12  124.19   11.70
  -5   4  12  127.69   11.80
  -5   4  12  124.19    9.80
   5   4 -12  126.99    8.10
   5   4 -12  121.59   11.10
  -5  -4 -12  121.09   11.40
   5  -4  12  130.19   14.10
   5   5  12  412.46   25.50
  -5   5 -12  482.35   23.50
   5   5  12  424.46   26.00
   5   5  12  416.06   25.30
  -5   5 -12  499.05   26.60
   5  -5  12  451.75   26.60
   5   5 -12  421.06   20.10
   5  -5  12  459.25   24.20
  -5   5  12  452.45   22.00
  -5   5  12  464.85   24.40
  -5  -5 -12  448.86   24.20
  -6   0 -12  931.31   50.79
   6   0  12 1128.09   48.20
  -6   0 -12 1051.79   46.90
  -6   0  12 1113.69   49.10
   6   0  12 1157.58   48.90
  -6   1 -12  146.89   11.30
   6   1  12  144.59   13.30
   6   1  12  152.08   13.20
  -6   1 -12  137.99   13.20
  -6  -1  12  146.89   13.80
  -6   1  12  152.58   13.80
  -6  -1 -12  130.79   13.00
   6  -1  12  157.78   12.90
   6   1 -12  141.29    8.60
   6  -1  12  167.48   13.80
  -6   1  12  173.18   12.60
  -6  -1 -12  134.19   11.30
  -6   2 -12 1788.22   75.09
  -6   2 -12 1800.32   72.89
   6   2  12 1640.14   82.79
  -6  -2  12 1707.53   74.79
  -6   2  12 1816.32   69.99
  -6  -2 -12 1769.42   72.99
   6  -2  12 1764.52   73.59
  -6   2  12 1685.93   73.59
  -6  -2 -12 1770.52   74.89
  -6   2  12 1718.43   74.39
   6  -2  12 1726.83   73.69
  -6   3 -12   72.49    9.20
  -6   3 -12   68.09   11.00
   6   3  12   64.79   10.90
  -6   3  12   67.89    9.60
  -6  -3 -12   68.59   10.60
  -6  -3 -12   70.49    9.20
   6  -3  12   63.29   10.00
   6   3 -12   66.49    8.30
  -6   3  12   69.79    7.80
   6   4  12  460.05   24.80
   6   4  12  476.65   34.60
  -6   4 -12  459.35   25.90
   6   4  12  470.85   26.50
  -6   4 -12  448.16   23.60
  -6  -4 -12  452.45   24.10
  -6   4  12  432.16   24.00
   6  -4  12  432.66   23.90
   6   4 -12  444.56   22.50
  -7   0  12    8.40    6.90
   7   0  12    5.50    5.90
  -7   0 -12    4.00    4.50
  -7   0 -12    5.20    5.70
   7   0  12    8.10    6.20
  -7   1 -12  101.19   12.40
  -7   1 -12  103.49   10.60
   7   1  12  139.59   20.30
  -7   1  12  120.59   11.50
  -7  -1 -12  148.19   11.50
   7  -1  12  106.79   12.10
   7  -1  12  114.49   12.40
  -7  -1 -12  144.39   13.30
  -7   1  12  112.09   14.30
  -7   2 -12  156.68   14.60
   7   2  12  156.38   13.00
   7   2  12  150.98   14.20
   7   2  12  155.18   14.50
  -7   2 -12  175.08   12.80
   7  -2  12  162.38   14.30
  -7  -2 -12  170.68   14.70
  -7   2  12  164.88    9.80
   7  -2  12  146.09   13.30
  -7   2  12  161.28   13.20
  -7  -2 -12  163.08   12.90
  -7   3 -12  326.17   21.30
   7   3  12  338.37   19.40
   7   3  12  345.07   21.70
  -7   3 -12  326.77   18.90
   7   3  12  349.57   20.50
  -7   3  12  302.27   19.10
  -7   3  12  306.57   16.00
   7  -3  12  303.97   19.60
  -7  -3 -12  349.67   19.60
  -7  -3 -12  359.56   21.40
   7  -3  12  292.37   19.90
   0   0  13   -3.90   92.99
   0   0 -13  251.57  201.18
   0   0 -13  146.29   92.59
   0   0  13  175.48  208.78
   0   1 -13  560.44  121.99
   0   1 -13  666.83   31.20
   0   1  13  756.32  233.78
   0  -1  13 1514.05  307.17
   0  -1  13  579.04   31.20
   0  -1 -13  731.43  212.28
   0  -1  13  572.94   30.00
   0  -1 -13  665.33   28.90
   0  -1  13  691.03  155.18
   0   1 -13  658.63   28.50
   0  -1 -13  766.22  149.29
   0  -1 -13  653.13   31.10
   0   1  13  580.34   28.00
   0   1  13  596.64   31.10
   0   1 -13  374.96  197.88
   0   1  13  890.41  163.28
   0   1  13  571.94   30.10
   0   2  13    0.10    3.90
   0  -2 -13 -130.79  191.18
   0  -2  13  -21.50  236.68
   0  -2 -13   55.79   87.99
   0   2  13  -53.89   91.69
   0   2  13    1.00    4.20
   0  -2  13  250.77  113.89
   0   2 -13 -123.59  148.69
   0   2  13    4.40    5.10
   0  -2 -13   -2.30    3.90
   0  -2 -13   -1.10    4.10
   0   2 -13    2.00    3.90
   0   2  13  -18.50  146.09
   0   2 -13  -44.70   99.59
   0  -2  13   -2.10    5.00
   0   2 -13    5.60    3.60
   0  -3  13   76.49  116.79
   0   3 -13   65.79    8.80
   0   3  13   -7.70  212.88
   0   3 -13  -84.69  106.69
   0  -3 -13  -60.09  213.28
   0   3  13   95.89    9.10
   0  -3  13   99.29   12.50
   0  -3 -13  120.19   97.79
   0   3 -13  -80.49  198.58
   0   3 -13   65.59   12.20
   0  -3  13  188.98  250.77
   0   3  13   51.89  104.39
   0  -3 -13   75.29    8.80
   0  -4  13  379.06  284.97
   0   4 -13   29.40  116.39
   0   4 -13   54.29  259.37
   0  -4 -13   94.29  108.79
   0   4  13   -4.20  245.18
   0  -4 -13  340.97  234.38
   0   4  13  180.48  118.49
   0  -4  13 -286.07  123.79
   0  -5 -13 2026.00  434.76
   0   5  13 1514.35   68.89
   0  -5 -13 2093.39  263.57
   0  -5 -13 1606.34   67.39
   0   5 -13 1595.14   65.69
   0   5 -13 1564.94   68.99
   0  -6 -13   -0.20    5.80
   0   6 -13   -0.90    5.50
   0   6  13    5.20    6.40
   0   6 -13    3.10    4.80
  -1   0 -13  174.38   99.89
  -1   0  13  -18.90  188.58
  -1   0 -13   35.00    8.40
   1   0  13   40.70    7.70
   1   0 -13 -263.47  168.58
   1   0  13   54.09    9.60
   1   0  13   69.99  102.69
  -1   0  13   43.00    9.30
  -1   0 -13   43.90    8.10
   1   0 -13   46.20    8.20
  -1   0  13   43.10    8.00
  -1   0 -13  175.08  194.88
   1   0 -13   80.89   90.39
   1   0 -13   43.50    6.50
  -1   0  13   76.79  107.19
   1   0  13   38.40  209.48
  -1  -1  13   48.40  108.59
  -1   1 -13   44.70    8.30
   1   1  13   43.30    9.40
   1   1  13  -15.10  101.09
   1   1  13   52.49    8.50
   1  -1 -13 -134.49  179.18
  -1  -1  13  -30.90  207.88
   1   1  13   38.30    7.00
   1   1  13 -246.58  211.08
  -1  -1  13   46.70    9.70
   1  -1 -13   53.69    8.60
  -1   1 -13    5.70  149.59
  -1   1 -13  -15.70   96.59
  -1   1 -13   31.40    8.80
   1  -1 -13   42.80    6.70
   1  -1 -13  117.59   88.69
  -1  -1 -13    6.10  133.89
   1   1 -13   45.80    6.30
   1  -1  13  -79.49  216.28
   1  -1  13   35.10    9.30
   1  -1  13   41.00    7.80
  -1  -1 -13   39.50    6.80
  -1   1  13   39.20    9.60
  -1   1  13  101.09  165.88
   1   1 -13   37.40    8.10
  -1  -1 -13   31.60    7.80
  -1   1  13   45.40    6.70
  -1  -1 -13  300.77  235.68
   1  -1  13  -43.40  105.59
  -1   1  13   43.80    7.90
   1   1 -13   51.49   98.49
  -1   1  13  -95.99   97.59
   1   1 -13  108.59  148.79
  -1   2 -13  358.76   20.40
   1   2  13  468.35   21.30
   1  -2 -13  416.36   99.69
  -1  -2  13  365.46  242.58
   1  -2 -13  376.46   20.60
  -1   2 -13  636.94  209.28
   1   2  13  424.26  111.19
   1  -2 -13  278.57  181.58
  -1   2 -13  408.16   27.40
   1   2  13  479.85   24.30
  -1  -2  13  885.21  173.08
  -1  -2  13  450.55   24.30
   1   2  13  307.67  169.78
   1   2  13  478.55   23.70
   1   2 -13  454.75   20.50
  -1   2  13  363.76   22.30
  -1  -2 -13  279.37  117.09
  -1   2  13  -68.39  198.38
  -1   2  13  595.34  124.69
   1   2 -13  260.27  202.28
  -1  -2 -13  898.71  270.17
   1   2 -13  453.45   23.40
   1   2 -13  344.67  118.69
   1  -2  13  140.89  122.69
   1  -2  13  605.14  241.18
  -1   2  13  359.26   19.90
  -1   2  13  358.96   22.90
   1  -2  13  354.46   23.40
  -1  -2 -13  447.06   21.50
   1   3  13   14.30    9.70
   1  -3 -13   -9.00  102.19
   1   3  13  -37.80  103.39
   1  -3 -13    3.80    4.30
   1   3  13    7.90    4.50
  -1   3 -13    4.10    4.90
  -1  -3  13 -415.26  240.48
   1   3  13  103.29  224.18
  -1   3 -13    4.30    3.80
  -1  -3  13    3.90    6.20
  -1   3 -13  244.08  172.58
  -1  -3  13  152.78  122.49
   1   3  13    9.50    6.10
   1  -3 -13   70.39  196.98
  -1   3 -13  -42.10   99.69
  -1   3  13    6.40    4.70
   1   3 -13    7.20    4.90
   1  -3  13   39.30  117.69
   1  -3  13   35.70  230.08
  -1   3  13    4.80    4.90
  -1  -3 -13    5.60    4.30
   1  -3  13    8.20    6.40
   1   3 -13  -17.60  102.99
  -1  -3 -13   71.89  216.08
   1   3 -13  -97.59  154.48
  -1  -3 -13   62.19   95.39
  -1   3  13   59.19  109.89
   1   3 -13    9.00    3.90
  -1   3  13  -37.60  150.08
  -1   3  13    3.10    5.40
  -1   4 -13  296.87   16.90
   1  -4 -13  250.67  115.79
   1  -4 -13  182.08  218.88
   1  -4 -13  302.87   17.90
  -1   4 -13  284.47   19.70
  -1   4  13  284.67   17.20
   1   4 -13  368.36   20.40
   1   4 -13  262.57  128.29
  -1   4  13  291.27   21.10
  -1  -4 -13  322.47   20.30
   1   4 -13  368.96   17.10
   1   4 -13  321.97  253.37
  -1  -5  13  325.37  164.28
   1  -5 -13  548.95  269.97
  -1   5 -13  136.79   16.00
  -1  -5  13   44.00  347.37
   1  -5 -13  118.29   11.70
   1   5  13  133.09   13.30
   1  -5 -13  -46.40  113.59
  -1   5 -13  121.69   13.00
  -1   5  13  311.67  138.49
   1   5 -13   22.20  134.49
  -1   5  13  124.49   12.80
   1   5 -13  115.39   12.90
   1   5 -13  128.09   10.00
   1   5 -13  372.86  262.97
  -1  -5 -13  130.79   12.00
  -1   5  13  -69.29  259.47
  -1   6 -13  101.39   10.40
  -1   6 -13   88.19   12.90
   1   6  13  133.39   13.70
   1   6 -13  122.29   13.80
   1   6 -13  133.69   10.50
  -1   6  13  100.99   12.90
  -1  -6 -13  126.69   12.80
   2   0 -13  -63.99   88.89
   2   0  13   36.20    7.90
  -2   0  13   37.30    7.70
  -2   0 -13   43.90    8.60
   2   0 -13   43.70    8.00
   2   0  13   63.89  122.69
   2   0 -13  232.58  179.78
   2   0  13   40.20    9.50
  -2   0 -13   36.30    6.70
  -2   0  13   34.80    9.10
  -2   0 -13  -91.99  242.68
   2   0 -13   41.70    6.30
  -2   1 -13  861.81  230.28
   2  -1 -13 1001.70   46.40
   2  -1 -13 1033.80   44.20
  -2  -1  13  996.80   47.30
  -2   1 -13 1019.00   44.50
   2  -1 -13 1286.27  219.68
   2   1  13  888.21  244.28
   2   1  13 1080.39  174.48
   2  -1 -13 1005.70  154.68
   2   1  13 1016.40   47.10
  -2   1 -13 1162.08   56.09
   2   1  13  996.40   46.50
   2   1  13 1006.90   44.40
  -2  -1 -13  727.93  217.88
  -2  -1 -13 1016.20  173.38
   2  -1  13 1026.10   46.60
   2   1 -13 1010.20   46.20
   2  -1  13 1378.56  363.46
  -2   1  13 1016.60   47.10
  -2  -1 -13 1018.60   44.80
   2   1 -13 1016.20  164.28
   2   1 -13 1442.66  282.57
  -2   1  13 1020.10   46.40
  -2  -1 -13 1150.78   55.79
   2   1 -13 1029.90   43.70
   2  -1  13 1067.79   47.80
   2  -1  13  854.81  198.68
  -2   1  13 1019.90   43.60
   2  -2 -13   36.10    6.80
   2   2  13   29.40    7.90
   2   2  13   46.20   10.00
   2  -2 -13  163.68  142.59
   2  -2 -13   73.59   89.99
  -2  -2  13   31.40    9.80
  -2   2 -13 -120.29  252.97
   2   2  13   25.30    7.30
  -2   2 -13   31.80    6.40
  -2   2 -13   31.00    8.10
   2   2 -13  128.89  203.28
   2  -2  13   36.60    7.80
  -2  -2 -13  119.39  104.09
   2   2 -13   26.00    5.70
  -2  -2 -13   26.60    8.20
  -2   2  13   29.70    7.70
   2   2 -13    2.10   97.09
   2   2 -13   29.30    7.70
   2  -2  13   32.20   10.30
  -2  -2 -13   35.40    7.00
  -2   2  13   30.10    6.50
  -2   2  13   28.60    8.80
  -2  -2 -13  293.57  196.08
  -2   3 -13  656.23   29.10
   2   3  13  590.44   31.50
  -2  -3  13  397.96  248.98
   2  -3 -13  669.03  219.08
  -2  -3  13  356.66  146.49
   2   3  13  607.14   32.00
   2  -3 -13  867.91  162.88
  -2   3 -13  622.64   31.70
   2   3 -13  625.04   31.00
  -2   3  13  600.84   30.90
  -2   3  13  963.30  236.88
  -2  -3 -13  636.04   32.10
   2   3 -13  509.95  125.59
   2  -3  13  603.54   32.30
   2   3 -13  651.03   28.10
  -2   3  13  587.74   28.20
   2   3 -13  756.52  227.38
  -2   3  13  939.81  168.78
  -2  -3 -13  687.63   35.00
   2  -4 -13  -77.89  105.99
  -2  -4  13   56.79  255.17
   2  -4 -13   73.09  173.18
  -2   4 -13   10.10    5.80
   2   4  13   10.70    6.10
  -2  -4  13   25.00  148.49
   2  -4 -13    7.60    5.00
   2   4  13    8.20    7.20
  -2   4  13   84.49  117.99
   2   4 -13 -341.77  189.78
  -2   4  13  -91.49  180.98
   2  -4  13   11.20    7.30
   2   4 -13   11.00    5.70
  -2  -4 -13    6.80    5.00
   2   4 -13    8.70    3.90
   2   4 -13  -79.69  121.99
  -2   4  13   13.90    5.10
  -2   4  13   15.00    9.70
  -2   5 -13  688.63   35.10
   2  -5 -13  639.24   37.50
   2   5  13  693.33   34.90
  -2   5 -13  686.53   31.80
  -2   5  13  699.33   34.30
  -2  -5 -13  685.63   33.10
   2   5 -13  682.43   34.20
   2   5 -13  693.63   30.70
  -2   6 -13   23.40    7.90
  -2   6 -13   27.40    8.10
   2   6  13   23.10    7.80
  -2  -6 -13   21.20    7.20
   2   6 -13   31.00    7.70
  -2   6  13   23.30    7.50
   2   6 -13   35.50   10.70
  -3   0  13  -19.00  161.58
   3   0 -13   22.80    8.60
   3   0  13   20.80    7.30
  -3   0  13   19.90  100.79
  -3   0 -13   20.10    7.70
   3   0 -13  118.19  101.19
   3   0 -13  213.48  182.68
  -3   0  13   23.60    9.10
  -3   0  13   23.70    7.20
   3   0  13   28.20    8.00
   3   0 -13   20.60    5.70
  -3   0 -13   23.70    6.40
  -3  -1  13   57.89   11.00
   3   1  13   65.19    9.70
   3  -1 -13   43.70  190.18
   3  -1 -13  227.68   98.39
   3   1  13   74.09   12.90
  -3  -1  13  -50.59  167.38
  -3   1 -13   68.99    7.90
  -3  -1  13  139.79  109.79
  -3   1 -13   71.69    9.60
   3  -1 -13   67.79    7.80
   3   1  13   66.89   11.00
  -3   1  13 -345.07  183.28
  -3   1  13   62.49   10.50
  -3  -1 -13   68.49    8.10
   3  -1  13   73.49   11.60
  -3  -1 -13   78.19   10.10
  -3   1  13   67.89    9.20
  -3   1  13  122.59  108.69
   3   1 -13   76.49    9.30
   3   1 -13   73.99    7.20
   3   1 -13  229.78  111.69
   3   1 -13  339.47  193.78
   3  -1  13   69.29    9.40
  -3   1  13   75.79    7.30
  -3  -2  13 -160.18  179.28
   3   2  13   63.09   15.00
  -3  -2  13   64.89   12.00
  -3  -2  13   45.30  156.98
   3  -2 -13  448.56  234.98
   3   2  13   61.29   10.80
   3   2 -13   56.89    9.10
   3   2 -13   60.59    6.90
  -3  -2 -13   61.09    9.70
   3   2 -13 -201.38  116.59
  -3  -2 -13   62.99   13.60
   3  -3 -13  173.08   12.40
  -3   3 -13  176.68   14.70
   3   3  13  177.68   14.50
   3   3  13  177.48   15.50
  -3   3 -13  168.28   12.30
  -3  -3 -13  177.18   13.00
  -3   3  13  180.08   11.90
  -3   3  13  175.08   13.80
   3   3 -13  168.58   13.50
   3  -3  13  182.88   16.40
   3  -3  13  174.28   14.00
  -3  -3 -13  173.78   14.60
   3   3 -13  183.08   11.10
  -3   4 -13  770.22   33.70
   3   4  13  678.53   35.90
   3   4  13  670.23   35.80
  -3   4 -13  793.92   37.10
   3  -4 -13  766.22   34.00
  -3   4  13  803.22   33.10
   3   4 -13  676.53   35.40
  -3  -4 -13  658.33   33.90
   3  -4  13  808.52   38.00
   3   4 -13  664.83   31.60
  -3   5 -13  167.28   15.40
  -3   5 -13  174.48   12.80
   3   5  13  150.18   15.00
   3   5 -13  158.38   11.00
   3   5 -13  163.98   14.20
  -3  -5 -13  155.98   13.50
  -3   5  13  172.98   14.60
   4   0  13  313.87   19.20
   4   0  13  316.57   19.90
  -4   0  13  310.47   18.40
   4   0 -13  301.77   16.00
  -4   0 -13  295.97   17.40
  -4   0 -13  308.37   19.50
  -4   0  13  307.77   20.50
   4   1  13  201.98   16.10
  -4   1 -13  221.38   13.70
   4  -1 -13  240.98   12.90
  -4   1 -13  224.08   15.80
  -4  -1  13  173.28   19.50
  -4   1  13  177.28   17.70
   4  -1  13  188.28   14.90
  -4   1  13  196.58   11.80
  -4   1  13  198.28   14.50
  -4  -1 -13  217.68   14.00
   4   1 -13  223.48   12.20
   4   1 -13  209.58   14.30
   4  -1  13  202.28   16.40
  -4  -1 -13  220.78   15.80
  -4   2 -13   80.09   10.80
  -4   2 -13   68.89    8.40
   4   2  13   60.89   11.50
   4  -2 -13   70.69    8.40
   4   2  13   63.99   10.40
  -4  -2 -13   74.19   10.60
  -4   2  13   70.59    7.70
   4  -2  13   57.89    9.40
   4  -2  13   69.99   12.00
   4   2 -13   79.09    7.30
  -4   2  13   70.99    9.80
  -4  -2 -13   81.19    9.30
  -4   3 -13  563.84   28.20
  -4   3 -13  590.94   30.90
   4   3  13  573.84   30.70
   4   3  13  592.04   30.90
   4   3 -13  590.04   29.20
   4   3 -13  590.84   26.10
   4  -3  13  604.54   31.60
  -4  -3 -13  585.34   28.80
  -4   3  13  571.44   26.80
  -4   3  13  579.84   29.70
   4  -3  13  641.64   34.90
  -4  -3 -13  591.04   31.00
   4   4  13   25.00    8.30
  -4   4 -13   16.10    5.60
  -4   4 -13   15.80    6.30
   4   4  13   21.20    7.20
  -4   4  13   21.40   11.40
   4   4 -13   15.80    6.10
  -4   4  13   18.80    5.50
   4   4 -13   20.90    6.10
   4  -4  13   16.90    8.20
   4  -4  13   12.10    6.10
  -4  -4 -13   18.40    6.00
   4   5  13  636.24   34.80
  -4   5 -13  694.93   32.30
  -4   5 -13  669.13   35.00
   4   5 -13  714.33   29.90
   4   5 -13  703.43   34.10
  -4   5  13  619.74   33.40
  -4   5  13  663.33   36.40
  -4  -5 -13  701.93   33.60
   5   0 -13   25.00    6.30
   5   0  13   32.00   11.10
   5   0  13   29.60   10.70
  -5   0 -13   31.00    7.60
  -5   0 -13   25.90    9.10
   5   1  13   81.19   11.30
   5  -1 -13   82.89    8.40
  -5   1 -13   83.79   11.10
   5   1  13   86.09   12.50
  -5   1 -13   80.39    9.20
  -5  -1 -13   71.79   11.10
   5  -1  13   83.09   16.00
   5  -1  13   87.79   12.50
  -5  -1 -13   77.69    9.30
   5   1 -13   79.69    7.70
  -5   1  13   85.09   10.50
  -5   2 -13  224.98   15.70
  -5   2 -13  218.88   17.90
   5   2  13  303.07   19.20
   5   2  13  302.27   19.40
  -5  -2 -13  297.57   19.30
   5   2 -13  305.37   14.40
   5  -2  13  273.97   26.40
  -5   2  13  215.88   14.10
   5   2 -13  298.47   17.10
  -5  -2 -13  301.87   17.30
   5   3  13  115.49   13.00
  -5   3 -13  109.29   10.50
   5   3  13   99.89   13.80
  -5   3 -13  118.89   13.30
   5   3 -13  110.69    8.30
  -5   3  13  118.79    9.70
  -5  -3 -13   98.59   10.90
   5   3 -13  108.99   11.30
  -5  -3 -13  108.19   12.80
   5  -3  13  115.49   14.60
   5  -3  13   85.49   13.20
  -5   3  13  106.89   12.20
  -5   4 -13  174.68   13.50
  -5   4 -13  170.98   15.60
   5  -4  13  178.58   15.10
   5  -4  13  179.18   17.70
  -5   4  13  169.98   13.80
   5   4 -13  226.18   15.00
  -5  -4 -13  226.48   15.20
  -5   4  13  150.58   17.50
   6   0  13  495.55   27.00
  -6   0 -13  474.45   25.00
  -6   0 -13  496.95   27.40
  -6   1 -13  683.73   31.80
  -6   1 -13  664.83   33.90
   6   1  13  658.73   33.70
  -6  -1 -13  654.13   34.00
   6  -1  13  678.03   33.20
  -6  -1 -13  643.54   31.80
  -6   2 -13  131.89   13.90
   6   2  13  130.39   14.70
   6   2  13  130.19   13.80
  -6   2 -13  131.19   11.70
   6  -2  13  122.89   13.30
   6  -2  13  154.78   17.50
  -6  -2 -13  132.49   14.10
  -6   2  13  155.38   16.90
  -6  -2 -13  104.49   11.60
  -6   2  13  127.09    9.60
   6   3  13  460.65   27.10
  -6   3 -13  500.05   27.70
   6   3  13  468.65   27.40
  -6   3 -13  480.35   24.90
   6  -3  13  469.25   26.30
  -6  -3 -13  484.85   27.40
   6  -3  13  467.15   27.30
  -6   3  13  471.85   22.60
  -6  -3 -13  510.05   25.60
   0   0  14 1709.93  365.16
   0   0 -14 1553.44  197.28
   0   0  14 1434.36   66.59
   0   0 -14 2351.36  341.07
   0   0 -14 1579.04   67.69
   0   0  14 1477.65  216.08
   0   0 -14 1613.94   64.89
   0  -1 -14 -145.79  207.58
   0   1  14  317.77  257.77
   0   1 -14  197.28  186.48
   0  -1  14  284.17  198.28
   0   1 -14  135.59  124.69
   0  -1  14 -190.88  129.29
   0  -1 -14  297.07  111.39
   0   1  14  -70.39  121.39
   0  -2 -14 2276.37  280.27
   0   2  14 2597.54   99.29
   0  -2 -14 2460.25  214.18
   0  -2  14 1589.94  237.08
   0   2 -14 2430.86   96.49
   0   2 -14 2400.06  237.08
   0   2 -14 2352.26   99.39
   0  -2 -14 2399.36   97.19
   0  -2 -14 2362.86   99.69
   0   2 -14 1999.30  381.06
   0   2  14 2418.36   99.49
   0  -2  14 1737.93  323.27
   0  -3 -14 -325.77  184.88
   0   3  14    1.70    5.20
   0   3 -14    2.90    4.20
   0  -3 -14  124.99  137.99
   0   3 -14    1.20    5.30
   0  -3 -14    0.80    5.00
   0  -4 -14  483.15   25.30
   0   4 -14  503.35   26.20
   0   4  14  461.85   27.00
   0   4 -14  499.95   27.60
   0   5  14   -6.00    6.10
   0  -5 -14   -0.30    5.50
   0   5 -14    1.10    6.10
   0   5 -14   -1.10    4.70
   1   0 -14  344.97  228.78
   1   0 -14  108.69  111.09
  -1   1 -14  164.08   11.40
  -1   1 -14  155.78   13.60
   1  -1 -14  201.48  239.48
   1  -1 -14  165.88   11.50
  -1  -1  14  111.09   11.90
   1  -1 -14  155.58   13.20
   1  -1 -14  243.48  114.09
   1   1 -14  327.97  187.48
   1  -1  14  148.09   13.00
  -1   1  14  162.58   13.10
  -1   1  14  154.08   11.10
   1   1 -14  122.39   12.70
  -1  -1 -14  125.89   11.20
  -1  -1 -14  129.39   13.10
   1   1 -14  110.09   12.70
   1   1 -14   80.79  114.69
   1  -2 -14  146.89  120.19
   1  -2 -14 -206.58  213.48
   1   2 -14 -277.67  250.87
   1   2 -14 -178.68  117.99
   1  -3 -14  759.92  150.28
  -1  -3  14  603.54  165.58
   1   3  14  562.44   31.40
  -1  -3  14 1061.69  267.67
  -1   3 -14  675.93   32.80
  -1   3 -14  591.54   35.30
   1  -3 -14  696.83   31.60
   1  -3 -14  609.64  224.58
   1   3 -14  568.24   31.40
   1   3 -14  551.34  148.79
  -1   3  14  546.65  289.57
  -1  -3 -14  602.54   30.10
  -1   3  14  446.16  152.28
   1   3 -14  470.65  286.37
  -1   3  14  670.63   32.30
   1   3 -14  592.64   28.40
  -1   4 -14   42.40   10.50
  -1   4 -14   46.60    8.30
   1  -4 -14 -238.78  291.77
  -1  -4  14  596.64  555.94
   1   4  14   46.60   10.80
   1  -4 -14   42.30    9.30
  -1   4  14   53.49   10.80
   1   4 -14  325.97  315.27
   1   4 -14  -88.69  143.29
  -1  -4 -14   43.80    9.80
  -1   4  14 -175.38  229.38
   1   4 -14   45.20    7.80
   1   4 -14   56.89   11.00
   1   5  14  667.83   35.90
  -1   5  14  746.23   36.50
   2   0 -14  634.74   29.20
   2   0  14  666.43   34.60
  -2   0 -14  645.34   30.40
  -2   0  14  637.84   31.90
  -2   0  14  720.23  222.88
   2   0 -14  366.96  130.09
   2   0 -14 1068.79  241.88
   2   0  14  651.93   32.30
   2   0 -14  565.94   39.10
  -2   0 -14  634.04   32.40
  -2   0  14  603.04  158.68
   2   1  14   49.90    9.50
   2  -1 -14   29.10   10.90
   2  -1 -14  -38.20  220.18
   2  -1 -14   68.99  119.89
  -2   1 -14   40.30    9.50
  -2   1 -14   39.50    7.90
  -2  -1  14  199.38  136.09
  -2  -1  14   73.89  212.78
   2   1 -14   39.20    9.70
  -2   1  14   41.80    7.50
   2   1 -14   34.80    7.10
  -2  -1 -14   33.10    8.00
  -2   1  14  317.67  280.27
  -2   1  14  -63.69  130.59
  -2   1  14   37.60    8.60
  -2  -1 -14   33.70    9.30
   2   1 -14 -459.15  248.88
   2  -1  14   34.30    8.90
   2  -1  14   48.60   15.50
   2   1 -14   24.40  125.59
   2  -2 -14  403.96   21.60
  -2   2 -14  426.96   21.70
  -2   2 -14  423.16   24.30
   2   2  14  411.86   23.90
   2  -2  14  404.16   23.70
  -2  -2 -14  423.16   22.20
  -2   2  14  421.76   23.90
   2   2 -14  418.26   20.70
  -2  -2 -14  418.56   24.30
   2   2 -14  412.66   23.60
  -2   2  14  405.76   20.90
   2   3  14   84.19   11.80
   2  -3 -14   69.09    9.70
  -2   3 -14   95.79    9.60
  -2   3 -14   80.19   11.90
  -2   3  14   86.99   10.30
   2   3 -14   69.19    8.70
  -2  -3 -14   88.79   10.60
  -2   3  14   97.49   11.90
   2  -3  14   72.39   10.70
   2   3 -14   80.89   11.40
  -2   4 -14  352.86   20.00
   2   4  14  391.86   23.40
   2  -4 -14  363.36   20.90
  -2   4 -14  354.36   23.10
  -2   4  14  373.36   22.70
  -2  -4 -14  379.56   21.60
   2   4 -14  373.76   19.50
   2   4 -14  361.96   22.20
   3   0  14    2.60    5.70
  -3   0 -14    0.50    5.00
   3   0 -14    2.30    4.80
  -3   0 -14    2.60    4.50
  -3   0  14    7.50    5.20
   3   0  14   -1.90    6.70
   3   0 -14    2.90    4.50
   3   1  14  317.67   19.20
   3  -1 -14  248.38   15.50
  -3   1 -14  258.17   18.30
   3   1  14  291.77   20.20
  -3   1 -14  250.97   15.90
   3  -1  14  215.78   17.10
  -3   2 -14    4.00    5.40
   3   2  14   10.60    6.30
  -3   2 -14    4.90    4.70
  -3   2  14    9.10    4.90
   3   2 -14    8.30   10.00
  -3   2  14    4.90    5.50
   3   2 -14   13.10    4.90
  -3  -2 -14    9.00    6.30
   3  -2  14    9.30    5.80
  -3  -2 -14   10.80    5.30
   3  -3 -14  719.13   34.50
   3   3  14  793.82   38.00
  -3   3 -14  702.63   37.20
  -3   3 -14  720.63   34.50
  -3   3  14  744.53   33.80
   3   3 -14  764.02   33.10
   3  -3  14  742.23   36.70
   3   3 -14  761.82   36.50
  -3  -3 -14  787.52   35.80
  -3   3  14  754.52   37.00
  -3  -3 -14  757.52   37.90
   3   4  14   96.69   13.20
  -3   4 -14  103.89   13.30
  -3   4 -14  109.59   11.00
   3  -4  14   88.89   12.10
  -3  -4 -14  100.29   11.70
   3   4 -14  111.49   10.00
   3   4 -14   98.89   12.70
  -3   4  14   99.89   12.70
  -4   0 -14 2623.04  109.89
   4   0  14 2644.84  109.59
  -4   0 -14 2657.93  107.29
  -4   0  14 2550.54  108.69
   4   0 -14 2700.33  105.79
   4   0  14 2637.74  109.89
  -4   1 -14  116.89   11.20
   4   1  14  118.19   13.10
   4  -1 -14  148.89   11.10
   4   1  14  101.49   15.20
  -4   1 -14  123.89   13.20
  -4  -1 -14  120.89   11.40
   4  -1  14  118.39   13.20
   4  -1  14  119.29   15.40
  -4  -1 -14  112.99   12.70
   4   1 -14  115.09   12.10
   4   1 -14  128.69   10.20
  -4   2 -14 1069.99   48.20
   4  -2 -14 1068.69   47.40
  -4   2 -14 1089.09   51.09
   4   2  14 1139.79   51.99
   4   2  14 1114.29   51.09
  -4  -2 -14 1051.29   50.79
  -4   2  14 1166.48   50.39
   4  -2  14 1138.99   51.89
   4   2 -14 1031.60   48.80
   4  -2  14 1160.08   50.49
   4   2 -14 1065.69   46.20
  -4   2  14 1144.49   46.70
  -4  -2 -14 1065.69   48.70
  -4   3 -14   33.40   10.70
  -4   3 -14   29.60    6.70
   4   3  14   27.80    8.40
   4  -3  14   45.00   10.50
  -4  -3 -14   35.80   10.70
   4   3 -14   14.40   11.40
  -4  -3 -14   34.10    9.30
  -4   3  14   30.20    6.70
   4   3 -14   29.30    7.40
  -4   3  14   32.50    8.50
   5   0 -14    1.30    4.70
  -5   0 -14    2.70    5.20
   5   0  14    4.40    7.90
   5   0  14   -3.00    5.90
  -5   0 -14   -2.50    5.50
   5  -1 -14   56.59    9.10
   5   1  14   59.29   11.70
  -5   1 -14   59.49    9.60
   5   1  14   45.40   13.80
  -5   1 -14   60.99   11.50
   5  -1  14   51.69   11.30
   5   1 -14   59.49    8.20
  -5   1  14   64.99   10.90
  -5  -1 -14   51.39    9.50
   5  -1  14   62.79   14.30
  -5  -1 -14   49.50   11.30
   0   0 -15   -0.10    4.70
   0   0 -15   -1.40    5.60
   0   0  15   -0.30    5.30
   0   1 -15   27.40    7.90
   0  -1 -15   29.30    6.80
   0  -1  15   34.20    9.90
   0  -1 -15   27.60   10.20
   0   1  15   30.60   10.50
   0   1 -15   31.00    8.00
   0   2 -15    2.10    6.00
   0  -2 -15    8.50    5.80
   0  -2  15    4.60    6.20
   0   2  15    4.70    6.00
   0   2 -15    1.50    5.10
   1   0 -15   24.10    6.30
  -1   0  15   27.20    9.50
  -1   0 -15   21.20    7.70
   1   0 -15   26.70    9.90
  -1   0 -15   30.40    8.40
   1   0  15   21.10    6.80
   1  -1 -15   42.40   12.60
   1  -1 -15   36.80   10.50
  -1   1 -15   53.09    8.90
  -1  -1  15   38.80   10.00
   1   1  15   44.30   10.90
  -1   1 -15   55.19   11.10
  -1  -1 -15   55.49    9.50
   1   1 -15   58.69    9.00
  -1  -1 -15   42.10   10.80
   1  -1  15   51.59   10.40
  -1   1  15   48.60   10.90
   1   1 -15   49.80   10.90
   1  -2 -15  449.86   23.70
   1   2  15  441.86   26.00
  -1   2 -15  469.75   23.50
  -1   2 -15  443.26   26.40
  -1  -2 -15  431.86   23.80
  -1   2  15  491.55   26.20
  -1  -2 -15  426.56   26.20
   1   2 -15  436.96   22.90
   1  -2  15  457.35   25.80
   1   2 -15  404.16   25.30
   2   0 -15  222.08   17.00
   2   0 -15  219.18   14.50
   2   0  15  218.48   17.60
  -2   0 -15  217.18   17.50
  -2   0 -15  224.58   15.20
  -2   0  15  217.68   16.90
  -2   1 -15  799.72   37.20
   2  -1 -15  840.32   37.20
   2   1  15  777.82   39.70
  -2   1 -15  817.52   40.30
  -2  -1  15  779.92   39.30
   2   1 -15  803.92   39.60
  -2  -1 -15  834.02   40.60
   2   1 -15  857.81   36.70
  -2  -1 -15  862.11   38.20
   2  -1  15  801.82   39.70
  -2   1  15  761.82   39.20
  -2   2 -15    6.90    5.40
   2   2  15    8.40    6.90
  -2   2 -15   -1.70    6.20
   2  -2 -15    4.50    6.80
   2   2 -15    5.60    5.40
   2  -2  15    5.90    6.70
  -2   2  15    3.30    6.20
  -2  -2 -15    2.30    5.80
  -2  -2 -15    1.30    6.20
   2   2 -15    0.40    6.10
   3   0  15   26.30    7.90
  -3   0  15   37.80   10.30
   3   0 -15   48.60    9.30
  -3   0 -15   19.80    6.50
  -3   0 -15   27.80   10.80
   0   0   0    0.00    0.00

_computing_structure_solution     'SHELXT 2014/5 (Sheldrick, 2014)'
;
_shelx_hkl_checksum              66060
loop_
_space_group_symop_operation_xyz
'x, y, z'
'-x, -y, z+1/2'
'x+1/2, -y+1/2, z'
'-x+1/2, y+1/2, z+1/2'
loop_
_atom_site_label
_atom_site_type_symbol
_atom_site_fract_x
_atom_site_fract_y
_atom_site_fract_z
_atom_site_U_iso_or_equiv
_atom_site_adp_type
_atom_site_occupancy
_atom_site_site_symmetry_order
_atom_site_calc_flag
Ba1 Ba 0.98116(2) 0.81592(3) 0.72440(3) 0.00328(7) Uani 1 1 d
Ba2 Ba 0.75013(3) 0.24913(4) 0.58951(3) 0.00723(7) Uani 1 1 d
P1 P 1.24337(13) 0.72218(16) 0.52829(12) 0.0029(3) Uani 1 1 d
P2 P 0.50943(12) 0.70733(17) 0.29415(12) 0.0034(3) Uani 1 1 d
P3 P 0.20418(12) 0.47814(16) 0.27655(13) 0.0041(3) Uani 1 1 d
P4 P 0.49991(13) 0.44870(16) 0.49556(13) 0.0038(3) Uani 1 1 d
P5 P 0.81708(13) 0.44409(17) 0.34608(14) 0.0066(3) Uani 1 1 d
P6 P 1.06926(12) 0.56896(17) 0.54980(13) 0.0040(3) Uani 1 1 d
Si1 Si 1.01692(13) 0.56450(17) 0.36938(13) 0.0033(3) Uani 1 1 d
Si2 Si 0.34861(13) 0.58508(17) 0.39667(13) 0.0026(3) Uani 1 1 d
Si3 Si 0.65983(14) 0.59488(17) 0.41784(13) 0.0031(3) Uani 1 1 d
loop_
_atom_site_aniso_label
_atom_site_aniso_U_11
_atom_site_aniso_U_22
_atom_site_aniso_U_33
_atom_site_aniso_U_23
_atom_site_aniso_U_13
_atom_site_aniso_U_12
Ba1 0.00358(11) 0.00318(14) 0.00307(13) -0.00082(14) -0.00013(17) -0.00024(9)
Ba2 0.00398(12) 0.00702(15) 0.01068(14) -0.00269(13) -0.00148(11) 0.00269(11)
P1 0.0022(6) 0.0025(7) 0.0039(7) -0.0003(5) -0.0006(4) 0.0007(5)
P2 0.0033(6) 0.0038(7) 0.0031(7) 0.0004(5) -0.0003(4) -0.0015(5)
P3 0.0012(6) 0.0041(7) 0.0070(7) -0.0019(6) 0.0005(5) -0.0004(5)
P4 0.0021(6) 0.0038(6) 0.0056(7) 0.0018(5) 0.0000(4) 0.0001(5)
P5 0.0021(6) 0.0057(7) 0.0121(8) -0.0057(6) 0.0008(5) -0.0006(5)
P6 0.0033(5) 0.0033(7) 0.0055(7) 0.0004(5) 0.0012(5) -0.0010(4)
Si1 0.0010(6) 0.0029(7) 0.0058(7) -0.0012(6) 0.0003(5) -0.0002(5)
Si2 0.0010(6) 0.0031(8) 0.0037(7) -0.0004(6) -0.0001(5) 0.0000(5)
Si3 0.0022(6) 0.0023(8) 0.0047(8) -0.0006(6) 0.0005(5) -0.0014(5)
loop_
_atom_type_symbol
_atom_type_description
_atom_type_scat_dispersion_real
_atom_type_scat_dispersion_imag
_atom_type_scat_source
Si Si 0.0817 0.0704 'International Tables Vol C Tables 4.2.6.8 and 6.1.1.4'
P P 0.1023 0.0942 'International Tables Vol C Tables 4.2.6.8 and 6.1.1.4'
Ba Ba -0.3244 2.2819 'International Tables Vol C Tables 4.2.6.8 and 6.1.1.4'
loop_
_geom_angle_atom_site_label_1
_geom_angle_atom_site_label_2
_geom_angle_atom_site_label_3
_geom_angle
_geom_angle_site_symmetry_1
_geom_angle_site_symmetry_3
P6 Ba1 P3 71.84(4) . 2_665
P6 Ba1 P1 69.25(3) . 3_465
P3 Ba1 P1 70.75(4) 2_665 3_465
P6 Ba1 P5 68.34(4) . 2_765
P3 Ba1 P5 69.93(3) 2_665 2_765
P1 Ba1 P5 128.86(4) 3_465 2_765
P6 Ba1 P5 137.96(3) . 4_655
P3 Ba1 P5 75.20(4) 2_665 4_655
P1 Ba1 P5 75.77(3) 3_465 4_655
P5 Ba1 P5 122.56(5) 2_765 4_655
P6 Ba1 P3 100.94(3) . 4_655
P3 Ba1 P3 143.04(4) 2_665 4_655
P1 Ba1 P3 142.09(4) 3_465 4_655
P5 Ba1 P3 73.74(3) 2_765 4_655
P5 Ba1 P3 121.05(4) 4_655 4_655
P6 Ba1 P4 147.74(4) . 4_655
P3 Ba1 P4 97.98(4) 2_665 4_655
P1 Ba1 P4 137.57(3) 3_465 4_655
P5 Ba1 P4 79.40(4) 2_765 4_655
P5 Ba1 P4 61.82(3) 4_655 4_655
P3 Ba1 P4 68.42(3) 4_655 4_655
P6 Ba1 P4 84.95(4) . 3_565
P3 Ba1 P4 133.04(3) 2_665 3_565
P1 Ba1 P4 62.89(3) 3_465 3_565
P5 Ba1 P4 137.59(3) 2_765 3_565
P5 Ba1 P4 99.45(4) 4_655 3_565
P3 Ba1 P4 80.15(3) 4_655 3_565
P4 Ba1 P4 120.886(11) 4_655 3_565
P6 Ba1 P1 37.66(3) . .
P3 Ba1 P1 108.27(4) 2_665 .
P1 Ba1 P1 90.05(4) 3_465 .
P5 Ba1 P1 72.87(4) 2_765 .
P5 Ba1 P1 163.56(4) 4_655 .
P3 Ba1 P1 66.14(3) 4_655 .
P4 Ba1 P1 131.60(3) 4_655 .
P4 Ba1 P1 66.13(3) 3_565 .
P6 Ba1 Si2 137.40(3) . 4_655
P3 Ba1 Si2 134.30(4) 2_665 4_655
P1 Ba1 Si2 142.60(4) 3_465 4_655
P5 Ba1 Si2 88.53(4) 2_765 4_655
P5 Ba1 Si2 84.60(3) 4_655 4_655
P3 Ba1 Si2 36.77(3) 4_655 4_655
P4 Ba1 Si2 37.12(3) 4_655 4_655
P4 Ba1 Si2 90.07(3) 3_565 4_655
P1 Ba1 Si2 102.56(3) . 4_655
P6 Ba1 P2 146.24(4) . 4_655
P3 Ba1 P2 140.11(3) 2_665 4_655
P1 Ba1 P2 106.32(3) 3_465 4_655
P5 Ba1 P2 124.82(3) 2_765 4_655
P5 Ba1 P2 65.89(3) 4_655 4_655
P3 Ba1 P2 61.06(3) 4_655 4_655
P4 Ba1 P2 56.31(3) 4_655 4_655
P4 Ba1 P2 64.79(3) 3_565 4_655
P1 Ba1 P2 111.53(3) . 4_655
Si2 Ba1 P2 36.30(3) 4_655 4_655
P6 Ba1 Si3 173.88(3) . 4_655
P3 Ba1 Si3 104.30(3) 2_665 4_655
P1 Ba1 Si3 105.13(3) 3_465 4_655
P5 Ba1 Si3 115.24(4) 2_765 4_655
P5 Ba1 Si3 36.06(3) 4_655 4_655
P3 Ba1 Si3 85.00(3) 4_655 4_655
P4 Ba1 Si3 36.28(3) 4_655 4_655
P4 Ba1 Si3 94.69(3) 3_565 4_655
P1 Ba1 Si3 147.09(3) . 4_655
Si2 Ba1 Si3 48.66(3) 4_655 4_655
P2 Ba1 Si3 36.50(3) 4_655 4_655
P4 Ba2 P4 139.23(5) 3 .
P4 Ba2 P3 123.32(3) 3 2_665
P4 Ba2 P3 84.77(4) . 2_665
P4 Ba2 P2 71.09(4) 3 4_645
P4 Ba2 P2 145.65(4) . 4_645
P3 Ba2 P2 61.17(4) 2_665 4_645
P4 Ba2 P6 81.61(3) 3 3_455
P4 Ba2 P6 93.02(4) . 3_455
P3 Ba2 P6 141.79(4) 2_665 3_455
P2 Ba2 P6 110.59(4) 4_645 3_455
P4 Ba2 P5 81.85(4) 3 .
P4 Ba2 P5 63.69(3) . .
P3 Ba2 P5 98.59(4) 2_665 .
P2 Ba2 P5 122.31(3) 4_645 .
P6 Ba2 P5 114.56(4) 3_455 .
P4 Ba2 P2 146.97(4) 3 2_665
P4 Ba2 P2 69.27(3) . 2_665
P3 Ba2 P2 63.26(3) 2_665 2_665
P2 Ba2 P2 89.91(4) 4_645 2_665
P6 Ba2 P2 80.25(3) 3_455 2_665
P5 Ba2 P2 130.93(3) . 2_665
P4 Ba2 Ba2 41.67(2) 3 3
P4 Ba2 Ba2 138.20(3) . 3
P3 Ba2 Ba2 82.37(2) 2_665 3
P2 Ba2 Ba2 46.89(2) 4_645 3
P6 Ba2 Ba2 120.77(2) 3_455 3
P5 Ba2 Ba2 79.19(2) . 3
P2 Ba2 Ba2 135.27(2) 2_665 3
P4 Ba2 Ba2 138.66(3) 3 3_455
P4 Ba2 Ba2 41.47(2) . 3_455
P3 Ba2 Ba2 97.35(2) 2_665 3_455
P2 Ba2 Ba2 133.17(2) 4_645 3_455
P6 Ba2 Ba2 59.61(2) 3_455 3_455
P5 Ba2 Ba2 100.61(2) . 3_455
P2 Ba2 Ba2 44.67(2) 2_665 3_455
Ba2 Ba2 Ba2 179.619(17) 3 3_455
P4 Ba2 Ba1 46.20(3) 3 1_545
P4 Ba2 Ba1 157.87(3) . 1_545
P3 Ba2 Ba1 109.06(3) 2_665 1_545
P2 Ba2 Ba1 49.53(3) 4_645 1_545
P6 Ba2 Ba1 65.33(2) 3_455 1_545
P5 Ba2 Ba1 128.05(2) . 1_545
P2 Ba2 Ba1 100.92(3) 2_665 1_545
Ba2 Ba2 Ba1 62.692(7) 3 1_545
Ba2 Ba2 Ba1 117.661(11) 3_455 1_545
P6 P1 Si2 93.99(8) . 1_655
P6 P1 Si3 105.45(7) . 3_565
Si2 P1 Si3 99.49(8) 1_655 3_565
P6 P1 Ba1 112.32(7) . 3_565
Si2 P1 Ba1 97.10(5) 1_655 3_565
Si3 P1 Ba1 137.30(7) 3_565 3_565
P6 P1 Ba1 62.27(5) . .
Si2 P1 Ba1 156.25(7) 1_655 .
Si3 P1 Ba1 87.28(5) 3_565 .
Ba1 P1 Ba1 92.98(4) 3_565 .
Si2 P2 Si1 105.15(8) . 3_465
Si2 P2 Si3 82.19(7) . .
Si1 P2 Si3 97.86(7) 3_465 .
Si2 P2 Ba2 155.68(7) . 4_654
Si1 P2 Ba2 99.17(6) 3_465 4_654
Si3 P2 Ba2 94.71(5) . 4_654
Si2 P2 Ba2 86.84(5) . 2_664
Si1 P2 Ba2 101.11(6) 3_465 2_664
Si3 P2 Ba2 160.02(7) . 2_664
Ba2 P2 Ba2 88.44(3) 4_654 2_664
Si2 P2 Ba1 70.05(5) . 4_644
Si1 P2 Ba1 169.31(7) 3_465 4_644
Si3 P2 Ba1 72.27(5) . 4_644
Ba2 P2 Ba1 85.98(3) 4_654 4_644
Ba2 P2 Ba1 88.32(3) 2_664 4_644
Si2 P3 Si1 91.70(7) . 1_455
Si2 P3 Ba1 145.23(7) . 2_664
Si1 P3 Ba1 86.87(5) 1_455 2_664
Si2 P3 Ba2 91.11(6) . 2_664
Si1 P3 Ba2 99.77(6) 1_455 2_664
Ba1 P3 Ba2 123.39(5) 2_664 2_664
Si2 P3 Ba1 75.80(5) . 4_644
Si1 P3 Ba1 160.95(7) 1_455 4_644
Ba1 P3 Ba1 95.24(4) 2_664 4_644
Ba2 P3 Ba1 94.85(3) 2_664 4_644
Si3 P4 Si2 84.11(7) . .
Si3 P4 Ba2 174.53(7) . 3_455
Si2 P4 Ba2 90.59(5) . 3_455
Si3 P4 Ba2 88.16(5) . .
Si2 P4 Ba2 168.34(7) . .
Ba2 P4 Ba2 96.86(4) 3_455 .
Si3 P4 Ba1 77.66(6) . 4_644
Si2 P4 Ba1 74.86(6) . 4_644
Ba2 P4 Ba1 99.67(4) 3_455 4_644
Ba2 P4 Ba1 94.99(4) . 4_644
Si3 P4 Ba1 89.49(6) . 3_465
Si2 P4 Ba1 91.99(6) . 3_465
Ba2 P4 Ba1 92.06(4) 3_455 3_465
Ba2 P4 Ba1 96.68(4) . 3_465
Ba1 P4 Ba1 162.34(5) 4_644 3_465
Si3 P5 Si1 103.49(8) . .
Si3 P5 Ba1 171.87(7) . 2_764
Si1 P5 Ba1 84.58(5) . 2_764
Si3 P5 Ba1 78.70(5) . 4_644
Si1 P5 Ba1 160.66(8) . 4_644
Ba1 P5 Ba1 93.38(4) 2_764 4_644
Si3 P5 Ba2 82.51(6) . .
Si1 P5 Ba2 108.02(7) . .
Ba1 P5 Ba2 95.98(4) 2_764 .
Ba1 P5 Ba2 91.32(3) 4_644 .
P1 P6 Si1 94.13(8) . .
P1 P6 Ba1 80.08(6) . .
Si1 P6 Ba1 126.05(7) . .
P1 P6 Ba2 99.77(5) . 3
Si1 P6 Ba2 103.59(7) . 3
Ba1 P6 Ba2 130.32(5) . 3
P6 Si1 P5 109.06(8) . .
P6 Si1 P3 107.56(7) . 1_655
P5 Si1 P3 117.01(8) . 1_655
P6 Si1 P2 112.01(9) . 3_565
P5 Si1 P2 112.09(8) . 3_565
P3 Si1 P2 98.79(7) 1_655 3_565
P3 Si2 P1 114.39(7) . 1_455
P3 Si2 P4 119.91(9) . .
P1 Si2 P4 103.56(8) 1_455 .
P3 Si2 P2 107.24(8) . .
P1 Si2 P2 114.14(9) 1_455 .
P4 Si2 P2 96.54(7) . .
P3 Si2 Ba1 67.44(5) . 4_644
P1 Si2 Ba1 169.71(8) 1_455 4_644
P4 Si2 Ba1 68.02(5) . 4_644
P2 Si2 Ba1 73.65(5) . 4_644
P5 Si3 P4 104.94(8) . .
P5 Si3 P1 116.03(7) . 3_465
P4 Si3 P1 116.23(8) . 3_465
P5 Si3 P2 117.26(8) . .
P4 Si3 P2 95.69(7) . .
P1 Si3 P2 105.31(8) 3_465 .
P5 Si3 Ba1 65.24(5) . 4_644
P4 Si3 Ba1 66.05(5) . 4_644
P1 Si3 Ba1 176.26(7) 3_465 4_644
P2 Si3 Ba1 71.24(5) . 4_644
loop_
_geom_bond_atom_site_label_1
_geom_bond_atom_site_label_2
_geom_bond_distance
_geom_bond_site_symmetry_2
Ba1 P6 3.1867(15) .
Ba1 P3 3.2863(14) 2_665
Ba1 P1 3.2912(14) 3_465
Ba1 P5 3.3957(15) 2_765
Ba1 P5 3.4238(14) 4_655
Ba1 P3 3.4298(13) 4_655
Ba1 P4 3.4590(16) 4_655
Ba1 P4 3.4804(16) 3_565
Ba1 P1 3.5464(14) .
Ba1 Si2 3.6006(16) 4_655
Ba1 P2 3.6754(16) 4_655
Ba1 Si3 3.6974(15) 4_655
Ba2 P4 3.2109(14) 3
Ba2 P4 3.2231(14) .
Ba2 P3 3.3746(16) 2_665
Ba2 P2 3.3852(14) 4_645
Ba2 P6 3.4228(15) 3_455
Ba2 P5 3.4673(17) .
Ba2 P2 3.5155(14) 2_665
Ba2 Ba2 4.81361(19) 3
Ba2 Ba2 4.8136(2) 3_455
P1 P6 2.1996(19) .
P1 Si2 2.250(2) 1_655
P1 Si3 2.276(2) 3_565
P2 Si2 2.2675(19) .
P2 Si1 2.272(2) 3_465
P2 Si3 2.309(2) .
P3 Si2 2.223(2) .
P3 Si1 2.2581(19) 1_455
P4 Si3 2.2396(19) .
P4 Si2 2.2511(19) .
P5 Si3 2.2193(19) .
P5 Si1 2.2340(19) .
P6 Si1 2.210(2) .
