#------------------------------------------------------------------------------
#$Date: 2019-11-03 13:47:39 +0200 (Sun, 03 Nov 2019) $
#$Revision: 221570 $
#$URL: file:///home/coder/svn-repositories/cod/cif/4/12/84/4128466.cif $
#------------------------------------------------------------------------------
#
# This file is available in the Crystallography Open Database (COD),
# http://www.crystallography.net/
#
# All data on this site have been placed in the public domain by the
# contributors.
#
data_4128466
loop_
_publ_author_name
'Hung, Kevin'
'Condakes, Matthew L.'
'Novaes, Luiz F. T.'
'Harwood, Stephen J.'
'Morikawa, Takahiro'
'Yang, Zhi'
'Maimone, Thomas J.'
_publ_section_title
;
 Development of a Terpene Feedstock-Based Oxidative Synthetic Approach to
 the Illicium Sesquiterpenes.
;
_journal_issue                   7
_journal_name_full               'Journal of the American Chemical Society'
_journal_page_first              3083
_journal_page_last               3099
_journal_paper_doi               10.1021/jacs.8b12247
_journal_volume                  141
_journal_year                    2019
_chemical_absolute_configuration ad
_chemical_formula_sum            'C14 H20 O4'
_chemical_formula_weight         252.30
_chemical_name_common            KH_3_087_1
_chemical_name_systematic        maimone58
_space_group.centring_type       primitive
_space_group_crystal_system      monoclinic
_space_group_IT_number           4
_space_group_name_Hall           'P 2yb'
_space_group_name_H-M_alt        'P 1 21 1'
_atom_sites_solution_hydrogens   geom
_atom_sites_solution_primary     iterative
_atom_sites_solution_secondary   difmap
_audit_creation_method           SHELXL-2014/7
_cell_angle_alpha                90
_cell_angle_beta                 103.411(3)
_cell_angle_gamma                90
_cell_formula_units_Z            2
_cell_length_a                   6.2397(4)
_cell_length_b                   11.9278(7)
_cell_length_c                   9.1162(5)
_cell_measurement_reflns_used    9152
_cell_measurement_temperature    100(2)
_cell_measurement_theta_max      68.17
_cell_measurement_theta_min      4.99
_cell_volume                     659.98(7)
_computing_cell_refinement       'Bruker SAINT'
_computing_data_collection       'Bruker APEX2'
_computing_data_reduction        'Bruker SAINT'
_computing_molecular_graphics    ORTEP-32
_computing_publication_material  WinGX
_computing_structure_refinement  SHELXL-2014
_computing_structure_solution    SHELXT
_diffrn_ambient_temperature      100(2)
_diffrn_detector_area_resol_mean 8.366
_diffrn_measured_fraction_theta_full 0.994
_diffrn_measured_fraction_theta_max 0.994
_diffrn_measurement_device_type  'Bruker APEX-II CCD'
_diffrn_measurement_method       'phi and omega scans'
_diffrn_radiation_type           CuK\a
_diffrn_radiation_wavelength     1.54178
_diffrn_reflns_av_R_equivalents  0.0393
_diffrn_reflns_av_unetI/netI     0.0186
_diffrn_reflns_Laue_measured_fraction_full 0.994
_diffrn_reflns_Laue_measured_fraction_max 0.994
_diffrn_refln_scan_rate          5
_diffrn_refln_scan_width         2.0
_diffrn_reflns_limit_h_max       6
_diffrn_reflns_limit_h_min       -7
_diffrn_reflns_limit_k_max       14
_diffrn_reflns_limit_k_min       -14
_diffrn_reflns_limit_l_max       10
_diffrn_reflns_limit_l_min       -10
_diffrn_reflns_number            23277
_diffrn_reflns_point_group_measured_fraction_full 0.983
_diffrn_reflns_point_group_measured_fraction_max 0.982
_diffrn_reflns_theta_full        67.000
_diffrn_reflns_theta_max         68.314
_diffrn_reflns_theta_min         4.987
_diffrn_source                   'microfocus rotating anode'
_exptl_absorpt_coefficient_mu    0.754
_exptl_absorpt_correction_T_max  0.929
_exptl_absorpt_correction_T_min  0.828
_exptl_absorpt_correction_type   multi-scan
_exptl_absorpt_process_details   SADABS
_exptl_crystal_colour            colorless
_exptl_crystal_density_diffrn    1.270
_exptl_crystal_description       plate
_exptl_crystal_F_000             272
_exptl_crystal_size_max          0.050
_exptl_crystal_size_mid          0.040
_exptl_crystal_size_min          0.020
_refine_diff_density_max         0.215
_refine_diff_density_min         -0.117
_refine_diff_density_rms         0.029
_refine_ls_abs_structure_details
; 
 Flack x determined using 1080 quotients [(I+)-(I-)]/[(I+)+(I-)] 
 (Parsons, Flack and Wagner, Acta Cryst. B69 (2013) 249-259). 
;
_refine_ls_abs_structure_Flack   0.03(5)
_refine_ls_extinction_method     none
_refine_ls_goodness_of_fit_ref   1.065
_refine_ls_hydrogen_treatment    constr
_refine_ls_matrix_type           full
_refine_ls_number_parameters     167
_refine_ls_number_reflns         2383
_refine_ls_number_restraints     1
_refine_ls_restrained_S_all      1.065
_refine_ls_R_factor_all          0.0268
_refine_ls_R_factor_gt           0.0264
_refine_ls_shift/su_max          0.000
_refine_ls_shift/su_mean         0.000
_refine_ls_structure_factor_coef Fsqd
_refine_ls_weighting_details
'w=1/[\s^2^(Fo^2^)+(0.0426P)^2^+0.1130P] where P=(Fo^2^+2Fc^2^)/3'
_refine_ls_weighting_scheme      calc
_refine_ls_wR_factor_gt          0.0720
_refine_ls_wR_factor_ref         0.0724
_reflns_Friedel_coverage         0.879
_reflns_Friedel_fraction_full    0.972
_reflns_Friedel_fraction_max     0.969
_reflns_number_gt                2345
_reflns_number_total             2383
_reflns_threshold_expression     'I > 2\s(I)'
_cod_data_source_file            ja8b12247_si_005.cif
_cod_data_source_block           maimone58
_cod_original_sg_symbol_H-M      'P 21'
_cod_database_code               4128466
_shelx_shelxl_version_number     2014/7
_shelx_space_group_comment
; 
The symmetry employed for this shelxl refinement is uniquely defined 
by the following loop, which should always be used as a source of 
symmetry information in preference to the above space-group names. 
They are only intended as comments. 
;
_shelx_estimated_absorpt_t_min   0.963
_shelx_estimated_absorpt_t_max   0.985
_shelx_res_file
; 
  
    shelx.res created by SHELXL-2014/7 
  
TITL shelxt_a.res in P2(1) 
CELL  1.54178   6.2397  11.9278   9.1162   90.000  103.411   90.000 
ZERR     2.00   0.0004   0.0007   0.0005    0.000    0.003    0.000 
LATT  -1 
SYMM  - X, 1/2 + Y, - Z 
SFAC  C    H    O 
UNIT  28 40 8 
MERG   2 
FMAP   2 
PLAN   20 
SIZE     0.020   0.040   0.050 
ACTA   134.00 
BOND   $H 
LIST   4 
WPDB  -2 
L.S.  10 
TEMP  -173.00 
WGHT    0.042600    0.113000 
FVAR       0.42830 
C1    1    0.208988    0.436170    0.632107    11.00000    0.01668    0.01471 = 
         0.01893   -0.00045    0.00459    0.00000 
C2    1    0.395736    0.485191    0.572062    11.00000    0.02060    0.01561 = 
         0.02598   -0.00150    0.01138    0.00224 
C3    1    0.123753    0.453443    0.360531    11.00000    0.03678    0.02773 = 
         0.02383   -0.00110    0.00772   -0.00410 
C4    1    0.020970    0.427992    0.488909    11.00000    0.02176    0.02006 = 
         0.01943   -0.00026    0.00226   -0.00059 
AFIX  23 
H4A   2   -0.043648    0.351784    0.478532    11.00000   -1.20000 
H4B   2   -0.096637    0.482834    0.492895    11.00000   -1.20000 
AFIX   0 
C5    1    0.284429    0.319398    0.701793    11.00000    0.01875    0.01791 = 
         0.02164    0.00121    0.00531    0.00181 
AFIX  13 
H5    2    0.421913    0.331148    0.782080    11.00000   -1.20000 
AFIX   0 
C6    1    0.100218    0.291932    0.780045    11.00000    0.02306    0.01959 = 
         0.02306    0.00454    0.00722   -0.00031 
AFIX  23 
H6A   2    0.144534    0.230852    0.854430    11.00000   -1.20000 
H6B   2   -0.035423    0.269294    0.705973    11.00000   -1.20000 
AFIX   0 
C7    1    0.064910    0.401476    0.858066    11.00000    0.02081    0.02353 = 
         0.02259    0.00327    0.00904    0.00005 
AFIX  23 
H7A   2    0.159248    0.403722    0.961584    11.00000   -1.20000 
H7B   2   -0.090896    0.408620    0.864074    11.00000   -1.20000 
AFIX   0 
C8    1    0.128205    0.498257    0.760727    11.00000    0.01402    0.01859 = 
         0.01857   -0.00035    0.00508    0.00199 
AFIX  13 
H8    2   -0.012982    0.536168    0.711179    11.00000   -1.20000 
AFIX   0 
C9    1    0.333960    0.229940    0.594565    11.00000    0.02897    0.02084 = 
         0.03198   -0.00237    0.01157    0.00415 
AFIX 137 
H9A   2    0.380528    0.160707    0.650838    11.00000   -1.50000 
H9B   2    0.452019    0.256317    0.548601    11.00000   -1.50000 
H9C   2    0.201137    0.215360    0.515410    11.00000   -1.50000 
AFIX   0 
C10   1    0.276142    0.589832    0.853144    11.00000    0.02013    0.01894 = 
         0.01812   -0.00259    0.00409    0.00129 
C11   1    0.491413    0.547505    0.957328    11.00000    0.02638    0.02475 = 
         0.02397   -0.00128   -0.00202   -0.00110 
AFIX 137 
H11A  2    0.582036    0.510903    0.896732    11.00000   -1.50000 
H11B  2    0.456810    0.493646    1.029679    11.00000   -1.50000 
H11C  2    0.572446    0.611018    1.011904    11.00000   -1.50000 
AFIX   0 
C12   1    0.139024    0.648573    0.953211    11.00000    0.03391    0.02599 = 
         0.02667   -0.00542    0.01131    0.00374 
AFIX 137 
H12A  2    0.228055    0.707404    1.013362    11.00000   -1.50000 
H12B  2    0.095846    0.593338    1.020565    11.00000   -1.50000 
H12C  2    0.006742    0.682004    0.888781    11.00000   -1.50000 
AFIX   0 
C13   1    0.316716    0.681622    0.745322    11.00000    0.02011    0.01807 = 
         0.02314   -0.00326    0.00512    0.00316 
C14   1    0.484204    0.771062    0.803415    11.00000    0.03858    0.02601 = 
         0.03206   -0.00076    0.00184   -0.00967 
AFIX 137 
H14A  2    0.630510    0.744783    0.796886    11.00000   -1.50000 
H14B  2    0.484661    0.787723    0.908754    11.00000   -1.50000 
H14C  2    0.446768    0.839061    0.742524    11.00000   -1.50000 
AFIX   0 
O1    3    0.338927    0.489004    0.415562    11.00000    0.03470    0.02969 = 
         0.02454   -0.00213    0.01619   -0.00718 
O2    3    0.577014    0.510806    0.636565    11.00000    0.01863    0.02745 = 
         0.03714   -0.00148    0.01013   -0.00174 
O3    3    0.049271    0.446962    0.228491    11.00000    0.06360    0.07274 = 
         0.01795    0.00011    0.00597   -0.01847 
O4    3    0.212198    0.684366    0.615029    11.00000    0.02459    0.01994 = 
         0.02336    0.00245    0.00282    0.00236 
HKLF    4 
  
REM  shelxt_a.res in P2(1) 
REM R1 =  0.0264 for    2345 Fo > 4sig(Fo)  and  0.0268 for all    2383 data 
REM    167 parameters refined using      1 restraints 
  
END 
  
WGHT      0.0420      0.1141 
  
REM Highest difference peak  0.215,  deepest hole -0.117,  1-sigma level  0.029 
Q1    1   0.2379  0.3780  0.6597  11.00000  0.05    0.22 
Q2    1   0.2180  0.5437  0.8055  11.00000  0.05    0.22 
Q3    1   0.1832  0.4726  0.6997  11.00000  0.05    0.20 
Q4    1   0.1167  0.4489  0.8160  11.00000  0.05    0.19 
Q5    1   0.2146  0.6214  0.9053  11.00000  0.05    0.18 
Q6    1   0.3007  0.4618  0.6125  11.00000  0.05    0.17 
Q7    1   0.1918  0.2982  0.7414  11.00000  0.05    0.17 
Q8    1  -0.0002  0.5018  0.2648  11.00000  0.05    0.15 
Q9    1   0.3156  0.6326  0.8098  11.00000  0.05    0.15 
Q10   1   0.0825  0.3437  0.8203  11.00000  0.05    0.15 
Q11   1   0.3805  0.5670  0.8964  11.00000  0.05    0.15 
Q12   1   0.3144  0.2801  0.6469  11.00000  0.05    0.14 
Q13   1   0.1173  0.4328  0.5705  11.00000  0.05    0.13 
Q14   1   0.0433  0.4694  0.4210  11.00000  0.05    0.11 
Q15   1   0.5355  0.5843  0.7073  11.00000  0.05    0.11 
Q16   1   0.5233  0.4421  0.6431  11.00000  0.05    0.11 
Q17   1   0.3636  0.7385  0.7815  11.00000  0.05    0.10 
Q18   1   0.1315  0.6168  0.5773  11.00000  0.05    0.10 
Q19   1  -0.0166  0.6468  0.8873  11.00000  0.05    0.10 
Q20   1   0.5051  0.8148  0.7287  11.00000  0.05    0.10 
;
_shelx_res_checksum              49592
_shelx_hkl_file
; 
   1   0   0    9.37    0.44 
   1   0   0    9.02    0.44 
   1   0   0    8.68    0.41 
   1   0   0    8.63    0.44 
   1   0   0    8.69    0.44 
   1   0   0    8.67    0.41 
   1   0   0    8.48    0.41 
   1   0   0    8.78    0.41 
  -1   0   0    8.61    0.43 
  -1   0   0    8.89    0.42 
  -2   0   0   17.90    0.87 
  -2   0   0   18.45    0.88 
   2   0   0   18.63    0.86 
   2   0   0   17.97    0.91 
   2   0   0   17.94    0.86 
  -3   0   0    0.87    0.12 
  -3   0   0    0.70    0.11 
   3   0   0    0.83    0.09 
  -3   0   0    0.85    0.09 
   3   0   0    0.99    0.16 
  -4   0   0    1.91    0.16 
   5   0   0    7.99    0.42 
  -5   0   0    8.61    0.61 
  -5   0   0    9.16    0.47 
  -5   0   0    7.80    0.60 
  -6   0   0    0.23    0.06 
  -6   0   0    0.18    0.04 
  -6   0   0    0.21    0.04 
  -6   0   0    0.19    0.05 
   0  -1   0   -0.01    0.02 
   0  -1   0   -0.01    0.03 
   0  -1   0    0.04    0.04 
   0  -1   0    0.00    0.04 
   0  -1   0    0.01    0.04 
   0  -1   0    0.05    0.04 
   0  -1   0   -0.03    0.03 
   0  -1   0    0.05    0.07 
   0  -1   0   -0.01    0.04 
   0  -1   0   -0.01    0.06 
   0  -1   0   -0.02    0.03 
   0   1   0    0.01    0.04 
   0   1   0    0.01    0.03 
   0   1   0   -0.01    0.06 
   0   1   0   -0.02    0.04 
   0   1   0    0.02    0.03 
   0   1   0   -0.03    0.04 
   0   1   0   -0.01    0.06 
   0   1   0    0.10    0.05 
   0   1   0    0.03    0.03 
   0   1   0    0.00    0.03 
   0   1   0    0.04    0.03 
   0   1   0    0.07    0.04 
  -1  -1   0  896.95   42.09 
  -1  -1   0  889.34   42.16 
  -1  -1   0  918.61   42.04 
  -1  -1   0  859.93   42.05 
   1  -1   0  967.85   42.04 
   1  -1   0  906.59   42.04 
   1  -1   0  926.38   42.06 
   1  -1   0  885.59   42.04 
  -1  -1   0  935.05   42.04 
   1  -1   0  896.64   42.07 
  -1  -1   0  879.86   42.22 
   1   1   0  874.53   42.07 
   1   1   0  968.26   42.04 
  -1   1   0  912.59   42.06 
   1   1   0  892.00   42.04 
   1   1   0  846.29   42.12 
   1   1   0  896.31   42.11 
   1   1   0 1000.00   42.05 
  -1   1   0  916.69   42.04 
   1   1   0  899.33   42.08 
   1   1   0  927.42   42.12 
   1   1   0  896.76   42.05 
   1   1   0  859.08   42.11 
  -2  -1   0  145.27    6.17 
  -2  -1   0  129.24    6.20 
   2  -1   0  134.39    6.10 
  -2  -1   0  134.44    6.11 
  -2  -1   0  120.41    6.11 
  -2  -1   0  133.05    6.17 
   2  -1   0  139.99    6.12 
  -2   1   0  138.34    6.11 
   2   1   0  122.46    6.24 
   2   1   0  122.80    6.12 
  -2   1   0  121.23    6.12 
   2   1   0  138.47    6.21 
   2   1   0  126.83    6.12 
  -3  -1   0   44.56    2.08 
  -3  -1   0   43.88    2.15 
  -3  -1   0   43.77    2.04 
   3   1   0   43.30    2.06 
   3   1   0   39.06    1.99 
   3   1   0   42.83    2.14 
  -4  -1   0   64.79    2.90 
  -4  -1   0   60.90    2.95 
  -4  -1   0   59.48    2.87 
   4   1   0   60.44    2.94 
   4   1   0   62.00    2.85 
  -4   1   0   58.55    2.86 
  -5  -1   0    1.42    0.30 
  -5  -1   0    1.59    0.22 
  -5  -1   0    1.58    0.55 
  -5  -1   0    1.84    0.40 
   5   1   0    1.53    0.14 
  -5   1   0    1.32    0.14 
  -5   1   0    1.46    0.32 
  -6  -1   0    0.66    0.29 
  -6  -1   0    0.37    0.07 
  -6  -1   0    0.57    0.10 
  -6  -1   0    0.48    0.07 
  -6  -1   0    0.33    0.26 
  -6  -1   0    0.48    0.26 
  -6   1   0    0.75    0.30 
  -6   1   0    0.49    0.07 
   0  -2   0  308.11   14.00 
   0  -2   0  308.24   14.03 
   0  -2   0  305.24   14.00 
   0  -2   0  302.71   14.02 
   0  -2   0  302.64   14.01 
   0  -2   0  293.28   14.08 
   0  -2   0  308.22   14.00 
   0  -2   0  292.06   14.00 
   0  -2   0  300.07   14.02 
   0  -2   0  282.99   14.09 
   0   2   0  291.14   14.00 
   0   2   0  294.44   14.00 
   0   2   0  313.47   14.00 
   0   2   0  300.48   14.07 
   0   2   0  309.34   14.02 
   0   2   0  305.71   14.03 
   0   2   0  295.44   14.05 
   0   2   0  288.70   14.09 
   0   2   0  334.71   14.09 
   0   2   0  297.65   14.08 
   0   2   0  308.43   14.02 
   0   2   0  290.59   14.00 
  -1  -2   0  180.01    7.88 
  -1  -2   0  161.75    8.00 
   1  -2   0  163.42    7.89 
   1  -2   0  165.65    7.88 
  -1  -2   0  177.43    7.89 
  -1  -2   0  180.71    7.88 
   1  -2   0  161.83    7.89 
  -1  -2   0  161.32    8.08 
   1  -2   0  166.97    7.95 
  -1  -2   0  170.86    7.90 
   1  -2   0  168.20    7.95 
  -1  -2   0  166.07    7.89 
  -1  -2   0  171.73    7.96 
  -1  -2   0  162.22    7.95 
  -1  -2   0  160.73    7.91 
  -1  -2   0  185.51    7.94 
   1  -2   0  176.68    7.88 
   1  -2   0  171.76    7.90 
  -1  -2   0  167.48    8.03 
   1  -2   0  163.76    7.88 
   1   2   0  156.96    8.01 
   1   2   0  174.59    7.91 
  -1   2   0  164.55    7.93 
   1   2   0  169.52    7.90 
   1   2   0  172.88    7.89 
  -1   2   0  175.79    7.93 
   1   2   0  174.02    7.89 
  -1   2   0  164.98    7.90 
  -1   2   0  162.47    7.92 
   1   2   0  171.78    7.91 
  -1   2   0  179.62    7.88 
   1   2   0  175.65    8.02 
  -1   2   0  174.03    7.89 
   1   2   0  169.81    8.00 
   1   2   0  183.05    7.94 
   1   2   0  174.60    7.90 
   1   2   0  148.61    7.90 
   2  -2   0  221.12    9.84 
  -2  -2   0  203.22    9.92 
  -2  -2   0  209.99    9.78 
   2  -2   0  208.62    9.77 
  -2  -2   0  200.42    9.86 
  -2  -2   0  204.51    9.88 
   2   2   0  215.93    9.81 
   2   2   0  204.90    9.84 
   2   2   0  212.29    9.97 
  -2   2   0  211.94    9.87 
  -2   2   0  218.17    9.80 
  -2   2   0  222.65    9.81 
   2   2   0  210.03    9.93 
   2   2   0  212.61    9.83 
   2   2   0  199.46    9.80 
  -3  -2   0   12.73    0.72 
  -3  -2   0   12.57    0.80 
   3   2   0   12.76    0.70 
   3   2   0   12.63    0.80 
   3   2   0   11.64    0.60 
  -4  -2   0   14.25    0.78 
  -4  -2   0   14.00    0.74 
  -4  -2   0   12.05    0.78 
  -4  -2   0   12.92    0.70 
  -4  -2   0   12.89    0.92 
  -4  -2   0   13.63    0.98 
   4   2   0   13.24    0.80 
   4   2   0   14.03    0.68 
  -4   2   0   15.37    0.67 
  -5  -2   0   10.19    0.70 
  -5  -2   0    9.87    0.88 
  -5  -2   0    9.57    0.68 
  -5  -2   0    9.91    0.67 
  -5  -2   0   10.41    0.60 
   5   2   0   10.13    0.52 
  -5   2   0    9.51    0.66 
  -6  -2   0    5.05    0.28 
  -6  -2   0    5.24    0.30 
  -6  -2   0    5.45    0.53 
  -6  -2   0    5.37    0.28 
  -6  -2   0    5.11    0.30 
  -6  -2   0    5.41    0.31 
  -6  -2   0    5.49    0.52 
  -6  -2   0    5.07    0.33 
  -6  -2   0    4.97    0.28 
  -6  -2   0    4.76    0.51 
  -6  -2   0    5.74    0.29 
  -6   2   0    5.65    0.26 
  -6   2   0    4.97    0.26 
  -7  -2   0    3.09    0.16 
   0  -3   0    0.03    0.09 
   0  -3   0    0.17    0.10 
   0  -3   0    0.10    0.11 
   0  -3   0   -0.01    0.16 
   0  -3   0    0.16    0.09 
   0  -3   0   -0.02    0.16 
   0  -3   0    0.06    0.08 
   0  -3   0    0.12    0.10 
   0  -3   0    0.03    0.08 
   0  -3   0    0.07    0.17 
   0   3   0   -0.01    0.09 
   0   3   0    0.09    0.16 
   0   3   0   -0.03    0.12 
   0   3   0    0.08    0.12 
   0   3   0    0.08    0.10 
   0   3   0    0.37    0.96 
   0   3   0   -0.10    0.09 
   0   3   0    0.22    0.11 
   0   3   0    0.21    0.09 
   0   3   0    0.05    0.10 
   0   3   0    0.08    0.09 
  -1  -3   0   28.93    1.29 
  -1  -3   0   26.70    1.38 
   1  -3   0   26.39    1.32 
   1  -3   0   26.29    1.30 
   1  -3   0   26.63    1.40 
   1  -3   0   26.23    1.30 
   1  -3   0   28.06    1.29 
  -1  -3   0   28.95    1.34 
   1  -3   0   27.49    1.28 
  -1  -3   0   27.61    1.60 
  -1  -3   0   25.39    1.34 
  -1  -3   0   28.14    1.29 
  -1  -3   0   26.88    1.47 
  -1  -3   0   23.94    1.31 
  -1  -3   0   25.99    1.30 
  -1  -3   0   28.68    1.31 
   1  -3   0   28.33    1.32 
   1  -3   0   25.44    1.29 
  -1   3   0   28.39    1.30 
  -1   3   0   28.07    1.55 
   1   3   0   24.39    1.36 
  -1   3   0   25.74    1.35 
  -1   3   0   26.92    1.36 
  -1   3   0   25.23    1.27 
   1   3   0   27.67    1.47 
   1   3   0   24.92    1.36 
  -1   3   0   28.02    1.35 
   1   3   0   27.25    1.29 
  -1   3   0   26.21    1.29 
   1   3   0   27.05    1.45 
   1   3   0   26.77    1.33 
   1   3   0   26.95    1.35 
   1   3   0   28.71    1.31 
   1   3   0   27.69    1.30 
  -1   3   0   27.52    1.36 
  -2  -3   0   34.90    1.83 
   2  -3   0   40.61    1.72 
   2  -3   0   36.52    1.82 
  -2  -3   0   34.73    1.91 
   2  -3   0   34.95    1.73 
  -2  -3   0   38.50    1.96 
  -2  -3   0   35.20    1.79 
   2   3   0   37.71    1.97 
  -2   3   0   34.53    1.74 
   2   3   0   34.93    1.71 
   2   3   0   33.69    1.80 
  -2   3   0   38.16    1.78 
   2   3   0   34.81    1.81 
   2   3   0   36.43    1.92 
   2   3   0   35.98    1.82 
   2   3   0   37.44    1.75 
  -2   3   0   38.15    1.82 
  -3  -3   0   42.27    2.20 
  -3  -3   0   44.59    2.02 
  -3  -3   0   42.90    2.02 
  -3  -3   0   37.18    2.09 
   3  -3   0   40.39    2.02 
   3   3   0   40.75    2.07 
  -3   3   0   42.69    1.95 
   3   3   0   41.34    2.21 
  -3   3   0   41.67    2.00 
   3   3   0   38.98    1.95 
   3   3   0   41.25    1.95 
  -4  -3   0    6.03    0.47 
  -4  -3   0    6.48    0.49 
  -4  -3   0    5.94    0.37 
  -4  -3   0    6.19    0.62 
  -4  -3   0    6.15    0.42 
  -4  -3   0    6.08    0.59 
   4   3   0    5.72    0.51 
   4   3   0    5.80    0.34 
  -4   3   0    6.12    0.34 
  -5  -3   0   18.03    0.87 
  -5  -3   0   17.02    0.95 
  -5  -3   0   17.21    0.87 
  -5  -3   0   17.53    0.98 
  -5  -3   0   15.93    0.85 
  -5  -3   0   17.21    1.15 
  -5  -3   0   16.34    0.92 
  -5  -3   0   13.66    0.91 
  -5   3   0   16.87    0.96 
   5   3   0   17.49    0.84 
  -6  -3   0   18.90    1.09 
  -6  -3   0   19.83    0.96 
  -6  -3   0   18.98    1.08 
  -6  -3   0   19.06    0.94 
  -6  -3   0   19.76    0.93 
  -6  -3   0   18.66    0.94 
  -6  -3   0   21.03    1.11 
  -6  -3   0   19.15    0.95 
  -7  -3   0    2.23    0.13 
  -7  -3   0    2.25    0.30 
   0  -4   0  596.64   28.54 
   0  -4   0  637.69   28.60 
   0  -4   0  613.64   28.61 
   0  -4   0  582.30   28.61 
   0  -4   0  633.96   28.73 
   0   4   0  582.53   28.67 
   0   4   0  570.21   28.54 
   0   4   0  647.55   28.61 
   0   4   0  592.87   28.57 
   0   4   0  622.26   28.54 
   0   4   0  667.83   28.70 
   0   4   0  633.53   28.61 
   0   4   0  609.26   28.71 
   1  -4   0  376.12   19.32 
  -1  -4   0  450.73   19.35 
   1  -4   0  397.89   19.31 
  -1  -4   0  373.44   19.45 
   1  -4   0  412.81   19.33 
  -1  -4   0  402.63   19.67 
   1  -4   0  430.87   19.44 
   1  -4   0  420.79   19.30 
  -1  -4   0  413.55   19.34 
   1  -4   0  426.98   19.28 
  -1  -4   0  419.05   19.29 
  -1   4   0  422.69   19.37 
   1   4   0  421.40   19.27 
   1   4   0  428.32   19.37 
   1   4   0  433.95   19.49 
   1   4   0  417.59   19.35 
  -1   4   0  414.19   19.37 
   1   4   0  423.66   19.29 
   1   4   0  412.51   19.34 
  -1   4   0  409.93   19.43 
  -1   4   0  437.82   19.28 
   1   4   0  389.10   19.29 
   1   4   0  400.30   19.47 
  -2  -4   0   52.37    2.71 
   2  -4   0   51.23    2.34 
   2  -4   0   50.87    2.38 
  -2  -4   0   51.55    2.34 
   2  -4   0   46.61    2.48 
   2  -4   0   49.52    2.30 
  -2  -4   0   44.69    2.56 
  -2   4   0   52.04    2.36 
  -2   4   0   50.47    2.49 
  -2   4   0   48.87    2.32 
   2   4   0   46.95    2.32 
   2   4   0   51.82    2.46 
  -2   4   0   48.52    2.39 
   2   4   0   48.55    2.37 
   2   4   0   47.89    2.61 
   2   4   0   51.91    2.45 
   2   4   0   48.40    2.59 
   2   4   0   46.52    2.32 
  -2   4   0   47.99    2.32 
  -3  -4   0    7.13    0.49 
   3  -4   0    7.74    0.57 
   3  -4   0    7.38    0.37 
  -3  -4   0    7.24    0.54 
  -3  -4   0    7.77    0.68 
  -3  -4   0    7.20    0.49 
   3  -4   0    7.14    0.45 
  -3  -4   0    7.25    0.46 
  -3  -4   0    7.90    0.58 
  -3  -4   0    7.45    0.44 
   3   4   0    6.85    0.41 
  -3   4   0    8.12    0.40 
  -3   4   0    7.93    0.39 
   3   4   0    6.82    0.71 
  -3   4   0    7.72    0.47 
   3   4   0    7.00    0.56 
   3   4   0    8.00    0.40 
  -3   4   0    6.75    0.41 
  -4  -4   0   22.95    1.35 
  -4  -4   0   23.99    1.21 
  -4  -4   0   22.92    1.23 
  -4  -4   0   26.43    1.23 
   4  -4   0   25.66    1.16 
  -4  -4   0   24.33    1.53 
  -4  -4   0   25.00    1.29 
  -4  -4   0   25.35    1.24 
  -4  -4   0   23.80    1.31 
   4   4   0   23.22    1.19 
   4   4   0   24.18    1.38 
   4   4   0   24.84    1.21 
  -4   4   0   25.95    1.21 
  -4   4   0   23.97    1.24 
  -5  -4   0   25.15    1.29 
  -5  -4   0   22.12    1.23 
  -5  -4   0   24.77    1.17 
  -5  -4   0   23.92    1.19 
  -5  -4   0   21.40    1.22 
  -5  -4   0   25.99    1.50 
   5  -4   0   23.62    1.11 
  -5  -4   0   23.91    1.19 
  -5  -4   0   25.67    1.27 
  -5  -4   0   21.51    1.44 
  -5  -4   0   21.66    1.15 
  -5  -4   0   23.11    1.28 
  -5  -4   0   21.96    1.42 
  -5  -4   0   22.20    1.25 
  -5   4   0   23.38    1.11 
  -5   4   0   21.89    1.12 
  -5   4   0   24.85    1.12 
  -5   4   0   24.36    1.25 
  -5   4   0   24.52    1.10 
  -5   4   0   22.46    1.10 
   5   4   0   21.16    1.15 
  -6  -4   0    3.93    0.28 
  -6  -4   0    4.20    0.48 
  -6  -4   0    4.29    0.47 
  -6  -4   0    4.07    0.28 
  -6  -4   0    4.14    0.25 
  -6  -4   0    4.19    0.26 
  -6  -4   0    4.26    0.46 
  -6  -4   0    4.04    0.27 
  -6  -4   0    3.49    0.40 
  -7  -4   0    3.88    0.22 
   0  -5   0    0.05    0.20 
   0  -5   0   -0.06    0.14 
   0  -5   0   -0.08    0.17 
   0  -5   0    0.04    0.23 
   0   5   0    0.01    0.36 
   0   5   0   -0.02    0.24 
   0   5   0   -0.07    0.11 
   0   5   0    0.22    0.18 
   0   5   0   -0.14    0.14 
   0   5   0   -0.18    1.16 
  -1  -5   0  215.86    9.96 
   1  -5   0  232.40    9.82 
   1  -5   0  202.21    9.70 
  -1  -5   0  211.13    9.79 
  -1  -5   0  182.51    9.77 
   1  -5   0  204.97    9.66 
   1  -5   0  206.10    9.76 
   1  -5   0  216.01    9.93 
   1  -5   0  203.69    9.78 
   1   5   0  220.50    9.81 
  -1   5   0  197.46    9.70 
   1   5   0  210.14    9.88 
   1   5   0  216.48    9.96 
  -1   5   0  203.35    9.83 
  -1   5   0  220.61    9.88 
  -1   5   0  181.33    9.88 
  -2  -5   0   20.24    1.45 
  -2  -5   0   19.04    1.10 
   2  -5   0   19.92    0.96 
   2  -5   0   21.90    1.22 
  -2  -5   0   22.00    1.33 
  -2  -5   0   18.91    1.00 
  -2  -5   0   20.46    1.01 
   2  -5   0   19.51    0.97 
   2  -5   0   18.93    1.07 
   2   5   0   22.12    1.35 
   2   5   0   19.81    0.99 
   2   5   0   20.60    1.15 
   2   5   0   20.07    1.15 
  -2   5   0   19.70    1.04 
  -2   5   0   19.75    1.02 
  -2   5   0   20.16    1.21 
  -2   5   0   20.33    1.03 
  -2   5   0   19.73    1.06 
   3  -5   0   27.15    1.29 
  -3  -5   0   26.21    1.38 
  -3  -5   0   25.45    1.46 
  -3  -5   0   29.04    1.70 
   3  -5   0   28.72    1.40 
  -3  -5   0   27.48    1.39 
  -3  -5   0   24.68    1.34 
  -3  -5   0   26.83    1.40 
   3   5   0   28.06    1.31 
  -3   5   0   27.10    1.35 
   3   5   0   24.48    1.69 
  -3   5   0   27.19    1.31 
   3   5   0   29.05    1.51 
  -3   5   0   26.01    1.36 
  -3   5   0   25.04    1.33 
  -3   5   0   28.72    1.42 
   3   5   0   27.82    1.32 
  -3   5   0   27.58    1.52 
   4  -5   0    1.39    0.24 
  -4  -5   0    1.62    0.24 
  -4  -5   0    1.49    0.26 
  -4  -5   0    1.65    0.40 
  -4  -5   0    1.67    0.41 
  -4  -5   0    1.44    0.52 
   4  -5   0    1.54    0.13 
  -4  -5   0    1.72    0.46 
  -4  -5   0    1.95    0.39 
  -4  -5   0    1.40    0.27 
  -4  -5   0    1.37    0.24 
  -4  -5   0    1.45    0.34 
   4   5   0    1.44    0.18 
  -4   5   0    1.45    0.20 
   4   5   0    1.56    0.21 
  -5  -5   0   23.72    1.20 
  -5  -5   0   25.55    1.21 
  -5  -5   0   22.80    1.24 
  -5  -5   0   24.61    1.30 
  -5  -5   0   23.66    1.21 
  -5  -5   0   25.49    1.35 
  -5  -5   0   25.41    1.21 
  -5  -5   0   23.46    1.31 
  -5  -5   0   23.36    1.31 
  -5  -5   0   23.75    1.22 
  -5  -5   0   22.89    1.36 
  -5  -5   0   24.85    1.21 
  -5  -5   0   24.94    1.31 
  -5  -5   0   23.74    1.22 
  -5  -5   0   23.29    1.18 
  -5   5   0   24.34    1.13 
  -5   5   0   22.66    1.17 
  -5   5   0   24.20    1.12 
  -5   5   0   24.16    1.13 
  -5   5   0   23.20    1.13 
  -5   5   0   23.31    1.39 
  -5   5   0   23.21    1.12 
  -6  -5   0    6.08    0.36 
  -6  -5   0    5.75    0.38 
  -6  -5   0    6.09    0.52 
  -6  -5   0    5.70    0.34 
  -6  -5   0    6.16    0.49 
  -6  -5   0    5.64    0.52 
  -6  -5   0    6.37    0.37 
  -6  -5   0    5.60    0.39 
  -6   5   0    6.14    0.29 
  -6   5   0    6.05    0.29 
   0  -6   0   83.16    3.84 
   0  -6   0   86.12    4.00 
   0  -6   0   81.97    3.97 
   0   6   0   90.07    4.19 
   0   6   0   81.77    3.93 
   0   6   0   84.89    4.10 
   0   6   0   79.26    4.09 
   0   6   0   75.86    3.86 
   0   6   0   72.83    3.94 
   1  -6   0   84.82    4.08 
   1  -6   0   84.88    3.94 
   1  -6   0   87.87    4.28 
  -1  -6   0   80.88    4.08 
   1  -6   0   78.94    4.09 
  -1  -6   0   82.50    3.98 
  -1  -6   0   88.86    4.11 
  -1  -6   0   80.30    3.98 
   1  -6   0   84.49    3.94 
   1   6   0   89.24    4.12 
  -1   6   0   83.17    4.19 
   1   6   0   81.84    3.95 
   1   6   0   81.72    4.20 
  -1   6   0   84.88    3.99 
  -1   6   0   85.51    4.16 
  -1   6   0   87.62    4.27 
  -1   6   0   77.63    3.96 
   1   6   0   89.59    4.30 
   1   6   0   83.75    4.07 
  -1   6   0   84.89    3.96 
   2  -6   0   29.13    1.43 
  -2  -6   0   29.33    1.71 
  -2  -6   0   23.89    1.34 
   2  -6   0   25.70    1.28 
  -2  -6   0   26.29    1.39 
  -2  -6   0   26.08    1.33 
  -2  -6   0   26.82    1.44 
  -2  -6   0   26.77    1.32 
   2  -6   0   27.45    1.28 
  -2  -6   0   26.32    1.85 
  -2  -6   0   25.83    1.32 
  -2   6   0   26.02    1.31 
  -2   6   0   24.34    1.35 
  -2   6   0   27.45    1.35 
   2   6   0   29.18    1.72 
   2   6   0   28.64    1.51 
   2   6   0   26.33    1.44 
  -2   6   0   25.26    1.52 
  -2   6   0   26.12    1.45 
  -2   6   0   26.57    1.33 
  -2   6   0   24.82    1.33 
   2   6   0   27.52    1.30 
  -2   6   0   27.23    1.59 
  -2   6   0   27.62    1.41 
  -2   6   0   26.68    1.39 
  -3  -6   0    0.08    0.18 
  -3  -6   0    0.05    0.18 
  -3  -6   0    0.15    0.30 
  -3  -6   0    0.19    0.16 
   3  -6   0    0.18    0.21 
  -3  -6   0    0.10    0.39 
   3  -6   0    0.10    0.08 
  -3  -6   0    0.02    0.28 
  -3  -6   0    0.11    0.14 
  -3   6   0   -0.12    0.15 
  -3   6   0    0.18    0.33 
  -3   6   0    0.15    0.13 
   3   6   0    0.12    0.30 
   3   6   0    0.04    0.24 
  -3   6   0    0.10    0.11 
  -3   6   0    0.05    0.23 
   3   6   0    0.04    0.11 
  -3   6   0    0.06    0.20 
  -3   6   0   -0.01    0.12 
  -4  -6   0   34.52    1.72 
  -4  -6   0   34.08    1.75 
  -4  -6   0   38.14    1.75 
  -4  -6   0   35.08    1.75 
  -4  -6   0   39.32    1.99 
  -4  -6   0   34.08    1.77 
  -4  -6   0   35.80    1.91 
  -4  -6   0   31.97    1.90 
  -4  -6   0   34.86    1.80 
  -4  -6   0   36.00    1.81 
   4  -6   0   34.36    1.66 
  -4  -6   0   32.21    1.73 
  -4  -6   0   33.40    1.65 
  -4   6   0   34.57    1.68 
   4   6   0   34.90    1.70 
  -4   6   0   35.25    1.73 
  -5  -6   0    1.84    0.52 
  -5  -6   0    1.52    0.26 
  -5  -6   0    2.04    0.27 
  -5  -6   0    1.88    0.41 
  -5  -6   0    1.67    0.28 
  -5  -6   0    1.85    0.28 
  -5  -6   0    1.67    0.29 
  -5  -6   0    2.10    0.37 
  -5  -6   0    1.04    0.28 
  -5  -6   0    1.68    0.28 
  -5  -6   0    1.94    0.30 
  -5  -6   0    2.17    0.40 
  -5  -6   0    1.39    0.32 
  -5  -6   0    2.52    0.43 
  -5  -6   0    1.84    0.29 
  -5   6   0    1.83    0.13 
  -5   6   0    1.85    0.11 
  -5   6   0    1.89    0.14 
  -5   6   0    1.97    0.12 
  -5   6   0    1.79    0.14 
  -5   6   0    2.00    0.13 
  -6  -6   0    1.44    0.19 
  -6  -6   0    1.26    0.32 
  -6  -6   0    1.50    0.40 
  -6  -6   0    1.68    0.34 
  -6  -6   0    1.07    0.21 
  -6  -6   0    1.22    0.36 
  -6  -6   0    1.25    0.22 
  -6  -6   0    1.42    0.19 
  -6  -6   0    1.43    0.16 
  -6   6   0    1.47    0.09 
  -6   6   0    1.25    0.08 
   0  -7   0    0.15    0.23 
   0  -7   0   -0.08    0.09 
   0  -7   0    0.08    0.25 
   0   7   0   -0.07    0.21 
   0   7   0   -0.50    1.91 
   0   7   0    0.20    0.15 
   0   7   0   -0.06    0.40 
   0   7   0    0.01    0.15 
   0   7   0   -0.03    0.13 
   0   7   0   -0.03    0.33 
   0   7   0    0.02    0.12 
   0   7   0    0.13    0.23 
   0   7   0   -0.11    0.21 
  -1  -7   0    2.93    0.33 
  -1  -7   0    3.32    0.42 
   1  -7   0    3.08    0.24 
  -1  -7   0    3.27    0.32 
   1  -7   0    3.10    0.58 
  -1  -7   0    3.05    0.40 
  -1  -7   0    3.22    0.42 
   1  -7   0    2.92    0.40 
   1  -7   0    2.81    0.41 
  -1  -7   0    3.04    0.28 
   1   7   0    2.88    0.31 
  -1   7   0    3.63    0.59 
   1   7   0    2.79    0.55 
  -1   7   0    3.07    0.27 
  -1   7   0    3.31    0.27 
   1   7   0    3.31    0.39 
  -1   7   0    3.30    0.28 
  -1   7   0    3.04    0.49 
  -1   7   0    2.89    0.32 
   1   7   0    3.52    0.43 
   1   7   0    3.14    0.24 
  -1   7   0    2.83    0.35 
   1   7   0    3.94    0.43 
  -1   7   0    3.29    0.46 
   1   7   0    2.85    0.48 
  -1   7   0    3.04    0.28 
   1   7   0    2.94    0.36 
  -1   7   0    2.87    0.39 
  -2  -7   0   16.00    0.90 
  -2  -7   0   16.15    1.01 
   2  -7   0   16.07    0.82 
  -2  -7   0   16.69    0.96 
  -2  -7   0   15.90    0.87 
   2  -7   0   16.71    0.83 
  -2  -7   0   16.36    1.27 
  -2  -7   0   16.75    0.88 
  -2  -7   0   16.90    1.01 
   2  -7   0   15.05    0.98 
  -2   7   0   16.88    1.19 
  -2   7   0   19.14    1.06 
   2   7   0   16.11    0.84 
  -2   7   0   16.49    0.90 
  -2   7   0   15.08    1.00 
  -2   7   0   18.11    1.15 
  -2   7   0   16.46    0.90 
  -2   7   0   16.73    0.89 
  -2   7   0   15.77    0.96 
   2   7   0   15.47    1.26 
  -2   7   0   15.76    0.96 
   2   7   0   16.87    1.02 
  -2   7   0   17.09    0.87 
   2   7   0   15.23    1.05 
  -3  -7   0    4.05    0.44 
  -3  -7   0    4.31    0.35 
  -3  -7   0    4.18    0.69 
  -3  -7   0    4.56    0.44 
   3  -7   0    4.00    0.44 
  -3  -7   0    4.24    0.44 
  -3  -7   0    4.36    0.34 
  -3  -7   0    4.09    0.32 
  -3  -7   0    4.15    0.57 
  -3  -7   0    3.98    0.37 
   3  -7   0    4.51    0.28 
  -3  -7   0    4.63    0.43 
  -3   7   0    4.15    0.39 
  -3   7   0    4.49    0.52 
  -3   7   0    4.45    0.60 
  -3   7   0    4.20    0.48 
  -3   7   0    4.75    0.40 
   3   7   0    4.74    0.33 
   3   7   0    3.65    0.55 
  -3   7   0    4.46    0.33 
  -3   7   0    4.20    0.38 
  -4  -7   0    0.11    0.22 
  -4  -7   0    0.27    0.30 
  -4  -7   0    0.04    0.18 
  -4  -7   0    0.30    0.37 
  -4  -7   0    0.37    0.14 
  -4  -7   0    0.14    0.17 
  -4  -7   0    0.29    0.25 
  -4  -7   0    0.10    0.19 
  -4  -7   0   -0.02    0.18 
  -4  -7   0    0.26    0.24 
   4  -7   0    0.25    0.10 
  -4  -7   0    0.40    0.21 
   4   7   0    0.00    0.13 
  -4   7   0    0.20    0.14 
  -4   7   0    0.32    0.13 
  -4   7   0    0.37    0.23 
  -4   7   0    0.19    0.13 
  -5  -7   0   31.04    1.66 
  -5  -7   0   23.56    1.63 
  -5  -7   0   28.06    1.55 
  -5  -7   0   30.27    1.57 
  -5  -7   0   31.25    1.52 
  -5  -7   0   29.88    1.50 
  -5  -7   0   32.03    1.52 
  -5  -7   0   28.80    1.50 
  -5  -7   0   31.62    1.53 
  -5  -7   0   31.77    1.55 
  -5  -7   0   28.79    1.63 
  -5  -7   0   28.92    1.49 
  -5  -7   0   27.93    1.49 
  -5  -7   0   31.13    1.53 
  -5   7   0   31.24    1.43 
  -5   7   0   30.38    1.43 
  -5   7   0   30.64    1.44 
  -5   7   0   30.13    1.43 
   5   7   0   30.69    1.51 
  -5   7   0   32.48    1.43 
  -5   7   0   30.34    1.43 
  -5   7   0   30.23    1.42 
  -6  -7   0    6.14    0.41 
  -6  -7   0    7.44    0.39 
  -6  -7   0    6.60    0.36 
  -6  -7   0    6.96    0.40 
  -6  -7   0    6.12    0.49 
  -6  -7   0    7.12    0.38 
  -6  -7   0    6.73    0.40 
  -6  -7   0    6.66    0.55 
  -6  -7   0    6.67    0.47 
  -6   7   0    6.61    0.32 
   6   7   0    6.07    0.40 
  -6   7   0    6.72    0.33 
   0  -8   0   16.18    1.04 
   0  -8   0   15.14    1.02 
   0  -8   0   15.48    0.80 
   0   8   0   15.26    0.90 
   0   8   0   15.61    1.15 
   0   8   0   15.83    0.85 
   0   8   0   16.23    0.83 
   0   8   0   14.56    0.93 
   0   8   0   16.17    0.85 
   0   8   0   17.57    1.71 
   0   8   0   15.46    0.96 
  -1  -8   0   42.34    2.11 
  -1  -8   0   43.56    2.27 
  -1  -8   0   44.15    2.19 
  -1  -8   0   36.50    2.24 
  -1  -8   0   44.91    2.11 
   1  -8   0   44.98    2.06 
  -1  -8   0   43.56    2.12 
   1  -8   0   40.93    2.29 
   1   8   0   46.68    2.16 
   1   8   0   44.39    2.24 
   1   8   0   44.33    2.11 
   1   8   0   37.74    2.44 
  -1   8   0   43.83    2.14 
  -1   8   0   42.41    2.08 
  -1   8   0   43.64    2.15 
   1   8   0   36.96    2.25 
   1   8   0   36.56    2.38 
   1   8   0   42.51    2.11 
  -1   8   0   45.85    2.38 
  -1   8   0   44.52    2.25 
  -1   8   0   42.38    2.07 
  -1   8   0   44.27    2.52 
  -1   8   0   45.51    2.12 
  -1   8   0   44.91    2.10 
  -1   8   0   43.79    2.44 
   1   8   0   42.31    2.16 
  -2  -8   0   45.58    2.37 
   2  -8   0   41.75    2.38 
  -2  -8   0   45.54    2.39 
  -2  -8   0   41.99    2.27 
  -2  -8   0   46.27    2.25 
  -2  -8   0   48.35    2.35 
  -2  -8   0   45.36    2.24 
   2  -8   0   46.55    2.20 
   2   8   0   47.73    2.49 
  -2   8   0   42.86    2.55 
  -2   8   0   44.18    2.62 
  -2   8   0   46.51    2.26 
  -2   8   0   53.22    2.47 
  -2   8   0   46.21    2.24 
  -2   8   0   43.01    2.23 
  -2   8   0   44.38    2.25 
  -2   8   0   47.82    2.42 
   2   8   0   47.13    2.21 
   2   8   0   45.51    2.40 
  -3  -8   0   21.60    1.18 
   3  -8   0   19.82    1.07 
  -3  -8   0   24.52    1.13 
  -3  -8   0   21.85    1.31 
  -3  -8   0   20.99    1.17 
  -3  -8   0   21.60    1.10 
  -3  -8   0   20.67    1.23 
  -3  -8   0   19.98    1.19 
  -3  -8   0   22.42    1.12 
   3  -8   0   21.71    1.07 
  -3   8   0   21.28    1.18 
  -3   8   0   19.59    1.09 
  -3   8   0   19.70    1.29 
  -3   8   0   25.75    1.35 
   3   8   0   21.25    1.09 
  -3   8   0   21.24    1.11 
  -4  -8   0   36.39    1.70 
  -4  -8   0   35.04    1.81 
  -4  -8   0   35.17    1.77 
  -4  -8   0   35.66    1.82 
  -4  -8   0   35.01    1.77 
  -4  -8   0   34.99    1.81 
  -4  -8   0   37.14    1.79 
  -4  -8   0   34.75    1.70 
  -4  -8   0   32.66    1.78 
  -4  -8   0   32.98    1.79 
  -4  -8   0   35.19    1.79 
  -4  -8   0   34.87    1.89 
  -4  -8   0   35.77    1.72 
  -4  -8   0   36.33    1.79 
  -4  -8   0   36.37    1.77 
  -4  -8   0   33.95    1.80 
  -4  -8   0   34.72    1.69 
  -4  -8   0   34.52    1.83 
  -4  -8   0   36.48    1.87 
  -4  -8   0   37.83    2.01 
  -4   8   0   36.64    1.71 
  -4   8   0   36.54    1.71 
  -4   8   0   34.71    1.74 
  -4   8   0   33.48    1.71 
  -4   8   0   35.50    1.72 
  -4   8   0   35.33    1.90 
  -4   8   0   37.20    1.82 
   4   8   0   38.12    1.76 
  -4   8   0   36.79    1.69 
   4   8   0   34.27    1.81 
  -4   8   0   36.22    1.86 
  -5  -8   0    0.03    0.20 
  -5  -8   0    0.21    0.19 
  -5  -8   0    0.44    0.18 
  -5  -8   0    0.27    0.19 
  -5  -8   0    0.48    0.16 
  -5  -8   0    0.37    0.16 
  -5  -8   0    0.27    0.31 
  -5  -8   0    0.12    0.19 
  -5  -8   0    0.26    0.15 
  -5  -8   0    0.26    0.16 
  -5   8   0    0.48    0.11 
   5   8   0    0.41    0.17 
  -5   8   0    0.25    0.07 
  -5   8   0    0.35    0.07 
  -5   8   0    0.32    0.06 
  -5   8   0    0.47    0.08 
  -5   8   0    0.36    0.07 
  -5   8   0    0.32    0.07 
  -6  -8   0    0.27    0.10 
  -6  -8   0    0.34    0.11 
  -6  -8   0    0.28    0.06 
  -6  -8   0    0.48    0.26 
  -6  -8   0    0.19    0.09 
  -6  -8   0    0.44    0.19 
   6   8   0    0.38    0.11 
  -6   8   0    0.31    0.03 
  -6   8   0    0.37    0.03 
   0  -9   0   -0.17    0.27 
   0  -9   0   -0.01    0.12 
   0  -9   0   -0.23    0.28 
   0   9   0    0.19    0.20 
   0   9   0    0.12    0.39 
   0   9   0    0.14    0.27 
   0   9   0   -0.03    0.18 
   0   9   0    0.13    0.23 
   0   9   0   -0.09    0.18 
   0   9   0    0.00    0.26 
  -1  -9   0   25.87    1.37 
   1  -9   0   28.15    1.70 
  -1  -9   0   28.13    1.39 
   1  -9   0   27.00    1.31 
  -1  -9   0   26.94    1.56 
  -1  -9   0   25.82    1.55 
  -1   9   0   26.35    1.74 
   1   9   0   28.47    1.45 
  -1   9   0   21.36    1.73 
  -1   9   0   26.49    1.33 
   1   9   0   26.61    1.71 
  -1   9   0   25.94    1.33 
   1   9   0   26.77    1.51 
  -1   9   0   24.97    1.35 
  -1   9   0   26.40    1.38 
  -1   9   0   26.82    1.52 
  -1   9   0   25.35    1.41 
  -1   9   0   25.92    1.40 
   1   9   0   25.86    1.36 
   1   9   0   28.57    1.38 
   1   9   0   26.85    1.40 
  -2  -9   0   31.19    1.84 
  -2  -9   0   33.92    1.69 
   2  -9   0   32.86    1.64 
  -2  -9   0   39.08    1.80 
  -2  -9   0   34.32    1.70 
  -2  -9   0   32.58    1.80 
  -2   9   0   31.61    1.71 
  -2   9   0   39.35    2.68 
  -2   9   0   32.49    1.68 
   2   9   0   31.45    1.85 
  -2   9   0   34.45    1.88 
  -2   9   0   32.69    1.68 
  -2   9   0   32.34    1.67 
  -2   9   0   32.82    2.06 
  -2   9   0   34.83    1.72 
  -2   9   0   32.53    1.60 
  -3  -9   0    2.22    0.49 
   3  -9   0    2.98    0.26 
  -3  -9   0    3.75    0.39 
  -3  -9   0    2.37    0.36 
  -3  -9   0    2.97    0.47 
   3  -9   0    2.90    0.29 
  -3  -9   0    2.93    0.43 
  -3  -9   0    2.90    0.32 
  -3  -9   0    3.10    0.49 
  -3  -9   0    2.39    0.42 
  -3  -9   0    2.98    0.42 
  -3  -9   0    2.97    0.46 
  -3  -9   0    2.34    0.31 
  -3  -9   0    2.78    0.34 
  -3  -9   0    3.37    0.35 
  -3  -9   0    2.59    0.37 
  -3   9   0    2.68    0.30 
  -3   9   0    2.98    0.30 
  -3   9   0    3.01    0.32 
   3   9   0    2.25    0.50 
  -3   9   0    4.11    0.57 
  -3   9   0    2.19    0.45 
  -3   9   0    2.25    0.30 
   3   9   0    2.41    0.28 
  -3   9   0    2.25    0.32 
   3   9   0    2.61    0.33 
  -3   9   0    3.61    0.59 
  -3   9   0    2.99    0.27 
   3   9   0    4.34    0.46 
  -3   9   0    3.06    0.30 
  -4  -9   0    5.44    0.53 
  -4  -9   0    5.05    0.58 
  -4  -9   0    4.94    0.44 
  -4  -9   0    4.77    0.43 
  -4  -9   0    5.60    0.44 
  -4  -9   0    4.99    0.30 
  -4  -9   0    4.76    0.41 
  -4  -9   0    5.47    0.46 
  -4  -9   0    4.68    0.52 
  -4  -9   0    5.00    0.49 
  -4  -9   0    4.72    0.46 
  -4  -9   0    4.68    0.43 
  -4  -9   0    5.21    0.31 
  -4  -9   0    5.26    0.33 
  -4  -9   0    4.62    0.36 
  -4  -9   0    5.34    0.45 
  -4  -9   0    4.00    0.59 
  -4   9   0    4.19    0.42 
  -4   9   0    4.69    0.36 
   4   9   0    4.64    0.47 
  -4   9   0    5.09    0.32 
  -4   9   0    4.99    0.29 
  -4   9   0    5.58    0.35 
  -4   9   0    5.56    0.54 
   4   9   0    5.05    0.40 
  -4   9   0    4.82    0.32 
  -4   9   0    4.62    0.62 
  -5  -9   0    3.04    0.31 
  -5  -9   0    3.46    0.30 
  -5  -9   0    4.09    0.33 
  -5  -9   0    3.44    0.45 
  -5  -9   0    3.84    0.32 
  -5  -9   0    3.88    0.33 
   5   9   0    3.49    0.38 
   5   9   0    3.44    0.31 
  -5   9   0    3.58    0.20 
  -5   9   0    3.35    0.19 
  -5   9   0    3.57    0.20 
  -5   9   0    3.32    0.19 
  -5   9   0    3.41    0.18 
   0 -10   0   17.14    1.16 
   0 -10   0   15.53    0.93 
   0  10   0   16.43    0.86 
   0  10   0   17.65    0.96 
   0  10   0   17.42    1.02 
   0  10   0   14.01    1.26 
   0  10   0   15.50    1.04 
   0  10   0   17.87    0.94 
   0  10   0   18.23    0.94 
   1 -10   0    3.64    0.30 
  -1 -10   0    3.50    0.38 
  -1 -10   0    3.20    0.37 
  -1 -10   0    2.97    0.55 
  -1 -10   0    2.99    0.38 
   1  10   0    2.96    0.45 
   1  10   0    3.36    0.34 
   1  10   0    2.54    0.41 
  -1  10   0    3.30    0.44 
   1  10   0    3.39    0.41 
   1  10   0    3.16    0.52 
  -1  10   0    2.83    0.39 
  -1  10   0    3.09    0.44 
  -1  10   0    2.94    0.35 
  -1  10   0    4.52    0.42 
  -1  10   0    3.81    0.57 
  -1  10   0    3.31    0.68 
  -1  10   0    3.71    0.46 
   1  10   0    3.01    0.39 
  -2 -10   0    5.83    0.47 
  -2 -10   0    6.17    0.38 
  -2 -10   0    5.98    0.48 
  -2 -10   0    5.11    0.44 
  -2 -10   0    5.26    0.46 
  -2 -10   0    5.64    0.48 
  -2 -10   0    5.52    0.62 
   2 -10   0    5.76    0.44 
  -2 -10   0    5.66    0.48 
  -2 -10   0    5.43    0.61 
  -2 -10   0    6.25    0.60 
  -2 -10   0    5.73    0.52 
  -2 -10   0    6.43    0.54 
   2 -10   0    5.55    0.40 
  -2  10   0    6.47    0.69 
  -2  10   0    5.65    0.73 
   2  10   0    5.81    0.66 
   2  10   0    6.13    0.55 
  -2  10   0    6.19    0.45 
  -2  10   0    6.17    0.50 
  -2  10   0    6.75    0.50 
  -2  10   0    6.25    0.36 
   2  10   0    5.80    0.53 
   2  10   0    7.30    0.60 
  -2  10   0    6.07    0.49 
  -2  10   0    6.52    0.52 
  -2  10   0    5.83    0.55 
  -2  10   0    6.18    0.44 
  -2  10   0    5.88    0.48 
   2  10   0    6.44    0.53 
  -2  10   0    5.64    0.46 
  -2  10   0    6.31    0.47 
  -2  10   0    6.52    0.35 
   2  10   0    6.37    0.54 
  -3 -10   0    9.46    0.58 
  -3 -10   0    8.72    0.51 
  -3 -10   0    8.78    0.64 
  -3 -10   0    8.50    0.71 
  -3 -10   0    9.30    0.59 
  -3 -10   0    9.02    0.56 
  -3 -10   0    8.62    0.60 
  -3 -10   0    8.52    0.73 
  -3 -10   0    9.66    0.58 
  -3 -10   0    9.71    0.66 
   3  10   0    8.71    0.65 
  -3  10   0    9.53    0.66 
   3  10   0    9.46    0.56 
  -3  10   0    9.18    0.52 
   3  10   0    8.46    0.63 
  -3  10   0    9.26    0.55 
  -3  10   0    8.62    0.81 
  -3  10   0    9.58    0.54 
  -3  10   0    8.67    0.56 
  -3  10   0    8.65    0.57 
  -3  10   0    8.97    0.54 
  -3  10   0    9.90    0.81 
   3  10   0    8.87    0.64 
  -4 -10   0    4.13    0.38 
  -4 -10   0    4.44    0.30 
  -4 -10   0    3.93    0.26 
  -4 -10   0    4.43    0.43 
  -4 -10   0    4.41    0.39 
  -4 -10   0    4.02    0.55 
  -4 -10   0    3.27    0.43 
  -4 -10   0    4.67    0.50 
  -4 -10   0    4.23    0.30 
  -4 -10   0    5.32    0.39 
  -4 -10   0    4.37    0.40 
  -4 -10   0    3.93    0.23 
  -4  10   0    4.32    0.30 
  -4  10   0    4.04    0.29 
  -4  10   0    3.93    0.35 
   4  10   0    4.31    0.45 
   4  10   0    3.79    0.34 
  -4  10   0    4.36    0.29 
  -4  10   0    4.43    0.26 
   4  10   0    2.56    0.50 
  -5 -10   0    1.34    0.22 
  -5 -10   0    1.68    0.22 
  -5 -10   0    1.21    0.24 
  -5 -10   0    1.22    0.15 
  -5 -10   0    1.96    0.34 
  -5 -10   0    1.37    0.20 
   5  10   0    1.38    0.20 
   5  10   0    1.59    0.27 
  -5  10   0    1.50    0.11 
  -5  10   0    1.35    0.10 
   0 -11   0    0.07    0.18 
   0 -11   0    0.00    0.19 
   0 -11   0   -0.18    0.17 
   0 -11   0    0.04    0.36 
   0 -11   0   -0.14    0.15 
   0 -11   0    0.08    0.18 
   0  11   0    0.24    0.26 
   0  11   0    0.01    0.22 
   0  11   0   -0.06    0.17 
   0  11   0    0.01    0.20 
   0  11   0   -0.04    0.13 
   0  11   0    0.10    0.21 
   0  11   0    0.04    0.16 
   0  11   0   -0.16    0.20 
   0  11   0    0.00    0.19 
  -1 -11   0   34.97    1.74 
  -1 -11   0   35.53    1.73 
   1 -11   0   34.11    1.71 
  -1 -11   0   31.62    1.79 
   1 -11   0   32.12    1.74 
   1 -11   0   40.85    1.77 
  -1 -11   0   34.51    1.98 
  -1 -11   0   31.93    1.73 
  -1 -11   0   37.02    1.79 
  -1 -11   0   29.51    1.72 
  -1  11   0   32.22    1.81 
  -1  11   0   37.89    1.83 
   1  11   0   34.48    1.74 
  -1  11   0   35.44    1.66 
  -1  11   0   35.90    1.70 
  -1  11   0   33.45    1.71 
  -1  11   0   36.36    1.81 
   1  11   0   34.61    1.79 
   1  11   0   38.54    1.79 
  -1  11   0   34.17    1.76 
   1  11   0   33.89    1.72 
  -1  11   0   33.38    1.70 
  -1  11   0   34.82    1.76 
   1  11   0   35.01    1.74 
  -1  11   0   34.27    1.70 
   1  11   0   35.19    1.91 
  -1  11   0   39.59    1.99 
  -1  11   0   36.32    1.79 
  -2 -11   0    8.16    0.51 
  -2 -11   0    8.32    0.67 
  -2 -11   0   10.36    0.74 
   2 -11   0    7.89    0.56 
  -2 -11   0    7.56    0.58 
   2 -11   0    7.97    0.52 
  -2 -11   0    9.26    0.60 
  -2 -11   0    9.00    0.58 
  -2 -11   0    8.21    0.63 
  -2 -11   0    8.21    0.49 
  -2 -11   0    7.42    0.70 
  -2  11   0    8.16    0.41 
   2  11   0    8.65    0.68 
  -2  11   0    7.32    0.58 
  -2  11   0    8.50    0.53 
   2  11   0    9.10    0.60 
  -2  11   0    7.76    0.73 
  -2  11   0    7.67    0.57 
   2  11   0    7.74    0.59 
  -2  11   0    9.07    0.54 
   2  11   0    9.48    0.72 
   2  11   0    8.73    0.59 
  -2  11   0    7.87    0.57 
  -2  11   0    8.01    0.54 
  -2  11   0    8.13    0.55 
  -2  11   0    8.07    0.60 
  -2  11   0    6.85    0.55 
  -2  11   0    8.69    0.57 
   2  11   0    8.76    0.59 
   3 -11   0   18.40    0.92 
  -3 -11   0   15.34    0.99 
  -3 -11   0   17.22    0.95 
  -3 -11   0   18.16    0.93 
  -3 -11   0   16.65    0.97 
  -3 -11   0   18.22    0.91 
  -3 -11   0   17.68    0.87 
  -3 -11   0   18.10    0.93 
  -3 -11   0   16.27    0.92 
  -3 -11   0   17.49    1.04 
  -3 -11   0   18.11    0.91 
  -3  11   0   18.59    0.91 
  -3  11   0   17.52    0.91 
  -3  11   0   16.58    0.89 
   3  11   0   17.04    0.98 
   3  11   0   18.70    0.97 
  -3  11   0   17.14    0.90 
   3  11   0   17.89    0.98 
  -3  11   0   17.49    0.92 
  -3  11   0   17.70    1.01 
  -4 -11   0   12.66    0.71 
  -4 -11   0   12.22    0.71 
  -4 -11   0   12.88    0.63 
  -4 -11   0   13.41    0.70 
  -4 -11   0   13.76    0.80 
  -4 -11   0   12.33    0.71 
  -4 -11   0   12.50    0.64 
  -4  11   0   12.39    0.66 
  -4  11   0   11.66    0.65 
  -4  11   0   13.96    0.65 
  -4  11   0   13.12    0.63 
   4  11   0   12.12    0.72 
   4  11   0   14.35    0.75 
   4  11   0   12.49    0.71 
   4  11   0   12.21    0.67 
   0 -12   0   16.15    0.92 
   0 -12   0   15.37    0.88 
   0 -12   0   16.95    0.89 
   0  12   0   15.48    0.93 
   0  12   0   15.24    0.88 
   0  12   0   15.54    0.80 
   0  12   0   15.98    0.87 
   0  12   0   15.96    0.86 
   0  12   0   15.76    0.85 
   0  12   0   16.10    0.80 
   0  12   0   15.24    0.97 
  -1 -12   0    1.11    0.31 
  -1 -12   0    1.48    0.29 
  -1 -12   0    0.76    0.20 
   1 -12   0    1.46    0.30 
   1 -12   0    1.46    0.32 
  -1 -12   0    1.27    0.29 
   1 -12   0    0.93    0.24 
   1 -12   0    1.38    0.34 
  -1  12   0    1.54    0.23 
  -1  12   0    1.46    0.33 
  -1  12   0    1.79    0.43 
   1  12   0    1.79    0.39 
   1  12   0    1.09    0.21 
  -1  12   0    1.53    0.33 
  -1  12   0    1.06    0.26 
   1  12   0    1.36    0.27 
  -1  12   0    1.49    0.21 
   1  12   0    0.83    0.22 
  -1  12   0    1.53    0.32 
  -1  12   0    1.43    0.23 
   2 -12   0    3.76    0.35 
  -2 -12   0    4.25    0.48 
  -2 -12   0    4.76    0.30 
  -2 -12   0    3.49    0.39 
  -2 -12   0    4.15    0.41 
  -2 -12   0    4.14    0.43 
   2 -12   0    4.44    0.39 
  -2  12   0    4.27    0.37 
  -2  12   0    3.81    0.33 
  -2  12   0    4.25    0.32 
   2  12   0    4.30    0.36 
   2  12   0    4.55    0.40 
   2  12   0    4.30    0.40 
   2  12   0    4.57    0.47 
  -2  12   0    4.35    0.36 
  -2  12   0    4.31    0.45 
  -2  12   0    3.82    0.36 
  -2  12   0    3.71    0.38 
  -3 -12   0   11.05    0.71 
  -3 -12   0    9.81    0.59 
  -3 -12   0   10.63    0.61 
  -3 -12   0   11.01    0.59 
  -3 -12   0   12.08    0.62 
  -3 -12   0   10.74    0.61 
  -3 -12   0   12.26    0.67 
   3 -12   0   11.21    0.60 
  -3 -12   0   10.65    0.59 
   3  12   0   11.07    0.69 
  -3  12   0   12.25    0.63 
  -3  12   0   11.05    0.59 
   3  12   0   12.35    0.65 
  -3  12   0   11.19    0.61 
   3  12   0   10.29    0.64 
   3  12   0   11.30    0.65 
  -3  12   0   10.81    0.59 
   3  12   0   10.94    0.64 
  -4 -12   0   10.04    0.55 
  -4 -12   0    9.01    0.60 
   4  12   0   12.63    0.64 
  -4  12   0    9.52    0.50 
   4  12   0   11.81    0.60 
  -4  12   0    8.84    0.53 
  -4  12   0   10.42    0.49 
   4  12   0    9.43    0.56 
   0 -13   0   -0.06    0.23 
   0 -13   0    0.05    0.15 
   0 -13   0   -0.01    0.17 
   0 -13   0   -0.04    0.15 
   0  13   0    0.08    0.07 
   0  13   0    0.13    0.12 
   0  13   0   -0.20    0.14 
   0  13   0   -0.04    0.12 
   0  13   0   -0.08    0.17 
   1 -13   0    1.70    0.28 
   1 -13   0    1.72    0.30 
   1 -13   0    1.56    0.30 
  -1 -13   0    1.71    0.28 
  -1 -13   0    2.01    0.35 
   1 -13   0    1.61    0.20 
  -1 -13   0    1.65    0.27 
  -1 -13   0    1.95    0.25 
  -1  13   0    1.78    0.29 
   1  13   0    1.82    0.17 
  -1  13   0    1.92    0.15 
   1  13   0    1.74    0.30 
   1  13   0    1.69    0.29 
   1  13   0    1.37    0.30 
  -1  13   0    2.21    0.31 
  -1  13   0    1.83    0.18 
  -1  13   0    1.56    0.35 
  -1  13   0    1.49    0.19 
  -1  13   0    1.58    0.17 
   2 -13   0   12.83    0.72 
  -2 -13   0   12.68    0.71 
  -2 -13   0   14.48    0.73 
   2 -13   0   12.43    0.68 
  -2 -13   0   12.42    0.70 
  -2 -13   0   13.13    0.70 
  -2  13   0   13.24    0.67 
  -2  13   0   13.00    0.67 
   2  13   0   13.27    0.68 
  -2  13   0   13.21    0.71 
   2  13   0   12.29    0.70 
   2  13   0   13.74    0.76 
   2  13   0   12.17    0.78 
  -2  13   0   15.12    0.71 
  -2  13   0   12.51    0.70 
  -3 -13   0    7.88    0.43 
  -3 -13   0    7.56    0.43 
  -3 -13   0    7.05    0.41 
  -3 -13   0   10.77    0.67 
  -3 -13   0    7.63    0.41 
   3 -13   0    8.36    0.43 
  -3 -13   0    6.63    0.57 
   3  13   0    7.92    0.44 
  -3  13   0    9.22    0.46 
   3  13   0    8.66    0.49 
   3  13   0    7.83    0.49 
  -3  13   0    8.48    0.44 
   3  13   0    7.85    0.46 
   0 -14   0    1.59    0.24 
   0 -14   0    1.87    0.23 
   0 -14   0    1.50    0.22 
   0 -14   0    1.75    0.29 
   0  14   0    1.89    0.20 
   0  14   0    1.90    0.16 
   0  14   0    2.02    0.31 
   1 -14   0    4.89    0.35 
  -1 -14   0    4.68    0.38 
   1 -14   0    4.98    0.33 
  -1 -14   0    5.60    0.37 
  -1 -14   0    4.78    0.28 
   1 -14   0    5.29    0.35 
  -1  14   0    4.64    0.33 
   1  14   0    5.20    0.31 
  -1  14   0    5.29    0.35 
   1  14   0    4.92    0.37 
   1  14   0    5.09    0.27 
   1  14   0    4.76    0.33 
  -6   0   1    5.02    0.50 
  -6   0   1    4.23    0.22 
  -6   0   1    4.60    0.23 
  -5   0   1   30.99    1.58 
  -5   0   1   35.54    1.69 
  -5   0   1   32.94    1.69 
  -4   0   1    0.93    0.24 
  -4   0   1    0.70    0.11 
  -3   0   1    4.35    0.22 
  -3   0   1    3.90    0.24 
   3   0  -1    4.07    0.22 
  -3   0   1    4.50    0.24 
   2   0  -1   18.20    0.90 
   2   0  -1   17.19    0.84 
  -2   0   1   18.16    0.87 
   2   0  -1   17.67    0.84 
  -2   0   1   17.47    0.86 
   1   0  -1  352.60   17.43 
  -1   0   1  398.18   17.51 
   1   0  -1  372.47   17.44 
   1   0  -1  387.67   17.50 
  -1   0   1  380.70   17.43 
   1   0  -1  385.07   17.44 
   1   0  -1  376.22   17.44 
   1   0  -1  369.55   17.43 
   1   0  -1  371.44   17.44 
   1   0  -1  387.34   17.49 
  -1   0   1  373.67   17.46 
   1   0  -1  373.79   17.44 
  -1   0   1  363.82   17.44 
  -1   0   1  368.72   17.43 
   0   0  -1  191.66    8.96 
   0   0   1  188.92    8.96 
   0   0  -1  193.62    8.97 
   0   0   1  202.94    8.98 
   0   0   1  168.02    8.98 
   0   0   1  205.34    8.99 
   0   0   1  194.66    8.97 
   0   0  -1  189.88    8.99 
   0   0  -1  185.33    8.96 
   0   0  -1  195.28    8.96 
   0   0  -1  198.64    9.00 
   0   0   1  178.15    9.01 
   0   0   1  194.76    8.96 
   0   0   1  200.69    8.96 
   0   0   1  181.63    8.96 
   0   0  -1  192.04    9.03 
   0   0  -1  209.89    8.99 
   0   0  -1  197.90    8.96 
   0   0   1  194.58    9.03 
   0   0  -1  195.66    8.96 
  -1   0  -1  599.08   26.35 
   1   0   1  570.36   26.37 
   1   0   1  556.88   26.35 
   1   0   1  558.94   26.48 
   1   0   1  549.14   26.42 
   1   0   1  558.16   26.35 
   1   0   1  552.58   26.35 
  -1   0  -1  604.00   26.42 
   1   0   1  554.95   26.37 
  -1   0  -1  556.79   26.43 
   1   0   1  567.20   26.35 
   1   0   1  590.43   26.36 
  -1   0  -1  567.43   26.35 
  -1   0  -1  532.66   26.43 
  -1   0  -1  613.19   26.40 
   1   0   1  557.32   26.35 
  -1   0  -1  567.31   26.35 
  -2   0  -1  118.07    5.60 
   2   0   1  119.05    5.61 
  -2   0  -1  123.84    5.57 
   2   0   1  112.75    5.53 
   2   0   1  117.69    5.52 
   3   0   1  200.16    8.93 
   3   0   1  181.94    9.00 
  -3   0  -1  192.05    9.09 
  -3   0  -1  182.91    8.97 
  -3   0  -1  197.98    9.03 
   3   0   1  199.76    9.09 
  -4   0  -1   11.10    0.57 
   4   0   1   10.74    0.51 
   4   0   1   10.38    0.62 
  -4   0  -1    9.21    0.58 
   5   0   1   35.19    1.67 
  -5   0  -1   35.61    1.80 
  -5   0  -1   34.97    1.72 
  -6   0  -1    4.25    0.24 
  -6   0  -1    4.53    0.24 
  -6   0  -1    4.53    0.50 
  -6   0  -1    4.73    0.25 
  -6  -1   1   31.59    1.44 
  -6  -1   1   31.11    1.61 
  -6  -1   1   31.85    1.44 
  -6  -1   1   30.15    1.59 
  -6  -1   1   29.00    1.47 
  -6   1   1   30.71    1.43 
  -6   1   1   30.06    1.43 
  -5  -1   1    9.87    0.53 
  -5  -1   1    9.16    0.64 
  -5  -1   1    9.85    0.81 
  -5  -1   1    8.97    0.63 
  -5  -1   1    9.26    0.65 
  -5   1   1    9.12    0.64 
  -5   1   1    8.28    0.61 
   5   1  -1    9.39    0.47 
  -4  -1   1   19.30    1.02 
  -4  -1   1   20.65    1.07 
  -4  -1   1   20.06    1.01 
   4   1  -1   21.39    1.05 
   4   1  -1   20.32    0.96 
  -3  -1   1    6.38    0.39 
  -3  -1   1    6.46    0.34 
  -3  -1   1    6.38    0.36 
  -3  -1   1    6.18    0.46 
  -3   1   1    5.92    0.37 
   3   1  -1    6.47    0.37 
   3   1  -1    6.39    0.37 
   2  -1  -1    8.50    0.41 
  -2  -1   1    8.84    0.44 
   2  -1  -1    7.87    0.40 
  -2  -1   1    8.14    0.41 
  -2  -1   1    7.98    0.44 
   2  -1  -1    8.64    0.45 
  -2  -1   1    8.67    0.49 
  -2  -1   1    8.55    0.49 
  -2   1   1    8.31    0.45 
   2   1  -1    8.92    0.48 
   2   1  -1    8.62    0.45 
  -2   1   1    8.82    0.43 
   2   1  -1    8.53    0.42 
   1  -1  -1   90.86    4.24 
  -1  -1   1   99.43    4.24 
   1  -1  -1   91.33    4.24 
   1  -1  -1   90.52    4.29 
  -1  -1   1   87.12    4.25 
  -1  -1   1   87.32    4.24 
  -1  -1   1   93.07    4.24 
  -1  -1   1   91.10    4.37 
  -1  -1   1   89.97    4.29 
   1  -1  -1   90.10    4.24 
  -1  -1   1   89.38    4.30 
  -1  -1   1   97.83    4.33 
  -1  -1   1   88.22    4.24 
   1  -1  -1   91.62    4.24 
  -1  -1   1   93.57    4.25 
   1  -1  -1   90.09    4.24 
   1  -1  -1   88.90    4.24 
   1   1  -1   96.41    4.34 
   1   1  -1   90.60    4.24 
   1   1  -1   93.51    4.25 
   1   1  -1   95.91    4.25 
   1   1  -1   90.00    4.24 
   1   1  -1   86.69    4.25 
   1   1  -1   90.89    4.27 
  -1   1   1   85.72    4.25 
  -1   1   1   89.27    4.27 
  -1   1   1   90.77    4.24 
   1   1  -1   90.48    4.25 
   1   1  -1   92.28    4.27 
   1   1  -1   91.97    4.25 
  -1   1   1   90.55    4.27 
  -1   1   1   90.85    4.24 
   0  -1  -1  323.50   14.33 
   0  -1  -1  334.60   14.35 
   0  -1  -1  310.05   14.36 
   0  -1   1  315.26   14.36 
   0  -1  -1  314.62   14.36 
   0  -1   1  311.64   14.36 
   0  -1   1  317.19   14.35 
   0  -1   1  309.06   14.33 
   0  -1  -1  324.18   14.37 
   0  -1  -1  324.36   14.34 
   0  -1   1  300.18   14.41 
   0  -1   1  314.79   14.34 
   0  -1   1  298.79   14.33 
   0  -1   1  327.16   14.33 
   0  -1  -1  283.64   14.33 
   0  -1  -1  308.15   14.33 
   0  -1   1  300.19   14.33 
   0  -1  -1  305.95   14.41 
   0  -1  -1  288.92   14.33 
   0  -1   1  344.12   14.33 
   0  -1   1  296.29   14.39 
   0   1  -1  306.74   14.33 
   0   1  -1  314.82   14.33 
   0   1   1  307.32   14.33 
   0   1  -1  333.19   14.33 
   0   1   1  297.52   14.36 
   0   1  -1  303.39   14.34 
   0   1   1  296.93   14.39 
   0   1  -1  307.03   14.36 
   0   1   1  304.94   14.36 
   0   1  -1  304.67   14.33 
   0   1  -1  281.53   14.35 
   0   1  -1  311.26   14.34 
   0   1  -1  299.33   14.41 
   0   1  -1  282.63   14.36 
   0   1   1  300.99   14.38 
   0   1   1  322.33   14.35 
   0   1   1  310.72   14.33 
   0   1   1  317.03   14.33 
   0   1   1  292.36   14.33 
   1  -1   1  136.75    6.64 
   1  -1   1  141.18    6.64 
  -1  -1  -1  140.58    6.62 
  -1  -1  -1  142.75    6.62 
  -1  -1  -1  139.63    6.63 
  -1  -1  -1  140.68    6.72 
   1  -1   1  144.65    6.70 
   1  -1   1  138.75    6.62 
  -1  -1  -1  149.51    6.62 
   1  -1   1  148.24    6.61 
  -1  -1  -1  129.52    6.77 
   1  -1   1  152.90    6.62 
   1  -1   1  143.72    6.62 
   1  -1   1  135.11    6.62 
   1  -1   1  136.49    6.61 
  -1  -1  -1  141.35    6.68 
  -1  -1  -1  144.57    6.62 
  -1  -1  -1  143.84    6.79 
   1   1   1  138.01    6.71 
   1   1   1  141.28    6.64 
   1   1   1  140.01    6.64 
  -1   1  -1  147.97    6.68 
  -1   1  -1  141.67    6.66 
  -1   1  -1  150.03    6.68 
  -1   1  -1  143.17    6.68 
  -1   1  -1  145.89    6.67 
  -1   1  -1  140.49    6.62 
  -1   1  -1  137.18    6.62 
   1   1   1  139.10    6.62 
   1   1   1  144.12    6.63 
   1   1   1  142.22    6.62 
  -1   1  -1  140.88    6.62 
   1   1   1  150.11    6.67 
   1   1   1  144.67    6.63 
   1   1   1  145.86    6.72 
   2  -1   1   76.20    3.70 
  -2  -1  -1   74.77    3.69 
  -2  -1  -1   83.42    3.77 
  -2  -1  -1   76.87    3.75 
   2  -1   1   75.71    3.70 
  -2  -1  -1   73.70    3.81 
   2  -1   1   82.39    3.79 
  -2  -1  -1   80.55    3.75 
  -2   1  -1   82.12    3.75 
   2   1   1   81.05    3.83 
   2   1   1   80.82    3.71 
  -2   1  -1   82.43    3.79 
   2   1   1   78.36    3.74 
  -3  -1  -1   40.90    2.17 
  -3  -1  -1   42.34    2.04 
   3  -1   1   42.72    2.11 
  -3  -1  -1   43.14    2.11 
   3  -1   1   41.91    2.04 
  -3   1  -1   41.44    2.02 
  -3   1  -1   42.56    2.05 
   3   1   1   42.84    1.99 
   3   1   1   43.42    2.19 
   3   1   1   44.04    2.08 
  -4  -1  -1    2.66    0.31 
  -4  -1  -1    3.09    0.27 
   4  -1   1    2.44    0.15 
  -4  -1  -1    2.48    0.53 
  -4  -1  -1    2.37    0.21 
   4  -1   1    2.26    0.28 
   4   1   1    3.46    0.33 
   4   1   1    2.67    0.18 
  -4   1  -1    2.60    0.22 
   5  -1   1    5.98    0.32 
  -5  -1  -1    6.32    0.53 
  -5  -1  -1    5.87    0.41 
   5   1   1    5.70    0.34 
  -5   1  -1    5.92    0.50 
  -5   1  -1    6.49    0.38 
  -6  -1  -1   13.11    0.79 
  -6  -1  -1   11.96    0.78 
  -6  -1  -1   12.56    0.62 
  -6  -1  -1   12.41    0.62 
  -6  -1  -1   12.73    0.62 
  -6   1  -1   13.07    0.60 
  -6   1  -1   12.56    0.61 
  -6   1  -1   12.34    0.80 
  -7  -2   1    1.46    0.10 
  -6  -2   1    3.17    0.49 
  -6  -2   1    2.98    0.55 
  -6  -2   1    3.35    0.20 
  -6  -2   1    3.23    0.19 
  -6  -2   1    2.93    0.41 
  -6  -2   1    3.21    0.19 
  -6  -2   1    3.29    0.46 
  -6  -2   1    3.27    0.21 
  -6  -2   1    3.31    0.28 
  -6  -2   1    3.56    0.20 
  -5  -2   1    4.03    0.46 
  -5  -2   1    3.64    0.45 
  -5  -2   1    4.05    0.41 
  -5  -2   1    4.18    0.32 
  -5  -2   1    3.93    0.59 
  -5   2   1    3.42    0.42 
   5   2  -1    3.60    0.24 
  -4  -2   1   52.45    2.66 
  -4  -2   1   46.12    2.48 
  -4  -2   1   56.16    2.46 
  -4  -2   1   48.77    2.41 
   4   2  -1   49.14    2.50 
   4   2  -1   52.31    2.39 
  -3  -2   1    7.96    0.59 
  -3  -2   1    8.09    0.51 
  -3  -2   1    8.35    0.45 
  -3  -2   1    7.57    0.47 
   3   2  -1    8.16    0.39 
   3   2  -1    7.16    0.67 
  -3   2   1    7.58    0.45 
   3   2  -1    8.04    0.49 
  -2  -2   1   72.67    3.36 
   2  -2  -1   68.75    3.26 
  -2  -2   1   74.17    3.37 
   2  -2  -1   69.79    3.27 
  -2  -2   1   65.33    3.27 
  -2   2   1   75.86    3.28 
  -2   2   1   71.66    3.30 
   2   2  -1   72.69    3.30 
   2   2  -1   71.12    3.34 
   2   2  -1   69.14    3.49 
  -2   2   1   68.60    3.33 
  -2   2   1   69.44    3.30 
   2   2  -1   60.56    3.31 
  -1  -2   1  153.23    7.22 
  -1  -2   1  160.74    7.12 
  -1  -2   1  150.27    7.09 
   1  -2  -1  153.01    7.09 
   1  -2  -1  153.76    7.08 
   1  -2  -1  133.61    7.09 
  -1  -2   1  155.17    7.09 
  -1  -2   1  157.85    7.17 
  -1  -2   1  152.48    7.09 
   1  -2  -1  164.34    7.08 
  -1  -2   1  149.51    7.10 
   1  -2  -1  148.04    7.11 
   1  -2  -1  148.67    7.16 
  -1  -2   1  152.13    7.20 
   1  -2  -1  153.72    7.09 
  -1  -2   1  154.83    7.31 
  -1  -2   1  146.80    7.09 
   1  -2  -1  149.06    7.09 
  -1  -2   1  155.95    7.17 
   1  -2  -1  153.43    7.11 
  -1   2   1  153.71    7.08 
   1   2  -1  150.08    7.09 
  -1   2   1  161.69    7.09 
  -1   2   1  148.48    7.09 
   1   2  -1  142.20    7.09 
   1   2  -1  148.21    7.13 
   1   2  -1  156.23    7.12 
   1   2  -1  150.87    7.10 
   1   2  -1  157.53    7.24 
  -1   2   1  144.21    7.13 
  -1   2   1  152.82    7.08 
   1   2  -1  154.91    7.10 
   1   2  -1  155.31    7.12 
   1   2  -1  161.75    7.09 
  -1   2   1  147.14    7.13 
   0  -2   1  176.47    8.22 
   0  -2   1  182.14    8.11 
   0  -2   1  162.26    8.10 
   0  -2  -1  184.74    8.13 
   0  -2   1  171.58    8.10 
   0  -2  -1  170.86    8.11 
   0  -2   1  166.41    8.10 
   0  -2  -1  171.91    8.14 
   0  -2   1  173.80    8.21 
   0  -2  -1  173.20    8.10 
   0  -2  -1  176.62    8.12 
   0  -2   1  172.11    8.12 
   0  -2  -1  165.58    8.10 
   0  -2  -1  169.05    8.10 
   0  -2   1  183.46    8.14 
   0  -2   1  180.25    8.12 
   0  -2  -1  165.57    8.16 
   0   2   1  173.02    8.10 
   0   2  -1  188.79    8.10 
   0   2   1  177.56    8.11 
   0   2   1  169.86    8.10 
   0   2   1  168.55    8.13 
   0   2  -1  166.24    8.10 
   0   2   1  176.57    8.19 
   0   2   1  171.26    8.20 
   0   2  -1  166.42    8.21 
   0   2   1  168.23    8.14 
   0   2   1  181.99    8.12 
   0   2  -1  173.34    8.10 
   0   2  -1  164.87    8.16 
   0   2   1  178.10    8.11 
   0   2  -1  190.97    8.12 
   0   2  -1  176.67    8.10 
   0   2  -1  174.12    8.14 
   0   2  -1  181.82    8.12 
  -1  -2  -1  166.93    7.74 
   1  -2   1  159.37    7.73 
  -1  -2  -1  164.07    7.70 
   1  -2   1  164.93    7.74 
  -1  -2  -1  170.25    7.71 
  -1  -2  -1  173.28    7.97 
   1  -2   1  173.53    7.70 
   1  -2   1  164.04    7.71 
   1  -2   1  167.30    7.70 
  -1  -2  -1  161.75    7.85 
  -1  -2  -1  165.14    7.79 
   1  -2   1  158.72    7.80 
   1  -2   1  183.06    7.71 
  -1  -2  -1  171.70    7.72 
  -1  -2  -1  174.24    7.86 
   1  -2   1  159.47    7.70 
  -1  -2  -1  164.33    7.71 
   1  -2   1  154.05    7.72 
   1   2   1  176.91    7.80 
  -1   2  -1  160.96    7.71 
  -1   2  -1  168.78    7.71 
  -1   2  -1  169.61    7.77 
  -1   2  -1  161.74    7.70 
   1   2   1  173.25    7.71 
  -1   2  -1  166.24    7.70 
   1   2   1  157.13    7.75 
  -1   2  -1  167.48    7.76 
   1   2   1  156.62    7.83 
   1   2   1  174.46    7.77 
  -1   2  -1  155.63    7.81 
   1   2   1  163.64    7.71 
  -1   2  -1  156.88    7.78 
   1   2   1  172.72    7.72 
   1   2   1  173.51    7.85 
   1   2   1  150.14    7.74 
   1   2   1  163.00    7.74 
  -1   2  -1  164.59    7.70 
  -2  -2  -1    3.63    0.39 
   2  -2   1    3.72    0.22 
  -2  -2  -1    3.43    0.32 
   2  -2   1    3.61    0.25 
  -2  -2  -1    3.49    0.32 
  -2  -2  -1    4.09    0.33 
  -2  -2  -1    3.77    0.37 
   2  -2   1    4.24    0.35 
   2   2   1    3.49    0.32 
  -2   2  -1    3.87    0.28 
   2   2   1    3.69    0.31 
   2   2   1    3.54    0.40 
   2   2   1    3.99    0.26 
  -2   2  -1    3.42    0.24 
   2   2   1    3.23    0.20 
   2   2   1    3.42    0.41 
  -2   2  -1    3.56    0.33 
  -3  -2  -1   46.71    2.29 
  -3  -2  -1   42.48    2.10 
  -3  -2  -1   44.24    2.18 
   3  -2   1   41.40    2.14 
   3  -2   1   44.81    2.08 
   3   2   1   43.50    2.28 
   3   2   1   44.43    2.04 
  -3   2  -1   39.10    2.05 
   3   2   1   43.11    2.15 
  -3   2  -1   44.22    2.09 
   4  -2   1    7.39    0.36 
  -4  -2  -1    6.76    0.52 
  -4  -2  -1    6.27    0.61 
  -4  -2  -1    7.22    0.42 
  -4  -2  -1    7.29    0.47 
  -4  -2  -1    6.90    0.66 
  -4  -2  -1    7.51    0.53 
   4   2   1    7.78    0.39 
  -4   2  -1    7.29    0.41 
   4   2   1    7.21    0.55 
  -5  -2  -1   17.34    0.86 
   5  -2   1   15.82    0.80 
  -5  -2  -1   16.69    0.95 
  -5  -2  -1   17.49    0.97 
  -5  -2  -1   15.24    0.91 
  -5  -2  -1   16.07    0.85 
  -5   2  -1   17.41    0.97 
   5   2   1   17.52    0.84 
  -5   2  -1   16.64    0.84 
  -6  -2  -1    4.85    0.49 
  -6  -2  -1    4.91    0.27 
  -6  -2  -1    4.77    0.28 
  -6  -2  -1    4.78    0.26 
  -6  -2  -1    4.44    0.29 
  -6  -2  -1    4.35    0.47 
  -6  -2  -1    4.96    0.25 
  -6  -2  -1    4.32    0.48 
  -6  -2  -1    4.47    0.28 
  -6  -2  -1    4.50    0.26 
  -6  -2  -1    5.00    0.27 
  -6   2  -1    4.24    0.48 
  -6   2  -1    4.59    0.24 
  -7  -2  -1   11.26    0.53 
  -7  -3   1    4.54    0.23 
  -6  -3   1    1.61    0.41 
  -6  -3   1    2.00    0.19 
  -6  -3   1    1.90    0.19 
  -6  -3   1    2.07    0.47 
  -6  -3   1    1.95    0.15 
  -6  -3   1    2.18    0.17 
  -6  -3   1    1.46    0.42 
  -6  -3   1    1.62    0.17 
  -6  -3   1    1.60    0.54 
  -6  -3   1    2.62    0.43 
  -5  -3   1   49.28    2.46 
  -5  -3   1   50.12    2.57 
  -5  -3   1   49.51    2.47 
  -5  -3   1   53.93    2.54 
  -5  -3   1   54.57    2.77 
  -5  -3   1   51.02    2.47 
  -5  -3   1   52.68    2.54 
  -5  -3   1   50.85    2.55 
  -5   3   1   52.43    2.55 
   5   3  -1   53.09    2.45 
  -4  -3   1   45.83    2.16 
  -4  -3   1   41.66    2.18 
  -4  -3   1   43.72    2.34 
  -4  -3   1   45.24    2.09 
  -4  -3   1   41.46    2.06 
   4   3  -1   44.00    2.06 
  -4   3   1   44.83    2.05 
   4   3  -1   41.01    2.19 
  -3  -3   1   77.26    4.14 
   3  -3  -1   85.51    4.15 
  -3  -3   1   97.64    4.36 
  -3  -3   1   91.88    4.25 
  -3  -3   1   82.15    4.17 
  -3  -3   1   87.74    4.17 
  -3   3   1   87.83    4.09 
   3   3  -1   83.69    4.09 
  -3   3   1   91.72    4.14 
   3   3  -1   88.44    4.09 
   3   3  -1   91.19    4.20 
   3   3  -1   85.87    4.43 
  -2  -3   1   78.83    3.97 
   2  -3  -1   73.25    3.79 
   2  -3  -1   84.55    3.89 
  -2  -3   1   87.90    4.05 
  -2  -3   1   79.96    3.90 
  -2  -3   1   80.02    3.85 
   2   3  -1   85.67    3.86 
  -2   3   1   75.11    3.83 
  -2   3   1   80.55    3.80 
   2   3  -1   86.69    4.05 
  -2   3   1   76.49    3.87 
   2   3  -1   80.62    3.77 
   2   3  -1   78.83    3.86 
   2   3  -1   78.38    3.80 
   2   3  -1   81.69    3.87 
  -2   3   1   82.61    3.80 
  -1  -3   1  351.89   15.96 
  -1  -3   1  348.18   16.00 
   1  -3  -1  343.64   15.94 
  -1  -3   1  331.94   15.97 
   1  -3  -1  317.17   15.99 
   1  -3  -1  351.69   15.95 
  -1  -3   1  336.16   15.95 
  -1  -3   1  360.63   16.06 
  -1  -3   1  345.25   16.26 
  -1  -3   1  344.83   16.13 
   1  -3  -1  352.64   15.97 
  -1  -3   1  320.53   15.96 
   1  -3  -1  345.86   15.98 
   1  -3  -1  346.38   15.97 
  -1  -3   1  362.07   15.95 
  -1  -3   1  341.68   16.00 
   1   3  -1  346.96   16.12 
  -1   3   1  313.05   15.95 
   1   3  -1  342.02   15.99 
  -1   3   1  311.58   16.05 
   1   3  -1  331.83   15.96 
   1   3  -1  324.38   16.01 
  -1   3   1  362.83   15.94 
  -1   3   1  351.68   16.05 
  -1   3   1  370.35   16.06 
   1   3  -1  355.07   16.15 
   1   3  -1  370.58   16.02 
  -1   3   1  347.68   16.03 
   1   3  -1  326.56   16.00 
   1   3  -1  343.14   15.95 
   0  -3  -1  124.81    5.69 
   0  -3   1  120.93    5.75 
   0  -3  -1  122.52    5.69 
   0  -3   1  104.09    5.71 
   0  -3   1  126.05    5.70 
   0  -3  -1  123.74    5.70 
   0  -3   1  130.55    5.70 
   0  -3   1  130.06    5.75 
   0  -3   1  118.33    5.72 
   0  -3   1  125.55    5.69 
   0  -3  -1  125.19    5.72 
   0  -3   1  123.50    5.70 
   0  -3  -1  125.66    5.73 
   0  -3  -1  120.09    5.75 
   0  -3  -1  121.74    5.84 
   0  -3   1  124.91    5.84 
   0  -3  -1  130.39    5.75 
   0   3  -1  122.08    5.71 
   0   3  -1  118.48    5.79 
   0   3   1  132.85    5.82 
   0   3   1  114.46    5.74 
   0   3  -1  117.85    5.79 
   0   3   1  121.11    5.70 
   0   3   1  120.59    5.69 
   0   3  -1  120.64    5.86 
   0   3  -1  119.61    5.70 
   0   3   1  118.55    5.68 
   0   3   1  110.29    5.72 
   0   3   1  121.28    5.72 
   0   3   1  117.51    5.74 
   0   3   1  120.57    5.69 
   0   3  -1  130.13    5.69 
   0   3   1  119.33    5.83 
   0   3  -1  121.47    5.78 
   0   3   1  117.05    5.69 
   0   3  -1  125.40    5.74 
   0   3  -1  124.80    5.69 
   0   3  -1  122.57    5.74 
   0   3  -1  124.80    5.69 
   0   3  -1  117.97    5.71 
   1  -3   1   15.30    0.69 
   1  -3   1   13.76    0.77 
  -1  -3  -1   13.69    0.85 
  -1  -3  -1   13.95    0.74 
   1  -3   1   12.92    0.70 
   1  -3   1   14.42    0.83 
  -1  -3  -1   14.21    0.75 
   1  -3   1   13.56    0.73 
   1  -3   1   14.21    0.72 
  -1  -3  -1   13.52    0.69 
  -1  -3  -1   13.46    0.68 
  -1  -3  -1   13.97    1.02 
  -1  -3  -1   13.61    0.78 
   1  -3   1   11.57    0.70 
  -1  -3  -1   13.18    0.69 
  -1   3  -1   14.30    0.82 
   1   3   1   14.86    0.77 
  -1   3  -1   12.99    0.69 
   1   3   1   13.09    0.86 
  -1   3  -1   13.95    0.77 
   1   3   1   13.34    0.77 
   1   3   1   14.68    0.70 
  -1   3  -1   13.30    0.67 
   1   3   1   15.09    0.71 
   1   3   1   14.41    0.77 
  -1   3  -1   13.11    0.80 
  -1   3  -1   13.60    0.77 
  -1   3  -1   12.18    0.85 
   1   3   1   13.11    0.86 
   1   3   1   14.08    0.69 
  -2  -3  -1   53.17    2.66 
   2  -3   1   49.52    2.52 
  -2  -3  -1   55.48    2.81 
   2  -3   1   51.34    2.50 
   2  -3   1   55.68    2.56 
   2  -3   1   56.33    2.67 
  -2  -3  -1   52.95    2.74 
  -2   3  -1   52.97    2.55 
   2   3   1   57.52    2.63 
   2   3   1   52.64    2.64 
  -2   3  -1   52.37    2.66 
   2   3   1   55.04    2.56 
  -2   3  -1   54.37    2.61 
   2   3   1   51.62    2.75 
   2   3   1   54.08    2.76 
   2   3   1   52.51    2.63 
   2   3   1   52.99    2.51 
  -3  -3  -1   25.95    1.47 
  -3  -3  -1   24.57    1.21 
  -3  -3  -1   23.37    1.25 
  -3  -3  -1   21.14    1.32 
  -3  -3  -1   24.64    1.23 
   3  -3   1   24.31    1.23 
  -3  -3  -1   25.25    1.25 
   3  -3   1   24.35    1.15 
   3  -3   1   25.44    1.32 
   3   3   1   24.41    1.18 
  -3   3  -1   25.58    1.20 
   3   3   1   24.88    1.32 
  -3   3  -1   22.12    1.18 
   3   3   1   27.09    1.18 
  -4  -3  -1    3.00    0.36 
  -4  -3  -1    3.35    0.38 
  -4  -3  -1    3.01    0.32 
  -4  -3  -1    2.63    0.56 
   4  -3   1    3.22    0.18 
  -4  -3  -1    3.27    0.48 
  -4  -3  -1    2.91    0.26 
  -4  -3  -1    2.93    0.24 
  -4  -3  -1    2.79    0.27 
  -4   3  -1    3.42    0.25 
   4   3   1    2.68    0.41 
   4   3   1    3.20    0.23 
  -5  -3  -1    8.36    0.49 
  -5  -3  -1    9.07    0.58 
  -5  -3  -1    6.24    0.72 
  -5  -3  -1    8.10    0.47 
  -5  -3  -1    7.68    0.61 
  -5  -3  -1    8.18    0.55 
  -5  -3  -1    7.60    0.49 
  -5  -3  -1    8.10    0.48 
  -5  -3  -1    7.81    0.45 
  -5  -3  -1    7.59    0.68 
  -5  -3  -1    6.73    0.48 
   5  -3   1    7.93    0.41 
  -5   3  -1    7.75    0.40 
  -5   3  -1    8.04    0.39 
  -5   3  -1    8.13    0.39 
  -5   3  -1    8.57    0.45 
  -5   3  -1    8.16    0.40 
  -5   3  -1    7.98    0.40 
  -5   3  -1    8.47    0.59 
   5   3   1    8.59    0.45 
  -5   3  -1    7.81    0.39 
  -6  -3  -1    1.47    0.16 
  -6  -3  -1    1.33    0.17 
  -6  -3  -1    1.08    0.27 
  -6  -3  -1    1.33    0.14 
  -6  -3  -1    1.34    0.38 
  -6  -3  -1    0.93    0.15 
  -6  -3  -1    1.02    0.29 
  -6  -3  -1    1.25    0.18 
  -6   3  -1    0.68    0.26 
  -6   3  -1    1.19    0.09 
  -7  -4   1    0.00    0.03 
  -7  -4   1    0.02    0.03 
  -6  -4   1   25.73    1.35 
  -6  -4   1   25.16    1.24 
  -6  -4   1   26.49    1.37 
  -6  -4   1   23.52    1.27 
  -6  -4   1   27.26    1.24 
  -6  -4   1   25.95    1.23 
  -6  -4   1   25.64    1.23 
  -6  -4   1   26.29    1.41 
  -6  -4   1   23.63    1.33 
  -6  -4   1   25.14    1.24 
  -5  -4   1    4.06    0.66 
  -5  -4   1    3.71    0.41 
  -5  -4   1    3.45    0.30 
  -5  -4   1    3.76    0.43 
  -5  -4   1    4.07    0.37 
  -5  -4   1    4.01    0.32 
  -5  -4   1    3.57    0.30 
  -5  -4   1    3.91    0.47 
   5   4  -1    3.52    0.26 
  -4  -4   1   35.25    1.94 
  -4  -4   1   37.75    1.86 
  -4  -4   1   37.09    1.85 
  -4  -4   1   37.29    1.79 
  -4  -4   1   39.40    2.02 
   4  -4  -1   36.65    1.72 
  -4  -4   1   39.05    1.79 
  -4  -4   1   34.99    1.77 
  -4  -4   1   38.52    1.92 
  -4  -4   1   34.96    2.08 
   4   4  -1   34.67    1.92 
   4   4  -1   36.68    1.76 
  -4   4   1   35.15    1.76 
   4   4  -1   38.55    1.76 
  -4   4   1   34.11    1.78 
  -3  -4   1   41.79    2.00 
  -3  -4   1   37.64    1.93 
  -3  -4   1   41.28    2.07 
   3  -4  -1   43.90    1.93 
   3  -4  -1   39.78    2.00 
  -3  -4   1   39.56    1.90 
  -3  -4   1   42.94    2.21 
  -3  -4   1   43.52    2.04 
  -3  -4   1   34.83    2.03 
   3  -4  -1   41.44    1.85 
  -3  -4   1   38.98    1.93 
  -3   4   1   34.28    1.87 
   3   4  -1   39.24    2.01 
   3   4  -1   39.09    1.88 
  -3   4   1   37.68    1.89 
  -3   4   1   38.23    1.92 
   3   4  -1   38.39    1.87 
  -3   4   1   38.81    1.87 
   3   4  -1   38.61    2.25 
   2  -4  -1   22.65    1.26 
   2  -4  -1   22.11    1.14 
  -2  -4   1   20.18    1.43 
   2  -4  -1   23.12    1.07 
  -2  -4   1   22.93    1.35 
  -2  -4   1   23.11    1.11 
   2   4  -1   22.76    1.22 
   2   4  -1   22.43    1.20 
   2   4  -1   22.21    1.09 
  -2   4   1   25.07    1.13 
   2   4  -1   20.75    1.37 
  -2   4   1   21.64    1.14 
  -2   4   1   22.85    1.11 
  -2   4   1   21.66    1.25 
   2   4  -1   24.67    1.14 
   2   4  -1   21.83    1.08 
  -2   4   1   23.54    1.11 
   1  -4  -1   46.52    2.16 
  -1  -4   1   43.84    2.32 
  -1  -4   1   43.63    2.13 
   1  -4  -1   43.68    2.29 
   1  -4  -1   45.10    2.18 
   1  -4  -1   42.55    2.18 
  -1  -4   1   44.36    2.19 
  -1  -4   1   47.82    2.20 
  -1  -4   1   47.21    2.55 
   1  -4  -1   44.03    2.17 
  -1   4   1   44.14    2.23 
   1   4  -1   45.46    2.37 
   1   4  -1   49.45    2.20 
   1   4  -1   39.71    2.19 
  -1   4   1   45.71    2.25 
   1   4  -1   45.03    2.20 
  -1   4   1   40.63    2.23 
   1   4  -1   42.84    2.13 
  -1   4   1   43.97    2.12 
   1   4  -1   46.74    2.35 
  -1   4   1   41.59    2.27 
   0  -4  -1  422.32   19.51 
   0  -4  -1  386.21   19.48 
   0  -4   1  421.18   19.43 
   0  -4   1  408.79   19.63 
   0  -4   1  422.05   19.51 
   0  -4  -1  386.88   19.43 
   0  -4   1  402.58   19.49 
   0  -4  -1  408.57   19.51 
   0  -4  -1  434.90   19.64 
   0  -4   1  396.75   19.50 
   0  -4   1  421.86   19.44 
   0   4  -1  402.56   19.60 
   0   4   1  427.09   19.50 
   0   4   1  429.89   19.61 
   0   4   1  423.49   19.50 
   0   4  -1  414.24   19.57 
   0   4   1  385.28   19.57 
   0   4  -1  412.75   19.58 
   0   4  -1  451.10   19.50 
   0   4   1  409.05   19.42 
   0   4  -1  441.65   19.44 
   0   4   1  412.40   19.58 
   0   4  -1  434.67   19.66 
   0   4   1  414.15   19.48 
   0   4  -1  432.40   19.58 
   0   4  -1  424.89   19.50 
   0   4   1  461.00   19.61 
   1  -4   1   11.37    0.65 
   1  -4   1   11.76    0.60 
   1  -4   1   10.27    0.67 
  -1  -4  -1   12.12    1.02 
  -1  -4  -1   11.75    0.62 
  -1  -4  -1   11.37    0.80 
  -1  -4  -1   11.98    0.69 
   1  -4   1   11.39    0.67 
  -1  -4  -1   11.09    0.67 
   1  -4   1   10.86    0.77 
  -1   4  -1   11.14    0.76 
   1   4   1   11.77    0.62 
   1   4   1   12.55    0.83 
   1   4   1   11.15    0.71 
  -1   4  -1   11.56    0.71 
   1   4   1   10.79    0.70 
  -1   4  -1   11.22    0.70 
   1   4   1   12.13    0.71 
  -1   4  -1   10.86    0.73 
   1   4   1   11.70    0.82 
  -1   4  -1   11.55    0.61 
  -2  -4  -1   45.12    2.24 
   2  -4   1   47.13    2.21 
   2  -4   1   51.17    2.44 
  -2  -4  -1   45.52    2.50 
  -2  -4  -1   40.23    2.58 
   2  -4   1   48.24    2.29 
   2   4   1   45.07    2.22 
  -2   4  -1   49.33    2.27 
   2   4   1   48.91    2.37 
  -2   4  -1   47.97    2.26 
  -2   4  -1   50.45    2.42 
   2   4   1   44.67    2.50 
   2   4   1   49.75    2.54 
   2   4   1   44.33    2.27 
  -2   4  -1   45.89    2.34 
  -2   4  -1   46.94    2.26 
   2   4   1   46.02    2.35 
   2   4   1   49.73    2.22 
  -3  -4  -1   18.77    1.21 
  -3  -4  -1   17.42    0.96 
  -3  -4  -1   17.43    1.04 
  -3  -4  -1   17.50    0.94 
  -3  -4  -1   17.58    0.92 
  -3  -4  -1   18.14    0.97 
   3  -4   1   17.76    0.96 
   3  -4   1   18.16    0.86 
   3   4   1   16.78    0.89 
  -3   4  -1   17.89    0.92 
  -3   4  -1   18.29    0.89 
   3   4   1   18.10    1.05 
  -3   4  -1   17.96    1.06 
   3   4   1   17.76    0.88 
  -3   4  -1   18.53    0.98 
  -4  -4  -1   51.89    2.38 
   4  -4   1   48.22    2.33 
  -4  -4  -1   48.64    2.60 
  -4  -4  -1   52.18    2.47 
  -4  -4  -1   47.67    2.38 
  -4  -4  -1   53.32    2.53 
  -4  -4  -1   47.00    2.39 
  -4  -4  -1   52.81    2.76 
  -4  -4  -1   49.70    2.44 
   4  -4   1   47.15    2.43 
  -4  -4  -1   48.53    2.39 
   4   4   1   52.45    2.37 
   4   4   1   46.74    2.35 
   4   4   1   54.18    2.59 
  -4   4  -1   49.55    2.39 
  -4   4  -1   42.75    2.51 
  -5  -4  -1   12.52    0.80 
  -5  -4  -1   13.79    0.82 
  -5  -4  -1   12.19    0.74 
  -5  -4  -1   12.32    0.66 
  -5  -4  -1   12.00    0.68 
  -5  -4  -1   13.75    0.83 
  -5  -4  -1   12.79    0.70 
  -5  -4  -1   11.80    0.70 
  -5  -4  -1   12.84    0.81 
  -5  -4  -1   12.30    0.68 
  -5  -4  -1   12.72    0.80 
  -5  -4  -1   11.70    0.70 
  -5  -4  -1   12.78    0.69 
  -5   4  -1   12.89    0.66 
  -5   4  -1   12.42    0.79 
  -5   4  -1   12.64    0.61 
  -5   4  -1   11.86    0.60 
  -5   4  -1   12.73    0.61 
  -5   4  -1   12.94    0.61 
  -5   4  -1   13.16    0.61 
  -5   4  -1   12.49    0.61 
  -6  -4  -1    2.41    0.22 
  -6  -4  -1    2.73    0.27 
  -6  -4  -1    2.59    0.40 
  -6  -4  -1    2.51    0.19 
  -6  -4  -1    2.20    0.19 
  -6  -4  -1    2.45    0.39 
  -6  -4  -1    2.70    0.20 
  -6  -4  -1    2.35    0.22 
  -6  -4  -1    2.24    0.25 
  -6  -4  -1    2.52    0.40 
  -6   4  -1    2.33    0.13 
  -6  -5   1    5.72    0.39 
  -6  -5   1    6.34    0.35 
  -6  -5   1    6.36    0.51 
  -6  -5   1    6.03    0.51 
  -6  -5   1    5.99    0.39 
  -6  -5   1    6.38    0.37 
  -6  -5   1    6.58    0.60 
  -6  -5   1    6.14    0.37 
  -6  -5   1    5.70    0.44 
  -6  -5   1    5.39    0.52 
  -5  -5   1    1.43    0.37 
  -5  -5   1    1.55    0.26 
  -5  -5   1    1.34    0.24 
  -5  -5   1    0.67    0.24 
  -5  -5   1    1.46    0.24 
  -5  -5   1    1.06    0.28 
  -5  -5   1    1.23    0.33 
  -5  -5   1    1.25    0.26 
  -5  -5   1    2.30    0.52 
  -5  -5   1    1.11    0.27 
  -5  -5   1    1.46    0.24 
  -5  -5   1    1.43    0.32 
  -5  -5   1    1.25    0.43 
  -5  -5   1    1.41    0.23 
  -5  -5   1    1.32    0.20 
  -5   5   1    1.23    0.08 
  -5   5   1    1.37    0.10 
  -5   5   1    1.27    0.10 
   5   5  -1    1.48    0.21 
  -5   5   1    1.43    0.08 
  -5   5   1    1.44    0.10 
  -5   5   1    0.97    0.15 
  -5   5   1    1.54    0.16 
  -5   5   1    0.83    0.32 
   4  -5  -1   23.39    1.06 
  -4  -5   1   18.25    1.26 
  -4  -5   1   21.16    1.28 
  -4  -5   1   20.71    1.11 
  -4  -5   1   22.09    1.15 
  -4  -5   1   22.84    1.20 
   4  -5  -1   21.85    1.17 
  -4  -5   1   23.72    1.14 
  -4  -5   1   18.11    1.24 
  -4  -5   1   24.43    1.36 
  -4  -5   1   18.42    1.42 
  -4  -5   1   22.31    1.14 
  -4   5   1   25.11    1.12 
   4   5  -1   22.99    1.09 
   4   5  -1   23.63    1.32 
   4   5  -1   22.04    1.10 
  -4   5   1   21.96    1.13 
   3  -5  -1    1.22    0.11 
  -3  -5   1    1.43    0.27 
  -3  -5   1    0.95    0.33 
  -3  -5   1    1.22    0.34 
  -3  -5   1    1.04    0.20 
  -3  -5   1    1.32    0.46 
  -3  -5   1    0.98    0.30 
  -3  -5   1    1.34    0.36 
   3  -5  -1    1.38    0.23 
  -3  -5   1    1.16    0.25 
  -3   5   1    0.97    0.17 
  -3   5   1    1.00    0.20 
  -3   5   1    1.14    0.19 
   3   5  -1    1.06    0.33 
  -3   5   1    1.57    0.34 
  -3   5   1    1.29    0.33 
   3   5  -1    1.40    0.17 
   3   5  -1    1.16    0.15 
  -3   5   1    1.17    0.18 
   3   5  -1    1.63    0.52 
  -3   5   1    1.23    0.35 
  -2  -5   1    9.86    0.55 
   2  -5  -1   10.39    0.51 
   2  -5  -1   10.13    0.75 
  -2  -5   1   10.57    0.67 
   2  -5  -1    9.99    0.63 
  -2  -5   1    8.24    0.92 
  -2  -5   1   10.83    0.83 
  -2  -5   1   10.38    0.57 
   2  -5  -1   10.19    0.52 
   2   5  -1   10.75    0.71 
  -2   5   1   10.56    0.58 
   2   5  -1   10.52    0.53 
   2   5  -1    9.97    0.69 
   2   5  -1   10.83    0.88 
  -2   5   1   10.39    0.77 
  -2   5   1   11.12    0.58 
  -2   5   1   10.15    0.61 
  -2   5   1   10.07    0.62 
  -2   5   1   11.50    0.77 
  -1  -5   1   47.77    2.40 
   1  -5  -1   49.19    2.54 
   1  -5  -1   41.52    2.26 
  -1  -5   1   48.38    2.55 
   1  -5  -1   48.47    2.39 
   1  -5  -1   51.44    2.38 
  -1  -5   1   46.92    2.39 
  -1   5   1   48.29    2.47 
  -1   5   1   46.73    2.30 
  -1   5   1   47.92    2.45 
   1   5  -1   49.68    2.50 
  -1   5   1   49.67    2.49 
  -1   5   1   49.13    2.52 
   1   5  -1   48.13    2.41 
   1   5  -1   48.86    2.56 
   0  -5  -1   61.97    3.19 
   0  -5   1   69.43    3.23 
   0  -5   1   59.61    3.18 
   0  -5  -1   65.29    3.39 
   0  -5  -1   70.08    3.23 
   0  -5   1   64.47    3.36 
   0   5   1   68.02    3.31 
   0   5   1   65.11    3.10 
   0   5   1   72.09    3.34 
   0   5  -1   58.11    3.32 
   0   5   1   64.34    3.19 
   0   5   1   69.34    3.21 
   0   5  -1   69.67    3.31 
   0   5  -1   68.32    3.12 
   0   5   1   65.26    3.34 
   0   5  -1   66.59    3.30 
   0   5  -1   63.09    3.19 
   0   5  -1   63.25    3.19 
  -1  -5  -1   82.13    4.21 
  -1  -5  -1   94.87    4.32 
  -1  -5  -1   92.05    4.31 
  -1  -5  -1   92.82    4.30 
   1  -5   1   84.62    4.18 
   1  -5   1   91.97    4.22 
   1  -5   1   87.19    4.31 
   1  -5   1   91.94    4.46 
   1  -5   1   99.79    4.30 
  -1  -5  -1   89.92    4.48 
   1  -5   1   87.35    4.17 
  -1   5  -1   86.70    4.22 
   1   5   1   88.01    4.41 
   1   5   1   87.64    4.46 
  -1   5  -1   91.11    4.35 
  -1   5  -1   88.20    4.39 
  -1   5  -1   91.43    4.40 
  -1   5  -1   83.78    4.19 
   1   5   1   82.55    4.18 
   1   5   1   92.33    4.33 
  -1   5  -1   90.99    4.44 
  -2  -5  -1   78.38    3.83 
  -2  -5  -1   75.40    3.90 
  -2  -5  -1   86.05    4.38 
  -2  -5  -1   79.62    4.15 
   2  -5   1   78.68    3.80 
   2  -5   1   76.18    4.05 
   2  -5   1   84.27    3.79 
  -2  -5  -1   82.01    3.83 
   2  -5   1   89.36    3.92 
   2   5   1   80.94    3.98 
  -2   5  -1   79.84    3.96 
   2   5   1   76.91    4.15 
  -2   5  -1   86.18    3.89 
   2   5   1   84.41    3.81 
   2   5   1   77.99    4.14 
  -2   5  -1   80.34    3.85 
  -2   5  -1   78.42    4.04 
   2   5   1   83.76    3.97 
  -3  -5  -1   11.07    0.80 
  -3  -5  -1   11.34    0.67 
  -3  -5  -1   12.93    1.01 
   3  -5   1   11.09    0.72 
   3  -5   1   11.96    0.61 
  -3  -5  -1   12.06    0.72 
  -3  -5  -1   12.07    0.72 
  -3  -5  -1   12.26    0.73 
  -3  -5  -1   12.13    0.80 
   3   5   1   12.57    0.65 
  -3   5  -1   13.41    0.71 
  -3   5  -1   14.17    0.76 
  -3   5  -1   12.89    0.64 
  -3   5  -1   11.97    0.68 
   3   5   1   12.47    0.63 
   3   5   1   10.22    0.81 
  -3   5  -1   12.00    0.85 
  -3   5  -1   13.24    0.69 
   3   5   1    9.92    1.17 
  -4  -5  -1    5.11    0.41 
  -4  -5  -1    5.31    0.39 
  -4  -5  -1    5.65    0.42 
  -4  -5  -1    6.12    0.43 
  -4  -5  -1    5.63    0.49 
  -4  -5  -1    5.79    0.56 
  -4  -5  -1    5.21    0.47 
  -4  -5  -1    5.62    0.41 
   4  -5   1    5.62    0.31 
  -4  -5  -1    4.86    0.67 
   4   5   1    5.44    0.37 
   4   5   1    5.05    0.34 
  -4   5  -1    5.16    0.38 
  -5  -5  -1    6.99    0.51 
  -5  -5  -1    6.50    0.44 
  -5  -5  -1    7.05    0.55 
  -5  -5  -1    6.96    0.58 
  -5  -5  -1    6.29    0.54 
  -5  -5  -1    6.84    0.46 
  -5  -5  -1    6.60    0.40 
  -5  -5  -1    6.38    0.45 
  -5  -5  -1    6.26    0.45 
  -5  -5  -1    6.60    0.47 
  -5  -5  -1    6.69    0.58 
  -5  -5  -1    6.81    0.57 
  -5  -5  -1    6.52    0.43 
  -5  -5  -1    5.67    0.43 
  -5   5  -1    6.37    0.33 
  -5   5  -1    6.48    0.33 
  -5   5  -1    6.65    0.34 
  -5   5  -1    6.03    0.33 
  -5   5  -1    6.57    0.34 
  -5   5  -1    6.52    0.32 
  -6  -5  -1    4.67    0.32 
  -6  -5  -1    4.39    0.27 
  -6  -5  -1    4.45    0.30 
  -6  -5  -1    4.22    0.45 
  -6  -5  -1    4.41    0.44 
  -6  -5  -1    4.39    0.43 
  -6  -5  -1    4.63    0.31 
  -6  -5  -1    4.49    0.32 
  -6   5  -1    4.84    0.23 
  -6  -6   1   14.56    0.86 
  -6  -6   1   14.32    0.93 
  -6  -6   1   16.22    0.81 
  -6  -6   1   14.93    0.87 
  -6  -6   1   14.72    0.79 
  -6  -6   1   16.56    0.79 
  -6  -6   1   14.79    0.79 
  -6  -6   1   16.71    0.77 
  -6  -6   1   15.67    0.80 
  -6   6   1   15.25    0.73 
  -6   6   1   15.99    0.73 
  -5  -6   1    5.48    0.51 
  -5  -6   1    4.98    0.38 
  -5  -6   1    5.73    0.70 
  -5  -6   1    4.36    0.38 
  -5  -6   1    4.88    0.39 
  -5  -6   1    4.66    0.42 
  -5  -6   1    5.20    0.54 
  -5  -6   1    5.40    0.38 
  -5  -6   1    4.10    0.50 
  -5  -6   1    4.95    0.56 
  -5  -6   1    5.36    0.41 
  -5  -6   1    4.75    0.39 
  -5  -6   1    5.24    0.41 
  -5  -6   1    5.18    0.51 
  -5   6   1    4.15    0.62 
  -5   6   1    5.07    0.26 
  -5   6   1    4.79    0.26 
  -5   6   1    5.03    0.25 
  -5   6   1    5.12    0.27 
  -5   6   1    5.27    0.26 
  -5   6   1    4.78    0.26 
  -4  -6   1    3.74    0.52 
  -4  -6   1    3.95    0.37 
  -4  -6   1    3.29    0.35 
  -4  -6   1    3.59    0.34 
  -4  -6   1    4.09    0.38 
  -4  -6   1    3.29    0.63 
   4  -6  -1    3.75    0.24 
  -4  -6   1    3.85    0.24 
  -4  -6   1    3.79    0.43 
  -4  -6   1    3.79    0.43 
  -4  -6   1    4.06    0.56 
  -4  -6   1    3.80    0.53 
  -4  -6   1    3.74    0.34 
  -4  -6   1    3.64    0.46 
   4   6  -1    4.05    0.30 
  -4   6   1    3.70    0.34 
  -4   6   1    3.55    0.32 
  -4   6   1    3.93    0.29 
  -3  -6   1    0.55    0.47 
  -3  -6   1    0.28    0.17 
  -3  -6   1    0.52    0.17 
  -3  -6   1    0.36    0.22 
  -3  -6   1    0.11    0.22 
   3  -6  -1    0.87    0.27 
  -3  -6   1    0.48    0.30 
   3  -6  -1    0.37    0.09 
  -3  -6   1    0.54    0.31 
  -3  -6   1    0.19    0.12 
  -3  -6   1    0.43    0.15 
  -3  -6   1    0.30    0.20 
  -3   6   1    0.86    0.36 
   3   6  -1    0.33    0.12 
  -3   6   1    0.51    0.16 
  -3   6   1    0.66    0.37 
  -3   6   1    0.39    0.25 
   3   6  -1    0.36    0.31 
  -3   6   1    0.44    0.15 
  -3   6   1    0.48    0.15 
  -3   6   1    0.38    0.13 
   3   6  -1    0.19    0.27 
  -2  -6   1    7.66    0.78 
  -2  -6   1    8.06    0.60 
  -2  -6   1    7.71    0.46 
  -2  -6   1    8.54    0.95 
  -2  -6   1    8.09    0.56 
   2  -6  -1    7.51    0.56 
   2  -6  -1    7.22    0.42 
   2  -6  -1    7.95    0.42 
  -2  -6   1    7.72    0.48 
   2   6  -1    8.18    0.65 
  -2   6   1    7.82    0.54 
   2   6  -1    7.78    0.59 
  -2   6   1    8.25    0.46 
  -2   6   1    7.62    0.54 
  -2   6   1    6.93    0.59 
   2   6  -1    7.56    0.80 
   2   6  -1    7.45    0.44 
  -2   6   1    9.08    0.74 
  -2   6   1    7.47    0.50 
  -2   6   1    8.32    0.50 
  -2   6   1    8.24    0.48 
  -2   6   1    8.03    0.67 
  -1  -6   1   13.16    0.86 
  -1  -6   1   13.47    0.74 
   1  -6  -1   14.99    1.03 
   1  -6  -1   13.45    0.70 
   1  -6  -1   14.46    0.84 
   1  -6  -1   13.46    0.86 
   1  -6  -1   14.45    0.70 
  -1  -6   1   14.10    0.87 
  -1  -6   1   13.94    0.74 
  -1   6   1   15.02    0.94 
   1   6  -1   14.00    0.74 
   1   6  -1   13.76    0.70 
   1   6  -1   13.07    0.82 
  -1   6   1   14.16    0.74 
  -1   6   1   13.62    0.96 
   1   6  -1   14.04    0.96 
  -1   6   1   13.45    0.72 
  -1   6   1   15.32    1.03 
   1   6  -1   14.01    0.88 
   1   6  -1   14.25    1.02 
   1   6  -1   13.13    0.74 
   0  -6   1   52.59    2.66 
   0  -6   1   50.48    2.64 
   0  -6   1   52.15    2.50 
   0  -6  -1   53.79    2.67 
   0  -6  -1   53.39    2.65 
   0  -6  -1   54.06    2.50 
   0   6  -1   55.83    2.85 
   0   6  -1   52.07    2.63 
   0   6  -1   50.36    2.52 
   0   6  -1   51.28    2.53 
   0   6   1   54.43    2.64 
   0   6  -1   50.10    2.54 
   0   6   1   55.70    2.85 
   0   6   1   53.50    2.60 
   0   6   1   50.43    2.53 
   0   6   1   54.88    2.79 
   0   6   1   55.27    2.79 
   0   6  -1   51.78    2.60 
   0   6  -1   54.78    2.78 
   1  -6   1   59.94    3.01 
   1  -6   1   54.41    2.84 
  -1  -6  -1   64.63    3.01 
   1  -6   1   61.74    2.85 
  -1  -6  -1   62.51    2.89 
   1  -6   1   64.07    2.99 
  -1  -6  -1   57.18    2.88 
  -1  -6  -1   66.34    3.03 
  -1   6  -1   64.77    3.08 
  -1   6  -1   59.01    2.86 
  -1   6  -1   63.52    3.13 
   1   6   1   58.08    2.97 
  -1   6  -1   63.07    3.19 
   1   6   1   60.81    3.19 
  -1   6  -1   61.05    2.86 
  -1   6  -1   58.79    2.89 
   1   6   1   59.41    3.02 
   1   6   1   57.57    2.85 
   1   6   1   55.97    2.88 
   1   6   1   55.64    3.10 
   2  -6   1   34.42    1.69 
  -2  -6  -1   34.67    1.84 
  -2  -6  -1   39.23    1.90 
  -2  -6  -1   35.74    1.76 
  -2  -6  -1   35.53    1.81 
   2  -6   1   34.34    1.83 
  -2  -6  -1   33.99    2.31 
   2  -6   1   35.76    1.69 
  -2  -6  -1   33.34    1.73 
  -2  -6  -1   36.94    2.12 
  -2  -6  -1   34.91    1.83 
  -2  -6  -1   36.14    1.73 
  -2  -6  -1   35.25    1.74 
   2   6   1   35.47    1.71 
  -2   6  -1   35.54    1.86 
  -2   6  -1   37.08    2.02 
  -2   6  -1   37.83    1.98 
  -2   6  -1   36.54    1.72 
  -2   6  -1   34.65    1.84 
   2   6   1   36.13    1.86 
   2   6   1   35.08    1.92 
  -2   6  -1   33.90    1.74 
   2   6   1   35.61    2.12 
  -2   6  -1   35.32    1.76 
  -2   6  -1   33.28    1.74 
  -3  -6  -1    2.13    0.26 
  -3  -6  -1    2.16    0.33 
  -3  -6  -1    2.00    0.53 
  -3  -6  -1    3.11    0.39 
  -3  -6  -1    2.15    0.34 
   3  -6   1    1.75    0.32 
   3  -6   1    2.36    0.18 
  -3  -6  -1    1.61    0.36 
  -3  -6  -1    2.31    0.28 
  -3  -6  -1    1.83    0.43 
  -3  -6  -1    1.45    0.40 
   3   6   1    2.35    0.47 
  -3   6  -1    1.90    0.21 
  -3   6  -1    1.93    0.30 
   3   6   1    2.52    0.24 
  -3   6  -1    1.99    0.37 
  -3   6  -1    1.95    0.40 
  -3   6  -1    1.93    0.22 
   3   6   1    1.35    0.42 
  -3   6  -1    2.26    0.28 
  -3   6  -1    1.99    0.27 
  -4  -6  -1    8.16    0.63 
  -4  -6  -1    8.57    0.55 
  -4  -6  -1    8.46    0.63 
   4  -6   1    8.28    0.45 
  -4  -6  -1    8.64    0.54 
  -4  -6  -1    8.21    0.71 
  -4  -6  -1    7.55    0.56 
  -4  -6  -1    8.54    0.63 
  -4  -6  -1    8.30    0.57 
  -4  -6  -1    8.37    0.57 
  -4   6  -1   10.08    0.70 
  -4   6  -1    8.40    0.54 
  -4   6  -1    7.78    0.47 
   4   6   1    8.10    0.50 
  -4   6  -1    8.15    0.48 
  -5  -6  -1    2.52    0.29 
  -5  -6  -1    2.81    0.30 
  -5  -6  -1    2.88    0.31 
  -5  -6  -1    2.44    0.35 
  -5  -6  -1    2.86    0.43 
  -5  -6  -1    3.09    0.33 
  -5  -6  -1    2.73    0.43 
  -5  -6  -1    2.81    0.34 
  -5  -6  -1    2.94    0.45 
  -5  -6  -1    2.85    0.44 
  -5  -6  -1    3.06    0.33 
  -5  -6  -1    3.84    0.47 
  -5  -6  -1    3.12    0.30 
  -5   6  -1    2.71    0.18 
  -5   6  -1    2.95    0.17 
  -5   6  -1    2.95    0.17 
  -5   6  -1    2.92    0.25 
  -5   6  -1    2.80    0.18 
  -5   6  -1    3.05    0.18 
  -5   6  -1    2.85    0.17 
  -6  -6  -1    4.15    0.33 
  -6  -6  -1    4.67    0.41 
  -6  -6  -1    3.81    0.40 
  -6  -6  -1    4.41    0.27 
  -6  -6  -1    5.40    0.49 
  -6  -6  -1    4.04    0.30 
  -6  -6  -1    3.97    0.27 
  -6  -6  -1    3.92    0.29 
  -6  -6  -1    4.13    0.25 
  -6   6  -1    3.70    0.20 
  -6  -7   1    0.71    0.16 
  -6  -7   1    0.90    0.24 
  -6  -7   1    0.76    0.19 
  -6  -7   1    0.67    0.12 
  -6  -7   1    0.69    0.26 
  -6  -7   1    1.21    0.27 
  -6  -7   1    0.76    0.15 
  -6  -7   1    0.73    0.14 
  -6   7   1    0.72    0.06 
   6   7  -1    0.78    0.17 
  -5  -7   1    2.99    0.43 
  -5  -7   1    2.61    0.40 
  -5  -7   1    3.06    0.31 
  -5  -7   1    2.86    0.35 
  -5  -7   1    2.23    0.35 
  -5  -7   1    2.97    0.30 
  -5  -7   1    3.29    0.34 
  -5  -7   1    3.17    0.31 
  -5  -7   1    2.47    0.51 
  -5  -7   1    3.15    0.53 
  -5  -7   1    2.87    0.33 
  -5  -7   1    2.95    0.32 
  -5  -7   1    2.60    0.33 
  -5  -7   1    3.76    0.48 
   5   7  -1    2.87    0.32 
  -5   7   1    2.96    0.18 
  -5   7   1    2.82    0.17 
  -5   7   1    3.18    0.18 
  -5   7   1    3.12    0.18 
  -5   7   1    2.81    0.19 
  -5   7   1    3.09    0.55 
  -5   7   1    3.15    0.18 
  -5   7   1    2.74    0.18 
  -4  -7   1   29.48    1.44 
  -4  -7   1   27.98    1.70 
  -4  -7   1   30.14    1.55 
  -4  -7   1   27.66    1.52 
   4  -7  -1   29.86    1.45 
  -4  -7   1   30.10    1.51 
  -4  -7   1   33.02    1.59 
  -4  -7   1   29.85    1.56 
  -4  -7   1   31.51    1.74 
  -4  -7   1   30.18    1.53 
  -4  -7   1   28.80    1.59 
  -4   7   1   28.50    1.52 
  -4   7   1   31.41    1.47 
   4   7  -1   31.10    1.49 
  -4   7   1   30.78    1.50 
  -3  -7   1   24.03    1.26 
  -3  -7   1   24.24    1.32 
  -3  -7   1   25.38    1.71 
  -3  -7   1   24.94    1.34 
  -3  -7   1   22.65    1.28 
  -3  -7   1   26.11    1.44 
  -3  -7   1   24.56    1.25 
  -3  -7   1   25.47    1.22 
   3  -7  -1   23.86    1.36 
  -3  -7   1   24.33    1.28 
   3  -7  -1   23.62    1.19 
  -3  -7   1   23.59    1.22 
  -3   7   1   24.80    1.23 
  -3   7   1   24.56    1.20 
  -3   7   1   23.20    1.27 
  -3   7   1   26.19    1.30 
   3   7  -1   25.14    1.21 
  -3   7   1   24.41    1.42 
   3   7  -1   20.87    1.44 
  -3   7   1   24.16    1.52 
  -3   7   1   25.81    1.40 
  -3   7   1   23.33    1.19 
  -2  -7   1  100.33    4.42 
  -2  -7   1   94.84    4.87 
   2  -7  -1   95.37    4.38 
  -2  -7   1   98.27    4.50 
   2  -7  -1   92.07    4.54 
  -2  -7   1   94.45    4.53 
  -2  -7   1   93.71    4.42 
  -2  -7   1   85.77    4.53 
  -2   7   1   94.98    4.53 
  -2   7   1   77.46    4.53 
  -2   7   1   91.57    4.41 
   2   7  -1   95.70    4.63 
  -2   7   1   93.62    4.52 
  -2   7   1   97.95    4.59 
  -2   7   1   93.17    4.70 
   2   7  -1   90.88    4.54 
  -2   7   1   93.74    4.43 
  -2   7   1   91.13    4.43 
  -2   7   1   95.23    4.44 
   2   7  -1   97.87    4.39 
  -2   7   1   93.52    4.74 
   2   7  -1   86.81    4.82 
  -1  -7   1   20.09    1.11 
  -1  -7   1   20.22    1.24 
  -1  -7   1   23.58    1.11 
   1  -7  -1   21.72    1.26 
   1  -7  -1   22.43    1.06 
  -1  -7   1   20.82    1.10 
  -1  -7   1   22.97    1.26 
   1  -7  -1   18.30    1.47 
   1  -7  -1   22.33    1.23 
  -1  -7   1   21.46    1.18 
  -1   7   1   21.82    1.36 
  -1   7   1   23.25    1.46 
   1   7  -1   21.71    1.20 
   1   7  -1   18.26    1.13 
  -1   7   1   20.57    1.10 
  -1   7   1   21.13    1.12 
  -1   7   1   20.23    1.07 
  -1   7   1   21.27    1.07 
   1   7  -1   22.20    1.38 
  -1   7   1   22.20    1.14 
   1   7  -1   20.74    1.40 
   1   7  -1   23.34    1.27 
   1   7  -1   21.49    1.10 
  -1   7   1   22.64    1.34 
   1   7  -1   21.39    1.10 
   1   7  -1   19.72    1.14 
  -1   7   1   22.27    1.10 
  -1   7   1   21.46    1.23 
   0  -7   1   38.75    1.75 
   0  -7  -1   35.39    1.75 
   0  -7  -1   35.90    1.93 
   0  -7  -1   34.79    1.94 
   0  -7   1   39.62    1.97 
   0  -7   1   35.52    1.92 
   0   7  -1   36.72    2.08 
   0   7   1   35.70    1.87 
   0   7   1   38.54    2.11 
   0   7  -1   38.28    2.16 
   0   7  -1   34.83    1.86 
   0   7   1   36.19    1.79 
   0   7   1   38.27    1.79 
   0   7  -1   36.88    1.90 
   0   7  -1   36.16    1.80 
   0   7   1   37.92    2.09 
   0   7   1   36.24    1.82 
   0   7  -1   32.17    1.77 
   0   7  -1   36.73    1.78 
   0   7  -1   34.87    1.78 
   0   7   1   35.60    2.13 
   0   7  -1   37.00    1.83 
   1  -7   1   10.07    0.72 
  -1  -7  -1    8.52    0.62 
  -1  -7  -1    9.83    0.59 
  -1  -7  -1    9.64    0.70 
  -1  -7  -1    9.17    0.71 
   1  -7   1    9.67    0.68 
  -1  -7  -1    8.47    0.55 
  -1  -7  -1    9.48    0.57 
   1  -7   1    9.65    0.51 
  -1   7  -1    9.44    0.79 
  -1   7  -1    8.37    0.73 
  -1   7  -1    9.65    0.59 
  -1   7  -1    8.83    0.54 
  -1   7  -1    8.93    0.84 
  -1   7  -1    9.63    0.52 
   1   7   1    9.98    0.73 
  -1   7  -1    9.11    0.61 
   1   7   1    9.51    0.69 
   1   7   1   10.58    0.86 
   1   7   1    9.74    0.87 
  -1   7  -1    9.10    0.56 
  -1   7  -1    9.48    0.68 
   1   7   1    9.36    0.70 
  -1   7  -1    9.35    0.53 
   1   7   1    9.72    0.52 
   1   7   1    9.16    0.56 
   2  -7   1    7.62    0.40 
  -2  -7  -1    6.03    0.77 
  -2  -7  -1    7.03    0.47 
   2  -7   1    7.04    0.56 
  -2  -7  -1    6.64    0.47 
  -2  -7  -1    6.20    0.43 
   2  -7   1    7.15    0.39 
  -2  -7  -1    6.99    0.59 
  -2  -7  -1    6.08    0.53 
  -2  -7  -1    6.59    0.59 
  -2   7  -1    6.34    0.47 
  -2   7  -1    7.08    0.48 
  -2   7  -1    5.24    0.51 
   2   7   1    6.16    0.62 
  -2   7  -1    7.17    0.44 
  -2   7  -1    6.61    0.52 
  -2   7  -1    6.35    0.47 
  -2   7  -1    7.35    0.71 
   2   7   1    7.04    0.62 
   2   7   1    6.92    0.41 
  -2   7  -1    7.68    0.60 
  -2   7  -1    6.73    0.60 
  -2   7  -1    6.75    0.68 
  -3  -7  -1   11.52    1.12 
  -3  -7  -1   12.01    0.74 
  -3  -7  -1   13.44    0.81 
  -3  -7  -1   11.47    0.75 
  -3  -7  -1   12.17    0.72 
  -3  -7  -1   14.05    0.85 
  -3  -7  -1   13.11    0.80 
  -3  -7  -1   13.42    0.80 
   3  -7   1   13.44    0.66 
  -3   7  -1   14.23    0.71 
  -3   7  -1   12.00    0.87 
   3   7   1   12.74    0.69 
  -3   7  -1   11.66    1.00 
  -3   7  -1   11.94    0.67 
  -3   7  -1   13.09    0.77 
  -3   7  -1   13.26    0.98 
  -3   7  -1   13.41    0.83 
  -3   7  -1   12.12    0.71 
  -4  -7  -1    2.22    0.20 
  -4  -7  -1    1.83    0.38 
  -4  -7  -1    2.70    0.37 
  -4  -7  -1    2.47    0.34 
  -4  -7  -1    3.31    0.37 
  -4  -7  -1    2.55    0.41 
  -4  -7  -1    1.78    0.56 
  -4  -7  -1    2.03    0.49 
  -4  -7  -1    2.94    0.45 
  -4  -7  -1    3.00    0.28 
  -4  -7  -1    2.09    0.33 
  -4  -7  -1    1.77    0.37 
  -4  -7  -1    2.90    0.43 
  -4  -7  -1    2.01    0.41 
  -4  -7  -1    3.70    0.56 
  -4  -7  -1    1.99    0.35 
  -4  -7  -1    2.09    0.40 
  -4  -7  -1    2.02    0.37 
  -4  -7  -1    2.41    0.22 
  -4  -7  -1    1.90    0.32 
  -4  -7  -1    2.25    0.35 
  -4   7  -1    2.09    0.24 
  -4   7  -1    2.01    0.28 
   4   7   1    2.80    0.36 
  -4   7  -1    2.23    0.37 
  -4   7  -1    2.40    0.26 
  -4   7  -1    2.32    0.21 
  -4   7  -1    2.27    0.22 
  -4   7  -1    2.10    0.18 
   4   7   1    1.95    0.26 
  -4   7  -1    2.49    0.57 
  -5  -7  -1    1.84    0.48 
  -5  -7  -1    2.43    0.30 
  -5  -7  -1    1.89    0.28 
  -5  -7  -1    1.61    0.31 
  -5  -7  -1    2.35    0.32 
  -5  -7  -1    1.95    0.38 
  -5  -7  -1    2.60    0.37 
  -5  -7  -1    2.61    0.41 
  -5  -7  -1    2.10    0.27 
  -5  -7  -1    1.77    0.32 
  -5  -7  -1    1.75    0.43 
  -5  -7  -1    2.28    0.27 
  -5  -7  -1    2.01    0.33 
  -5   7  -1    2.06    0.15 
  -5   7  -1    2.00    0.15 
  -5   7  -1    2.01    0.15 
   5   7   1    1.88    0.31 
  -5   7  -1    1.90    0.14 
  -5   7  -1    2.11    0.15 
  -5   7  -1    2.15    0.14 
  -5   7  -1    2.26    0.13 
  -6  -7  -1    1.24    0.16 
  -6  -7  -1    1.71    0.22 
  -6  -7  -1    1.61    0.27 
  -6  -7  -1    1.43    0.14 
  -6  -7  -1    1.40    0.16 
  -6  -7  -1    1.51    0.20 
  -6  -7  -1    1.73    0.28 
   6   7   1    1.40    0.20 
  -6   7  -1    1.50    0.08 
  -6   7  -1    1.53    0.08 
  -6  -8   1    1.06    0.17 
  -6  -8   1    1.02    0.15 
  -6  -8   1    0.99    0.13 
  -6  -8   1    1.09    0.14 
  -6  -8   1    1.03    0.26 
  -6  -8   1    0.93    0.19 
   6   8  -1    1.02    0.18 
  -6   8   1    1.08    0.07 
  -6   8   1    1.08    0.07 
  -5  -8   1   10.08    0.61 
  -5  -8   1    9.55    0.60 
  -5  -8   1    9.74    0.58 
  -5  -8   1   10.66    0.62 
  -5  -8   1   10.84    0.58 
  -5  -8   1    9.58    0.60 
  -5  -8   1   10.31    0.75 
  -5  -8   1   10.41    0.59 
  -5  -8   1    8.47    0.61 
  -5   8   1    9.73    0.50 
  -5   8   1    9.86    0.49 
  -5   8   1   10.48    0.49 
  -5   8   1    9.97    0.50 
  -5   8   1   10.27    0.50 
   5   8  -1    9.69    0.59 
  -5   8   1   10.10    0.50 
  -5   8   1   11.32    0.81 
  -4  -8   1   16.12    1.05 
  -4  -8   1   13.35    0.79 
  -4  -8   1   13.33    0.84 
  -4  -8   1   15.83    0.89 
  -4  -8   1   14.45    1.06 
  -4  -8   1   15.86    0.89 
  -4  -8   1   15.55    1.00 
  -4  -8   1   15.32    0.83 
  -4  -8   1   13.00    0.88 
  -4  -8   1   15.08    0.76 
  -4  -8   1   15.49    0.77 
  -4  -8   1   15.19    0.86 
  -4  -8   1   14.63    0.84 
  -4  -8   1   15.57    0.79 
  -4  -8   1   16.53    0.90 
  -4  -8   1   15.70    0.87 
  -4  -8   1   15.47    0.94 
  -4  -8   1   14.69    0.91 
  -4  -8   1   15.14    0.87 
  -4  -8   1   15.14    0.76 
  -4  -8   1   15.32    0.84 
  -4   8   1   13.97    0.78 
  -4   8   1   16.08    0.86 
  -4   8   1   15.05    0.79 
  -4   8   1   14.25    0.89 
  -4   8   1   14.84    0.96 
   4   8  -1   15.24    0.80 
  -4   8   1   15.57    0.75 
  -4   8   1   15.61    0.77 
   4   8  -1   13.55    0.88 
  -4   8   1   13.96    0.87 
   4   8  -1   14.48    0.82 
  -4   8   1   14.84    0.79 
   3  -8  -1   52.13    2.37 
  -3  -8   1   53.03    2.42 
  -3  -8   1   48.86    2.47 
  -3  -8   1   51.22    2.61 
  -3  -8   1   51.89    2.51 
  -3  -8   1   49.31    2.40 
  -3  -8   1   53.23    2.54 
  -3  -8   1   41.28    3.27 
   3  -8  -1   49.63    2.37 
  -3   8   1   50.35    2.37 
  -3   8   1   48.24    2.61 
  -3   8   1   51.16    2.41 
   3   8  -1   52.21    2.39 
  -3   8   1   48.84    2.39 
  -3   8   1   40.08    2.97 
  -3   8   1   48.53    2.48 
  -2  -8   1   52.58    2.61 
   2  -8  -1   52.39    2.56 
  -2  -8   1   51.77    2.73 
  -2  -8   1   53.28    2.65 
  -2  -8   1   55.07    2.77 
   2  -8  -1   56.33    2.77 
  -2  -8   1   55.36    2.61 
  -2  -8   1   52.17    2.69 
  -2   8   1   53.89    2.62 
  -2   8   1   53.94    2.57 
  -2   8   1   56.40    2.79 
   2   8  -1   55.20    2.76 
  -2   8   1   44.76    2.93 
  -2   8   1   54.59    2.62 
  -2   8   1   55.81    2.96 
  -2   8   1   51.83    2.60 
   2   8  -1   54.46    2.57 
  -2   8   1   55.06    2.60 
   2   8  -1   54.51    2.84 
  -1  -8   1  132.16    6.10 
   1  -8  -1  124.98    5.87 
  -1  -8   1  117.39    5.91 
  -1  -8   1  127.49    6.08 
  -1  -8   1  123.10    5.91 
   1  -8  -1  123.70    6.11 
  -1  -8   1  117.84    5.98 
  -1   8   1  126.26    5.89 
   1   8  -1  133.18    6.04 
   1   8  -1  131.23    5.95 
  -1   8   1  123.04    6.25 
  -1   8   1  118.71    5.95 
  -1   8   1  120.34    5.94 
  -1   8   1  130.93    5.89 
   1   8  -1  129.57    5.92 
   1   8  -1  119.22    5.96 
   1   8  -1  122.94    6.31 
  -1   8   1  120.29    6.18 
   1   8  -1  117.57    5.91 
   1   8  -1  131.47    6.28 
  -1   8   1  128.40    6.35 
  -1   8   1  129.07    5.91 
   1   8  -1  127.46    6.09 
  -1   8   1  125.84    6.06 
   0  -8   1   26.59    1.57 
   0  -8  -1   26.08    1.54 
   0  -8   1   27.26    1.34 
   0  -8  -1   27.39    1.34 
   0  -8   1   27.04    1.55 
   0  -8  -1   25.39    1.56 
   0   8  -1   27.07    1.38 
   0   8  -1   27.69    1.72 
   0   8  -1   26.82    1.50 
   0   8   1   27.41    1.49 
   0   8  -1   26.11    1.39 
   0   8   1   27.38    1.36 
   0   8  -1   27.71    1.39 
   0   8   1   25.31    2.02 
   0   8  -1   30.91    2.04 
   0   8   1   28.95    1.75 
   0   8   1   28.80    1.39 
   0   8  -1   27.30    1.43 
   0   8   1   25.83    1.43 
   0   8  -1   28.63    1.49 
   1  -8   1    2.97    0.47 
  -1  -8  -1    3.10    0.45 
   1  -8   1    2.79    0.23 
  -1  -8  -1    2.99    0.44 
  -1  -8  -1    3.07    0.33 
  -1  -8  -1    2.76    0.35 
  -1  -8  -1    3.23    0.47 
  -1  -8  -1    3.23    0.36 
   1   8   1    2.68    0.42 
   1   8   1    3.04    0.49 
  -1   8  -1    2.80    0.64 
  -1   8  -1    2.91    0.38 
  -1   8  -1    2.50    0.47 
  -1   8  -1    3.02    0.32 
   1   8   1    2.93    0.32 
  -1   8  -1    3.40    0.45 
  -1   8  -1    3.03    0.35 
  -1   8  -1    2.49    0.54 
  -1   8  -1    2.72    0.28 
   1   8   1    2.75    0.45 
  -1   8  -1    3.02    0.27 
  -1   8  -1    2.30    0.29 
  -2  -8  -1   28.60    1.49 
  -2  -8  -1   28.75    1.55 
  -2  -8  -1   28.22    1.45 
  -2  -8  -1   31.17    1.60 
   2  -8   1   29.87    1.39 
  -2  -8  -1   28.68    1.45 
   2  -8   1   24.42    1.56 
  -2  -8  -1   29.06    1.43 
  -2   8  -1   30.78    1.62 
  -2   8  -1   29.08    1.43 
  -2   8  -1   25.59    1.60 
  -2   8  -1   26.05    1.41 
  -2   8  -1   25.16    1.79 
  -2   8  -1   27.67    1.46 
   2   8   1   22.52    1.62 
   2   8   1   29.02    1.61 
  -2   8  -1   27.55    1.76 
  -2   8  -1   29.56    1.39 
   2   8   1   28.07    1.40 
  -2   8  -1   31.68    1.47 
  -3  -8  -1    3.84    0.46 
  -3  -8  -1    4.75    0.41 
   3  -8   1    4.00    0.29 
  -3  -8  -1    4.44    0.48 
  -3  -8  -1    4.77    0.53 
  -3  -8  -1    4.05    0.47 
  -3  -8  -1    4.68    0.44 
  -3  -8  -1    4.23    0.42 
   3  -8   1    4.51    0.31 
  -3   8  -1    4.07    0.32 
  -3   8  -1    4.69    0.56 
  -3   8  -1    4.17    0.55 
  -3   8  -1    4.20    0.36 
   3   8   1    3.98    0.34 
  -3   8  -1    3.93    0.41 
  -3   8  -1    4.27    0.34 
  -4  -8  -1    9.61    0.70 
  -4  -8  -1    9.95    0.62 
  -4  -8  -1   10.83    0.66 
  -4  -8  -1   10.80    0.68 
  -4  -8  -1    9.96    0.69 
  -4  -8  -1    9.82    0.80 
  -4  -8  -1   10.36    0.53 
  -4  -8  -1    9.77    0.64 
  -4  -8  -1   10.40    0.73 
  -4  -8  -1    9.66    0.63 
  -4  -8  -1    9.79    0.65 
  -4  -8  -1   11.01    0.68 
  -4  -8  -1   11.32    0.86 
  -4  -8  -1    9.80    0.65 
  -4  -8  -1    9.79    0.57 
  -4  -8  -1    9.47    0.68 
  -4  -8  -1   10.30    0.70 
  -4  -8  -1   10.76    0.54 
  -4  -8  -1    9.76    0.64 
  -4   8  -1   10.66    0.55 
   4   8   1    9.93    0.71 
  -4   8  -1    9.92    0.56 
  -4   8  -1   10.13    0.52 
   4   8   1    9.91    0.62 
  -4   8  -1    9.97    0.58 
  -4   8  -1    9.81    0.54 
  -4   8  -1   10.19    0.58 
  -5  -8  -1    3.76    0.36 
  -5  -8  -1    3.37    0.30 
  -5  -8  -1    3.53    0.35 
  -5  -8  -1    3.80    0.47 
  -5  -8  -1    3.67    0.32 
  -5  -8  -1    3.75    0.35 
  -5  -8  -1    3.63    0.40 
  -5  -8  -1    3.12    0.40 
  -5  -8  -1    3.72    0.32 
  -5  -8  -1    3.62    0.34 
  -5  -8  -1    4.07    0.33 
  -5   8  -1    3.68    0.21 
  -5   8  -1    3.89    0.21 
   5   8   1    3.77    0.51 
   5   8   1    4.17    0.33 
  -5   8  -1    3.31    0.21 
  -5   8  -1    3.67    0.21 
  -5   8  -1    3.88    0.20 
  -5  -9   1    7.21    0.48 
  -5  -9   1    7.82    0.47 
  -5  -9   1    7.77    0.50 
  -5  -9   1    7.90    0.62 
  -5  -9   1    6.96    0.47 
  -5  -9   1    6.78    0.45 
  -5  -9   1    6.89    0.47 
  -5   9   1    7.44    0.37 
  -5   9   1    7.22    0.36 
  -5   9   1    6.99    0.37 
  -5   9   1    7.62    0.37 
   5   9  -1    7.78    0.46 
  -5   9   1    7.45    0.37 
   5   9  -1    6.61    0.51 
  -4  -9   1   16.30    0.81 
  -4  -9   1   14.85    0.98 
  -4  -9   1   16.53    0.82 
  -4  -9   1   16.16    0.93 
  -4  -9   1   16.53    0.90 
  -4  -9   1   15.53    0.89 
  -4  -9   1   15.78    0.94 
  -4  -9   1   15.74    0.91 
  -4  -9   1   15.02    0.84 
  -4  -9   1   17.48    0.89 
  -4  -9   1   15.39    0.91 
  -4  -9   1   16.36    1.04 
  -4  -9   1   16.07    0.91 
  -4  -9   1   17.21    0.84 
  -4  -9   1   15.90    0.82 
  -4  -9   1   15.48    0.94 
  -4   9   1   16.55    0.84 
   4   9  -1   17.55    0.89 
  -4   9   1   15.95    0.83 
  -4   9   1   15.89    0.85 
  -4   9   1   16.12    0.81 
   4   9  -1   15.66    0.95 
  -4   9   1   17.92    0.85 
  -4   9   1   17.72    1.03 
  -4   9   1   16.31    0.94 
  -4   9   1   16.38    0.83 
  -3  -9   1    4.15    0.47 
  -3  -9   1    4.55    0.39 
  -3  -9   1    4.51    0.45 
  -3  -9   1    4.88    0.46 
  -3  -9   1    4.18    0.37 
  -3  -9   1    4.77    0.51 
  -3  -9   1    4.53    0.65 
   3  -9  -1    3.37    0.39 
  -3  -9   1    3.78    0.43 
  -3  -9   1    2.94    0.49 
  -3  -9   1    4.06    0.62 
  -3  -9   1    3.38    0.37 
  -3  -9   1    4.36    0.50 
   3  -9  -1    4.40    0.32 
  -3  -9   1    4.02    0.45 
  -3  -9   1    4.77    0.57 
  -3  -9   1    3.26    0.61 
  -3   9   1    4.20    0.44 
   3   9  -1    4.46    0.40 
  -3   9   1    4.24    0.63 
  -3   9   1    4.67    0.44 
   3   9  -1    4.80    0.55 
  -3   9   1    4.17    0.38 
  -3   9   1    5.56    0.44 
  -3   9   1    4.53    0.38 
   3   9  -1    4.35    0.33 
  -3   9   1    4.68    0.33 
  -3   9   1    4.72    0.36 
  -3   9   1    4.92    0.61 
  -3   9   1    4.10    0.36 
   3   9  -1    4.23    0.55 
  -3   9   1    3.54    0.49 
  -2  -9   1   41.51    2.16 
  -2  -9   1   45.19    2.29 
  -2  -9   1   45.33    2.33 
   2  -9  -1   44.36    2.11 
  -2  -9   1   49.05    2.37 
  -2  -9   1   45.09    2.18 
  -2   9   1   39.30    2.37 
  -2   9   1   44.00    2.19 
  -2   9   1   44.65    2.56 
  -2   9   1   44.61    2.16 
   2   9  -1   42.89    2.33 
  -2   9   1   40.38    2.13 
  -2   9   1   43.40    2.08 
  -2   9   1   43.52    2.16 
  -2   9   1   45.79    2.19 
  -2   9   1   41.55    2.34 
  -1  -9   1   68.62    3.27 
  -1  -9   1   66.36    3.26 
  -1  -9   1   64.14    3.26 
  -1  -9   1   66.42    3.44 
   1  -9  -1   68.13    3.21 
   1  -9  -1   58.70    3.51 
  -1  -9   1   70.13    3.47 
   1   9  -1   68.30    3.39 
  -1   9   1   63.65    3.26 
  -1   9   1   68.41    3.30 
  -1   9   1   62.46    3.38 
  -1   9   1   72.82    3.23 
   1   9  -1   69.58    3.27 
   1   9  -1   67.31    3.28 
  -1   9   1   66.87    3.41 
  -1   9   1   72.17    3.68 
  -1   9   1   69.78    3.31 
   1   9  -1   68.71    3.32 
  -1   9   1   71.91    3.78 
   1   9  -1   61.66    3.75 
   1   9  -1   68.04    3.27 
  -1   9   1   67.25    3.23 
   0  -9  -1    4.18    0.56 
   0  -9  -1    3.83    0.56 
   0  -9   1    3.42    0.55 
   0  -9  -1    3.92    0.30 
   0  -9   1    4.06    0.31 
   0  -9   1    4.07    0.57 
   0   9   1    3.92    0.40 
   0   9   1    4.37    0.52 
   0   9  -1    3.75    0.37 
   0   9  -1    4.04    0.40 
   0   9  -1    3.98    0.66 
   0   9  -1    3.75    0.38 
   0   9   1    3.60    0.35 
   0   9  -1    3.81    0.48 
   0   9   1    4.88    0.50 
   0   9  -1    4.10    0.49 
   0   9   1    4.29    0.39 
   0   9   1    4.04    0.66 
   0   9  -1    3.86    0.44 
  -1  -9  -1    7.80    0.55 
  -1  -9  -1    7.92    0.56 
  -1  -9  -1    7.91    0.75 
   1  -9   1    7.78    0.47 
  -1  -9  -1    7.48    0.55 
  -1   9  -1    8.33    0.71 
  -1   9  -1    8.30    0.59 
  -1   9  -1    6.89    0.53 
  -1   9  -1    7.78    0.93 
  -1   9  -1    7.89    0.51 
  -1   9  -1    8.00    0.49 
  -1   9  -1    8.67    0.61 
  -1   9  -1    8.07    0.87 
   1   9   1    8.11    0.61 
  -1   9  -1    8.31    0.57 
   1   9   1    8.41    0.56 
   1   9   1    8.07    0.72 
  -1   9  -1    7.48    0.49 
   2  -9   1   15.22    0.79 
  -2  -9  -1   15.45    1.02 
  -2  -9  -1   15.91    0.87 
  -2  -9  -1   14.86    0.90 
  -2  -9  -1   14.89    0.97 
  -2  -9  -1   15.37    0.85 
  -2   9  -1   15.38    0.88 
  -2   9  -1   14.58    0.87 
  -2   9  -1   15.37    0.81 
  -2   9  -1   15.43    0.83 
   2   9   1   15.07    1.06 
  -2   9  -1   15.63    0.85 
  -2   9  -1   12.11    1.02 
  -2   9  -1   14.83    0.76 
  -2   9  -1   14.54    0.84 
  -2   9  -1   13.86    1.18 
  -2   9  -1   15.58    1.04 
  -3  -9  -1   11.61    0.77 
  -3  -9  -1   12.70    0.87 
  -3  -9  -1   13.06    0.73 
  -3  -9  -1   12.56    0.71 
  -3  -9  -1   11.69    0.79 
  -3  -9  -1   11.98    0.80 
  -3  -9  -1   11.94    0.75 
  -3  -9  -1   12.54    0.74 
  -3  -9  -1   11.88    0.70 
  -3  -9  -1   11.77    0.70 
  -3  -9  -1   13.06    0.88 
  -3  -9  -1    9.56    0.72 
   3  -9   1   12.65    0.66 
  -3  -9  -1   11.64    0.87 
  -3  -9  -1   13.06    0.80 
  -3  -9  -1   11.93    0.75 
  -3  -9  -1   11.28    0.84 
  -3   9  -1   12.41    0.67 
  -3   9  -1   12.36    0.93 
   3   9   1   12.99    0.71 
  -3   9  -1   12.60    0.72 
  -3   9  -1   11.61    0.67 
  -3   9  -1   12.23    0.66 
  -3   9  -1   11.49    0.77 
  -3   9  -1   12.53    0.68 
  -3   9  -1   11.58    0.91 
  -3   9  -1   12.47    0.69 
   3   9   1   11.68    0.91 
  -3   9  -1   13.11    0.94 
   3   9   1   13.42    1.00 
   3   9   1   12.75    0.80 
   3   9   1   12.50    0.69 
  -4  -9  -1   14.37    0.79 
  -4  -9  -1   13.74    0.92 
  -4  -9  -1   13.79    0.77 
  -4  -9  -1   13.14    0.81 
  -4  -9  -1   12.74    0.79 
  -4  -9  -1   13.88    0.69 
  -4  -9  -1   13.26    0.81 
  -4  -9  -1   12.64    0.78 
  -4  -9  -1   14.19    0.84 
  -4  -9  -1   13.08    0.81 
  -4  -9  -1   14.51    0.81 
  -4  -9  -1   14.68    0.67 
  -4  -9  -1   13.75    0.71 
  -4  -9  -1   13.56    0.84 
  -4   9  -1   13.13    0.71 
  -4   9  -1   13.92    0.73 
  -4   9  -1   14.74    0.71 
   4   9   1   13.23    0.82 
  -4   9  -1   14.22    0.73 
   4   9   1   13.47    0.76 
  -4   9  -1   13.66    0.69 
  -5  -9  -1    1.83    0.25 
  -5  -9  -1    1.96    0.25 
  -5  -9  -1    1.71    0.25 
  -5  -9  -1    2.03    0.24 
  -5  -9  -1    1.61    0.25 
  -5  -9  -1    2.16    0.36 
   5   9   1    1.86    0.31 
  -5   9  -1    1.63    0.14 
  -5   9  -1    1.42    0.08 
   5   9   1    1.61    0.23 
  -5   9  -1    1.81    0.12 
  -5 -10   1    2.21    0.24 
  -5 -10   1    2.87    0.29 
  -5 -10   1    2.44    0.37 
  -5 -10   1    2.38    0.25 
  -5 -10   1    2.19    0.19 
  -5 -10   1    2.41    0.26 
   5  10  -1    2.26    0.31 
  -5  10   1    2.18    0.14 
   5  10  -1    2.24    0.23 
  -4 -10   1   12.46    0.66 
  -4 -10   1   12.24    0.84 
  -4 -10   1   12.92    0.63 
  -4 -10   1   12.71    0.71 
  -4 -10   1   13.41    0.64 
  -4 -10   1   13.39    0.67 
  -4 -10   1   12.01    0.74 
  -4 -10   1   12.18    0.74 
  -4 -10   1   13.68    0.74 
  -4 -10   1   12.32    0.62 
  -4 -10   1   12.35    0.77 
  -4  10   1   11.77    0.65 
   4  10  -1   12.21    0.79 
  -4  10   1   13.04    0.85 
   4  10  -1   11.34    0.76 
  -4  10   1   13.20    0.67 
  -4  10   1   12.45    0.65 
   4  10  -1   13.34    0.70 
  -4  10   1   12.48    0.78 
  -4  10   1   11.93    0.63 
  -4  10   1   12.39    0.67 
  -3 -10   1    0.48    0.17 
  -3 -10   1    0.57    0.20 
  -3 -10   1    0.51    0.23 
  -3 -10   1    0.30    0.30 
  -3 -10   1    0.28    0.37 
  -3 -10   1    1.07    0.29 
  -3 -10   1    0.29    0.20 
  -3 -10   1    0.54    0.14 
  -3 -10   1    0.59    0.26 
  -3 -10   1    0.78    0.24 
  -3 -10   1    0.08    0.22 
  -3 -10   1    0.40    0.20 
   3  10  -1    0.68    0.25 
  -3  10   1    0.56    0.25 
  -3  10   1    0.50    0.38 
   3  10  -1    0.42    0.24 
  -3  10   1    0.21    0.18 
   3  10  -1    0.74    0.24 
  -3  10   1    0.63    0.18 
  -3  10   1    0.28    0.18 
  -3  10   1    0.48    0.18 
   3  10  -1    0.55    0.19 
  -3  10   1    0.38    0.15 
  -3  10   1    0.48    0.29 
  -3  10   1    0.61    0.35 
   2 -10  -1   18.57    1.01 
  -2 -10   1   18.67    1.05 
  -2 -10   1   20.38    1.09 
  -2 -10   1   18.78    1.16 
  -2 -10   1   19.53    1.07 
  -2 -10   1   18.86    0.96 
  -2 -10   1   20.21    1.03 
  -2 -10   1   18.95    1.00 
  -2 -10   1   18.11    1.03 
  -2 -10   1   20.27    1.06 
   2 -10  -1   18.76    0.99 
  -2 -10   1   17.41    1.22 
  -2  10   1   18.89    0.95 
  -2  10   1   18.32    1.23 
   2  10  -1   19.66    1.07 
  -2  10   1   19.03    1.04 
   2  10  -1   19.64    1.07 
   2  10  -1   18.84    1.08 
  -2  10   1   21.79    1.09 
  -2  10   1   19.04    1.02 
  -2  10   1   19.45    1.12 
  -2  10   1   19.51    1.06 
  -2  10   1   18.48    1.05 
   2  10  -1   18.52    1.08 
  -2  10   1   19.00    1.08 
  -2  10   1   18.03    0.94 
  -2  10   1   20.82    1.06 
  -2  10   1   18.12    1.08 
  -2  10   1   19.30    1.02 
  -2  10   1   20.69    1.33 
   2  10  -1   20.76    1.12 
   2  10  -1   20.42    1.25 
   1 -10  -1    0.35    0.15 
  -1 -10   1    0.34    0.21 
  -1 -10   1    0.21    0.32 
  -1 -10   1    0.05    0.17 
  -1 -10   1    0.03    0.22 
   1  10  -1    0.07    0.18 
   1  10  -1   -0.14    0.20 
  -1  10   1    0.14    0.18 
  -1  10   1    0.31    0.18 
  -1  10   1    0.30    0.23 
  -1  10   1    0.17    0.25 
  -1  10   1    0.36    0.20 
   1  10  -1    0.33    0.26 
  -1  10   1    0.42    0.19 
  -1  10   1    0.31    0.30 
   1  10  -1    0.28    0.13 
   1  10  -1    0.19    0.24 
  -1  10   1    0.30    0.48 
   1  10  -1    0.31    0.30 
   0 -10  -1    3.52    0.65 
   0 -10   1    3.91    0.61 
   0 -10  -1    3.56    0.60 
   0 -10   1    3.73    0.33 
   0  10   1    4.51    0.42 
   0  10  -1    4.91    0.51 
   0  10   1    4.17    0.73 
   0  10  -1    3.92    0.56 
   0  10  -1    4.34    0.40 
   0  10  -1    3.92    0.33 
   0  10   1    4.83    0.44 
   0  10  -1    4.30    0.43 
   0  10   1    4.64    0.54 
   0  10  -1    4.20    0.40 
   0  10   1    3.75    0.53 
   0  10  -1    2.99    0.63 
   0  10  -1    7.24    0.79 
   0  10   1    4.19    0.41 
  -1 -10  -1   37.40    2.07 
   1 -10   1   43.26    2.03 
  -1 -10  -1   42.72    2.11 
  -1 -10  -1   43.81    2.29 
  -1 -10  -1   35.17    2.06 
  -1  10  -1   44.86    2.27 
   1  10   1   39.91    2.09 
  -1  10  -1   33.36    2.72 
  -1  10  -1   39.36    2.01 
   1  10   1   44.93    2.08 
   1  10   1   42.26    2.23 
  -1  10  -1   41.39    2.04 
  -1  10  -1   42.71    2.13 
  -1  10  -1   43.60    2.15 
   1  10   1   42.73    2.09 
  -1  10  -1   46.29    2.11 
  -1  10  -1   44.46    2.05 
  -2 -10  -1   10.27    0.58 
  -2 -10  -1   10.52    0.70 
  -2 -10  -1   11.15    0.83 
  -2 -10  -1   11.08    0.82 
   2 -10   1   10.40    0.63 
  -2 -10  -1   10.52    0.83 
  -2 -10  -1   10.86    0.70 
  -2 -10  -1    9.93    0.79 
  -2 -10  -1   13.63    0.97 
   2 -10   1    9.95    0.61 
  -2 -10  -1    9.21    0.66 
  -2 -10  -1   10.81    0.68 
  -2 -10  -1   11.14    0.63 
  -2 -10  -1   10.66    0.68 
   2  10   1    9.29    0.85 
  -2  10  -1   11.14    0.63 
  -2  10  -1   11.28    0.86 
  -2  10  -1   10.30    0.63 
   2  10   1   11.55    0.77 
  -2  10  -1   10.88    0.58 
  -2  10  -1   10.84    0.56 
  -2  10  -1   10.97    0.68 
   2  10   1   11.85    0.79 
  -2  10  -1   11.21    0.69 
   2  10   1   10.56    0.72 
  -2  10  -1   11.67    0.67 
  -2  10  -1   10.41    0.74 
   2  10   1   11.86    0.73 
  -2  10  -1   11.27    0.72 
   2  10   1   10.77    0.71 
  -2  10  -1    9.58    0.65 
  -2  10  -1   10.22    0.66 
  -2  10  -1   11.34    0.65 
  -2  10  -1   10.94    0.94 
  -3 -10  -1   10.05    0.81 
  -3 -10  -1   11.65    0.68 
  -3 -10  -1   11.66    0.67 
  -3 -10  -1   11.37    0.74 
  -3 -10  -1   11.94    0.84 
  -3 -10  -1   11.85    0.86 
  -3 -10  -1   11.96    0.75 
  -3 -10  -1   11.63    0.76 
  -3 -10  -1   11.28    0.66 
  -3 -10  -1   11.59    0.82 
  -3 -10  -1   11.74    0.71 
  -3 -10  -1   11.43    0.68 
  -3 -10  -1   12.75    0.62 
  -3  10  -1   12.52    0.64 
  -3  10  -1   11.05    0.64 
   3  10   1   11.98    0.75 
  -3  10  -1   11.07    0.64 
   3  10   1   11.35    0.73 
  -3  10  -1    9.05    1.00 
  -3  10  -1   12.79    0.92 
  -3  10  -1   11.76    0.66 
   3  10   1   11.81    0.75 
   3  10   1   10.89    0.66 
  -3  10  -1    9.95    0.67 
  -3  10  -1   12.05    0.68 
  -3  10  -1   13.03    0.92 
  -4 -10  -1    9.34    0.51 
  -4 -10  -1    9.75    0.50 
  -4 -10  -1    9.53    0.57 
  -4 -10  -1    9.99    0.59 
  -4 -10  -1    9.11    0.47 
  -4 -10  -1    8.50    0.59 
  -4 -10  -1    9.42    0.60 
  -4 -10  -1    9.98    0.71 
  -4 -10  -1    9.76    0.65 
  -4 -10  -1    9.15    0.60 
  -4  10  -1    9.91    0.53 
  -4  10  -1    9.78    0.51 
  -4  10  -1    9.62    0.52 
  -4  10  -1    8.27    0.48 
   4  10   1    9.33    0.55 
   4  10   1    9.73    0.63 
   4  10   1    8.97    0.61 
  -4  10  -1    9.44    0.50 
  -5 -10  -1    0.28    0.20 
  -5 -10  -1   -0.10    0.11 
  -5 -10  -1    0.05    0.08 
  -5 -10  -1   -0.07    0.15 
  -5 -10  -1    0.16    0.17 
  -5 -10  -1    0.18    0.12 
   5  10   1    0.27    0.11 
  -5  10  -1    0.10    0.06 
  -5  10  -1    0.11    0.04 
   5  10   1    0.13    0.14 
  -4 -11   1    0.50    0.12 
  -4 -11   1    0.57    0.14 
  -4 -11   1    0.65    0.18 
  -4 -11   1    0.93    0.26 
  -4 -11   1    0.45    0.24 
  -4 -11   1    0.33    0.07 
  -4 -11   1    0.41    0.23 
  -4 -11   1   -0.06    0.26 
   4  11  -1    0.34    0.17 
  -4  11   1    0.55    0.13 
   4  11  -1    1.06    0.28 
  -4  11   1    0.57    0.18 
   4  11  -1    0.53    0.18 
  -4  11   1    0.63    0.11 
   4  11  -1    0.30    0.13 
  -4  11   1    0.71    0.15 
  -3 -11   1    3.73    0.44 
  -3 -11   1    3.33    0.37 
   3 -11  -1    2.85    0.30 
  -3 -11   1    3.01    0.48 
  -3 -11   1    2.93    0.39 
  -3 -11   1    3.13    0.30 
  -3 -11   1    2.73    0.35 
  -3 -11   1    3.09    0.31 
  -3 -11   1    3.05    0.23 
  -3 -11   1    3.35    0.35 
  -3 -11   1    2.48    0.33 
  -3  11   1    2.63    0.51 
  -3  11   1    2.90    0.31 
  -3  11   1    2.92    0.35 
   3  11  -1    2.55    0.38 
   3  11  -1    3.04    0.39 
  -3  11   1    2.76    0.43 
   3  11  -1    3.43    0.41 
  -3  11   1    3.18    0.32 
  -3  11   1    2.53    0.26 
  -3  11   1    2.65    0.29 
  -3  11   1    3.02    0.31 
  -2 -11   1   23.20    1.33 
  -2 -11   1   21.19    1.16 
   2 -11  -1   22.42    1.20 
  -2 -11   1   22.08    1.14 
  -2 -11   1   21.21    1.18 
  -2 -11   1   25.00    1.22 
  -2 -11   1   20.10    1.35 
  -2 -11   1   22.47    1.18 
   2 -11  -1   23.56    1.16 
   2  11  -1   22.12    1.25 
  -2  11   1   22.33    1.19 
  -2  11   1   24.95    1.21 
   2  11  -1   26.68    1.41 
  -2  11   1   20.82    1.43 
   2  11  -1   22.85    1.21 
  -2  11   1   19.93    1.22 
   2  11  -1   24.56    1.22 
  -2  11   1   24.51    1.09 
  -2  11   1   21.39    1.20 
  -2  11   1   23.92    1.21 
  -2  11   1   22.96    1.16 
  -2  11   1   22.39    1.22 
   2  11  -1   19.65    1.19 
  -2  11   1   23.25    1.20 
   2  11  -1   22.12    1.20 
  -2  11   1   24.42    1.19 
  -2  11   1   21.88    1.21 
  -2  11   1   23.04    1.40 
  -1 -11   1   10.40    0.72 
  -1 -11   1   11.63    0.69 
   1 -11  -1   10.93    0.64 
  -1 -11   1   12.01    1.05 
  -1 -11   1   11.51    0.66 
   1 -11  -1   10.52    0.70 
  -1 -11   1   10.08    0.67 
  -1 -11   1   11.41    0.71 
  -1 -11   1   10.87    0.67 
  -1  11   1   11.22    0.58 
  -1  11   1    9.98    0.70 
   1  11  -1   11.36    0.71 
  -1  11   1   10.57    0.80 
  -1  11   1   12.38    0.74 
   1  11  -1   11.38    0.74 
  -1  11   1   11.69    0.77 
   1  11  -1   10.06    0.80 
  -1  11   1   11.50    0.64 
   1  11  -1    9.67    0.67 
  -1  11   1   11.08    0.85 
   1  11  -1   10.37    0.69 
  -1  11   1   12.54    0.78 
  -1  11   1   11.34    0.64 
  -1  11   1   11.76    0.66 
   1  11  -1   11.86    0.66 
   1  11  -1   13.36    0.99 
   1  11  -1   10.05    0.77 
  -1  11   1   10.79    0.70 
   0 -11   1   66.58    3.07 
   0 -11   1   62.54    3.11 
   0 -11   1   63.46    3.11 
   0 -11   1   63.41    3.11 
   0 -11  -1   66.74    3.12 
   0 -11  -1   62.10    3.11 
   0 -11  -1   64.40    3.36 
   0 -11  -1   59.80    3.15 
   0 -11   1   55.13    3.32 
   0 -11  -1   66.89    3.12 
   0  11  -1   69.36    3.12 
   0  11  -1   63.70    3.11 
   0  11   1   62.48    3.13 
   0  11  -1   69.01    3.21 
   0  11   1   66.47    3.16 
   0  11   1   64.13    3.12 
   0  11   1   61.63    3.12 
   0  11   1   64.39    3.12 
   0  11  -1   65.36    3.10 
   0  11  -1   67.95    3.05 
   0  11  -1   65.37    3.12 
   0  11  -1   66.14    3.05 
   0  11   1   63.73    3.05 
   0  11   1   65.94    3.20 
   0  11   1   64.55    3.10 
   0  11   1   62.64    3.05 
   0  11  -1   63.80    3.13 
   0  11  -1   64.85    3.16 
  -1 -11  -1    4.66    0.52 
  -1 -11  -1    4.95    0.44 
   1 -11   1    5.57    0.44 
  -1 -11  -1    4.37    0.47 
  -1 -11  -1    5.09    0.48 
  -1 -11  -1    5.44    0.39 
  -1 -11  -1    4.21    0.43 
  -1 -11  -1    5.48    0.43 
  -1 -11  -1    4.79    0.60 
  -1 -11  -1    5.24    0.64 
   1 -11   1    4.53    0.38 
  -1  11  -1    5.46    0.37 
   1  11   1    4.97    0.41 
  -1  11  -1    4.95    0.36 
  -1  11  -1    4.53    0.39 
   1  11   1    4.90    0.44 
  -1  11  -1    4.85    0.50 
   1  11   1    5.16    0.48 
  -1  11  -1    4.58    0.48 
   1  11   1    5.14    0.46 
  -1  11  -1    5.29    0.36 
  -1  11  -1    4.71    0.52 
  -1  11  -1    4.34    0.44 
  -1  11  -1    5.21    0.29 
  -1  11  -1    5.94    0.65 
   1  11   1    4.92    0.52 
  -1  11  -1    4.44    0.39 
   1  11   1    2.69    0.79 
  -1  11  -1    5.60    0.48 
   2 -11   1   10.18    0.59 
  -2 -11  -1   10.08    0.76 
  -2 -11  -1   10.17    0.68 
  -2 -11  -1    8.94    0.75 
  -2 -11  -1   10.62    0.66 
  -2 -11  -1    9.31    0.62 
   2 -11   1    9.21    0.63 
  -2 -11  -1   10.55    0.57 
  -2 -11  -1   10.32    0.66 
  -2  11  -1    9.40    0.60 
  -2  11  -1    9.91    0.59 
   2  11   1   10.01    0.66 
  -2  11  -1   10.05    0.84 
  -2  11  -1   10.79    0.62 
  -2  11  -1    8.68    0.61 
   2  11   1   10.74    0.66 
  -2  11  -1    9.46    0.65 
  -2  11  -1   10.47    0.64 
   2  11   1    9.94    0.65 
  -2  11  -1   11.14    0.70 
  -2  11  -1    9.07    0.63 
   2  11   1    9.36    0.71 
  -2  11  -1    8.78    0.62 
  -2  11  -1   10.22    0.62 
   2  11   1    9.50    0.65 
  -3 -11  -1    0.42    0.17 
   3 -11   1    0.28    0.16 
  -3 -11  -1    0.47    0.15 
  -3 -11  -1    0.14    0.34 
  -3 -11  -1    0.39    0.18 
  -3 -11  -1    0.48    0.19 
  -3 -11  -1    0.60    0.23 
  -3 -11  -1    0.49    0.14 
  -3 -11  -1    0.23    0.15 
  -3 -11  -1    0.51    0.11 
  -3 -11  -1    0.57    0.32 
  -3 -11  -1    0.68    0.26 
  -3  11  -1    0.44    0.14 
  -3  11  -1    0.68    0.16 
  -3  11  -1    0.59    0.21 
   3  11   1    0.55    0.22 
  -3  11  -1    0.56    0.15 
   3  11   1    0.65    0.22 
   3  11   1    0.43    0.23 
  -3  11  -1    0.39    0.16 
  -4 -11  -1    2.01    0.24 
  -4 -11  -1    1.91    0.28 
  -4 -11  -1    1.88    0.27 
  -4 -11  -1    2.21    0.17 
  -4 -11  -1    2.03    0.27 
  -4 -11  -1    2.30    0.37 
  -4  11  -1    2.41    0.22 
   4  11   1    1.83    0.32 
   4  11   1    1.77    0.29 
   4  11   1    1.98    0.22 
  -4  11  -1    2.29    0.21 
  -4  11  -1    2.28    0.18 
   4  11   1    2.62    0.31 
  -4  11  -1    2.07    0.16 
  -4 -12   1    2.03    0.22 
  -4 -12   1    1.65    0.22 
  -4 -12   1    1.90    0.23 
  -4 -12   1    1.73    0.27 
   4 -12  -1    1.57    0.19 
  -4 -12   1    2.92    0.44 
  -4  12   1    2.05    0.16 
   4  12  -1    1.80    0.25 
   4  12  -1    2.16    0.25 
  -4  12   1    2.02    0.20 
  -4  12   1    2.06    0.13 
   4  12  -1    1.88    0.24 
  -3 -12   1   31.03    1.56 
  -3 -12   1   30.60    1.59 
  -3 -12   1   32.12    1.58 
  -3 -12   1   31.25    1.59 
   3 -12  -1   32.94    1.59 
  -3 -12   1   34.02    1.58 
  -3 -12   1   34.53    1.60 
  -3  12   1   32.71    1.58 
   3  12  -1   30.16    1.61 
  -3  12   1   29.91    1.58 
   3  12  -1   32.01    1.62 
   3  12  -1   36.17    1.62 
   3  12  -1   35.73    1.63 
  -3  12   1   33.07    1.59 
  -3  12   1   32.67    1.60 
  -3  12   1   36.20    1.65 
   3  12  -1   31.74    1.66 
  -2 -12   1    6.31    0.48 
   2 -12  -1    5.96    0.41 
   2 -12  -1    5.77    0.44 
  -2 -12   1    5.86    0.45 
  -2 -12   1    5.88    0.37 
  -2 -12   1    5.42    0.48 
  -2 -12   1    6.31    0.48 
   2  12  -1    5.46    0.46 
  -2  12   1    5.90    0.39 
  -2  12   1    5.40    0.40 
  -2  12   1    5.71    0.44 
   2  12  -1    5.74    0.42 
   2  12  -1    5.56    0.50 
  -2  12   1    5.68    0.42 
  -2  12   1    5.89    0.45 
  -2  12   1    5.52    0.48 
  -2  12   1    6.22    0.44 
   2  12  -1    6.29    0.46 
  -2  12   1    5.97    0.42 
  -1 -12   1   14.61    0.78 
  -1 -12   1   13.03    0.76 
   1 -12  -1   14.23    0.80 
  -1 -12   1   13.79    0.77 
   1 -12  -1   13.60    0.78 
   1 -12  -1   14.43    0.75 
  -1 -12   1   13.12    0.82 
   1 -12  -1   13.38    0.78 
  -1  12   1   13.65    0.81 
  -1  12   1   14.00    0.73 
  -1  12   1   14.13    0.74 
   1  12  -1   12.51    0.75 
   1  12  -1   14.02    0.74 
  -1  12   1   13.22    0.81 
  -1  12   1   13.80    0.72 
  -1  12   1   14.07    0.86 
   1  12  -1   13.82    0.81 
  -1  12   1   14.46    0.71 
  -1  12   1   13.60    0.72 
  -1  12   1   13.15    0.80 
   1  12  -1   12.55    0.78 
   0 -12  -1    7.05    0.48 
   0 -12   1    6.85    0.51 
   0 -12  -1    7.65    0.55 
   0 -12   1    8.07    0.52 
   0 -12  -1    6.91    0.51 
   0 -12   1    7.84    0.51 
   0 -12  -1    7.08    0.52 
   0 -12   1    7.35    0.54 
   0  12  -1    6.83    0.47 
   0  12   1    6.94    0.70 
   0  12   1    7.42    0.50 
   0  12   1    7.09    0.51 
   0  12  -1    7.12    0.55 
   0  12  -1    7.54    0.50 
   0  12   1    6.94    0.42 
   0  12  -1    7.25    0.50 
   0  12  -1    6.64    0.50 
   0  12   1    7.67    0.56 
   0  12  -1    5.78    0.60 
   0  12   1    6.94    0.49 
   0  12  -1    7.31    0.43 
   0  12   1    7.44    0.47 
   0  12  -1    7.48    0.41 
   0  12   1    6.84    0.51 
   1 -12   1   20.72    1.13 
   1 -12   1   21.06    1.13 
  -1 -12  -1   24.50    1.13 
  -1 -12  -1   20.96    1.21 
  -1 -12  -1   20.54    1.10 
   1 -12   1   20.83    1.13 
  -1 -12  -1   21.26    1.17 
   1 -12   1   20.80    1.08 
  -1 -12  -1   21.34    1.11 
   1  12   1   20.98    1.08 
   1  12   1   22.18    1.13 
  -1  12  -1   20.22    1.06 
  -1  12  -1   22.46    1.08 
  -1  12  -1   22.21    1.06 
   1  12   1   19.98    1.17 
  -1  12  -1   21.07    1.17 
  -1  12  -1   21.45    1.15 
  -1  12  -1   21.29    1.06 
  -1  12  -1   23.06    1.14 
   1  12   1   20.92    1.11 
  -2 -12  -1    1.60    0.34 
  -2 -12  -1    1.49    0.34 
   2 -12   1    0.81    0.20 
  -2 -12  -1    1.08    0.33 
  -2 -12  -1    1.06    0.21 
  -2 -12  -1    1.13    0.30 
  -2 -12  -1    1.09    0.18 
   2 -12   1    1.26    0.24 
  -2  12  -1    0.50    0.15 
  -2  12  -1    1.06    0.27 
  -2  12  -1    1.10    0.26 
  -2  12  -1    1.25    0.31 
  -2  12  -1    1.41    0.46 
   2  12   1    0.88    0.21 
   2  12   1    1.34    0.30 
  -2  12  -1    0.91    0.25 
  -2  12  -1    0.97    0.20 
   2  12   1    1.39    0.32 
  -2  12  -1    1.68    0.27 
   2  12   1    0.91    0.20 
  -3 -12  -1    2.58    0.40 
  -3 -12  -1    2.42    0.23 
  -3 -12  -1    2.18    0.26 
  -3 -12  -1    2.49    0.24 
  -3 -12  -1    2.39    0.26 
  -3 -12  -1    2.16    0.38 
  -3 -12  -1    2.79    0.22 
   3 -12   1    2.84    0.25 
  -3 -12  -1    2.69    0.35 
   3  12   1    1.97    0.29 
  -3  12  -1    2.74    0.24 
   3  12   1    2.40    0.31 
   3  12   1    2.67    0.38 
  -3  12  -1    2.65    0.22 
   3  12   1    2.56    0.32 
  -3  12  -1    2.84    0.27 
   3  12   1    2.47    0.31 
  -3  12  -1    2.38    0.22 
   3 -13  -1    4.33    0.26 
  -3 -13   1    3.57    0.23 
  -3 -13   1    3.66    0.25 
  -3 -13   1    3.80    0.26 
  -3 -13   1    3.23    0.40 
   3 -13  -1    3.83    0.31 
  -3 -13   1    3.65    0.23 
   3  13  -1    4.24    0.30 
  -3  13   1    3.83    0.27 
  -3  13   1    3.54    0.27 
   3  13  -1    3.28    0.27 
   3  13  -1    3.46    0.32 
  -3  13   1    3.14    0.24 
   3  13  -1    3.78    0.28 
   2 -13  -1   25.51    1.32 
  -2 -13   1   27.38    1.33 
  -2 -13   1   26.97    1.31 
   2 -13  -1   29.63    1.30 
  -2 -13   1   26.75    1.31 
   2  13  -1   26.66    1.34 
  -2  13   1   25.10    1.33 
  -2  13   1   23.32    1.30 
  -2  13   1   25.34    1.27 
  -2  13   1   27.35    1.31 
  -2  13   1   24.35    1.31 
   2  13  -1   26.02    1.30 
  -2  13   1   27.43    1.29 
   2  13  -1   26.75    1.28 
   2  13  -1   27.22    1.33 
   1 -13  -1   11.25    0.67 
  -1 -13   1   10.62    0.68 
   1 -13  -1   11.91    0.66 
  -1 -13   1   11.27    0.64 
   1 -13  -1   10.70    0.60 
  -1 -13   1   12.34    0.63 
   1 -13  -1   11.77    0.65 
  -1 -13   1   12.17    0.64 
   1  13  -1   11.08    0.67 
  -1  13   1   11.18    0.56 
  -1  13   1   11.16    0.66 
  -1  13   1   11.54    0.59 
  -1  13   1   11.45    0.58 
   1  13  -1   12.18    0.66 
  -1  13   1   10.41    0.67 
   1  13  -1   11.72    0.66 
  -1  13   1   11.26    0.70 
   1  13  -1   10.14    0.58 
  -1  13   1   11.38    0.60 
   0 -13  -1    2.13    0.42 
   0 -13  -1    2.45    0.33 
   0 -13   1    3.07    0.34 
   0 -13   1    2.81    0.28 
   0 -13   1    2.52    0.32 
   0 -13   1    2.30    0.54 
   0 -13  -1    2.67    0.39 
   0 -13  -1    2.56    0.29 
   0 -13  -1    2.71    0.32 
   0  13   1    2.56    0.20 
   0  13   1    2.56    0.27 
   0  13  -1    2.24    0.33 
   0  13   1    2.65    0.27 
   0  13   1    2.75    0.30 
   0  13  -1    2.75    0.19 
   0  13  -1    2.56    0.24 
   0  13  -1    2.54    0.25 
   0  13  -1    2.59    0.29 
  -1 -13  -1    0.46    0.15 
   1 -13   1    0.33    0.16 
  -1 -13  -1    0.54    0.20 
  -1 -13  -1    0.61    0.15 
   1 -13   1    0.70    0.19 
   1 -13   1    0.71    0.18 
   1 -13   1    0.67    0.18 
  -1 -13  -1    0.90    0.22 
  -1  13  -1    0.28    0.22 
  -1  13  -1    0.56    0.12 
   1  13   1    0.56    0.20 
  -1  13  -1    0.58    0.23 
  -1  13  -1    0.70    0.15 
   1  13   1    0.54    0.18 
   1  13   1    0.34    0.16 
  -1  13  -1    1.06    0.26 
   1  13   1    0.43    0.10 
  -2 -13  -1    1.24    0.31 
   2 -13   1    1.59    0.26 
  -2 -13  -1    1.74    0.24 
  -2 -13  -1    2.04    0.29 
  -2 -13  -1    1.50    0.25 
  -2 -13  -1    1.95    0.23 
   2 -13   1    1.66    0.20 
   2  13   1    1.42    0.19 
   2  13   1    2.21    0.39 
  -2  13  -1    1.99    0.28 
   2  13   1    1.67    0.30 
  -2  13  -1    1.17    0.17 
  -2  13  -1    1.41    0.22 
  -2  13  -1    1.56    0.16 
  -2  13  -1    1.66    0.24 
   2  13   1    1.40    0.22 
  -1 -14   1    1.36    0.16 
  -1 -14   1    1.48    0.22 
   1 -14  -1    0.98    0.22 
  -1 -14   1    1.17    0.23 
   1 -14  -1    1.55    0.20 
   1 -14  -1    1.33    0.23 
   1  14  -1    0.95    0.26 
  -1  14   1    1.32    0.21 
  -1  14   1    1.32    0.24 
   1  14  -1    1.29    0.20 
   1  14  -1    1.41    0.12 
   1  14  -1    1.39    0.17 
   0 -14   1    1.00    0.21 
   0 -14  -1    0.90    0.22 
   0 -14   1    0.83    0.21 
   0 -14   1    1.10    0.19 
   0 -14   1    1.36    0.27 
   0 -14  -1    0.78    0.20 
   0 -14  -1    0.89    0.20 
   0 -14  -1    0.92    0.25 
   0  14   1    0.93    0.29 
   0  14  -1    0.98    0.13 
   0  14   1    0.89    0.17 
   0  14  -1    1.05    0.28 
   0  14   1    1.06    0.13 
   0  14  -1    1.00    0.16 
  -1 -14  -1    0.87    0.22 
  -1 -14  -1    0.41    0.16 
  -1 -14  -1    1.02    0.14 
   1 -14   1    0.92    0.21 
   1 -14   1    0.82    0.19 
   1 -14   1    0.78    0.15 
   1  14   1    0.71    0.16 
  -1  14  -1    0.91    0.18 
   1  14   1    0.47    0.12 
   1  14   1    0.76    0.10 
  -1  14  -1    0.81    0.19 
  -6   0   2   48.65    2.46 
  -6   0   2   51.92    2.29 
  -6   0   2   46.90    2.28 
  -6   0   2   50.67    2.30 
  -6   0   2   45.66    2.42 
  -6   0   2   50.24    2.29 
   5   0  -2   20.72    0.97 
  -5   0   2   20.76    1.02 
  -5   0   2   20.11    1.12 
  -5   0   2   20.01    1.11 
  -4   0   2    7.52    0.52 
   3   0  -2  138.42    6.76 
  -3   0   2  147.26    6.76 
  -3   0   2  147.69    6.82 
  -3   0   2  140.15    6.74 
  -3   0   2  149.39    6.75 
  -2   0   2    0.37    0.06 
  -2   0   2    0.36    0.13 
   2   0  -2    0.66    0.09 
  -2   0   2    0.68    0.17 
  -2   0   2    0.58    0.14 
   2   0  -2    0.42    0.14 
  -2   0   2    0.51    0.10 
  -1   0   2   46.21    2.24 
   1   0  -2   52.16    2.30 
  -1   0   2   45.11    2.26 
  -1   0   2   45.21    2.24 
   1   0  -2   48.03    2.28 
  -1   0   2   43.52    2.36 
   1   0  -2   49.60    2.25 
   1   0  -2   48.05    2.24 
   1   0  -2   50.19    2.27 
   1   0  -2   51.17    2.25 
  -1   0   2   45.61    2.33 
   1   0  -2   47.19    2.25 
   1   0  -2   48.13    2.38 
  -1   0   2   47.61    2.31 
  -1   0   2   48.69    2.26 
  -1   0   2   45.63    2.25 
   1   0  -2   48.89    2.25 
   1   0  -2   49.53    2.26 
  -1   0   2   47.11    2.25 
   0   0   2   55.21    2.53 
   0   0  -2   54.14    2.55 
   0   0   2   53.98    2.51 
   0   0  -2   54.17    2.51 
   0   0   2   54.33    2.51 
   0   0   2   55.08    2.50 
   0   0  -2   56.11    2.65 
   0   0  -2   50.17    2.52 
   0   0  -2   55.65    2.54 
   0   0   2   51.03    2.65 
   0   0   2   54.04    2.50 
   0   0   2   51.23    2.56 
   0   0  -2   51.27    2.57 
   0   0  -2   51.84    2.50 
   0   0   2   54.18    2.54 
   0   0   2   50.55    2.62 
   0   0  -2   51.35    2.51 
   0   0  -2   55.00    2.50 
  -1   0  -2   38.42    1.85 
   1   0   2   39.46    1.87 
  -1   0  -2   39.78    2.09 
  -1   0  -2   39.39    2.08 
   1   0   2   43.02    1.86 
   1   0   2   40.22    1.90 
  -1   0  -2   39.24    1.85 
   1   0   2   41.73    2.01 
   1   0   2   39.27    1.92 
   1   0   2   40.48    1.89 
  -1   0  -2   38.77    1.94 
  -1   0  -2   38.98    1.96 
  -1   0  -2   38.08    2.00 
   1   0   2   38.74    1.88 
  -1   0  -2   36.23    1.98 
  -1   0  -2   38.63    1.86 
   1   0   2   36.28    1.91 
   2   0   2    4.86    0.46 
   2   0   2    4.49    0.35 
  -2   0  -2    4.70    0.37 
  -2   0  -2    4.06    0.43 
   2   0   2    4.64    0.29 
   2   0   2    4.08    0.24 
   3   0   2   68.16    2.98 
   3   0   2   66.31    3.09 
  -3   0  -2   62.17    3.13 
  -3   0  -2   63.60    3.03 
  -3   0  -2   56.21    3.00 
  -3   0  -2   65.30    3.00 
  -3   0  -2   63.38    3.20 
   4   0   2   10.38    0.69 
  -4   0  -2   10.81    0.65 
  -4   0  -2   10.10    0.57 
   4   0   2   10.55    0.54 
  -4   0  -2   10.67    0.61 
  -5   0  -2   19.85    1.00 
  -5   0  -2   19.84    0.97 
  -5   0  -2   23.03    1.08 
  -5   0  -2   19.49    1.00 
  -5   0  -2   20.95    0.99 
   5   0   2   19.40    1.03 
  -5   0  -2   19.01    0.98 
  -5   0  -2   20.62    1.14 
  -5   0  -2   21.08    1.00 
  -6   0  -2    4.35    0.23 
  -6   0  -2    4.22    0.23 
  -6   0  -2    4.14    0.24 
  -6   0  -2    3.86    0.45 
  -7  -1   2    0.75    0.06 
  -6  -1   2   22.55    1.05 
  -6  -1   2   22.96    1.43 
  -6  -1   2   22.79    1.23 
  -6  -1   2   21.52    1.23 
  -6  -1   2   20.12    1.28 
  -6  -1   2   23.72    1.22 
  -6  -1   2   22.33    1.05 
  -6   1   2   22.80    1.04 
  -6   1   2   20.70    1.24 
  -5  -1   2   56.56    2.86 
  -5  -1   2   53.54    2.81 
  -5  -1   2   54.28    3.03 
  -5  -1   2   61.28    2.88 
  -5   1   2   62.95    2.87 
  -5   1   2   59.69    2.76 
   5   1  -2   62.49    2.76 
  -4  -1   2   26.31    1.48 
  -4  -1   2   30.85    1.46 
  -4  -1   2   29.66    1.51 
  -4  -1   2   29.48    1.44 
  -4   1   2   32.83    1.43 
   4   1  -2   30.49    1.51 
  -4   1   2   28.94    1.50 
  -4   1   2   30.52    1.61 
   4   1  -2   30.45    1.41 
  -3  -1   2   45.02    2.18 
  -3  -1   2   47.42    2.16 
   3  -1  -2   46.73    2.14 
  -3  -1   2   45.45    2.23 
  -3   1   2   42.36    2.13 
  -3   1   2   46.61    2.13 
  -3   1   2   45.40    2.13 
   3   1  -2   44.06    2.12 
  -3   1   2   46.76    2.17 
   3   1  -2   42.23    2.19 
  -3   1   2   46.84    2.17 
   2  -1  -2  135.36    6.45 
   2  -1  -2  133.43    6.47 
  -2  -1   2  146.04    6.54 
  -2  -1   2  137.47    6.46 
  -2   1   2  143.29    6.48 
  -2   1   2  134.07    6.52 
   2   1  -2  149.13    6.51 
  -2   1   2  145.14    6.56 
  -2   1   2  132.43    6.46 
   2   1  -2  136.99    6.48 
  -2   1   2  133.51    6.49 
   2   1  -2  137.29    6.51 
  -2   1   2  139.21    6.46 
   1  -1  -2   67.54    2.96 
  -1  -1   2   64.11    3.20 
  -1  -1   2   64.26    2.95 
   1  -1  -2   65.23    2.96 
  -1  -1   2   58.89    2.95 
   1  -1  -2   63.82    2.99 
  -1  -1   2   63.78    2.95 
   1  -1  -2   68.43    2.95 
   1  -1  -2   62.48    3.00 
   1  -1  -2   60.27    2.95 
   1  -1  -2   63.79    3.09 
  -1  -1   2   63.39    3.10 
  -1  -1   2   64.55    2.95 
   1  -1  -2   67.42    2.97 
  -1  -1   2   62.61    2.99 
   1  -1  -2   67.53    2.98 
  -1  -1   2   65.73    2.98 
  -1  -1   2   61.05    3.07 
  -1  -1   2   66.14    2.95 
  -1  -1   2   65.49    2.96 
  -1  -1   2   57.44    3.02 
   1  -1  -2   60.72    2.96 
  -1  -1   2   60.17    3.05 
  -1   1   2   63.12    2.95 
   1   1  -2   62.49    2.98 
   1   1  -2   62.83    2.95 
   1   1  -2   63.39    3.01 
  -1   1   2   54.11    3.01 
   1   1  -2   69.26    2.96 
   1   1  -2   65.33    2.98 
   1   1  -2   64.06    2.96 
  -1   1   2   59.60    2.95 
   1   1  -2   63.94    2.96 
   1   1  -2   64.99    3.12 
   1   1  -2   59.77    2.99 
  -1   1   2   60.09    2.95 
   1   1  -2   59.70    2.95 
  -1   1   2   62.87    3.03 
  -1   1   2   63.82    2.95 
  -1   1   2   62.06    2.95 
  -1   1   2   61.49    2.96 
  -1   1   2   59.61    2.96 
   0  -1   2   39.00    1.92 
   0  -1  -2   40.92    1.89 
   0  -1   2   39.51    1.89 
   0  -1   2   40.11    1.91 
   0  -1  -2   39.17    1.91 
   0  -1  -2   38.05    1.88 
   0  -1   2   39.52    1.94 
   0  -1   2   39.77    1.89 
   0  -1   2   36.80    1.97 
   0  -1  -2   39.62    1.89 
   0  -1  -2   37.88    1.94 
   0  -1   2   36.66    2.00 
   0  -1   2   38.98    1.88 
   0  -1   2   38.54    1.89 
   0  -1  -2   36.13    1.94 
   0  -1  -2   39.96    2.05 
   0  -1   2   42.25    1.88 
   0  -1  -2   38.00    1.96 
   0   1   2   39.07    1.89 
   0   1  -2   41.16    1.89 
   0   1  -2   40.71    1.94 
   0   1  -2   39.52    2.04 
   0   1  -2   43.20    1.89 
   0   1  -2   40.98    1.91 
   0   1  -2   44.65    2.00 
   0   1   2   38.52    1.94 
   0   1   2   42.51    1.95 
   0   1   2   39.10    1.89 
   0   1  -2   43.07    1.89 
   0   1  -2   40.84    1.97 
   0   1   2   41.53    1.93 
   0   1  -2   41.58    1.92 
   0   1   2   42.49    1.89 
   0   1  -2   41.73    1.89 
   0   1   2   40.39    1.89 
   0   1   2   38.50    2.04 
   0   1   2   36.90    2.00 
   1  -1   2  211.35   10.17 
   1  -1   2  212.11   10.09 
   1  -1   2  204.45   10.03 
   1  -1   2  207.02   10.07 
  -1  -1  -2  227.86   10.04 
  -1  -1  -2  203.40   10.12 
  -1  -1  -2  230.95   10.33 
   1  -1   2  224.56   10.09 
  -1  -1  -2  224.61   10.18 
  -1  -1  -2  230.44   10.04 
  -1  -1  -2  203.60   10.06 
  -1  -1  -2  207.31   10.19 
   1  -1   2  216.19   10.08 
   1  -1   2  224.69   10.04 
  -1  -1  -2  216.62   10.04 
   1  -1   2  215.69   10.06 
   1   1   2  202.18   10.06 
  -1   1  -2  224.07   10.13 
   1   1   2  222.26   10.05 
  -1   1  -2  194.97   10.03 
  -1   1  -2  219.49   10.17 
   1   1   2  218.01   10.10 
   1   1   2  220.50   10.04 
   1   1   2  205.18   10.09 
   1   1   2  214.04   10.14 
  -1   1  -2  210.59   10.25 
   1   1   2  211.58   10.11 
   1   1   2  231.48   10.20 
   1   1   2  219.49   10.09 
  -1   1  -2  211.46   10.11 
  -1   1  -2  217.80   10.03 
  -1   1  -2  217.72   10.18 
  -2  -1  -2   91.04    4.36 
  -2  -1  -2   95.93    4.44 
   2  -1   2   94.57    4.30 
   2  -1   2   87.64    4.25 
   2  -1   2   92.02    4.22 
   2  -1   2   88.83    4.40 
   2   1   2   77.85    4.32 
  -2   1  -2   97.57    4.35 
   2   1   2   92.88    4.26 
  -2   1  -2   92.28    4.41 
   2   1   2   89.11    4.22 
   2   1   2   89.64    4.44 
   2   1   2   88.00    4.31 
   3  -1   2    7.25    0.38 
  -3  -1  -2    7.48    0.46 
  -3  -1  -2    8.13    0.65 
  -3  -1  -2    7.50    0.42 
  -3  -1  -2    7.50    0.44 
  -3  -1  -2    7.73    0.55 
   3  -1   2    7.39    0.50 
   3   1   2    7.35    0.39 
  -3   1  -2    7.12    0.59 
  -3   1  -2    7.44    0.44 
   3   1   2    7.70    0.53 
  -3   1  -2    6.95    0.41 
  -3   1  -2    7.45    0.40 
  -4  -1  -2    2.98    0.38 
  -4  -1  -2    3.28    0.31 
  -4  -1  -2    2.86    0.25 
   4  -1   2    3.10    0.21 
  -4  -1  -2    3.01    0.53 
  -4  -1  -2    2.85    0.27 
   4  -1   2    3.29    0.36 
   4   1   2    3.34    0.22 
   4   1   2    3.14    0.40 
  -4   1  -2    3.00    0.32 
  -4   1  -2    2.89    0.24 
  -4   1  -2    3.20    0.29 
  -5  -1  -2   41.66    2.02 
  -5  -1  -2   37.57    1.83 
  -5  -1  -2   43.09    1.91 
  -5  -1  -2   39.84    1.96 
  -5  -1  -2   38.95    1.85 
  -5  -1  -2   38.44    1.85 
  -5  -1  -2   36.86    1.83 
  -5  -1  -2   39.32    1.96 
  -5  -1  -2   39.46    1.86 
  -5  -1  -2   36.13    1.91 
  -5   1  -2   39.71    1.97 
  -5   1  -2   39.21    1.84 
  -5   1  -2   37.54    2.06 
  -5   1  -2   37.07    1.83 
  -5   1  -2   38.71    1.82 
  -5   1  -2   35.97    1.89 
  -5   1  -2   36.32    1.82 
  -5   1  -2   40.22    1.82 
  -5   1  -2   38.24    1.83 
  -6  -1  -2    4.69    0.46 
  -6  -1  -2    4.74    0.25 
  -6  -1  -2    4.97    0.27 
  -6  -1  -2    4.95    0.28 
  -6  -1  -2    4.39    0.45 
  -6  -1  -2    4.48    0.26 
  -6  -1  -2    5.05    0.25 
  -6  -1  -2    4.40    0.27 
  -6   1  -2    4.99    0.49 
  -6   1  -2    5.16    0.26 
  -6   1  -2    4.58    0.25 
  -6   1  -2    4.93    0.24 
  -7  -2   2    4.50    0.23 
  -6  -2   2    6.99    0.36 
  -6  -2   2    6.78    0.75 
  -6  -2   2    7.44    0.60 
  -6  -2   2    6.54    0.66 
  -6  -2   2    7.07    0.36 
  -6  -2   2    7.26    0.36 
  -6  -2   2    6.65    0.56 
  -6  -2   2    5.79    0.57 
  -6  -2   2    6.92    0.36 
  -6  -2   2    6.67    0.37 
  -6  -2   2    6.94    0.36 
  -6  -2   2    6.91    0.38 
  -5  -2   2    9.12    0.52 
  -5  -2   2    7.89    0.61 
  -5  -2   2    7.82    0.58 
  -5  -2   2    7.68    0.45 
  -5  -2   2    8.36    0.78 
   5   2  -2    7.96    0.43 
  -5   2   2    8.30    0.61 
  -5   2   2    7.76    0.52 
  -4  -2   2    0.12    0.11 
  -4  -2   2    0.20    0.16 
  -4  -2   2    0.08    0.10 
  -4  -2   2   -0.04    0.31 
  -4  -2   2    0.16    0.11 
  -4  -2   2    0.07    0.18 
  -4  -2   2    0.16    0.27 
  -4   2   2    0.07    0.15 
  -4   2   2    0.12    0.06 
   4   2  -2    0.05    0.06 
   4   2  -2    0.20    0.21 
  -3  -2   2   10.19    0.56 
  -3  -2   2   10.30    0.60 
  -3  -2   2    9.91    0.64 
   3  -2  -2   10.15    0.53 
  -3   2   2   10.87    0.56 
   3   2  -2    9.76    0.51 
  -3   2   2   10.52    0.50 
  -3   2   2   10.49    0.52 
   3   2  -2   10.32    0.62 
  -3   2   2   10.44    0.57 
  -2  -2   2  131.72    5.63 
   2  -2  -2  113.05    5.52 
  -2  -2   2  116.24    5.64 
   2   2  -2  121.73    5.58 
   2   2  -2  111.50    5.56 
  -2   2   2  119.27    5.57 
  -2   2   2  119.00    5.53 
  -2   2   2  118.99    5.50 
   2   2  -2  109.90    5.57 
  -2   2   2  115.69    5.60 
  -2   2   2  122.28    5.52 
  -2   2   2  114.62    5.50 
   1  -2  -2  559.19   26.90 
  -1  -2   2  537.84   27.17 
   1  -2  -2  599.35   27.06 
   1  -2  -2  613.80   26.96 
   1  -2  -2  591.24   26.92 
  -1  -2   2  540.66   26.95 
   1  -2  -2  600.73   26.93 
  -1  -2   2  573.34   26.91 
  -1  -2   2  536.65   26.91 
  -1  -2   2  577.47   26.90 
   1  -2  -2  583.64   26.90 
  -1  -2   2  581.52   26.91 
   1  -2  -2  552.56   26.93 
  -1  -2   2  561.35   26.90 
  -1  -2   2  573.60   27.02 
  -1  -2   2  556.91   27.06 
   1   2  -2  560.99   26.91 
  -1   2   2  566.20   26.89 
  -1   2   2  582.09   26.90 
   1   2  -2  599.93   26.90 
  -1   2   2  543.81   26.98 
   1   2  -2  608.52   26.97 
   1   2  -2  625.37   26.91 
  -1   2   2  593.82   27.06 
   1   2  -2  629.50   26.95 
  -1   2   2  596.33   26.91 
   1   2  -2  580.36   26.96 
  -1   2   2  551.93   26.89 
   1   2  -2  605.70   27.09 
   1   2  -2  601.24   26.96 
   0  -2   2  139.86    6.66 
   0  -2   2  137.67    6.63 
   0  -2  -2  143.71    6.69 
   0  -2   2  139.30    6.63 
   0  -2   2  146.84    6.79 
   0  -2  -2  151.91    6.82 
   0  -2   2  144.02    6.69 
   0  -2  -2  144.68    6.63 
   0  -2   2  148.26    6.64 
   0  -2   2  136.99    6.67 
   0  -2  -2  154.44    6.70 
   0  -2  -2  139.12    6.64 
   0  -2  -2  142.74    6.66 
   0  -2  -2  144.18    6.73 
   0  -2  -2  139.94    6.63 
   0  -2   2  138.34    6.69 
   0  -2  -2  135.66    6.70 
   0  -2   2  146.02    6.64 
   0   2  -2  139.54    6.66 
   0   2  -2  148.49    6.64 
   0   2  -2  148.24    6.81 
   0   2   2  142.78    6.63 
   0   2   2  126.59    6.66 
   0   2   2  136.30    6.68 
   0   2   2  137.20    6.64 
   0   2  -2  143.71    6.63 
   0   2   2  136.13    6.67 
   0   2  -2  136.47    6.69 
   0   2  -2  140.26    6.68 
   0   2   2  144.49    6.64 
   0   2   2  142.49    6.75 
   0   2   2  145.80    6.78 
   0   2   2  149.29    6.70 
   0   2  -2  139.11    6.74 
   0   2   2  143.09    6.63 
   0   2  -2  144.90    6.72 
   0   2  -2  147.21    6.66 
   0   2  -2  144.68    6.63 
   0   2  -2  138.03    6.63 
   1  -2   2    5.97    0.37 
  -1  -2  -2    6.49    0.53 
   1  -2   2    6.02    0.41 
   1  -2   2    6.03    0.42 
   1  -2   2    6.74    0.37 
  -1  -2  -2    5.77    0.43 
   1  -2   2    5.77    0.41 
  -1  -2  -2    6.50    0.36 
  -1  -2  -2    6.10    0.40 
  -1  -2  -2    6.71    0.70 
   1  -2   2    6.08    0.51 
  -1  -2  -2    6.68    0.55 
  -1  -2  -2    6.39    0.45 
  -1   2  -2    6.46    0.50 
  -1   2  -2    6.04    0.80 
   1   2   2    6.23    0.53 
   1   2   2    6.44    0.46 
   1   2   2    5.24    0.43 
   1   2   2    6.81    0.36 
  -1   2  -2    6.95    0.45 
  -1   2  -2    5.85    0.46 
  -1   2  -2    6.36    0.36 
  -1   2  -2    5.84    0.50 
   1   2   2    6.51    0.44 
   1   2   2    6.90    0.56 
   1   2   2    6.76    0.38 
  -2  -2  -2   10.94    0.77 
  -2  -2  -2   10.45    0.69 
  -2  -2  -2   10.78    0.76 
   2  -2   2   10.69    0.53 
   2  -2   2   10.87    0.62 
   2  -2   2   11.26    0.75 
   2  -2   2   10.31    0.57 
  -2   2  -2   11.58    0.67 
   2   2   2   10.26    0.72 
   2   2   2   10.92    0.80 
  -2   2  -2   11.06    0.73 
   2   2   2    9.44    0.65 
   2   2   2   11.59    0.54 
   2   2   2   10.62    0.59 
   3  -2   2   60.62    2.85 
  -3  -2  -2   57.94    2.94 
  -3  -2  -2   56.93    2.91 
  -3  -2  -2   58.48    2.93 
   3  -2   2   60.81    2.96 
  -3  -2  -2   60.46    2.89 
  -3  -2  -2   59.06    3.14 
  -3   2  -2   63.90    2.88 
  -3   2  -2   58.47    3.07 
  -3   2  -2   60.55    2.91 
   3   2   2   63.96    2.87 
   3   2   2   63.12    2.88 
   3   2   2   69.11    3.02 
   4  -2   2   10.57    0.69 
  -4  -2  -2   11.21    0.60 
  -4  -2  -2   10.75    0.88 
  -4  -2  -2   11.64    0.62 
   4  -2   2   11.42    0.56 
  -4  -2  -2   10.88    0.67 
  -4  -2  -2   11.28    0.74 
  -4   2  -2    9.12    0.72 
  -4   2  -2   11.59    0.64 
   4   2   2   10.70    0.76 
   4   2   2   11.69    0.58 
  -4   2  -2   10.63    0.63 
  -4   2  -2   11.59    0.60 
  -5  -2  -2    5.90    0.40 
  -5  -2  -2    5.82    0.55 
  -5  -2  -2    5.54    0.44 
  -5  -2  -2    5.71    0.37 
  -5  -2  -2    5.88    0.38 
  -5  -2  -2    5.56    0.40 
  -5  -2  -2    5.98    0.52 
  -5  -2  -2    5.58    0.54 
  -5  -2  -2    5.26    0.44 
  -5  -2  -2    5.94    0.35 
  -5  -2  -2    5.66    0.39 
  -5   2  -2    5.73    0.32 
  -5   2  -2    6.18    0.32 
  -5   2  -2    5.56    0.67 
  -5   2  -2    6.05    0.31 
  -5   2  -2    5.81    0.39 
  -5   2  -2    5.59    0.34 
  -5   2  -2    6.35    0.31 
  -5   2  -2    6.68    0.54 
  -5   2  -2    6.28    0.33 
  -5   2  -2    5.94    0.35 
  -6  -2  -2    5.66    0.31 
  -6  -2  -2    5.57    0.29 
  -6  -2  -2    5.19    0.30 
  -6  -2  -2    5.66    0.48 
  -6  -2  -2    5.27    0.32 
  -6  -2  -2    5.79    0.30 
  -6  -2  -2    5.60    0.50 
  -6  -2  -2    5.33    0.29 
  -6   2  -2    5.53    0.28 
  -6   2  -2    4.70    0.49 
  -6   2  -2    5.38    0.28 
  -7  -3   2    2.33    0.37 
  -7  -3   2    2.39    0.13 
  -7  -3   2    2.39    0.13 
  -7  -3   2    2.46    0.14 
  -6  -3   2    9.52    0.72 
  -6  -3   2   10.94    0.57 
  -6  -3   2   11.40    0.81 
  -6  -3   2   11.32    0.73 
  -6  -3   2   11.16    0.75 
  -6  -3   2   10.82    0.55 
  -6  -3   2   10.98    0.56 
  -6  -3   2   10.93    0.93 
  -6  -3   2   11.17    0.55 
  -6  -3   2   10.32    0.56 
  -5  -3   2    9.03    0.60 
  -5  -3   2    8.44    0.50 
  -5  -3   2    8.43    0.50 
  -5  -3   2    8.58    0.51 
  -5  -3   2    8.88    0.63 
  -5  -3   2    9.44    0.58 
  -5  -3   2    9.39    0.88 
  -5  -3   2    9.79    0.66 
  -5   3   2    8.01    0.56 
   5   3  -2    9.22    0.48 
  -4  -3   2   54.61    2.56 
  -4  -3   2   51.13    2.69 
  -4  -3   2   54.06    2.61 
  -4  -3   2   53.89    2.51 
  -4  -3   2   53.82    2.56 
  -4  -3   2   54.04    2.79 
  -4  -3   2   53.05    2.64 
  -4  -3   2   51.20    2.48 
  -4  -3   2   46.86    2.54 
  -4   3   2   53.70    2.48 
   4   3  -2   49.77    2.61 
  -4   3   2   49.97    2.54 
   4   3  -2   54.22    2.47 
  -3  -3   2    6.72    0.49 
  -3  -3   2    7.48    0.50 
  -3  -3   2    7.78    0.46 
   3  -3  -2    7.23    0.43 
  -3  -3   2    7.01    0.54 
  -3   3   2    7.31    0.40 
  -3   3   2    7.21    0.40 
   3   3  -2    7.35    0.38 
  -3   3   2    7.99    0.53 
   3   3  -2    7.74    0.53 
   3   3  -2    6.84    0.39 
   3   3  -2    6.98    0.73 
  -3   3   2    7.16    0.44 
  -3   3   2    7.35    0.40 
  -2  -3   2  404.80   19.80 
  -2  -3   2  426.24   19.86 
  -2  -3   2  415.30   19.86 
  -2  -3   2  421.75   20.02 
   2  -3  -2  407.80   19.69 
   2  -3  -2  424.34   19.75 
  -2   3   2  473.80   19.76 
  -2   3   2  434.80   19.76 
   2   3  -2  379.57   19.80 
   2   3  -2  437.90   19.70 
  -2   3   2  414.96   19.84 
  -2   3   2  389.84   19.76 
   2   3  -2  432.76   19.82 
  -2   3   2  449.85   19.74 
   2   3  -2  451.83   19.81 
  -1  -3   2   35.13    1.58 
   1  -3  -2   27.43    1.59 
   1  -3  -2   30.68    1.62 
  -1  -3   2   32.15    1.63 
   1  -3  -2   32.31    1.63 
   1  -3  -2   32.58    1.61 
  -1  -3   2   34.19    1.95 
  -1  -3   2   30.05    1.62 
  -1  -3   2   32.03    1.71 
   1   3  -2   34.42    1.65 
  -1   3   2   36.06    1.73 
   1   3  -2   34.09    1.58 
   1   3  -2   33.21    1.80 
  -1   3   2   32.83    1.68 
   1   3  -2   32.65    1.64 
  -1   3   2   33.28    1.56 
   1   3  -2   31.14    1.63 
   1   3  -2   32.59    1.56 
   0  -3   2    5.17    0.48 
   0  -3  -2    5.44    0.40 
   0  -3  -2    5.47    0.40 
   0  -3  -2    5.64    0.32 
   0  -3   2    4.72    0.39 
   0  -3   2    5.32    0.40 
   0  -3   2    5.39    0.33 
   0  -3  -2    5.15    0.32 
   0  -3   2    5.03    0.31 
   0  -3  -2    5.96    0.55 
   0  -3   2    5.48    0.40 
   0  -3  -2    5.02    0.39 
   0   3   2    5.30    0.49 
   0   3  -2    5.29    0.47 
   0   3  -2    5.20    0.31 
   0   3   2    4.92    0.40 
   0   3  -2    5.56    0.31 
   0   3  -2    5.04    0.47 
   0   3   2    5.22    0.39 
   0   3   2    5.76    0.37 
   0   3  -2    5.87    0.39 
   0   3   2    4.65    0.73 
   0   3  -2    5.39    0.50 
   0   3   2    4.85    0.28 
   0   3  -2    5.17    0.34 
   0   3  -2    4.43    0.38 
   1  -3   2    8.93    0.56 
   1  -3   2    8.34    0.50 
   1  -3   2    9.43    0.57 
  -1  -3  -2    9.08    0.70 
   1  -3   2    9.67    0.68 
  -1  -3  -2   10.13    0.92 
   1  -3   2    9.06    0.58 
  -1  -3  -2    8.03    0.55 
  -1  -3  -2    9.02    0.58 
  -1   3  -2    9.30    0.62 
  -1   3  -2    9.51    0.62 
   1   3   2    8.62    0.70 
  -1   3  -2    9.75    0.67 
  -1   3  -2    8.89    0.60 
   1   3   2    9.89    0.60 
  -1   3  -2    9.19    0.50 
   1   3   2    9.56    0.61 
   1   3   2    9.67    0.71 
   1   3   2    9.20    0.59 
   1   3   2    8.37    0.51 
   2  -3   2   67.74    3.20 
  -2  -3  -2   67.82    3.49 
   2  -3   2   68.16    3.21 
   2  -3   2   72.48    3.44 
   2  -3   2   65.93    3.29 
  -2  -3  -2   71.78    3.58 
  -2  -3  -2   64.08    3.22 
  -2   3  -2   65.99    3.25 
   2   3   2   67.51    3.34 
   2   3   2   63.35    3.34 
   2   3   2   69.91    3.27 
   2   3   2   69.03    3.52 
   2   3   2   68.24    3.46 
  -2   3  -2   76.68    3.28 
  -2   3  -2   67.76    3.28 
  -2   3  -2   68.33    3.35 
  -2   3  -2   70.76    3.43 
   2   3   2   68.55    3.22 
   2   3   2   68.08    3.21 
  -3  -3  -2   16.41    0.86 
  -3  -3  -2   18.05    0.90 
  -3  -3  -2   17.23    0.91 
  -3  -3  -2   17.05    0.99 
   3  -3   2   16.28    0.93 
   3  -3   2   17.43    0.81 
  -3  -3  -2   16.87    0.92 
  -3  -3  -2   15.85    1.12 
   3   3   2   16.46    0.84 
  -3   3  -2   18.05    0.88 
  -3   3  -2   15.28    0.92 
   3   3   2   15.70    0.98 
  -3   3  -2   16.03    0.84 
   3   3   2   16.87    0.83 
  -3   3  -2   16.94    1.05 
  -4  -3  -2    9.00    0.61 
  -4  -3  -2    8.11    0.49 
  -4  -3  -2    8.10    0.61 
  -4  -3  -2    8.21    0.48 
  -4  -3  -2    8.60    0.52 
  -4  -3  -2    8.26    0.66 
   4  -3   2    8.72    0.44 
  -4  -3  -2    8.01    0.78 
  -4   3  -2    8.25    0.52 
  -4   3  -2    8.10    0.47 
   4   3   2    7.77    0.47 
  -4   3  -2    8.06    0.58 
  -4   3  -2    8.96    0.51 
   4   3   2    8.57    0.48 
  -5  -3  -2   10.88    0.70 
  -5  -3  -2   10.90    0.73 
  -5  -3  -2   10.71    0.72 
  -5  -3  -2   10.58    0.63 
  -5  -3  -2   11.20    0.69 
  -5  -3  -2   11.37    0.75 
  -5  -3  -2   11.14    0.63 
  -5  -3  -2   10.51    0.58 
  -5  -3  -2   11.16    0.72 
  -5  -3  -2   11.31    0.61 
  -5  -3  -2   11.03    0.61 
  -5  -3  -2   10.84    0.61 
  -5  -3  -2   10.81    0.63 
  -5   3  -2   11.01    0.62 
  -5   3  -2   10.11    0.87 
  -5   3  -2   10.21    0.56 
  -5   3  -2   11.56    0.55 
  -5   3  -2   11.35    0.57 
  -5   3  -2   10.98    0.73 
  -5   3  -2   10.62    0.55 
  -5   3  -2   11.85    0.54 
  -5   3  -2   10.10    0.55 
  -5   3  -2   11.35    0.54 
  -5   3  -2   11.30    0.58 
  -6  -3  -2    5.22    0.32 
  -6  -3  -2    5.41    0.28 
  -6  -3  -2    4.91    0.29 
  -6  -3  -2    4.88    0.30 
  -6  -3  -2    5.95    0.48 
  -6  -3  -2    4.75    0.29 
  -6  -3  -2    5.78    0.48 
  -6   3  -2    4.88    0.25 
  -6   3  -2    5.50    0.47 
  -6   3  -2    4.89    0.24 
  -6   3  -2    5.08    0.26 
  -7  -4   2    6.18    0.31 
  -7  -4   2    6.66    0.32 
  -7  -4   2    6.07    0.46 
  -6  -4   2    2.08    0.43 
  -6  -4   2    2.23    0.24 
  -6  -4   2    1.86    0.39 
  -6  -4   2    2.45    0.19 
  -6  -4   2    2.39    0.19 
  -6  -4   2    2.14    0.21 
  -6  -4   2    2.54    0.31 
  -6  -4   2    2.40    0.22 
  -6  -4   2    2.18    0.49 
  -6  -4   2    2.33    0.57 
  -5  -4   2   12.33    0.63 
  -5  -4   2   13.17    0.77 
  -5  -4   2   10.23    0.96 
  -5  -4   2   11.31    0.62 
  -5  -4   2   11.45    0.72 
   5  -4  -2   11.95    0.55 
  -5  -4   2    8.98    0.68 
  -5  -4   2   11.61    0.64 
  -5  -4   2   12.00    0.76 
  -5   4   2   11.34    0.57 
   5   4  -2    9.01    0.58 
  -5   4   2   11.24    0.65 
  -4  -4   2   28.45    1.49 
  -4  -4   2   30.06    1.56 
  -4  -4   2   29.43    1.47 
  -4  -4   2   30.25    1.53 
  -4  -4   2   32.59    1.62 
  -4  -4   2   30.28    1.48 
  -4  -4   2   28.61    1.45 
  -4  -4   2   29.45    1.63 
  -4  -4   2   32.95    1.69 
  -4  -4   2   27.02    1.77 
   4  -4  -2   30.80    1.40 
   4   4  -2   31.28    1.63 
   4   4  -2   31.69    1.44 
  -4   4   2   27.50    1.44 
  -4   4   2   27.14    1.50 
   4   4  -2   29.74    1.44 
  -4   4   2   28.64    1.47 
   3  -4  -2   26.18    1.31 
  -3  -4   2   25.07    1.36 
  -3  -4   2   25.68    1.32 
  -3  -4   2   24.87    1.56 
   3  -4  -2   26.48    1.21 
  -3  -4   2   24.86    1.40 
  -3  -4   2   26.24    1.30 
  -3  -4   2   27.69    1.27 
  -3   4   2   24.00    1.41 
  -3   4   2   24.81    1.29 
  -3   4   2   25.39    1.26 
  -3   4   2   26.49    1.41 
   3   4  -2   22.86    1.61 
   3   4  -2   26.74    1.39 
   3   4  -2   27.46    1.24 
  -3   4   2   24.67    1.24 
  -3   4   2   27.03    1.27 
   3   4  -2   23.94    1.24 
   2  -4  -2   22.91    1.17 
  -2  -4   2   22.41    1.31 
   2  -4  -2   22.51    1.08 
  -2  -4   2   21.76    1.11 
  -2  -4   2   24.52    1.54 
   2   4  -2   24.65    1.23 
   2   4  -2   19.66    1.09 
   2   4  -2   22.47    1.43 
  -2   4   2   22.96    1.17 
   2   4  -2   24.04    1.25 
  -2   4   2   23.87    1.19 
   2   4  -2   21.64    1.10 
  -2   4   2   22.79    1.13 
  -2   4   2   21.70    1.27 
  -2   4   2   23.52    1.30 
  -2   4   2   23.17    1.14 
  -1  -4   2  177.26    8.19 
   1  -4  -2  166.27    8.19 
  -1  -4   2  168.63    8.19 
   1  -4  -2  160.59    8.19 
   1  -4  -2  171.70    8.17 
   1   4  -2  164.11    8.18 
   1   4  -2  190.47    8.22 
   1   4  -2  179.50    8.21 
  -1   4   2  174.06    8.28 
   1   4  -2  172.61    8.28 
   1   4  -2  178.39    8.35 
  -1   4   2  172.42    8.29 
  -1   4   2  181.35    8.26 
   1   4  -2  176.01    8.41 
  -1   4   2  171.60    8.27 
  -1   4   2  173.93    8.11 
   0  -4   2   30.17    1.65 
   0  -4   2   27.54    1.48 
   0  -4  -2   28.86    1.51 
   0  -4  -2   26.66    1.49 
   0  -4  -2   28.03    1.66 
   0  -4  -2   28.73    1.49 
   0  -4   2   29.39    1.50 
   0  -4   2   30.29    1.51 
   0   4   2   30.59    1.51 
   0   4   2   30.13    1.50 
   0   4  -2   28.36    1.48 
   0   4   2   28.68    1.59 
   0   4  -2   29.30    1.58 
   0   4  -2   33.27    1.44 
   0   4   2   26.59    1.60 
   0   4  -2   29.69    1.49 
   0   4   2   29.59    1.61 
   0   4  -2   28.58    1.62 
   0   4  -2   27.46    1.56 
   1  -4   2   97.38    4.30 
   1  -4   2   90.42    4.36 
  -1  -4  -2   90.81    4.38 
   1  -4   2   82.67    4.37 
   1  -4   2   84.91    4.26 
  -1  -4  -2   87.16    4.53 
   1  -4   2   92.20    4.52 
  -1   4  -2   87.62    4.46 
   1   4   2   87.54    4.56 
  -1   4  -2   89.90    4.43 
   1   4   2   98.09    4.54 
   1   4   2   86.22    4.47 
  -1   4  -2   95.69    4.44 
   1   4   2   95.38    4.39 
   1   4   2   94.65    4.41 
  -1   4  -2   97.94    4.53 
  -1   4  -2   92.41    4.30 
  -2  -4  -2   26.27    1.67 
  -2  -4  -2   23.91    1.21 
   2  -4   2   25.24    1.18 
   2  -4   2   26.08    1.30 
   2  -4   2   23.57    1.18 
   2  -4   2   25.97    1.46 
  -2  -4  -2   23.98    1.21 
  -2  -4  -2   23.59    1.49 
  -2   4  -2   25.18    1.40 
   2   4   2   21.51    1.50 
   2   4   2   20.58    1.19 
  -2   4  -2   23.12    1.23 
  -2   4  -2   26.53    1.46 
   2   4   2   24.16    1.19 
   2   4   2   23.59    1.47 
   2   4   2   25.48    1.37 
  -2   4  -2   25.64    1.23 
   2   4   2   25.39    1.35 
  -2   4  -2   26.20    1.28 
  -2   4  -2   25.57    1.36 
  -3  -4  -2   45.73    2.28 
  -3  -4  -2   44.99    2.26 
   3  -4   2   47.12    2.17 
  -3  -4  -2   45.85    2.36 
  -3  -4  -2   46.85    2.22 
  -3  -4  -2   48.58    2.58 
   3  -4   2   48.82    2.31 
  -3  -4  -2   48.06    2.28 
  -3   4  -2   41.78    2.28 
   3   4   2   42.99    2.36 
  -3   4  -2   47.22    2.24 
  -3   4  -2   45.42    2.20 
   3   4   2   43.75    2.19 
   3   4   2   47.68    2.20 
  -3   4  -2   44.99    2.44 
  -4  -4  -2   14.71    0.77 
  -4  -4  -2   13.24    0.75 
  -4  -4  -2   14.07    0.83 
   4  -4   2   13.65    0.69 
  -4  -4  -2   13.78    0.86 
  -4  -4  -2   14.23    0.93 
  -4  -4  -2   13.63    0.77 
  -4  -4  -2   14.77    0.75 
  -4  -4  -2   13.29    0.77 
  -4   4  -2   13.37    0.83 
  -4   4  -2   11.64    0.74 
   4   4   2   13.26    0.73 
  -4   4  -2   14.13    0.72 
  -4   4  -2   13.97    0.77 
  -4   4  -2   13.54    0.77 
  -5  -4  -2    0.95    0.30 
  -5  -4  -2    1.10    0.36 
  -5  -4  -2    1.05    0.19 
  -5  -4  -2    0.96    0.28 
  -5  -4  -2    1.29    0.27 
  -5  -4  -2    1.02    0.31 
  -5  -4  -2    1.27    0.24 
  -5  -4  -2    1.00    0.19 
  -5  -4  -2    0.65    0.18 
  -5  -4  -2    1.06    0.26 
  -5  -4  -2    0.79    0.18 
  -5  -4  -2    0.95    0.22 
  -5   4  -2    0.87    0.13 
  -5   4  -2    0.96    0.16 
  -5   4  -2    1.03    0.10 
  -5   4  -2    0.95    0.11 
  -5   4  -2    0.91    0.12 
  -5   4  -2    0.98    0.15 
  -5   4  -2    0.88    0.11 
  -5   4  -2    0.35    0.32 
  -5   4  -2    1.27    0.30 
  -5   4  -2    0.93    0.11 
  -6  -4  -2    9.31    0.47 
  -6  -4  -2    9.57    0.58 
  -6  -4  -2    9.51    0.49 
  -6  -4  -2    9.14    0.46 
  -6  -4  -2    8.61    0.50 
  -6  -4  -2    8.84    0.56 
  -6  -4  -2    9.17    0.57 
  -6  -4  -2    8.41    0.48 
  -6  -4  -2    8.43    0.59 
  -6  -4  -2    9.37    0.47 
  -6  -4  -2    9.10    0.60 
  -6   4  -2    9.03    0.44 
  -6   4  -2    8.53    0.58 
  -7  -5   2   11.00    0.68 
  -7  -5   2    9.25    0.45 
  -7  -5   2    8.94    0.44 
  -6  -5   2   39.78    1.97 
  -6  -5   2   42.22    1.96 
  -6  -5   2   36.72    2.20 
  -6  -5   2   41.70    2.10 
  -6  -5   2   42.71    1.97 
  -6  -5   2   40.26    1.96 
  -6  -5   2   40.59    1.97 
  -6  -5   2   41.10    1.95 
  -6  -5   2   43.52    2.05 
  -6  -5   2   43.89    2.07 
  -6   5   2   38.20    1.91 
  -6   5   2   42.00    1.91 
  -5  -5   2    5.14    0.38 
  -5  -5   2    5.66    0.51 
  -5  -5   2    4.75    0.62 
  -5  -5   2    5.77    0.61 
  -5  -5   2    5.41    0.41 
  -5  -5   2    5.18    0.38 
  -5  -5   2    5.47    0.34 
  -5  -5   2    5.49    0.52 
  -5  -5   2    5.21    0.40 
  -5  -5   2    5.78    0.37 
  -5  -5   2    5.21    0.40 
  -5  -5   2    5.37    0.68 
  -5  -5   2    5.23    0.38 
  -5  -5   2    5.56    0.53 
  -5  -5   2    5.78    0.55 
   5   5  -2    4.54    0.35 
  -5   5   2    5.28    0.27 
  -5   5   2    5.75    0.33 
  -5   5   2    5.34    0.28 
  -5   5   2    5.12    0.42 
  -5   5   2    5.31    0.27 
  -5   5   2    5.17    0.27 
  -5   5   2    4.95    0.26 
  -5   5   2    4.91    0.27 
  -5   5   2    5.32    0.57 
  -4  -5   2   52.83    2.80 
  -4  -5   2   55.67    2.63 
  -4  -5   2   51.41    2.75 
  -4  -5   2   56.14    2.67 
   4  -5  -2   58.04    2.58 
  -4  -5   2   55.24    2.84 
  -4  -5   2   56.02    2.66 
  -4  -5   2   50.39    2.82 
  -4  -5   2   50.53    3.01 
  -4  -5   2   58.68    2.82 
  -4  -5   2   55.44    2.70 
  -4  -5   2   57.23    2.66 
  -4   5   2   56.03    2.64 
   4   5  -2   54.89    2.61 
   4   5  -2   50.09    2.81 
  -4   5   2   54.85    2.64 
   4   5  -2   57.58    2.62 
  -3  -5   2    3.80    0.47 
  -3  -5   2    3.47    0.56 
  -3  -5   2    3.59    0.38 
   3  -5  -2    4.08    0.36 
  -3  -5   2    3.70    0.35 
  -3  -5   2    3.60    0.47 
  -3  -5   2    3.88    0.46 
   3  -5  -2    3.89    0.23 
  -3  -5   2    4.22    0.31 
  -3  -5   2    4.10    0.38 
   3   5  -2    3.61    0.63 
  -3   5   2    3.90    0.32 
   3   5  -2    2.92    0.42 
  -3   5   2    3.50    0.32 
   3   5  -2    4.08    0.45 
  -3   5   2    4.07    0.47 
  -3   5   2    4.23    0.25 
  -3   5   2    3.66    0.48 
  -3   5   2    3.43    0.41 
   3   5  -2    3.87    0.26 
  -3   5   2    3.60    0.27 
  -3   5   2    3.76    0.31 
  -2  -5   2   46.27    2.26 
  -2  -5   2   38.12    2.60 
  -2  -5   2   44.45    2.16 
   2  -5  -2   46.87    2.12 
   2  -5  -2   47.57    2.24 
  -2  -5   2   47.39    2.50 
  -2  -5   2   43.22    2.38 
  -2  -5   2   42.62    2.15 
   2  -5  -2   43.18    2.12 
   2  -5  -2   43.55    2.40 
   2   5  -2   47.59    2.53 
  -2   5   2   45.21    2.38 
   2   5  -2   44.87    2.13 
  -2   5   2   45.41    2.17 
   2   5  -2   44.33    2.28 
  -2   5   2   45.21    2.22 
   2   5  -2   43.22    2.25 
   2   5  -2   45.60    2.31 
  -2   5   2   45.12    2.18 
  -2   5   2   46.43    2.36 
  -2   5   2   46.67    2.25 
  -1  -5   2   35.76    2.16 
  -1  -5   2   41.57    2.02 
   1  -5  -2   38.21    1.87 
   1  -5  -2   41.00    1.99 
   1  -5  -2   39.08    2.17 
   1  -5  -2   39.30    2.01 
  -1  -5   2   38.86    1.90 
  -1  -5   2   39.29    2.00 
   1  -5  -2   38.96    1.87 
   1   5  -2   39.76    2.17 
  -1   5   2   39.62    2.08 
   1   5  -2   37.66    1.87 
   1   5  -2   39.61    1.98 
  -1   5   2   38.88    2.10 
  -1   5   2   36.46    1.89 
  -1   5   2   41.43    2.16 
   1   5  -2   39.68    2.12 
   1   5  -2   39.65    2.02 
  -1   5   2   44.57    2.15 
   0  -5  -2   94.93    4.52 
   0  -5  -2   86.04    4.66 
   0  -5   2   97.93    4.67 
   0  -5   2   90.65    4.51 
   0  -5  -2  106.47    4.68 
   0   5  -2  106.73    4.57 
   0   5  -2   96.32    4.63 
   0   5  -2   88.54    4.53 
   0   5  -2  105.09    4.83 
   0   5   2   99.24    4.81 
   0   5   2   98.15    4.79 
   0   5   2   96.20    4.61 
   0   5  -2   94.47    4.60 
   0   5   2   99.87    4.78 
   0   5   2   96.32    4.64 
   0   5  -2   94.60    4.75 
   0   5   2   90.72    4.64 
   1  -5   2   25.84    1.42 
  -1  -5  -2   25.91    1.40 
   1  -5   2   25.46    1.56 
   1  -5   2   25.73    1.27 
  -1  -5  -2   24.03    1.30 
  -1  -5  -2   23.75    1.56 
   1  -5   2   26.07    1.32 
   1  -5   2   26.18    1.26 
  -1  -5  -2   27.14    1.31 
  -1  -5  -2   26.10    1.42 
   1  -5   2   29.08    1.41 
   1   5   2   25.58    1.27 
   1   5   2   25.04    1.51 
  -1   5  -2   27.25    1.57 
  -1   5  -2   25.75    1.28 
  -1   5  -2   27.96    1.48 
   1   5   2   28.07    1.60 
   1   5   2   26.33    1.40 
  -1   5  -2   28.06    1.33 
   1   5   2   27.35    1.45 
  -1   5  -2   27.22    1.52 
  -2  -5  -2   20.88    1.17 
   2  -5   2   23.51    1.08 
  -2  -5  -2   23.53    1.66 
  -2  -5  -2   22.23    1.12 
  -2  -5  -2   21.14    1.12 
  -2  -5  -2   24.07    1.49 
   2  -5   2   23.12    1.22 
  -2  -5  -2   21.08    1.14 
  -2  -5  -2   20.52    1.12 
  -2  -5  -2   20.99    1.21 
  -2  -5  -2   22.86    1.19 
   2  -5   2   21.86    1.08 
  -2   5  -2   23.11    1.22 
   2   5   2   23.07    1.31 
   2   5   2   22.08    1.09 
  -2   5  -2   23.34    1.39 
  -2   5  -2   22.14    1.33 
   2   5   2   22.47    1.45 
   2   5   2   20.52    1.26 
  -2   5  -2   18.03    1.24 
  -2   5  -2   23.34    1.15 
  -2   5  -2   23.24    1.11 
  -2   5  -2   22.51    1.14 
  -2   5  -2   23.12    1.20 
  -2   5  -2   22.00    1.14 
  -3  -5  -2    5.47    0.44 
  -3  -5  -2    6.01    0.46 
  -3  -5  -2    5.90    0.47 
  -3  -5  -2    5.98    0.57 
  -3  -5  -2    6.54    0.74 
  -3  -5  -2    6.03    0.50 
   3  -5   2    6.06    0.50 
  -3  -5  -2    6.70    0.43 
  -3  -5  -2    5.55    0.42 
   3  -5   2    5.68    0.34 
  -3   5  -2    6.34    0.39 
  -3   5  -2    5.94    0.61 
  -3   5  -2    5.75    0.43 
  -3   5  -2    5.68    0.51 
   3   5   2    6.27    0.39 
  -3   5  -2    6.32    0.37 
   3   5   2    6.00    0.58 
  -4  -5  -2    6.57    0.67 
  -4  -5  -2    6.92    0.48 
  -4  -5  -2    7.70    0.49 
   4  -5   2    6.71    0.39 
  -4  -5  -2    6.60    0.49 
  -4  -5  -2    7.11    0.51 
  -4  -5  -2    6.97    0.49 
  -4  -5  -2    6.73    0.56 
  -4  -5  -2    6.96    0.59 
   4   5   2    6.79    0.44 
  -4   5  -2    6.46    0.46 
  -4   5  -2    7.25    0.43 
  -4   5  -2    6.38    0.41 
  -4   5  -2    7.06    0.49 
  -5  -5  -2    7.81    0.62 
  -5  -5  -2    7.89    0.49 
  -5  -5  -2    7.51    0.54 
  -5  -5  -2    7.57    0.61 
  -5  -5  -2    7.98    0.46 
  -5  -5  -2    8.47    0.64 
  -5  -5  -2    7.01    0.48 
  -5  -5  -2    7.67    0.61 
  -5  -5  -2    9.02    0.49 
  -5  -5  -2    7.84    0.60 
  -5  -5  -2    8.11    0.50 
  -5  -5  -2    7.56    0.51 
  -5  -5  -2    8.10    0.50 
  -5  -5  -2    7.09    0.50 
  -5   5  -2    8.04    0.40 
  -5   5  -2    7.93    0.41 
  -5   5  -2    7.41    0.40 
  -5   5  -2    7.95    0.40 
  -5   5  -2    7.45    0.39 
  -5   5  -2    5.98    0.68 
  -5   5  -2    7.83    0.40 
  -5   5  -2    8.00    0.39 
  -5   5  -2    7.27    0.42 
  -6  -5  -2    1.29    0.31 
  -6  -5  -2    1.50    0.20 
  -6  -5  -2    1.46    0.19 
  -6  -5  -2    1.60    0.18 
  -6  -5  -2    1.59    0.30 
  -6  -5  -2    1.38    0.18 
  -6  -5  -2    1.30    0.17 
  -6  -5  -2    1.36    0.25 
  -6  -5  -2    1.50    0.15 
  -6   5  -2    1.67    0.10 
  -6  -6   2    4.46    0.33 
  -6  -6   2    4.58    0.31 
  -6  -6   2    4.90    0.54 
  -6  -6   2    4.67    0.33 
  -6  -6   2    4.20    0.44 
  -6  -6   2    4.60    0.31 
  -6  -6   2    4.84    0.29 
  -6  -6   2    4.30    0.31 
  -6   6   2    4.67    0.23 
  -5  -6   2   37.86    1.91 
  -5  -6   2   36.41    1.94 
  -5  -6   2   39.10    1.88 
  -5  -6   2   39.13    1.90 
  -5  -6   2   37.05    2.09 
  -5  -6   2   40.09    1.89 
  -5  -6   2   38.23    1.88 
  -5  -6   2   35.94    1.96 
  -5  -6   2   40.66    2.04 
  -5  -6   2   41.29    1.95 
  -5  -6   2   40.20    1.92 
  -5  -6   2   38.42    1.90 
  -5   6   2   38.93    1.82 
  -5   6   2   38.27    1.82 
  -5   6   2   39.75    1.82 
  -5   6   2   42.31    1.92 
  -5   6   2   38.77    1.82 
  -5   6   2   38.40    1.81 
  -5   6   2   37.77    1.86 
  -5   6   2   36.94    1.81 
  -5   6   2   35.74    2.03 
  -4  -6   2    9.94    0.59 
  -4  -6   2   10.43    0.63 
  -4  -6   2   11.26    0.87 
  -4  -6   2   10.18    0.60 
  -4  -6   2    9.43    0.69 
  -4  -6   2   10.02    0.64 
  -4  -6   2    8.42    1.12 
  -4  -6   2    9.55    0.65 
  -4  -6   2   10.59    0.84 
  -4  -6   2   10.23    0.80 
   4  -6  -2   10.14    0.52 
  -4  -6   2    9.73    0.52 
  -4  -6   2    9.44    0.62 
  -4   6   2    9.81    0.59 
  -4   6   2    9.56    0.56 
  -4   6   2   10.27    0.60 
  -4   6   2   10.32    0.55 
   4   6  -2   10.14    0.56 
  -3  -6   2   32.19    1.53 
  -3  -6   2   30.96    1.61 
  -3  -6   2   28.97    1.67 
  -3  -6   2   33.46    1.58 
  -3  -6   2   31.35    1.52 
  -3  -6   2   29.94    1.72 
   3  -6  -2   34.80    1.66 
  -3  -6   2   30.69    1.55 
  -3  -6   2   32.03    1.97 
   3  -6  -2   31.13    1.49 
   3   6  -2   30.56    1.72 
  -3   6   2   32.55    1.59 
   3   6  -2   30.81    1.51 
  -3   6   2   29.82    1.50 
  -3   6   2   30.18    1.56 
  -3   6   2   31.51    1.52 
   3   6  -2   27.37    1.72 
  -3   6   2   28.45    1.56 
  -3   6   2   30.24    1.72 
  -3   6   2   33.62    1.66 
  -3   6   2   29.97    1.78 
  -2  -6   2   32.24    1.65 
  -2  -6   2   33.92    1.71 
  -2  -6   2   28.70    1.91 
  -2  -6   2   32.38    1.58 
   2  -6  -2   33.23    1.69 
  -2  -6   2   32.74    1.59 
   2  -6  -2   31.90    1.54 
  -2  -6   2   31.50    1.55 
   2  -6  -2   31.78    1.54 
  -2   6   2   29.71    1.59 
  -2   6   2   32.38    1.73 
  -2   6   2   32.09    1.57 
  -2   6   2   31.26    1.86 
   2   6  -2   32.30    1.97 
  -2   6   2   31.12    1.83 
  -2   6   2   35.59    1.69 
   2   6  -2   33.40    1.71 
  -2   6   2   33.38    1.71 
   2   6  -2   33.30    1.77 
  -2   6   2   32.49    1.60 
   2   6  -2   32.24    1.55 
  -2   6   2   31.42    1.60 
   1  -6  -2   20.50    0.98 
  -1  -6   2   19.58    1.14 
   1  -6  -2   20.29    1.33 
  -1  -6   2   20.40    1.15 
  -1  -6   2   19.50    1.02 
  -1  -6   2   18.17    1.01 
   1  -6  -2   18.80    1.15 
   1  -6  -2   20.41    1.11 
   1  -6  -2   21.30    1.13 
  -1   6   2   22.11    1.34 
   1   6  -2   18.60    1.24 
   1   6  -2   21.18    1.35 
   1   6  -2   19.10    0.97 
  -1   6   2   19.35    1.00 
   1   6  -2   20.88    1.12 
  -1   6   2   18.51    1.07 
  -1   6   2   22.77    1.30 
   1   6  -2   19.15    1.02 
  -1   6   2   19.58    1.01 
  -1   6   2   19.76    1.27 
  -1   6   2   20.58    1.23 
   1   6  -2   20.13    1.16 
   1   6  -2   18.00    1.01 
   1   6  -2   18.57    1.01 
   0  -6   2   26.06    1.39 
   0  -6   2   25.22    1.41 
   0  -6  -2   26.64    1.42 
   0  -6  -2   23.91    1.38 
   0  -6  -2   24.48    1.23 
   0  -6   2   24.04    1.22 
   0   6  -2   27.16    1.29 
   0   6   2   25.96    1.27 
   0   6  -2   24.29    1.36 
   0   6   2   24.38    1.37 
   0   6  -2   24.00    1.33 
   0   6  -2   22.86    1.26 
   0   6   2   28.39    1.62 
   0   6  -2   26.81    1.59 
   0   6  -2   25.41    1.52 
   0   6   2   25.92    1.53 
   0   6  -2   25.24    1.26 
   0   6   2   26.54    1.36 
   0   6   2   24.31    1.52 
  -1  -6  -2    6.57    0.45 
  -1  -6  -2    7.58    0.46 
  -1  -6  -2    6.37    0.51 
   1  -6   2    6.71    0.38 
   1  -6   2    6.74    0.71 
   1  -6   2    6.42    0.53 
  -1  -6  -2    7.22    0.58 
  -1  -6  -2    6.65    0.47 
  -1  -6  -2    6.74    0.55 
   1  -6   2    7.03    0.58 
   1   6   2    7.62    0.61 
  -1   6  -2    6.31    0.68 
   1   6   2    6.37    0.45 
  -1   6  -2    7.19    0.47 
   1   6   2    6.78    0.40 
   1   6   2    6.88    0.72 
  -1   6  -2    6.82    0.41 
  -1   6  -2    6.41    0.43 
   1   6   2    7.02    0.56 
  -1   6  -2    7.47    0.63 
  -1   6  -2    6.65    0.53 
  -1   6  -2    6.65    0.41 
  -1   6  -2    6.32    0.49 
  -1   6  -2    7.37    0.66 
   1   6   2    7.84    0.77 
  -1   6  -2    6.93    0.50 
   2  -6   2    5.20    0.31 
  -2  -6  -2    4.73    0.40 
  -2  -6  -2    5.64    0.41 
   2  -6   2    5.11    0.46 
  -2  -6  -2    5.12    0.37 
  -2  -6  -2    4.48    0.66 
   2  -6   2    5.19    0.31 
  -2  -6  -2    4.69    0.83 
  -2  -6  -2    5.08    0.48 
  -2  -6  -2    4.86    0.48 
   2   6   2    4.65    0.68 
  -2   6  -2    5.15    0.40 
  -2   6  -2    4.18    0.57 
   2   6   2    4.88    0.57 
  -2   6  -2    5.22    0.50 
  -2   6  -2    4.64    0.51 
  -2   6  -2    4.74    0.43 
  -2   6  -2    4.62    0.41 
   2   6   2    5.64    0.34 
  -2   6  -2    5.02    0.36 
  -2   6  -2    5.97    0.41 
   2   6   2    4.72    0.54 
  -2   6  -2    5.13    0.58 
  -3  -6  -2    3.18    0.36 
  -3  -6  -2    3.70    0.52 
  -3  -6  -2    3.77    0.40 
   3  -6   2    3.69    0.46 
  -3  -6  -2    3.85    0.42 
  -3  -6  -2    4.23    0.46 
  -3  -6  -2    3.96    0.45 
  -3  -6  -2    3.78    0.35 
   3  -6   2    3.59    0.25 
  -3  -6  -2    3.61    0.38 
  -3  -6  -2    3.95    0.68 
  -3   6  -2    2.83    0.51 
  -3   6  -2    3.63    0.36 
   3   6   2    3.84    0.31 
   3   6   2    3.09    0.57 
  -3   6  -2    3.65    0.32 
  -3   6  -2    3.98    0.46 
  -3   6  -2    3.95    0.36 
  -3   6  -2    3.56    0.28 
  -4  -6  -2    3.69    0.41 
  -4  -6  -2    4.06    0.58 
  -4  -6  -2    3.26    0.36 
  -4  -6  -2    4.08    0.42 
  -4  -6  -2    3.07    0.45 
  -4  -6  -2    3.52    0.40 
  -4  -6  -2    2.67    0.43 
  -4  -6  -2    3.76    0.38 
  -4  -6  -2    3.63    0.38 
  -4  -6  -2    3.68    0.41 
  -4  -6  -2    3.74    0.37 
  -4  -6  -2    3.28    0.47 
  -4  -6  -2    4.15    0.47 
  -4  -6  -2    3.33    0.35 
  -4  -6  -2    3.23    0.50 
  -4  -6  -2    3.64    0.39 
   4  -6   2    3.61    0.26 
  -4  -6  -2    3.75    0.43 
  -4  -6  -2    3.22    0.24 
  -4   6  -2    3.91    0.41 
  -4   6  -2    3.50    0.30 
  -4   6  -2    3.38    0.29 
  -4   6  -2    3.71    0.26 
   4   6   2    3.86    0.42 
  -4   6  -2    3.46    0.27 
  -4   6  -2    3.39    0.24 
   4   6   2    3.60    0.32 
  -4   6  -2    3.47    0.58 
  -4   6  -2    3.71    0.35 
  -5  -6  -2    1.79    0.29 
  -5  -6  -2    1.40    0.39 
  -5  -6  -2    1.94    0.27 
  -5  -6  -2    2.01    0.32 
  -5  -6  -2    2.12    0.42 
  -5  -6  -2    2.09    0.29 
  -5  -6  -2    1.75    0.30 
  -5  -6  -2    2.01    0.28 
  -5  -6  -2    1.66    0.33 
  -5  -6  -2    1.92    0.32 
  -5  -6  -2    1.97    0.40 
  -5  -6  -2    2.01    0.40 
  -5   6  -2    2.19    0.14 
  -5   6  -2    2.40    0.52 
   5   6   2    2.15    0.43 
  -5   6  -2    2.12    0.15 
  -5   6  -2    2.20    0.15 
  -5   6  -2    1.89    0.14 
  -5   6  -2    1.70    0.16 
  -5   6  -2    1.99    0.16 
  -5   6  -2    1.84    0.18 
  -6  -6  -2    1.74    0.29 
  -6  -6  -2    1.93    0.18 
  -6  -6  -2    1.24    0.29 
  -6  -6  -2    1.99    0.19 
  -6  -6  -2    1.77    0.15 
  -6  -6  -2    1.75    0.17 
  -6  -6  -2    1.66    0.22 
   6   6   2    1.95    0.26 
  -6   6  -2    1.85    0.10 
  -6  -7   2    8.68    0.46 
  -6  -7   2    8.44    0.63 
  -6  -7   2    8.06    0.48 
  -6  -7   2    9.12    0.50 
  -6  -7   2    8.87    0.47 
  -6  -7   2    8.76    0.49 
  -6   7   2    8.44    0.41 
   6   7  -2    8.39    0.49 
  -5  -7   2    1.22    0.28 
  -5  -7   2    1.92    0.32 
  -5  -7   2    1.70    0.34 
  -5  -7   2    1.88    0.31 
  -5  -7   2    1.42    0.30 
  -5  -7   2    2.02    0.54 
  -5  -7   2    0.79    0.38 
  -5  -7   2    2.37    0.32 
  -5  -7   2    1.96    0.26 
  -5  -7   2    1.96    0.26 
  -5  -7   2    2.10    0.40 
  -5  -7   2    1.92    0.52 
  -5  -7   2    1.86    0.28 
  -5  -7   2    1.83    0.30 
  -5  -7   2    1.96    0.29 
  -5  -7   2    1.44    0.44 
  -5   7   2    1.86    0.14 
  -5   7   2    1.95    0.52 
  -5   7   2    1.94    0.13 
  -5   7   2    1.84    0.14 
  -5   7   2    2.12    0.14 
  -5   7   2    1.91    0.14 
  -5   7   2    1.74    0.14 
   5   7  -2    1.56    0.30 
  -5   7   2    1.65    0.14 
  -4  -7   2    7.28    0.51 
  -4  -7   2    7.36    0.71 
  -4  -7   2    6.43    0.54 
  -4  -7   2    6.55    0.48 
  -4  -7   2    6.63    0.40 
  -4  -7   2    6.99    0.58 
  -4  -7   2    6.99    0.53 
  -4  -7   2    6.35    0.47 
  -4  -7   2    7.23    0.52 
   4  -7  -2    6.51    0.39 
  -4  -7   2    5.69    0.70 
  -4   7   2    6.84    0.47 
  -4   7   2    6.74    0.42 
  -4   7   2    7.98    0.53 
  -4   7   2    6.65    0.66 
   4   7  -2    6.27    0.42 
  -4   7   2    6.48    0.42 
  -4   7   2    6.19    0.46 
   3  -7  -2    1.24    0.19 
  -3  -7   2    1.89    0.44 
  -3  -7   2    1.56    0.28 
  -3  -7   2    1.35    0.24 
  -3  -7   2    1.99    0.28 
  -3  -7   2    1.17    0.30 
  -3  -7   2    1.19    0.24 
   3  -7  -2    1.24    0.34 
  -3  -7   2    1.35    0.56 
  -3  -7   2    1.43    0.33 
  -3  -7   2    1.21    0.39 
   3  -7  -2    1.31    0.17 
  -3   7   2    1.36    0.21 
  -3   7   2    1.81    0.47 
  -3   7   2    1.45    0.43 
  -3   7   2    1.51    0.21 
  -3   7   2    1.53    0.46 
   3   7  -2    1.68    0.45 
  -3   7   2    1.36    0.24 
   3   7  -2    1.55    0.21 
  -3   7   2    1.26    0.25 
  -3   7   2    1.50    0.31 
  -2  -7   2   49.97    2.60 
  -2  -7   2   53.82    2.94 
  -2  -7   2   53.14    2.59 
   2  -7  -2   51.96    2.43 
  -2  -7   2   51.69    2.47 
  -2  -7   2   49.90    2.47 
   2  -7  -2   48.84    2.59 
  -2  -7   2   50.85    2.55 
   2  -7  -2   52.41    2.43 
  -2   7   2   53.22    2.83 
   2   7  -2   51.50    2.43 
  -2   7   2   52.50    2.62 
  -2   7   2   50.92    2.46 
   2   7  -2   50.21    2.60 
   2   7  -2   50.79    2.67 
  -2   7   2   50.83    2.48 
  -2   7   2   50.78    2.49 
   2   7  -2   45.67    2.87 
  -2   7   2   50.84    2.64 
  -2   7   2   50.70    2.49 
  -2   7   2   51.57    2.78 
  -2   7   2   49.13    2.64 
  -1  -7   2   38.78    1.91 
   1  -7  -2   40.35    2.07 
  -1  -7   2   42.85    2.08 
  -1  -7   2   37.91    2.05 
   1  -7  -2   40.72    2.09 
  -1  -7   2   41.17    1.92 
  -1  -7   2   35.23    1.96 
   1  -7  -2   39.74    1.87 
  -1   7   2   44.37    2.27 
   1   7  -2   39.08    1.91 
   1   7  -2   35.60    1.94 
  -1   7   2   35.28    2.14 
   1   7  -2   38.64    2.21 
  -1   7   2   39.83    1.94 
   1   7  -2   37.68    1.91 
   1   7  -2   39.85    1.96 
   1   7  -2   36.97    1.91 
   1   7  -2   40.23    2.08 
  -1   7   2   34.17    2.22 
  -1   7   2   38.49    1.89 
   1   7  -2   38.68    2.26 
  -1   7   2   41.27    1.90 
  -1   7   2   36.26    2.03 
   1   7  -2   40.99    2.02 
  -1   7   2   38.03    1.95 
   0  -7   2   18.14    0.88 
   0  -7  -2   18.45    1.10 
   0  -7  -2   16.25    0.87 
   0  -7   2   18.08    1.10 
   0  -7  -2   19.56    0.99 
   0  -7  -2   17.56    1.08 
   0  -7   2   17.78    1.08 
   0   7   2   17.00    0.96 
   0   7  -2   19.06    1.24 
   0   7  -2   18.17    0.91 
   0   7   2   16.13    0.92 
   0   7  -2   17.39    1.03 
   0   7  -2   16.15    0.93 
   0   7   2   17.91    1.23 
   0   7  -2   17.36    1.00 
   0   7  -2   16.11    0.90 
   0   7  -2   17.91    0.91 
   0   7  -2   15.57    0.95 
   0   7   2   16.00    1.01 
   0   7   2   20.06    1.33 
   0   7   2   16.34    0.91 
   0   7   2   15.67    1.19 
  -1  -7  -2    2.13    0.30 
  -1  -7  -2    1.90    0.39 
  -1  -7  -2    1.93    0.37 
   1  -7   2    2.18    0.21 
   1  -7   2    2.20    0.38 
  -1  -7  -2    1.49    0.34 
  -1  -7  -2    2.18    0.27 
  -1  -7  -2    2.11    0.29 
  -1  -7  -2    2.19    0.31 
   1  -7   2    2.13    0.42 
  -1   7  -2    2.31    0.52 
   1   7   2    1.86    0.40 
   1   7   2    2.06    0.39 
  -1   7  -2    2.02    0.23 
  -1   7  -2    1.76    0.24 
  -1   7  -2    2.00    0.27 
  -1   7  -2    1.85    0.30 
  -1   7  -2    2.69    0.45 
   1   7   2    2.07    0.29 
  -1   7  -2    2.16    0.37 
  -1   7  -2    2.10    0.49 
   1   7   2    2.07    0.40 
  -1   7  -2    1.95    0.49 
  -1   7  -2    2.29    0.29 
  -1   7  -2    2.20    0.33 
   1   7   2    1.43    0.48 
   2  -7   2    2.84    0.24 
  -2  -7  -2    3.31    0.32 
  -2  -7  -2    2.97    0.41 
  -2  -7  -2    3.43    0.41 
  -2  -7  -2    2.87    0.33 
  -2  -7  -2    3.08    0.37 
  -2  -7  -2    3.18    0.65 
   2  -7   2    2.95    0.25 
  -2  -7  -2    2.85    0.45 
   2  -7   2    3.04    0.41 
   2   7   2    3.04    0.28 
  -2   7  -2    3.76    0.50 
  -2   7  -2    2.95    0.35 
  -2   7  -2    2.59    0.53 
   2   7   2    2.84    0.46 
  -2   7  -2    3.48    0.55 
  -2   7  -2    2.52    0.30 
   2   7   2    3.39    0.55 
  -2   7  -2    2.95    0.43 
  -2   7  -2    3.41    0.27 
  -2   7  -2    3.28    0.31 
  -2   7  -2    3.07    0.35 
  -2   7  -2    2.31    0.33 
  -3  -7  -2    6.39    0.49 
  -3  -7  -2    6.47    0.56 
  -3  -7  -2    6.66    0.55 
   3  -7   2    7.09    0.41 
  -3  -7  -2    6.61    0.60 
  -3  -7  -2    7.00    0.68 
   3  -7   2    6.77    0.40 
  -3  -7  -2    7.79    0.59 
  -3  -7  -2    6.69    0.49 
  -3  -7  -2    7.57    0.59 
  -3   7  -2    7.03    0.44 
  -3   7  -2    6.64    0.63 
  -3   7  -2    6.00    0.41 
  -3   7  -2    6.78    0.52 
  -3   7  -2    6.76    0.46 
  -3   7  -2    7.47    0.42 
   3   7   2    6.83    0.45 
  -4  -7  -2    0.49    0.28 
  -4  -7  -2    0.30    0.25 
  -4  -7  -2    0.58    0.32 
  -4  -7  -2    0.35    0.24 
  -4  -7  -2    0.55    0.27 
  -4  -7  -2    0.24    0.25 
  -4  -7  -2    0.70    0.23 
  -4  -7  -2    0.97    0.45 
  -4  -7  -2    0.87    0.29 
  -4  -7  -2    0.42    0.21 
  -4  -7  -2    0.40    0.29 
  -4  -7  -2    0.44    0.24 
  -4  -7  -2    0.65    0.21 
  -4  -7  -2    0.54    0.40 
  -4  -7  -2    0.42    0.11 
  -4  -7  -2    0.54    0.23 
  -4  -7  -2    0.55    0.21 
  -4  -7  -2    0.68    0.23 
  -4  -7  -2    0.31    0.20 
  -4  -7  -2    0.75    0.26 
  -4   7  -2    0.30    0.11 
   4   7   2    0.24    0.24 
  -4   7  -2    0.44    0.10 
  -4   7  -2    0.48    0.15 
  -4   7  -2    0.58    0.13 
  -4   7  -2    0.38    0.14 
  -4   7  -2    0.69    0.27 
  -4   7  -2    0.67    0.37 
  -4   7  -2    0.90    0.23 
  -5  -7  -2    4.14    0.43 
  -5  -7  -2    4.70    0.38 
  -5  -7  -2    4.39    0.34 
  -5  -7  -2    4.56    0.34 
  -5  -7  -2    3.65    0.45 
  -5  -7  -2    4.13    0.36 
  -5  -7  -2    4.07    0.35 
  -5  -7  -2    4.22    0.38 
  -5  -7  -2    4.03    0.38 
  -5  -7  -2    3.75    0.33 
  -5  -7  -2    3.78    0.42 
  -5   7  -2    4.24    0.55 
  -5   7  -2    4.22    0.24 
  -5   7  -2    4.21    0.24 
   5   7   2    3.97    0.37 
  -5   7  -2    4.18    0.23 
  -5   7  -2    4.32    0.24 
  -5   7  -2    4.81    0.23 
  -6  -8   2    5.66    0.45 
  -6  -8   2    4.93    0.31 
  -6  -8   2    5.38    0.32 
  -6  -8   2    4.78    0.34 
  -6  -8   2    4.85    0.30 
  -6  -8   2    4.90    0.29 
  -6   8   2    5.26    0.25 
   6   8  -2    4.61    0.32 
  -5  -8   2    9.18    0.70 
  -5  -8   2    8.57    0.55 
  -5  -8   2    7.93    0.50 
  -5  -8   2    7.65    0.48 
  -5  -8   2    8.48    0.53 
  -5  -8   2    7.63    0.50 
  -5  -8   2    8.28    0.53 
  -5  -8   2    7.61    0.52 
  -5  -8   2    7.74    0.51 
  -5  -8   2    7.47    0.49 
  -5  -8   2    7.58    0.47 
  -5   8   2    8.01    0.41 
  -5   8   2    8.13    0.70 
  -5   8   2    8.24    0.40 
  -5   8   2    7.86    0.41 
  -5   8   2    8.26    0.41 
  -5   8   2    8.07    0.41 
   5   8  -2    8.08    0.51 
  -4  -8   2    3.41    0.28 
  -4  -8   2    3.07    0.59 
  -4  -8   2    2.69    0.35 
  -4  -8   2    2.88    0.31 
  -4  -8   2    2.61    0.38 
  -4  -8   2    3.17    0.56 
  -4  -8   2    3.13    0.38 
  -4  -8   2    1.97    0.55 
  -4  -8   2    3.34    0.39 
  -4  -8   2    3.20    0.38 
  -4  -8   2    3.25    0.34 
  -4  -8   2    3.17    0.37 
  -4  -8   2    3.19    0.44 
  -4  -8   2    2.90    0.31 
  -4  -8   2    3.08    0.37 
  -4  -8   2    3.13    0.26 
  -4  -8   2    3.63    0.46 
  -4  -8   2    3.36    0.27 
  -4  -8   2    2.79    0.36 
   4   8  -2    2.77    0.35 
   4   8  -2    3.42    0.44 
  -4   8   2    3.46    0.24 
  -4   8   2    3.08    0.45 
  -4   8   2    3.15    0.26 
  -4   8   2    2.89    0.33 
  -4   8   2    2.74    0.25 
  -4   8   2    2.60    0.33 
  -4   8   2    3.21    0.28 
  -4   8   2    3.35    0.28 
  -4   8   2    4.09    0.41 
   4   8  -2    3.30    0.29 
  -4   8   2    2.72    0.28 
  -4   8   2    3.05    0.56 
  -4   8   2    3.11    0.54 
  -3  -8   2   54.38    2.72 
  -3  -8   2   53.22    2.66 
  -3  -8   2   55.97    2.68 
   3  -8  -2   56.69    2.64 
  -3  -8   2   56.81    2.80 
  -3  -8   2   60.17    2.89 
   3  -8  -2   55.21    2.64 
  -3  -8   2   56.05    2.74 
  -3  -8   2   53.60    2.77 
   3   8  -2   58.25    2.66 
  -3   8   2   53.77    2.64 
  -3   8   2   50.34    2.64 
  -3   8   2   56.95    2.67 
  -3   8   2   58.26    2.92 
  -3   8   2   52.31    2.75 
  -3   8   2   53.59    2.66 
  -3   8   2   56.45    2.66 
  -2  -8   2   10.88    0.77 
  -2  -8   2   11.67    0.71 
   2  -8  -2   13.31    0.67 
  -2  -8   2   12.18    0.88 
  -2  -8   2   12.63    0.74 
  -2  -8   2   11.76    0.87 
  -2  -8   2   13.11    0.83 
   2  -8  -2   11.97    0.85 
  -2   8   2   13.54    1.11 
  -2   8   2   10.72    0.94 
  -2   8   2   12.22    0.68 
  -2   8   2   12.40    1.03 
  -2   8   2   12.74    0.72 
  -2   8   2   12.82    0.76 
  -2   8   2   11.84    0.72 
  -2   8   2   12.62    0.91 
  -2   8   2   12.81    0.76 
   2   8  -2   12.81    0.67 
   2   8  -2   12.96    0.89 
   2   8  -2   13.19    0.95 
  -1  -8   2   39.28    1.94 
   1  -8  -2   39.52    2.13 
  -1  -8   2   41.26    2.11 
  -1  -8   2   38.71    1.92 
  -1  -8   2   39.94    2.10 
  -1  -8   2   38.48    1.92 
   1  -8  -2   40.97    1.87 
  -1   8   2   39.77    1.91 
  -1   8   2   39.71    1.95 
   1   8  -2   37.20    1.92 
  -1   8   2   39.24    1.89 
   1   8  -2   32.29    2.06 
  -1   8   2   37.01    1.96 
  -1   8   2   37.75    2.22 
  -1   8   2   39.64    2.28 
   1   8  -2   38.59    1.97 
   1   8  -2   40.87    2.06 
   1   8  -2   32.01    1.92 
  -1   8   2   39.08    2.08 
  -1   8   2   40.13    1.95 
   1   8  -2   40.03    2.28 
  -1   8   2   39.40    1.89 
   1   8  -2   38.72    1.92 
   0  -8  -2   10.38    0.80 
   0  -8  -2    9.68    0.55 
   0  -8  -2    8.56    0.76 
   0  -8   2    9.89    0.55 
   0  -8   2   10.66    0.79 
   0  -8   2   10.07    0.80 
   0   8  -2    9.79    0.92 
   0   8  -2    9.81    0.70 
   0   8   2    9.15    0.89 
   0   8   2   10.19    0.73 
   0   8  -2    9.67    0.59 
   0   8   2    9.95    0.66 
   0   8   2    9.11    0.61 
   0   8  -2   10.56    0.59 
   0   8  -2    9.61    0.72 
   0   8  -2    9.74    0.62 
   0   8   2    9.60    0.59 
   0   8  -2    9.45    0.65 
   0   8  -2   10.16    0.60 
   1  -8   2   18.33    0.96 
  -1  -8  -2   18.89    1.04 
  -1  -8  -2   19.90    1.04 
  -1  -8  -2   17.29    1.32 
   1  -8   2   20.89    1.25 
  -1  -8  -2   15.58    1.08 
  -1  -8  -2   20.42    1.05 
  -1  -8  -2   18.99    1.18 
  -1  -8  -2   20.44    1.12 
   1   8   2   18.83    1.21 
  -1   8  -2   20.09    0.98 
  -1   8  -2   19.78    1.19 
  -1   8  -2   18.89    0.99 
   1   8   2   19.95    1.19 
   1   8   2   19.51    1.07 
  -1   8  -2   17.26    1.39 
  -1   8  -2   19.21    1.06 
  -1   8  -2   19.13    1.03 
  -1   8  -2   18.50    1.01 
   1   8   2   19.11    1.04 
  -1   8  -2   17.87    0.98 
  -1   8  -2   17.90    1.41 
  -1   8  -2   18.17    1.07 
  -1   8  -2   20.02    1.38 
  -2  -8  -2    9.77    0.62 
   2  -8   2   10.12    0.56 
  -2  -8  -2    9.48    0.67 
  -2  -8  -2    9.84    0.76 
  -2  -8  -2    9.25    0.69 
  -2  -8  -2    9.64    0.66 
  -2  -8  -2   11.07    0.65 
  -2  -8  -2    8.96    0.76 
  -2   8  -2    9.36    0.91 
  -2   8  -2   10.50    0.81 
  -2   8  -2    9.49    0.60 
   2   8   2    9.66    0.57 
  -2   8  -2    9.90    0.65 
  -2   8  -2    8.95    0.94 
  -2   8  -2    9.69    0.57 
  -2   8  -2   10.11    0.82 
   2   8   2   11.08    0.85 
  -2   8  -2   10.20    0.66 
  -2   8  -2   11.11    0.62 
  -3  -8  -2    8.50    0.55 
  -3  -8  -2    8.84    0.53 
  -3  -8  -2    6.93    0.90 
  -3  -8  -2    6.15    0.73 
  -3  -8  -2    7.62    0.51 
  -3  -8  -2    7.22    0.59 
  -3  -8  -2    5.40    0.57 
   3  -8   2    6.25    0.43 
  -3  -8  -2    3.34    0.77 
  -3  -8  -2    7.73    0.77 
  -3  -8  -2    8.36    0.61 
  -3  -8  -2    7.80    0.60 
  -3  -8  -2    7.06    0.50 
  -3  -8  -2    9.87    0.80 
  -3  -8  -2    8.38    0.45 
  -3  -8  -2    6.19    0.62 
  -3  -8  -2    7.70    0.60 
   3  -8   2    7.52    0.44 
  -3  -8  -2    7.68    0.65 
  -3  -8  -2    8.54    0.68 
   3   8   2    7.48    0.54 
   3   8   2    7.54    0.48 
  -3   8  -2    8.02    0.46 
  -3   8  -2    6.86    0.94 
   3   8   2    6.45    0.71 
  -3   8  -2    5.62    0.45 
  -3   8  -2    6.29    0.57 
  -3   8  -2    7.40    0.47 
  -3   8  -2    6.57    0.55 
  -3   8  -2    7.33    0.70 
  -3   8  -2    7.92    0.50 
  -4  -8  -2   11.98    0.75 
  -4  -8  -2   12.48    0.94 
  -4  -8  -2   14.19    0.87 
  -4  -8  -2   12.37    0.77 
  -4  -8  -2   13.23    0.74 
  -4  -8  -2   12.45    0.75 
  -4  -8  -2   11.56    0.86 
  -4  -8  -2   10.12    0.71 
  -4  -8  -2   12.97    0.72 
  -4  -8  -2   10.93    0.71 
  -4  -8  -2   12.69    0.60 
  -4  -8  -2   10.15    0.78 
  -4  -8  -2   10.76    0.77 
  -4  -8  -2   11.80    0.71 
  -4  -8  -2   13.63    0.72 
  -4  -8  -2   13.25    0.77 
  -4  -8  -2   11.61    0.74 
  -4  -8  -2   12.56    0.75 
  -4  -8  -2   11.85    0.72 
  -4   8  -2   11.73    0.61 
  -4   8  -2   11.94    0.65 
   4   8   2   11.57    0.70 
  -4   8  -2   10.35    0.64 
  -4   8  -2   12.14    0.63 
   4   8   2   13.11    0.79 
  -4   8  -2   12.88    0.64 
  -4   8  -2   10.69    0.78 
  -4   8  -2   11.25    0.66 
  -4   8  -2   12.34    0.91 
  -5  -8  -2    0.84    0.17 
  -5  -8  -2    0.74    0.18 
  -5  -8  -2    0.92    0.25 
  -5  -8  -2    0.98    0.21 
  -5  -8  -2    0.77    0.22 
  -5  -8  -2    1.33    0.30 
  -5  -8  -2    0.94    0.25 
  -5  -8  -2    1.22    0.23 
  -5  -8  -2    0.49    0.14 
   5   8   2    1.30    0.24 
  -5   8  -2    1.07    0.13 
  -5   8  -2    1.19    0.09 
   5   8   2    1.34    0.33 
  -5   8  -2    1.13    0.10 
  -5   8  -2    1.07    0.09 
  -5   8  -2    1.03    0.08 
  -5   8  -2    0.32    0.23 
  -5  -9   2    0.49    0.20 
  -5  -9   2    0.31    0.13 
  -5  -9   2    0.82    0.27 
  -5  -9   2    0.57    0.18 
  -5  -9   2    0.53    0.20 
  -5  -9   2    0.32    0.16 
  -5  -9   2    0.70    0.33 
  -5  -9   2    0.36    0.17 
  -5  -9   2    0.30    0.17 
   5   9  -2    0.41    0.16 
  -5   9   2    0.37    0.08 
  -5   9   2    0.38    0.09 
  -5   9   2    0.40    0.26 
  -5   9   2    0.48    0.10 
  -5   9   2    0.40    0.08 
   5   9  -2    0.25    0.18 
  -5   9   2    0.47    0.09 
  -4  -9   2    3.32    0.45 
  -4  -9   2    3.53    0.34 
  -4  -9   2    3.31    0.53 
  -4  -9   2    3.84    0.58 
  -4  -9   2    4.15    0.29 
  -4  -9   2    3.25    0.46 
  -4  -9   2    4.19    0.27 
  -4  -9   2    3.60    0.39 
  -4  -9   2    3.85    0.32 
  -4  -9   2    3.20    0.39 
  -4  -9   2    3.28    0.27 
  -4  -9   2    3.87    0.40 
  -4  -9   2    3.70    0.38 
  -4  -9   2    3.50    0.39 
  -4  -9   2    3.64    0.37 
  -4  -9   2    3.59    0.32 
  -4   9   2    3.56    0.44 
   4   9  -2    3.33    0.35 
  -4   9   2    3.04    0.40 
   4   9  -2    3.49    0.45 
  -4   9   2    3.14    0.30 
  -4   9   2    3.41    0.30 
  -4   9   2    3.94    0.56 
  -4   9   2    3.06    0.26 
  -4   9   2    3.64    0.52 
  -4   9   2    3.75    0.25 
  -4   9   2    3.66    0.28 
  -3  -9   2    4.17    0.42 
  -3  -9   2    5.08    0.42 
  -3  -9   2    4.46    0.42 
   3  -9  -2    5.38    0.36 
  -3  -9   2    4.93    0.45 
  -3  -9   2    5.33    0.46 
  -3  -9   2    5.23    0.46 
  -3  -9   2    4.72    0.61 
  -3  -9   2    5.26    0.58 
  -3  -9   2    5.28    0.49 
  -3  -9   2    4.56    0.38 
  -3  -9   2    5.11    0.43 
  -3  -9   2    4.78    0.44 
  -3  -9   2    5.46    0.43 
  -3  -9   2    6.79    0.75 
  -3  -9   2    5.26    0.41 
  -3   9   2    5.23    0.66 
  -3   9   2    6.00    0.52 
  -3   9   2    4.88    0.39 
  -3   9   2    4.81    0.36 
  -3   9   2    5.31    0.36 
  -3   9   2    5.30    0.40 
  -3   9   2    5.72    0.63 
   3   9  -2    4.82    0.49 
  -3   9   2    5.57    0.42 
   3   9  -2    5.67    0.42 
   3   9  -2    5.55    0.49 
   3   9  -2    4.96    0.51 
  -3   9   2    5.68    0.64 
   3   9  -2    4.98    0.63 
   3   9  -2    5.31    0.38 
  -3   9   2    5.01    0.40 
  -3   9   2    5.12    0.41 
  -3   9   2    5.37    0.39 
  -3   9   2    5.34    0.38 
  -2  -9   2   86.78    4.40 
  -2  -9   2   88.83    4.33 
  -2  -9   2   87.41    4.23 
   2  -9  -2   90.68    4.18 
  -2  -9   2   89.60    4.22 
   2   9  -2   94.88    4.37 
  -2   9   2   89.37    4.25 
  -2   9   2   89.86    4.18 
  -2   9   2   87.04    4.15 
   2   9  -2   97.03    4.30 
  -2   9   2   86.99    4.63 
  -2   9   2   84.46    4.19 
  -2   9   2   89.10    4.21 
  -2   9   2   86.02    4.22 
  -2   9   2   85.87    4.41 
   2   9  -2   85.35    4.38 
  -2   9   2   89.30    4.24 
  -2   9   2   79.38    4.41 
  -1  -9   2   14.14    0.98 
  -1  -9   2   14.02    0.79 
  -1  -9   2   13.62    0.80 
  -1  -9   2   13.47    0.80 
   1  -9  -2   13.66    0.73 
   1   9  -2   14.00    0.81 
  -1   9   2   11.82    1.12 
   1   9  -2   14.32    0.80 
  -1   9   2   12.72    0.75 
  -1   9   2   13.15    0.85 
  -1   9   2   12.62    0.93 
  -1   9   2   14.42    0.76 
   1   9  -2   13.66    0.86 
  -1   9   2   11.96    0.79 
   1   9  -2   14.41    0.80 
  -1   9   2   14.24    1.24 
   1   9  -2   13.33    0.92 
  -1   9   2   12.82    0.85 
  -1   9   2   14.03    0.76 
   0  -9  -2    4.11    0.40 
   0  -9   2    4.63    0.63 
   0  -9  -2    5.01    0.62 
   0  -9   2    5.04    0.36 
   0   9  -2    5.27    0.74 
   0   9   2    5.86    0.78 
   0   9  -2    5.88    0.42 
   0   9  -2    4.90    0.54 
   0   9  -2    5.13    0.45 
   0   9  -2    5.68    0.54 
   0   9   2    5.94    0.60 
   0   9  -2    5.83    0.44 
   0   9   2    5.55    0.55 
   0   9   2    5.55    0.43 
   1  -9   2    7.85    0.46 
  -1  -9  -2    8.18    0.54 
  -1  -9  -2    7.72    0.71 
  -1  -9  -2    7.37    0.54 
  -1  -9  -2    8.08    0.54 
  -1   9  -2    6.23    0.47 
   1   9   2    7.33    0.53 
  -1   9  -2    6.57    0.53 
  -1   9  -2    8.21    0.71 
  -1   9  -2    7.57    0.48 
  -1   9  -2    6.44    0.45 
  -1   9  -2    7.37    0.54 
   1   9   2    6.50    0.57 
  -1   9  -2    6.65    0.82 
  -1   9  -2    7.07    0.92 
  -1   9  -2    7.09    0.58 
  -1   9  -2    8.03    0.59 
   1   9   2    6.74    0.68 
  -2  -9  -2    1.57    0.47 
  -2  -9  -2    1.92    0.34 
  -2  -9  -2    1.42    0.37 
  -2  -9  -2    1.80    0.32 
   2  -9   2    1.56    0.24 
  -2  -9  -2    1.77    0.31 
  -2  -9  -2    1.56    0.43 
  -2  -9  -2    1.89    0.55 
  -2   9  -2    1.65    0.53 
  -2   9  -2    1.58    0.27 
  -2   9  -2    1.55    0.29 
  -2   9  -2    1.86    0.46 
  -2   9  -2    1.73    0.21 
  -2   9  -2    1.54    0.35 
  -2   9  -2    2.15    0.34 
  -2   9  -2    2.06    0.30 
   2   9   2    2.46    0.47 
   2   9   2    1.42    0.52 
  -2   9  -2    1.51    0.30 
  -3  -9  -2   15.37    0.99 
  -3  -9  -2   14.07    0.77 
  -3  -9  -2   13.25    0.89 
  -3  -9  -2   15.40    0.99 
  -3  -9  -2   15.56    0.81 
  -3  -9  -2   15.22    0.87 
  -3  -9  -2   13.71    0.95 
  -3  -9  -2   14.47    0.81 
  -3  -9  -2   13.08    0.87 
  -3  -9  -2   14.48    0.88 
  -3  -9  -2   14.92    0.91 
  -3  -9  -2   14.74    0.88 
  -3  -9  -2   15.41    0.83 
  -3  -9  -2   14.67    0.93 
  -3  -9  -2   14.74    0.81 
  -3  -9  -2   14.88    0.96 
  -3   9  -2   14.76    0.81 
  -3   9  -2   11.92    0.98 
   3   9   2   15.76    0.91 
  -3   9  -2   14.88    0.78 
  -3   9  -2   16.51    0.80 
   3   9   2   14.47    0.91 
  -3   9  -2   15.17    1.05 
  -3   9  -2   14.38    0.83 
   3   9   2   15.79    0.89 
   3   9   2   15.64    0.82 
  -3   9  -2   15.67    0.81 
  -3   9  -2   15.12    0.80 
  -4  -9  -2    0.33    0.19 
  -4  -9  -2    0.23    0.33 
  -4  -9  -2    0.36    0.21 
  -4  -9  -2    0.42    0.23 
  -4  -9  -2    0.30    0.25 
  -4  -9  -2    0.52    0.27 
  -4  -9  -2    0.34    0.21 
  -4  -9  -2    0.47    0.10 
  -4  -9  -2    0.35    0.21 
  -4  -9  -2    0.37    0.28 
  -4  -9  -2    0.51    0.20 
  -4  -9  -2    0.33    0.14 
  -4  -9  -2    0.28    0.16 
  -4   9  -2    0.30    0.12 
  -4   9  -2    0.30    0.09 
  -4   9  -2    0.30    0.11 
   4   9   2    0.98    0.26 
  -4   9  -2    0.39    0.13 
   4   9   2    0.09    0.24 
  -4   9  -2    0.18    0.28 
  -4   9  -2    0.58    0.15 
  -5  -9  -2    1.81    0.22 
  -5  -9  -2    1.46    0.16 
  -5  -9  -2    1.50    0.30 
  -5  -9  -2    1.97    0.21 
  -5  -9  -2    1.98    0.23 
  -5  -9  -2    2.16    0.23 
  -5   9  -2    1.61    0.13 
   5   9   2    1.69    0.20 
  -5   9  -2    1.91    0.12 
  -5   9  -2    1.79    0.12 
   5   9   2    1.50    0.27 
  -5 -10   2    5.19    0.37 
  -5 -10   2    5.41    0.38 
  -5 -10   2    5.21    0.35 
  -5 -10   2    5.09    0.44 
  -5 -10   2    5.07    0.36 
  -5 -10   2    5.20    0.31 
   5  10  -2    4.82    0.39 
   5  10  -2    6.07    0.34 
  -5  10   2    5.11    0.26 
  -5  10   2    5.29    0.27 
  -5  10   2    4.94    0.27 
  -5  10   2    5.78    0.51 
  -5  10   2    5.67    0.26 
  -4 -10   2   14.79    0.73 
  -4 -10   2   14.86    0.71 
  -4 -10   2   13.77    0.69 
  -4 -10   2   15.34    0.80 
  -4 -10   2   14.01    0.83 
  -4 -10   2   15.28    0.83 
  -4 -10   2   14.49    0.72 
  -4 -10   2   14.53    0.78 
  -4 -10   2   13.12    0.87 
  -4 -10   2   14.08    0.70 
  -4 -10   2   14.13    0.84 
  -4 -10   2   13.87    0.73 
   4  10  -2   13.07    0.83 
  -4  10   2   13.85    0.74 
  -4  10   2   13.45    0.72 
  -4  10   2   13.75    0.73 
  -4  10   2   13.80    0.82 
   4  10  -2   13.47    0.81 
   4  10  -2   13.90    0.76 
  -4  10   2   13.76    0.71 
  -4  10   2   12.95    0.72 
  -4  10   2   14.38    0.90 
  -3 -10   2    3.03    0.27 
  -3 -10   2    2.91    0.37 
  -3 -10   2    2.88    0.38 
  -3 -10   2    2.93    0.37 
  -3 -10   2    3.27    0.37 
  -3 -10   2    2.41    0.37 
  -3 -10   2    2.98    0.57 
  -3 -10   2    2.87    0.33 
  -3 -10   2    3.17    0.36 
  -3 -10   2    3.34    0.39 
  -3 -10   2    3.22    0.48 
   3  10  -2    2.70    0.42 
  -3  10   2    2.39    0.29 
  -3  10   2    3.33    0.33 
  -3  10   2    3.49    0.32 
  -3  10   2    3.48    0.34 
  -3  10   2    2.98    0.30 
  -3  10   2    2.72    0.34 
  -3  10   2    3.16    0.29 
   3  10  -2    3.13    0.34 
  -3  10   2    3.51    0.54 
  -3  10   2    3.68    0.58 
   3  10  -2    3.16    0.42 
  -3  10   2    3.55    0.45 
   3  10  -2    3.30    0.44 
  -3  10   2    3.09    0.39 
   3  10  -2    4.25    0.66 
  -3  10   2    3.40    0.29 
  -2 -10   2    4.30    0.52 
  -2 -10   2    4.56    0.42 
  -2 -10   2    5.31    0.45 
  -2 -10   2    5.43    0.45 
   2 -10  -2    5.15    0.41 
  -2 -10   2    4.52    0.40 
  -2 -10   2    4.57    0.49 
  -2 -10   2    5.00    0.33 
  -2 -10   2    5.31    0.45 
  -2 -10   2    4.49    0.60 
  -2 -10   2    4.65    0.55 
  -2 -10   2    4.55    0.48 
   2 -10  -2    4.84    0.36 
  -2  10   2    5.06    0.46 
   2  10  -2    5.37    0.46 
  -2  10   2    5.19    0.47 
  -2  10   2    5.27    0.72 
  -2  10   2    5.04    0.43 
  -2  10   2    5.36    0.33 
   2  10  -2    5.16    0.48 
   2  10  -2    5.21    0.52 
  -2  10   2    4.37    0.40 
  -2  10   2    4.57    0.63 
  -2  10   2    5.02    0.33 
  -2  10   2    4.97    0.53 
  -2  10   2    5.86    0.44 
   2  10  -2    4.69    0.49 
  -2  10   2    5.44    0.49 
  -2  10   2    5.02    0.43 
  -2  10   2    4.97    0.42 
   2  10  -2    5.24    0.61 
   2  10  -2    5.23    0.47 
  -2  10   2    4.91    0.50 
   2  10  -2    5.27    0.49 
  -2  10   2    5.09    0.47 
  -1 -10   2   12.10    1.00 
  -1 -10   2   14.12    0.84 
  -1 -10   2   14.22    0.83 
  -1 -10   2   15.25    0.83 
   1 -10  -2   14.53    0.76 
  -1  10   2   14.46    1.00 
   1  10  -2   13.91    0.78 
   1  10  -2   13.03    0.71 
  -1  10   2   15.17    0.90 
  -1  10   2   14.14    0.78 
  -1  10   2   14.71    0.90 
  -1  10   2   14.20    0.79 
  -1  10   2   13.89    0.81 
  -1  10   2   14.32    0.84 
   1  10  -2   13.81    0.82 
   1  10  -2   12.59    0.94 
   1  10  -2   13.41    0.89 
   1  10  -2   14.30    0.83 
   0 -10  -2   12.84    0.80 
   0 -10  -2   12.85    0.96 
   0 -10   2   12.76    0.98 
   0  10  -2   11.49    0.75 
   0  10  -2   12.00    0.65 
   0  10  -2   12.53    0.73 
   0  10   2   10.03    0.86 
   0  10  -2   12.33    0.84 
   0  10   2   10.98    0.72 
   0  10   2   13.15    0.75 
   0  10  -2   12.70    0.72 
   0  10  -2   11.70    0.77 
   0  10   2    9.32    1.21 
   0  10   2   15.63    0.91 
   0  10   2   13.05    0.83 
  -1 -10  -2    0.11    0.23 
   1 -10   2    0.25    0.19 
  -1 -10  -2    0.26    0.31 
   1 -10   2    0.29    0.16 
  -1 -10  -2    0.38    0.17 
  -1 -10  -2    0.23    0.37 
  -1 -10  -2    0.35    0.23 
  -1 -10  -2   -0.16    0.25 
  -1 -10  -2    0.47    0.43 
   1 -10   2    0.19    0.29 
  -1 -10  -2    0.40    0.27 
  -1 -10  -2    0.47    0.30 
  -1 -10  -2    0.33    0.34 
   1  10   2    0.26    0.39 
  -1  10  -2    0.17    0.09 
  -1  10  -2    0.37    0.42 
  -1  10  -2    0.17    0.24 
  -1  10  -2    0.19    0.13 
  -1  10  -2    0.30    0.15 
   1  10   2    0.65    0.32 
   1  10   2    0.28    0.21 
  -1  10  -2    0.33    0.24 
   1  10   2    0.62    0.27 
   1  10   2    0.13    0.36 
   1  10   2    0.65    0.27 
  -1  10  -2   -0.01    0.19 
  -1  10  -2    0.46    0.18 
  -1  10  -2    0.13    0.16 
  -1  10  -2    0.28    0.18 
   1  10   2    0.37    0.32 
  -1  10  -2    0.23    0.24 
  -2 -10  -2    7.80    0.43 
  -2 -10  -2    7.58    0.70 
  -2 -10  -2    5.78    0.55 
  -2 -10  -2    7.58    0.47 
  -2 -10  -2    7.79    0.55 
  -2 -10  -2    6.80    0.66 
  -2 -10  -2    7.08    0.51 
   2 -10   2    7.54    0.49 
  -2 -10  -2    8.25    0.68 
  -2 -10  -2    7.18    0.57 
  -2 -10  -2    7.09    0.53 
  -2  10  -2    7.96    0.54 
  -2  10  -2    7.01    0.56 
   2  10   2    7.28    1.06 
   2  10   2    7.28    0.60 
  -2  10  -2    7.64    0.53 
  -2  10  -2    5.71    0.73 
  -2  10  -2    6.64    0.52 
  -2  10  -2    8.22    0.39 
  -2  10  -2    6.65    0.50 
  -2  10  -2    7.02    0.48 
   2  10   2    5.93    0.58 
  -2  10  -2    7.92    0.51 
  -2  10  -2    7.60    0.52 
  -2  10  -2    7.31    0.53 
   2  10   2    7.70    0.59 
   2  10   2    6.70    0.57 
  -3 -10  -2    8.62    0.52 
  -3 -10  -2    7.78    0.69 
  -3 -10  -2    9.20    0.70 
  -3 -10  -2    8.51    0.60 
  -3 -10  -2    8.23    0.57 
  -3 -10  -2    7.64    0.47 
  -3 -10  -2    8.14    0.58 
  -3 -10  -2    8.56    0.62 
  -3 -10  -2    8.51    0.50 
   3 -10   2    7.44    0.50 
  -3 -10  -2    8.18    0.59 
  -3 -10  -2    8.81    0.52 
  -3 -10  -2    8.46    0.54 
  -3 -10  -2    8.94    0.71 
  -3 -10  -2    8.96    0.54 
  -3  10  -2    8.29    0.51 
   3  10   2    8.41    0.61 
   3  10   2    7.88    0.61 
  -3  10  -2    8.55    0.50 
  -3  10  -2    9.49    0.54 
   3  10   2    9.90    0.63 
  -3  10  -2    8.30    0.52 
  -3  10  -2    9.39    0.78 
  -3  10  -2    7.67    0.74 
   3  10   2    8.67    0.52 
  -3  10  -2    8.10    0.49 
  -4 -10  -2    7.11    0.50 
  -4 -10  -2    7.60    0.56 
  -4 -10  -2    7.09    0.46 
  -4 -10  -2    8.26    0.55 
  -4 -10  -2    7.43    0.58 
  -4 -10  -2    7.50    0.48 
  -4 -10  -2    7.16    0.48 
  -4 -10  -2    7.58    0.41 
  -4 -10  -2    8.13    0.41 
  -4  10  -2    6.71    0.41 
   4  10   2    7.02    0.53 
  -4  10  -2    7.85    0.43 
   4  10   2    8.09    0.52 
  -4  10  -2    7.48    0.39 
  -4  10  -2    8.01    0.64 
  -4  10  -2    7.17    0.43 
   4  10   2    6.70    0.51 
   4  10   2    7.13    0.45 
  -4 -11   2    1.83    0.35 
  -4 -11   2    2.14    0.28 
  -4 -11   2    1.77    0.17 
  -4 -11   2    1.77    0.15 
  -4 -11   2    1.70    0.28 
  -4 -11   2    2.12    0.36 
  -4 -11   2    1.72    0.19 
  -4 -11   2    2.23    0.34 
  -4  11   2    1.92    0.17 
  -4  11   2    1.80    0.34 
   4  11  -2    2.02    0.30 
  -4  11   2    1.83    0.17 
   4  11  -2    1.92    0.21 
   4  11  -2    1.33    0.31 
   4  11  -2    1.86    0.33 
  -4  11   2    1.98    0.21 
  -4  11   2    1.84    0.22 
  -4  11   2    1.37    0.43 
  -3 -11   2    5.34    0.48 
  -3 -11   2    6.61    0.42 
  -3 -11   2    5.76    0.45 
  -3 -11   2    6.00    0.45 
  -3 -11   2    5.83    0.34 
  -3 -11   2    6.17    0.42 
  -3 -11   2    5.77    0.43 
  -3 -11   2    6.24    0.47 
   3 -11  -2    5.56    0.41 
   3  11  -2    5.19    0.46 
  -3  11   2    6.04    0.47 
   3  11  -2    6.01    0.50 
  -3  11   2    5.41    0.43 
  -3  11   2    5.89    0.66 
  -3  11   2    5.90    0.53 
   3  11  -2    5.59    0.48 
  -3  11   2    5.93    0.39 
  -3  11   2    6.22    0.41 
  -3  11   2    5.79    0.42 
  -2 -11   2    5.09    0.46 
  -2 -11   2    5.21    0.54 
  -2 -11   2    5.37    0.40 
  -2 -11   2    5.10    0.48 
   2 -11  -2    5.63    0.47 
   2 -11  -2    5.00    0.40 
  -2 -11   2    5.43    0.38 
  -2 -11   2    5.14    0.42 
  -2  11   2    6.19    0.47 
   2  11  -2    5.34    0.44 
  -2  11   2    4.43    0.43 
   2  11  -2    4.96    0.48 
  -2  11   2    4.88    0.42 
  -2  11   2    4.75    0.63 
  -2  11   2    5.04    0.48 
   2  11  -2    5.72    0.53 
  -2  11   2    5.30    0.42 
   2  11  -2    5.59    0.47 
  -2  11   2    5.32    0.51 
   2  11  -2    3.10    0.49 
  -2  11   2    5.60    0.49 
   2  11  -2    4.85    0.43 
  -2  11   2    4.77    0.68 
  -2  11   2    5.61    0.30 
  -2  11   2    4.79    0.43 
  -2  11   2    5.54    0.47 
  -2  11   2    4.17    0.31 
  -2  11   2    5.93    0.43 
  -1 -11   2    1.27    0.32 
  -1 -11   2    1.39    0.33 
   1 -11  -2    1.24    0.27 
   1 -11  -2    2.69    0.71 
  -1 -11   2    1.60    0.32 
   1 -11  -2    1.32    0.30 
  -1 -11   2    0.87    0.25 
  -1 -11   2    0.98    0.28 
  -1 -11   2    0.96    0.22 
   1 -11  -2    1.56    0.27 
  -1  11   2    0.96    0.27 
   1  11  -2    1.00    0.26 
   1  11  -2    1.12    0.28 
  -1  11   2    1.55    0.39 
  -1  11   2    1.37    0.20 
  -1  11   2    1.47    0.34 
  -1  11   2    0.88    0.19 
   1  11  -2    0.36    0.25 
  -1  11   2    0.96    0.25 
  -1  11   2    1.98    0.49 
   1  11  -2    1.15    0.21 
  -1  11   2    1.50    0.35 
   1  11  -2    1.11    0.24 
   1  11  -2    0.64    0.21 
  -1  11   2    1.28    0.26 
   1  11  -2    0.80    0.22 
  -1  11   2    0.96    0.19 
   0 -11  -2   17.97    1.05 
   0 -11   2   18.88    1.04 
   0 -11  -2   18.92    1.04 
   0 -11   2   19.37    0.98 
   0 -11   2   21.35    1.10 
   0 -11  -2   18.29    1.12 
   0 -11   2   19.17    1.03 
   0 -11  -2   17.90    1.07 
   0 -11  -2   17.65    1.02 
   0 -11   2   19.16    1.04 
   0  11   2   18.46    0.96 
   0  11  -2   19.19    1.02 
   0  11  -2   19.85    1.00 
   0  11  -2   19.48    0.95 
   0  11   2   20.13    1.06 
   0  11   2   18.84    1.12 
   0  11  -2   19.15    1.12 
   0  11  -2   17.53    1.02 
   0  11  -2   19.86    1.04 
   0  11   2   17.67    1.04 
   0  11  -2   17.97    0.94 
   0  11  -2   19.37    1.07 
   0  11   2   19.99    1.05 
   0  11   2   19.38    1.08 
   0  11   2   19.01    1.02 
   0  11   2   19.40    1.08 
   0  11  -2   17.77    1.02 
   1 -11   2    8.72    0.58 
  -1 -11  -2   10.18    0.67 
  -1 -11  -2    8.48    0.56 
  -1 -11  -2    9.91    0.67 
  -1 -11  -2    8.53    0.73 
  -1 -11  -2    8.07    0.60 
   1 -11   2    7.92    0.50 
  -1 -11  -2    8.91    0.57 
  -1 -11  -2    8.52    0.57 
   1  11   2    7.89    0.56 
  -1  11  -2    8.64    0.47 
   1  11   2    8.02    0.58 
  -1  11  -2    8.01    0.42 
  -1  11  -2    7.80    0.49 
  -1  11  -2    7.50    0.56 
  -1  11  -2    8.14    0.63 
   1  11   2    8.28    0.65 
  -1  11  -2    7.67    0.62 
  -1  11  -2    8.98    0.58 
   1  11   2    7.52    0.59 
  -1  11  -2    8.95    0.64 
  -1  11  -2    8.28    0.48 
  -1  11  -2    8.22    0.51 
  -1  11  -2    8.42    0.50 
   1  11   2    7.54    0.53 
   2 -11   2    2.12    0.28 
  -2 -11  -2    2.10    0.31 
  -2 -11  -2    1.86    0.35 
  -2 -11  -2    2.22    0.35 
  -2 -11  -2    1.73    0.24 
  -2 -11  -2    2.30    0.50 
  -2 -11  -2    2.56    0.48 
   2 -11   2    1.99    0.36 
  -2 -11  -2    1.61    0.38 
  -2  11  -2    2.16    0.27 
   2  11   2    1.52    0.45 
  -2  11  -2    1.87    0.32 
  -2  11  -2    2.18    0.29 
   2  11   2    2.49    0.38 
   2  11   2    1.95    0.34 
  -2  11  -2    1.76    0.31 
  -2  11  -2    1.91    0.31 
  -2  11  -2    2.27    0.28 
  -2  11  -2    2.68    0.57 
   2  11   2    2.18    0.38 
  -2  11  -2    1.70    0.58 
   2  11   2    2.50    0.38 
  -2  11  -2    1.71    0.32 
  -3 -11  -2    0.30    0.19 
  -3 -11  -2    0.47    0.16 
  -3 -11  -2    0.64    0.29 
  -3 -11  -2    0.14    0.28 
  -3 -11  -2    0.34    0.16 
   3 -11   2    0.84    0.21 
  -3 -11  -2    0.52    0.17 
  -3 -11  -2    0.61    0.13 
  -3 -11  -2    0.48    0.15 
  -3 -11  -2    0.41    0.13 
  -3 -11  -2    0.25    0.22 
  -3  11  -2    0.12    0.26 
  -3  11  -2    0.44    0.15 
  -3  11  -2    0.35    0.12 
   3  11   2    0.46    0.21 
   3  11   2    0.42    0.21 
  -3  11  -2    0.55    0.17 
  -3  11  -2    0.53    0.14 
  -3  11  -2    0.68    0.19 
   3  11   2    0.44    0.20 
  -4 -11  -2    4.03    0.31 
  -4 -11  -2    4.74    0.40 
  -4 -11  -2    4.09    0.28 
  -4 -11  -2    4.40    0.31 
  -4 -11  -2    4.26    0.26 
   4 -11   2    4.02    0.28 
  -4 -11  -2    4.01    0.30 
  -4  11  -2    4.44    0.27 
   4  11   2    4.41    0.34 
  -4  11  -2    3.69    0.24 
  -4  11  -2    4.10    0.23 
   4  11   2    4.29    0.33 
   4  11   2    4.54    0.36 
  -4 -12   2    2.92    0.30 
   4 -12  -2    2.11    0.21 
  -4 -12   2    2.99    0.28 
  -4 -12   2    2.23    0.21 
  -4 -12   2    2.45    0.27 
  -4  12   2    2.89    0.23 
  -4  12   2    2.52    0.16 
   4  12  -2    2.42    0.26 
   4  12  -2    2.42    0.25 
  -4  12   2    2.78    0.18 
   4  12  -2    2.54    0.26 
  -3 -12   2    3.42    0.29 
  -3 -12   2    3.16    0.30 
   3 -12  -2    2.37    0.29 
  -3 -12   2    3.03    0.29 
  -3 -12   2    4.56    0.69 
  -3 -12   2    3.28    0.26 
  -3 -12   2    3.03    0.26 
   3 -12  -2    2.92    0.28 
  -3 -12   2    2.75    0.29 
  -3 -12   2    3.07    0.22 
  -3  12   2    2.79    0.37 
   3  12  -2    2.71    0.33 
   3  12  -2    3.12    0.38 
   3  12  -2    3.06    0.39 
  -3  12   2    2.51    0.24 
   3  12  -2    3.01    0.33 
  -3  12   2    3.10    0.27 
   3  12  -2    2.56    0.30 
  -3  12   2    3.10    0.28 
  -3  12   2    3.30    0.29 
  -2 -12   2   18.10    0.91 
  -2 -12   2   18.02    0.99 
   2 -12  -2   17.72    0.94 
  -2 -12   2   17.71    1.00 
   2 -12  -2   19.62    0.98 
  -2 -12   2   18.33    0.96 
   2  12  -2   17.24    0.95 
  -2  12   2   19.06    0.98 
  -2  12   2   19.06    0.99 
  -2  12   2   19.27    0.95 
  -2  12   2   17.41    0.96 
  -2  12   2   17.92    0.97 
  -2  12   2   15.42    0.96 
   2  12  -2   18.64    0.97 
  -2  12   2   18.61    1.01 
   2  12  -2   18.43    0.97 
   2  12  -2   18.82    1.02 
  -1 -12   2   11.28    0.65 
  -1 -12   2   11.11    0.72 
   1 -12  -2   12.10    0.70 
   1 -12  -2   12.06    0.63 
  -1 -12   2   11.29    0.67 
  -1 -12   2   11.15    0.68 
   1 -12  -2   12.03    0.70 
   1 -12  -2   12.48    0.69 
  -1  12   2   10.08    0.74 
   1  12  -2   11.09    0.68 
  -1  12   2   10.99    0.71 
  -1  12   2   10.77    0.71 
  -1  12   2   11.71    0.64 
  -1  12   2   11.88    0.61 
   1  12  -2   10.55    0.69 
  -1  12   2   11.93    0.62 
   1  12  -2   11.91    0.73 
   1  12  -2   11.98    0.72 
   1  12  -2   10.41    0.61 
  -1  12   2   11.37    0.62 
  -1  12   2    9.34    0.69 
   0 -12  -2    7.47    0.63 
   0 -12   2    7.16    0.53 
   0 -12  -2    7.53    0.52 
   0 -12  -2    6.85    0.53 
   0 -12   2    7.83    0.51 
   0 -12  -2    7.39    0.49 
   0 -12   2    7.59    0.54 
   0  12  -2    7.17    0.54 
   0  12   2    7.39    0.44 
   0  12  -2    7.87    0.51 
   0  12   2    8.03    0.44 
   0  12  -2    7.61    0.47 
   0  12   2    6.81    0.50 
   0  12  -2    7.82    0.50 
   0  12   2    7.26    0.56 
   0  12   2    6.99    0.51 
   0  12  -2    7.32    0.42 
   0  12   2    7.58    0.52 
   0  12  -2    7.35    0.42 
   0  12   2    7.91    0.54 
   0  12  -2    7.49    0.56 
   1 -12   2    6.03    0.40 
  -1 -12  -2    6.61    0.49 
  -1 -12  -2    5.89    0.58 
  -1 -12  -2    6.15    0.53 
  -1 -12  -2    5.88    0.45 
  -1 -12  -2    6.81    0.45 
   1 -12   2    6.09    0.47 
  -1 -12  -2    6.75    0.46 
   1 -12   2    6.08    0.47 
   1 -12   2    6.25    0.49 
   1  12   2    6.05    0.49 
   1  12   2    6.34    0.43 
  -1  12  -2    6.70    0.38 
  -1  12  -2    6.05    0.36 
  -1  12  -2    6.66    0.47 
  -1  12  -2    6.18    0.38 
  -1  12  -2    5.98    0.48 
   1  12   2    7.49    0.54 
  -1  12  -2    6.29    0.53 
  -1  12  -2    6.11    0.39 
   1  12   2    6.02    0.45 
  -2 -12  -2   12.00    0.74 
  -2 -12  -2   13.51    0.74 
  -2 -12  -2   12.89    0.82 
   2 -12   2   13.66    0.74 
  -2 -12  -2   13.12    0.72 
  -2 -12  -2   12.93    0.75 
   2 -12   2   12.04    0.69 
  -2 -12  -2   13.93    0.73 
  -2  12  -2   14.62    0.72 
  -2  12  -2   11.57    0.71 
   2  12   2   12.44    0.71 
  -2  12  -2   12.28    0.70 
  -2  12  -2   13.01    0.71 
  -2  12  -2   13.41    0.72 
  -2  12  -2   12.29    0.70 
   2  12   2   13.72    0.79 
  -2  12  -2   12.85    0.67 
  -2  12  -2   12.64    0.86 
   2  12   2   14.65    0.74 
   2  12   2   13.45    0.73 
   3 -12   2    2.81    0.26 
  -3 -12  -2    3.00    0.25 
   3 -12   2    3.02    0.29 
  -3 -12  -2    3.05    0.23 
  -3 -12  -2    2.72    0.36 
  -3 -12  -2    2.96    0.38 
  -3 -12  -2    2.67    0.25 
  -3 -12  -2    3.57    0.34 
  -3 -12  -2    3.16    0.21 
  -3  12  -2    3.28    0.25 
  -3  12  -2    3.78    0.24 
   3  12   2    2.79    0.29 
  -3  12  -2    3.06    0.26 
   3  12   2    3.67    0.31 
  -3  12  -2    2.99    0.41 
  -3  12  -2    3.07    0.24 
   3  12   2    3.11    0.30 
   3  12   2    3.58    0.36 
  -3 -13   2    4.47    0.28 
  -3 -13   2    4.09    0.25 
  -3 -13   2    6.79    0.58 
   3 -13  -2    4.29    0.28 
  -3 -13   2    4.40    0.26 
   3 -13  -2    3.80    0.31 
  -3 -13   2    4.17    0.28 
   3  13  -2    3.70    0.31 
  -3  13   2    4.15    0.30 
  -3  13   2    5.13    0.31 
   3  13  -2    4.18    0.27 
   3  13  -2    3.73    0.33 
  -3  13   2    5.04    0.34 
   3  13  -2    4.39    0.30 
  -2 -13   2   13.11    0.70 
   2 -13  -2   13.14    0.87 
   2 -13  -2   12.12    0.67 
  -2 -13   2   13.04    0.70 
  -2 -13   2   12.90    0.71 
  -2 -13   2   12.65    0.72 
   2 -13  -2   13.42    0.71 
  -2  13   2   13.15    0.71 
  -2  13   2   12.88    0.70 
  -2  13   2   12.54    0.66 
  -2  13   2   13.74    0.68 
   2  13  -2   14.06    0.67 
   2  13  -2   12.42    0.73 
   2  13  -2   12.43    0.68 
  -2  13   2   12.59    0.69 
  -1 -13   2    4.81    0.37 
  -1 -13   2    4.85    0.42 
   1 -13  -2    5.89    0.42 
   1 -13  -2    5.04    0.40 
  -1 -13   2    5.02    0.37 
   1 -13  -2    5.53    0.38 
  -1 -13   2    5.00    0.36 
   1  13  -2    4.84    0.40 
  -1  13   2    4.59    0.45 
   1  13  -2    5.18    0.38 
  -1  13   2    4.52    0.40 
   1  13  -2    5.21    0.36 
   1  13  -2    5.60    0.39 
  -1  13   2    5.21    0.28 
  -1  13   2    5.11    0.31 
  -1  13   2    5.28    0.30 
  -1  13   2    5.09    0.32 
   1  13  -2    5.31    0.32 
   0 -13  -2    3.89    0.35 
   0 -13  -2    3.25    0.50 
   0 -13  -2    3.98    0.35 
   0 -13   2    3.71    0.36 
   0 -13  -2    3.76    0.35 
   0 -13   2    3.80    0.33 
   0 -13  -2    3.49    0.43 
   0 -13   2    3.32    0.42 
   0 -13  -2    3.76    0.43 
   0 -13   2    3.50    0.36 
   0  13  -2    3.44    0.43 
   0  13  -2    3.93    0.31 
   0  13   2    4.29    0.31 
   0  13  -2    3.66    0.24 
   0  13  -2    4.22    0.28 
   0  13  -2    3.83    0.21 
   0  13   2    4.08    0.24 
   0  13   2    4.00    0.31 
   0  13   2    3.89    0.34 
   1 -13   2    1.81    0.27 
  -1 -13  -2    1.15    0.28 
  -1 -13  -2    1.55    0.21 
  -1 -13  -2    1.57    0.29 
   1 -13   2    1.19    0.20 
   1 -13   2    1.55    0.28 
  -1 -13  -2    1.47    0.23 
  -1 -13  -2    1.84    0.37 
   1 -13   2    1.20    0.29 
   1  13   2    1.25    0.28 
   1  13   2    1.79    0.29 
   1  13   2    1.47    0.29 
  -1  13  -2    1.78    0.26 
  -1  13  -2    1.59    0.16 
   1  13   2    1.14    0.29 
  -1  13  -2    1.85    0.29 
   2 -13   2    4.27    0.29 
  -2 -13  -2    4.12    0.38 
  -2 -13  -2    4.02    0.31 
  -2 -13  -2    4.22    0.35 
  -2 -13  -2    4.22    0.29 
  -2 -13  -2    3.81    0.28 
   2 -13   2    4.53    0.33 
  -2  13  -2    4.40    0.30 
   2  13   2    4.29    0.37 
   2  13   2    3.86    0.30 
   2  13   2    4.40    0.27 
  -2  13  -2    3.70    0.42 
  -2  13  -2    4.24    0.29 
   1 -14  -2    1.72    0.22 
  -1 -14   2    1.31    0.23 
   1 -14  -2    1.59    0.22 
   1 -14  -2    1.36    0.20 
  -1 -14   2    1.34    0.17 
  -1  14   2    1.29    0.23 
   1  14  -2    1.59    0.16 
   1  14  -2    1.29    0.19 
  -1  14   2    1.21    0.24 
   0 -14  -2    2.87    0.25 
   0 -14  -2    2.81    0.24 
   0 -14   2    2.56    0.23 
   0 -14   2    2.28    0.22 
   0 -14   2    2.34    0.22 
   0 -14  -2    2.65    0.22 
   0 -14  -2    2.36    0.28 
   0 -14   2    2.06    0.28 
   0  14   2    2.55    0.17 
   0  14   2    2.78    0.21 
   0  14  -2    2.58    0.25 
   0  14  -2    2.61    0.32 
   0  14   2    3.18    0.50 
  -6   0   3   27.02    1.50 
  -6   0   3   28.35    1.47 
  -6   0   3   27.84    1.28 
  -6   0   3   25.66    1.28 
  -6   0   3   26.65    1.27 
  -6   0   3   27.39    1.28 
  -5   0   3    0.34    0.46 
  -5   0   3    0.87    0.26 
  -5   0   3    0.49    0.25 
  -5   0   3    0.57    0.17 
   4   0  -3    3.14    0.31 
  -4   0   3    3.07    0.23 
  -4   0   3    2.79    0.47 
  -4   0   3    2.80    0.35 
  -4   0   3    3.85    0.26 
  -4   0   3    2.65    0.31 
  -3   0   3   13.80    0.72 
   3   0  -3   13.92    0.78 
  -3   0   3   14.26    0.76 
   2   0  -3  206.15    9.77 
  -2   0   3  208.37    9.77 
  -2   0   3  211.92    9.82 
   2   0  -3  207.98    9.79 
  -1   0   3   87.46    4.33 
  -1   0   3   82.90    4.32 
   1   0  -3   93.92    4.36 
  -1   0   3  100.95    4.33 
   1   0  -3   91.55    4.34 
  -1   0   3   92.99    4.43 
   1   0  -3   89.22    4.31 
  -1   0   3   93.40    4.28 
   1   0  -3   89.48    4.28 
   1   0  -3   89.22    4.49 
   1   0  -3   94.26    4.37 
   0   0  -3    9.03    0.59 
   0   0   3   10.24    0.63 
   0   0  -3   10.14    0.52 
   0   0   3   10.20    0.52 
   0   0   3   10.67    0.54 
   0   0  -3    9.02    0.72 
   0   0   3   10.35    0.62 
   0   0   3    9.98    0.71 
   0   0  -3   10.22    0.58 
   0   0  -3    9.90    0.61 
   0   0   3    9.38    0.60 
   1   0   3   63.17    3.13 
  -1   0  -3   62.55    3.28 
  -1   0  -3   63.01    3.04 
  -1   0  -3   60.21    3.06 
   1   0   3   62.35    2.99 
   1   0   3   60.05    3.01 
   1   0   3   62.86    2.93 
   1   0   3   62.44    3.00 
  -1   0  -3   57.69    3.09 
  -2   0  -3    6.05    0.40 
  -2   0  -3    6.83    0.48 
   2   0   3    8.01    0.38 
  -2   0  -3    7.59    0.55 
   2   0   3    7.89    0.53 
   2   0   3    8.06    0.68 
   2   0   3    7.54    0.39 
  -2   0  -3    6.29    0.41 
  -2   0  -3    8.21    0.66 
   3   0   3   57.47    3.01 
  -3   0  -3   61.45    2.95 
  -3   0  -3   65.11    3.02 
   3   0   3   61.07    2.87 
  -3   0  -3   62.78    3.20 
   3   0   3   58.37    2.88 
  -3   0  -3   57.57    2.90 
  -3   0  -3   63.81    2.92 
  -4   0  -3   14.72    0.84 
  -4   0  -3   13.68    0.78 
  -4   0  -3   13.72    0.72 
  -4   0  -3   13.57    0.83 
   4   0   3   13.29    0.68 
  -4   0  -3   13.29    0.70 
  -4   0  -3   10.82    0.75 
  -5   0  -3   15.35    0.77 
  -5   0  -3   14.26    0.78 
  -5   0  -3   15.22    0.74 
  -5   0  -3   15.42    0.90 
  -5   0  -3   13.98    0.85 
  -5   0  -3   14.46    0.74 
  -5   0  -3   15.06    0.76 
  -6   0  -3   22.33    1.06 
  -6   0  -3   22.31    1.06 
  -6   0  -3   22.72    1.06 
  -6   0  -3   21.93    1.17 
  -7  -1   3    2.01    0.12 
  -6  -1   3   14.95    0.96 
  -6  -1   3   14.53    0.71 
  -6  -1   3   14.69    0.72 
  -6  -1   3   15.12    0.71 
  -6  -1   3   15.59    0.72 
  -6  -1   3   15.12    0.91 
  -6  -1   3   14.82    0.90 
  -6  -1   3   15.78    0.72 
  -6  -1   3   13.54    0.90 
  -6  -1   3   15.06    1.00 
  -6  -1   3   13.37    1.06 
  -6   1   3   15.48    0.71 
  -6   1   3   14.83    0.71 
  -6   1   3   14.93    0.99 
  -6   1   3   14.68    0.71 
  -6   1   3   15.18    0.94 
  -5  -1   3    2.24    0.25 
  -5  -1   3    2.76    0.56 
  -5  -1   3    1.68    0.38 
  -5  -1   3    2.00    0.40 
  -5   1   3    1.91    0.42 
  -5   1   3    2.40    0.40 
  -5   1   3    2.02    0.21 
  -4  -1   3    2.25    0.21 
   4  -1  -3    2.21    0.26 
  -4  -1   3    1.78    0.45 
  -4  -1   3    1.61    0.29 
  -4  -1   3    2.58    0.24 
  -4  -1   3    2.06    0.20 
  -4  -1   3    2.35    0.31 
  -4  -1   3    2.88    0.58 
  -4  -1   3    2.00    0.41 
   4   1  -3    2.18    0.15 
  -4   1   3    2.30    0.19 
  -4   1   3    1.93    0.45 
  -4   1   3    2.65    0.27 
  -4   1   3    1.88    0.33 
   4   1  -3    2.59    0.30 
  -4   1   3    2.37    0.21 
   3  -1  -3   94.59    4.47 
  -3  -1   3   91.31    4.44 
  -3  -1   3   99.39    4.49 
   3   1  -3   90.94    4.40 
  -3   1   3   93.33    4.44 
   3   1  -3   92.05    4.49 
  -3   1   3   98.10    4.45 
  -3   1   3   93.05    4.42 
  -2  -1   3  176.87    8.13 
   2  -1  -3  171.49    8.07 
  -2  -1   3  153.31    8.06 
   2  -1  -3  171.57    8.05 
   2   1  -3  164.83    8.08 
  -2   1   3  180.64    8.09 
  -2   1   3  175.50    8.01 
   2   1  -3  185.42    8.08 
  -2   1   3  167.09    8.05 
   2   1  -3  169.22    8.08 
  -1  -1   3   45.94    2.37 
  -1  -1   3   47.54    2.42 
  -1  -1   3   51.41    2.37 
   1  -1  -3   48.23    2.43 
   1  -1  -3   50.14    2.57 
   1  -1  -3   46.59    2.43 
   1  -1  -3   49.96    2.36 
  -1  -1   3   46.98    2.35 
  -1  -1   3   51.26    2.43 
  -1  -1   3   48.97    2.51 
   1  -1  -3   49.34    2.42 
   1   1  -3   50.19    2.59 
  -1   1   3   49.76    2.40 
  -1   1   3   54.61    2.55 
  -1   1   3   51.69    2.50 
   1   1  -3   49.28    2.37 
   1   1  -3   51.36    2.44 
  -1   1   3   47.25    2.40 
  -1   1   3   52.04    2.35 
   1   1  -3   51.42    2.43 
   1   1  -3   49.50    2.44 
   1   1  -3   52.71    2.36 
   0  -1  -3   36.22    1.81 
   0  -1   3   35.56    1.74 
   0  -1   3   35.24    1.92 
   0  -1  -3   36.12    1.81 
   0  -1  -3   35.85    1.95 
   0  -1   3   33.31    1.81 
   0  -1   3   38.26    1.73 
   0  -1  -3   37.56    1.74 
   0  -1   3   37.58    1.80 
   0  -1   3   36.35    1.82 
   0   1   3   37.47    1.82 
   0   1  -3   35.65    1.76 
   0   1  -3   33.43    2.13 
   0   1  -3   38.04    1.74 
   0   1   3   36.38    1.82 
   0   1  -3   37.98    1.93 
   0   1  -3   38.13    1.81 
   0   1  -3   32.94    1.80 
   0   1  -3   34.72    1.94 
   0   1   3   36.36    1.93 
  -1  -1  -3   29.68    1.52 
   1  -1   3   27.98    1.57 
  -1  -1  -3   27.79    1.74 
   1  -1   3   28.44    1.46 
   1  -1   3   29.69    1.44 
  -1  -1  -3   26.21    1.56 
   1  -1   3   27.63    1.37 
  -1   1  -3   28.76    1.51 
  -1   1  -3   28.51    1.57 
   1   1   3   26.12    1.57 
   1   1   3   26.33    1.45 
  -1   1  -3   28.47    1.49 
   1   1   3   28.26    1.37 
   1   1   3   29.23    1.44 
   1   1   3   26.25    1.46 
   2  -1   3   52.80    2.64 
  -2  -1  -3   53.26    2.80 
   2  -1   3   53.94    2.79 
  -2  -1  -3   52.70    2.53 
   2  -1   3   50.83    2.52 
  -2  -1  -3   50.34    2.69 
   2  -1   3   53.14    2.52 
  -2  -1  -3   53.58    2.76 
   2   1   3   55.05    2.52 
   2   1   3   54.93    2.83 
  -2   1  -3   52.56    2.69 
  -2   1  -3   57.44    2.59 
   2   1   3   50.86    2.52 
  -2   1  -3   56.01    2.80 
   2   1   3   56.31    2.66 
  -3  -1  -3   45.85    2.30 
  -3  -1  -3   48.00    2.25 
   3  -1   3   48.34    2.15 
  -3  -1  -3   47.48    2.19 
  -3  -1  -3   47.63    2.50 
  -3  -1  -3   48.60    2.21 
   3  -1   3   40.76    2.28 
  -3   1  -3   45.46    2.45 
  -3   1  -3   43.08    2.17 
  -3   1  -3   42.43    2.21 
   3   1   3   44.75    2.15 
  -3   1  -3   43.17    2.27 
  -3   1  -3   44.96    2.18 
   3   1   3   45.35    2.16 
   3   1   3   43.53    2.30 
  -4  -1  -3   26.42    1.33 
   4  -1   3   26.14    1.28 
  -4  -1  -3   23.42    1.60 
  -4  -1  -3   26.89    1.40 
  -4  -1  -3   27.69    1.40 
  -4  -1  -3   27.01    1.31 
  -4  -1  -3   27.87    1.34 
  -4  -1  -3   26.58    1.45 
  -4   1  -3   24.69    1.33 
  -4   1  -3   25.39    1.30 
   4   1   3   26.12    1.29 
  -4   1  -3   29.38    1.32 
  -4   1  -3   25.64    1.37 
  -4   1  -3   26.55    1.40 
  -4   1  -3   27.41    1.41 
  -5  -1  -3   32.14    1.72 
  -5  -1  -3   35.45    1.65 
  -5  -1  -3   32.82    1.67 
  -5  -1  -3   35.31    1.67 
  -5  -1  -3   32.54    1.68 
  -5  -1  -3   30.06    1.67 
  -5  -1  -3   34.50    1.67 
  -5  -1  -3   35.06    1.67 
  -5  -1  -3   34.35    1.77 
  -5   1  -3   35.25    1.88 
  -5   1  -3   34.82    1.79 
  -5   1  -3   34.48    1.65 
  -5   1  -3   37.46    1.68 
  -5   1  -3   35.77    1.64 
  -5   1  -3   34.55    1.66 
  -5   1  -3   36.11    1.64 
  -6  -1  -3   12.06    0.61 
  -6  -1  -3   12.02    0.61 
  -6  -1  -3   13.60    0.65 
  -6  -1  -3   13.50    0.63 
  -6  -1  -3   13.59    0.76 
  -6  -1  -3   12.27    0.64 
  -6   1  -3   13.28    0.76 
  -6   1  -3   13.40    0.62 
  -6   1  -3   14.01    0.62 
  -6   1  -3   12.32    0.62 
  -7  -2   3    0.20    0.05 
  -7  -2   3    0.50    0.28 
  -6  -2   3    6.93    0.68 
  -6  -2   3    6.17    0.74 
  -6  -2   3    5.68    0.56 
  -6  -2   3    6.64    0.37 
  -6  -2   3    6.85    0.36 
  -6  -2   3    6.73    0.38 
  -6  -2   3    6.40    0.56 
  -6  -2   3    6.58    0.35 
  -6  -2   3    6.71    0.35 
  -6  -2   3    7.26    0.62 
  -6  -2   3    6.68    0.35 
  -6  -2   3    6.57    0.56 
  -6   2   3    6.43    0.33 
  -6   2   3    6.72    0.62 
  -5  -2   3   21.62    1.19 
  -5  -2   3   21.69    1.07 
  -5  -2   3   21.70    1.13 
  -5  -2   3   19.10    1.11 
  -5  -2   3   21.55    1.17 
  -5  -2   3   22.52    1.35 
  -5  -2   3   21.23    1.07 
  -5   2   3   20.81    1.09 
  -5   2   3   21.33    1.05 
  -4  -2   3   10.12    0.65 
  -4  -2   3   10.97    0.60 
   4  -2  -3   10.10    0.59 
  -4  -2   3   10.16    0.59 
  -4  -2   3    9.90    0.62 
  -4  -2   3    9.95    0.54 
  -4  -2   3   10.07    0.76 
  -4  -2   3    9.67    0.82 
  -4   2   3    8.75    0.72 
   4   2  -3    9.64    0.66 
  -4   2   3    9.76    0.58 
  -4   2   3   10.05    0.54 
   4   2  -3   10.39    0.51 
  -4   2   3    9.16    0.60 
  -3  -2   3   48.18    2.48 
   3  -2  -3   50.90    2.46 
  -3  -2   3   53.59    2.50 
  -3  -2   3   54.37    2.45 
   3   2  -3   46.22    2.38 
  -3   2   3   50.19    2.44 
  -3   2   3   52.55    2.44 
  -3   2   3   50.08    2.41 
   3   2  -3   49.26    2.39 
   3   2  -3   52.67    2.51 
  -2  -2   3   90.39    4.31 
  -2  -2   3   88.26    4.38 
   2  -2  -3   91.37    4.45 
   2  -2  -3   93.53    4.28 
   2   2  -3   85.80    4.32 
  -2   2   3   93.23    4.32 
  -2   2   3   88.25    4.39 
   2   2  -3   88.68    4.32 
  -2   2   3   92.62    4.28 
   2   2  -3   83.97    4.30 
  -2   2   3   93.44    4.23 
  -1  -2   3   13.11    0.69 
   1  -2  -3   13.05    0.76 
   1  -2  -3   13.86    0.75 
  -1  -2   3   13.50    1.08 
   1  -2  -3   12.03    0.69 
  -1  -2   3   12.71    0.76 
   1  -2  -3   12.42    0.76 
  -1  -2   3   15.07    0.76 
  -1  -2   3   13.02    0.84 
   1   2  -3   13.18    0.77 
   1   2  -3   11.74    0.88 
  -1   2   3   12.91    0.85 
   1   2  -3   14.26    0.76 
  -1   2   3   13.88    0.66 
   1   2  -3   12.97    0.77 
  -1   2   3   12.08    0.72 
  -1   2   3   13.69    0.83 
  -1   2   3   12.28    0.83 
   0  -2   3   62.53    3.14 
   0  -2  -3   67.44    3.15 
   0  -2   3   59.76    3.14 
   0  -2  -3   66.92    3.26 
   0  -2  -3   64.71    3.14 
   0  -2   3   64.61    3.12 
   0  -2  -3   64.50    3.15 
   0  -2   3   64.03    3.27 
   0  -2  -3   66.19    3.32 
   0  -2   3   61.56    3.07 
   0   2   3   70.41    3.15 
   0   2   3   63.22    3.23 
   0   2   3   62.02    3.14 
   0   2  -3   59.88    3.28 
   0   2  -3   65.63    3.14 
   0   2   3   64.68    3.26 
   0   2  -3   69.75    3.28 
   0   2  -3   66.68    3.14 
   0   2  -3   65.26    3.06 
   1  -2   3  204.35   10.07 
   1  -2   3  223.10   10.21 
   1  -2   3  223.93   10.22 
  -1  -2  -3  221.21   10.58 
  -1  -2  -3  217.00   10.17 
   1  -2   3  202.96   10.11 
   1  -2   3  215.34   10.17 
  -1  -2  -3  216.72   10.33 
   1  -2   3  225.02   10.34 
   1   2   3  204.65   10.18 
  -1   2  -3  229.10   10.26 
   1   2   3  231.74   10.29 
   1   2   3  209.49   10.35 
   1   2   3  206.61   10.12 
  -1   2  -3  216.88   10.10 
  -1   2  -3  216.55   10.24 
   1   2   3  208.44   10.20 
  -1   2  -3  225.73   10.33 
   2  -2   3  121.53    5.79 
  -2  -2  -3  115.17    5.81 
   2  -2   3  129.95    5.91 
   2  -2   3  118.16    5.79 
  -2  -2  -3  128.21    6.16 
   2  -2   3  127.58    6.08 
  -2  -2  -3  122.45    5.81 
  -2  -2  -3  129.15    6.12 
   2   2   3  116.78    5.79 
  -2   2  -3  134.73    6.09 
   2   2   3  125.04    5.80 
  -2   2  -3  125.20    5.93 
  -2   2  -3  118.33    5.85 
  -2   2  -3  120.49    5.97 
   2   2   3  128.33    5.93 
   2   2   3  123.67    6.13 
   2   2   3  126.34    5.96 
  -3  -2  -3   37.31    2.05 
  -3  -2  -3   34.52    1.70 
   3  -2   3   35.56    1.66 
  -3  -2  -3   32.91    1.75 
  -3  -2  -3   33.69    1.72 
  -3  -2  -3   34.98    1.84 
   3  -2   3   35.06    1.81 
  -3   2  -3   35.00    1.74 
   3   2   3   36.25    1.85 
  -3   2  -3   34.15    1.69 
  -3   2  -3   33.09    1.79 
   3   2   3   35.32    1.68 
  -3   2  -3   33.10    1.69 
   3   2   3   36.92    1.67 
  -3   2  -3   34.80    1.97 
   4  -2   3    4.04    0.27 
  -4  -2  -3    4.50    0.89 
  -4  -2  -3    3.86    0.42 
  -4  -2  -3    4.07    0.36 
  -4  -2  -3    4.44    0.36 
  -4  -2  -3    4.08    0.51 
  -4  -2  -3    4.02    0.33 
  -4   2  -3    3.51    0.40 
   4   2   3    4.22    0.29 
  -4   2  -3    3.93    0.31 
  -4   2  -3    3.79    0.30 
   4   2   3    3.80    0.31 
  -4   2  -3    4.18    0.46 
  -4   2  -3    3.86    0.35 
  -4   2  -3    4.00    0.33 
  -5  -2  -3    5.52    0.39 
  -5  -2  -3    5.63    0.40 
  -5  -2  -3    5.47    0.44 
  -5  -2  -3    5.52    0.48 
  -5  -2  -3    5.70    0.37 
  -5  -2  -3    4.80    0.36 
  -5  -2  -3    6.08    0.59 
  -5  -2  -3    5.56    0.54 
  -5  -2  -3    6.01    0.51 
  -5  -2  -3    5.44    0.40 
  -5  -2  -3    5.86    0.34 
  -5  -2  -3    5.68    0.38 
  -5   2  -3    5.37    0.33 
  -5   2  -3    6.21    0.32 
  -5   2  -3    5.70    0.35 
  -5   2  -3    6.13    0.66 
  -5   2  -3    5.39    0.31 
  -5   2  -3    5.46    0.53 
  -5   2  -3    5.46    0.34 
  -6  -2  -3    0.46    0.19 
  -6  -2  -3    0.29    0.08 
  -6  -2  -3    0.46    0.09 
  -6  -2  -3    0.71    0.14 
  -6  -2  -3    0.48    0.08 
  -6  -2  -3    0.37    0.09 
  -6  -2  -3    0.29    0.20 
  -6  -2  -3    0.48    0.10 
  -6   2  -3    0.65    0.24 
  -6   2  -3    0.50    0.07 
  -6   2  -3    0.51    0.08 
  -7  -3   3    9.98    0.47 
  -7  -3   3    9.41    0.48 
  -7  -3   3    9.48    0.65 
  -7  -3   3   10.30    0.47 
  -6  -3   3   21.42    1.04 
  -6  -3   3   22.27    1.02 
  -6  -3   3   19.89    1.17 
  -6  -3   3   21.27    1.23 
  -6  -3   3   21.62    1.03 
  -6  -3   3   20.28    1.02 
  -6  -3   3   19.57    1.35 
  -6  -3   3   19.71    1.02 
  -6  -3   3   21.82    1.16 
  -6   3   3   21.34    0.99 
  -5  -3   3    2.69    0.26 
  -5  -3   3    2.19    0.57 
  -5  -3   3    2.87    0.37 
  -5  -3   3    2.68    0.31 
  -5  -3   3    2.24    0.25 
   5  -3  -3    2.54    0.17 
  -5  -3   3    2.64    0.44 
  -5  -3   3    2.69    0.43 
  -5  -3   3    2.74    0.28 
  -5   3   3    2.45    0.32 
  -5   3   3    2.47    0.22 
  -4  -3   3   26.24    1.29 
  -4  -3   3   21.43    1.35 
   4  -3  -3   22.11    1.24 
  -4  -3   3   24.40    1.52 
   4  -3  -3   24.25    1.15 
  -4  -3   3   23.69    1.28 
  -4  -3   3   24.46    1.33 
  -4  -3   3   25.14    1.27 
  -4  -3   3   23.95    1.41 
   4   3  -3   23.31    1.17 
  -4   3   3   24.77    1.18 
  -4   3   3   25.16    1.20 
  -4   3   3   21.84    1.24 
   4   3  -3   24.25    1.17 
   4   3  -3   25.82    1.36 
  -3  -3   3   46.51    2.38 
  -3  -3   3   48.91    2.42 
   3  -3  -3   50.87    2.32 
  -3  -3   3   47.09    2.53 
  -3  -3   3   49.01    2.46 
   3  -3  -3   52.29    2.42 
  -3  -3   3   49.12    2.49 
  -3  -3   3   50.84    2.36 
   3   3  -3   51.37    2.33 
   3   3  -3   50.06    2.48 
   3   3  -3   48.87    2.33 
  -3   3   3   48.85    2.54 
  -3   3   3   45.74    2.33 
  -3   3   3   49.86    2.36 
  -3   3   3   49.79    2.34 
  -3   3   3   51.53    2.39 
  -3   3   3   44.87    2.49 
  -3   3   3   51.36    2.38 
   2  -3  -3   49.45    2.41 
  -2  -3   3   48.27    2.34 
   2  -3  -3   44.55    2.33 
  -2  -3   3   51.06    2.54 
   2  -3  -3   51.47    2.32 
  -2  -3   3   51.66    2.77 
   2   3  -3   47.26    2.33 
   2   3  -3   51.34    2.46 
  -2   3   3   48.99    2.53 
  -2   3   3   49.51    2.36 
   2   3  -3   49.53    2.47 
  -2   3   3   51.46    2.45 
  -2   3   3   47.80    2.53 
  -2   3   3   48.58    2.41 
   1  -3  -3  410.89   18.00 
   1  -3  -3  362.76   17.96 
  -1  -3   3  402.04   17.99 
   1  -3  -3  405.38   18.00 
   1   3  -3  376.93   18.19 
   1   3  -3  369.31   18.00 
  -1   3   3  396.85   17.89 
  -1   3   3  404.41   18.11 
  -1   3   3  349.88   18.04 
  -1   3   3  383.35   18.08 
   1   3  -3  386.94   17.99 
   1   3  -3  368.46   17.98 
   0  -3   3    2.41    0.32 
   0  -3   3    2.14    0.40 
   0  -3   3    2.52    0.33 
   0  -3  -3    2.35    0.36 
   0  -3  -3    2.38    0.33 
   0  -3   3    2.82    0.37 
   0   3  -3    2.44    0.37 
   0   3   3    2.90    0.47 
   0   3   3    2.67    0.46 
   0   3   3    2.41    0.40 
   0   3  -3    2.81    0.31 
   0   3   3    2.56    0.33 
   0   3  -3    2.56    0.32 
   0   3   3    2.14    0.33 
   0   3  -3    2.75    0.44 
   1  -3   3   14.66    0.87 
   1  -3   3   15.07    1.01 
   1  -3   3   14.52    0.84 
  -1  -3  -3   13.98    0.83 
   1  -3   3   13.31    0.76 
  -1  -3  -3   13.44    0.84 
  -1  -3  -3   15.61    1.27 
  -1  -3  -3   15.00    1.01 
   1  -3   3   14.99    0.71 
  -1  -3  -3   15.28    0.76 
   1  -3   3   14.97    0.72 
  -1   3  -3   14.23    0.91 
   1   3   3   15.35    0.87 
   1   3   3   13.75    0.72 
  -1   3  -3   14.39    0.75 
  -1   3  -3   13.78    0.73 
  -1   3  -3   14.27    0.98 
   1   3   3   13.90    1.01 
   1   3   3   13.41    0.94 
   1   3   3   14.26    0.88 
  -2  -3  -3    3.25    0.28 
  -2  -3  -3    3.96    0.30 
   2  -3   3    3.18    0.53 
   2  -3   3    3.82    0.23 
  -2  -3  -3    3.56    0.53 
  -2  -3  -3    3.50    0.58 
  -2  -3  -3    3.66    0.28 
   2  -3   3    3.51    0.24 
  -2  -3  -3    4.13    0.46 
  -2  -3  -3    3.68    0.33 
  -2  -3  -3    3.14    0.39 
   2  -3   3    3.87    0.38 
   2   3   3    4.03    0.60 
  -2   3  -3    3.65    0.37 
  -2   3  -3    2.99    0.39 
  -2   3  -3    3.71    0.32 
   2   3   3    3.69    0.43 
  -2   3  -3    3.67    0.29 
   2   3   3    3.63    0.44 
   2   3   3    3.59    0.25 
  -2   3  -3    3.25    0.49 
   2   3   3    3.14    0.26 
   3  -3   3   20.87    1.04 
  -3  -3  -3   21.99    1.13 
  -3  -3  -3   21.24    1.43 
  -3  -3  -3   21.28    1.25 
  -3  -3  -3   20.55    1.16 
   3  -3   3   20.75    1.19 
  -3  -3  -3   19.97    1.14 
  -3  -3  -3   22.82    1.10 
  -3   3  -3   21.19    1.35 
   3   3   3   21.87    1.06 
   3   3   3   21.27    1.06 
   3   3   3   21.83    1.26 
  -3   3  -3   22.20    1.13 
  -3   3  -3   20.80    1.08 
  -3   3  -3   21.63    1.19 
  -3   3  -3   20.99    1.07 
   4  -3   3    6.43    0.38 
  -4  -3  -3    8.48    0.60 
  -4  -3  -3    6.71    0.49 
  -4  -3  -3    6.51    0.46 
  -4  -3  -3    6.82    0.63 
  -4  -3  -3    6.84    0.42 
  -4  -3  -3    6.29    0.47 
  -4  -3  -3    6.39    0.44 
   4   3   3    6.44    0.41 
  -4   3  -3    6.71    0.56 
   4   3   3    6.77    0.41 
  -4   3  -3    6.11    0.42 
  -4   3  -3    6.54    0.40 
  -4   3  -3    6.80    0.47 
  -4   3  -3    5.87    0.41 
  -4   3  -3    6.37    0.50 
  -5  -3  -3    7.89    0.53 
  -5  -3  -3    8.74    0.54 
  -5  -3  -3    8.55    0.53 
  -5  -3  -3    9.27    0.64 
  -5  -3  -3    8.92    0.62 
  -5  -3  -3    8.18    0.54 
  -5  -3  -3    9.07    0.53 
  -5  -3  -3    9.36    0.66 
  -5  -3  -3    8.72    0.60 
  -5  -3  -3    9.20    0.49 
  -5  -3  -3    9.39    0.53 
  -5   3  -3    9.32    0.46 
  -5   3  -3    9.48    0.47 
  -5   3  -3    8.72    0.46 
  -5   3  -3    8.88    0.64 
  -5   3  -3    8.05    0.76 
  -5   3  -3    9.15    0.48 
  -5   3  -3    8.77    0.48 
  -6  -3  -3    4.53    0.27 
  -6  -3  -3    4.56    0.25 
  -6  -3  -3    4.62    0.36 
  -6  -3  -3    4.35    0.39 
  -6  -3  -3    4.44    0.26 
  -6  -3  -3    4.20    0.25 
  -6  -3  -3    4.83    0.40 
  -6  -3  -3    4.14    0.24 
  -6  -3  -3    4.32    0.25 
  -6   3  -3    4.36    0.22 
  -6   3  -3    4.22    0.22 
  -6   3  -3    4.19    0.22 
  -7  -4   3   -0.03    0.25 
  -7  -4   3    0.05    0.04 
  -7  -4   3    0.09    0.04 
  -7  -4   3    0.06    0.03 
  -7  -4   3    0.07    0.03 
  -7  -4   3    0.05    0.05 
  -6  -4   3   22.99    1.13 
  -6  -4   3   22.13    1.13 
  -6  -4   3   24.19    1.31 
  -6  -4   3   22.13    1.22 
  -6  -4   3   22.92    1.11 
  -6  -4   3   23.99    1.45 
  -6  -4   3   21.54    1.13 
  -6  -4   3   23.51    1.11 
  -6  -4   3   22.06    1.12 
  -6   4   3   23.39    1.07 
  -5  -4   3    3.70    0.33 
  -5  -4   3    4.45    0.33 
   5  -4  -3    3.94    0.24 
  -5  -4   3    4.00    0.55 
  -5  -4   3    4.15    0.46 
  -5  -4   3    4.35    0.35 
  -5  -4   3    4.56    0.49 
  -5  -4   3    4.30    0.47 
  -5  -4   3    4.27    0.63 
  -5   4   3    4.08    0.37 
  -5   4   3    4.01    0.29 
  -4  -4   3    0.98    0.46 
   4  -4  -3    0.72    0.11 
  -4  -4   3    0.79    0.31 
  -4  -4   3    0.54    0.34 
  -4  -4   3    0.63    0.33 
  -4  -4   3    0.47    0.16 
  -4  -4   3    0.51    0.22 
  -4  -4   3    0.61    0.15 
  -4  -4   3    0.87    0.23 
  -4  -4   3    0.51    0.19 
   4  -4  -3    0.81    0.23 
   4   4  -3    0.70    0.16 
  -4   4   3    0.76    0.16 
  -4   4   3    0.61    0.17 
  -4   4   3    0.73    0.18 
  -4   4   3    0.37    0.22 
   4   4  -3    1.15    0.36 
  -3  -4   3   73.56    3.90 
  -3  -4   3   89.72    4.09 
  -3  -4   3   81.41    3.93 
  -3  -4   3   78.81    3.88 
   3  -4  -3   82.15    3.84 
   3  -4  -3   88.33    3.96 
  -3  -4   3   82.00    4.00 
  -3   4   3   82.77    3.86 
  -3   4   3   86.17    4.10 
   3   4  -3   80.77    4.01 
   3   4  -3   83.58    3.86 
  -3   4   3   88.00    3.95 
  -3   4   3   77.95    3.85 
  -3   4   3   82.11    3.92 
  -3   4   3   81.68    3.89 
   3   4  -3   75.89    4.29 
  -3   4   3   77.89    4.04 
  -3   4   3   82.09    3.90 
   2  -4  -3  232.60   10.22 
  -2  -4   3  225.19   10.65 
   2  -4  -3  214.50   10.10 
  -2  -4   3  205.84   10.13 
  -2  -4   3  209.66   10.12 
  -2  -4   3  207.04   10.34 
  -2  -4   3  209.76   10.21 
   2  -4  -3  218.56   10.10 
   2   4  -3  211.65   10.11 
  -2   4   3  218.27   10.21 
  -2   4   3  230.03   10.37 
   2   4  -3  215.32   10.27 
  -2   4   3  224.04   10.35 
  -2   4   3  221.68   10.16 
  -2   4   3  214.98   10.24 
   2   4  -3  213.94   10.25 
   1  -4  -3   82.45    3.92 
   1  -4  -3   76.06    3.81 
   1  -4  -3   89.73    3.98 
  -1  -4   3   83.21    3.95 
  -1  -4   3   82.57    3.94 
  -1  -4   3   79.74    3.88 
  -1  -4   3   78.12    3.83 
   1  -4  -3   78.27    3.81 
   1   4  -3   81.86    4.04 
  -1   4   3   79.78    4.07 
   1   4  -3   78.09    3.91 
  -1   4   3   83.64    3.83 
   1   4  -3   84.65    3.96 
  -1   4   3   83.86    4.06 
   1   4  -3   79.19    3.81 
  -1   4   3   79.69    4.02 
   0  -4   3    7.15    0.42 
   0  -4  -3    8.46    0.61 
   0  -4   3    8.26    0.60 
   0  -4  -3    7.85    0.58 
   0   4   3    7.47    0.56 
   0   4   3    8.54    0.71 
   0   4  -3    7.75    0.53 
   0   4  -3    8.26    0.72 
   0   4   3    8.07    0.58 
   0   4  -3    7.42    0.46 
   0   4  -3    7.35    0.64 
   0   4  -3    7.59    0.54 
   0   4   3    8.36    0.73 
   0   4   3    8.47    0.71 
  -1  -4  -3   48.66    2.41 
   1  -4   3   50.18    2.53 
  -1  -4  -3   52.62    2.41 
   1  -4   3   43.45    2.41 
   1  -4   3   46.04    2.67 
   1  -4   3   51.64    2.37 
  -1  -4  -3   51.34    2.51 
   1  -4   3   51.53    2.50 
   1  -4   3   51.01    2.37 
  -1  -4  -3   53.16    2.72 
  -1  -4  -3   46.43    2.50 
   1   4   3   49.20    2.54 
  -1   4  -3   46.22    2.57 
  -1   4  -3   48.89    2.39 
  -1   4  -3   51.29    2.63 
   1   4   3   50.84    2.50 
  -1   4  -3   53.14    2.42 
   1   4   3   51.30    2.68 
  -1   4  -3   52.03    2.70 
  -1   4  -3   52.59    2.39 
   1   4   3   50.73    2.38 
  -2  -4  -3   14.11    0.83 
  -2  -4  -3   15.72    0.79 
   2  -4   3   15.39    0.74 
  -2  -4  -3   15.26    1.23 
   2  -4   3   14.23    0.88 
  -2  -4  -3   15.03    0.82 
  -2  -4  -3   14.68    0.86 
  -2  -4  -3   15.00    0.78 
  -2  -4  -3   14.73    0.78 
   2  -4   3   15.41    0.74 
  -2  -4  -3   13.60    1.09 
  -2   4  -3   14.25    0.81 
  -2   4  -3   14.81    1.05 
   2   4   3   15.79    0.76 
  -2   4  -3   15.25    0.81 
  -2   4  -3   13.76    0.87 
  -2   4  -3   14.64    0.78 
   2   4   3   14.17    1.45 
   2   4   3   14.43    0.93 
  -2   4  -3   12.08    0.93 
   2   4   3   15.20    0.97 
   3  -4   3   13.56    0.84 
  -3  -4  -3   12.46    1.08 
  -3  -4  -3   12.50    0.81 
  -3  -4  -3   12.30    0.72 
  -3  -4  -3   13.14    0.90 
  -3  -4  -3   13.44    0.77 
  -3  -4  -3   13.72    0.80 
  -3  -4  -3   13.75    0.78 
   3  -4   3   13.71    0.67 
  -3  -4  -3   13.08    0.73 
   3   4   3   12.94    0.69 
  -3   4  -3   12.53    0.71 
  -3   4  -3   12.65    0.99 
  -3   4  -3   13.90    0.69 
  -3   4  -3   13.55    0.76 
  -3   4  -3   11.85    0.67 
   3   4   3   11.81    0.89 
  -3   4  -3   12.95    0.83 
  -4  -4  -3   11.71    0.68 
  -4  -4  -3   12.05    0.66 
  -4  -4  -3   11.29    0.65 
  -4  -4  -3   12.15    0.68 
  -4  -4  -3   10.24    0.72 
   4  -4   3   10.61    0.58 
  -4  -4  -3   12.01    0.67 
  -4  -4  -3   10.38    0.70 
  -4  -4  -3   11.08    0.85 
   4   4   3   11.42    0.63 
  -4   4  -3   11.18    0.63 
  -4   4  -3    9.83    0.67 
  -4   4  -3   11.01    0.71 
  -4   4  -3   10.93    0.60 
  -4   4  -3   11.28    0.72 
  -4   4  -3   10.77    0.61 
  -5  -4  -3    5.96    0.35 
  -5  -4  -3    5.47    0.50 
  -5  -4  -3    5.04    0.39 
  -5  -4  -3    4.94    0.40 
  -5  -4  -3    5.95    0.39 
  -5  -4  -3    5.52    0.52 
  -5  -4  -3    5.10    0.39 
  -5  -4  -3    5.00    0.41 
  -5  -4  -3    5.35    0.48 
  -5  -4  -3    5.27    0.49 
  -5  -4  -3    5.31    0.46 
  -5   4  -3    4.94    0.64 
  -5   4  -3    5.09    0.30 
  -5   4  -3    5.35    0.32 
  -5   4  -3    5.44    0.49 
  -5   4  -3    5.36    0.29 
  -5   4  -3    5.13    0.30 
  -5   4  -3    5.37    0.32 
  -6  -4  -3    1.54    0.18 
  -6  -4  -3    1.55    0.14 
  -6  -4  -3    1.81    0.16 
  -6  -4  -3    1.61    0.15 
  -6  -4  -3    1.96    0.30 
  -6  -4  -3    1.55    0.24 
  -6  -4  -3    1.55    0.13 
  -6  -4  -3    1.59    0.17 
  -6  -4  -3    1.53    0.30 
  -6   4  -3    1.61    0.10 
  -7  -5   3    2.85    0.21 
  -7  -5   3    3.15    0.39 
  -7  -5   3    3.05    0.16 
  -6  -5   3    3.88    0.29 
  -6  -5   3    3.63    0.31 
  -6  -5   3    4.10    0.32 
  -6  -5   3    3.45    0.57 
  -6  -5   3    4.18    0.43 
  -6  -5   3    3.86    0.30 
  -6  -5   3    3.65    0.27 
  -6  -5   3    4.51    0.56 
  -6  -5   3    3.79    0.28 
  -6   5   3    4.03    0.20 
  -5  -5   3   75.93    3.73 
  -5  -5   3   79.48    3.90 
  -5  -5   3   73.07    3.71 
  -5  -5   3   78.39    3.74 
  -5  -5   3   78.21    3.73 
  -5  -5   3   73.83    3.92 
  -5  -5   3   79.17    3.73 
  -5  -5   3   85.21    3.83 
  -5  -5   3   80.12    3.80 
  -5  -5   3   70.27    3.77 
  -5  -5   3   80.42    3.76 
  -5  -5   3   86.76    4.02 
  -5  -5   3   75.30    3.85 
  -5  -5   3   80.05    3.75 
  -5  -5   3   80.34    3.73 
  -5   5   3   80.56    3.84 
  -5   5   3   82.28    3.75 
  -5   5   3   79.43    3.67 
  -5   5   3   76.91    3.68 
  -5   5   3   79.86    3.67 
  -5   5   3   76.56    3.73 
  -5   5   3   78.59    3.67 
  -5   5   3   80.45    3.67 
  -5   5   3   79.96    3.67 
  -5   5   3   79.75    3.68 
  -5   5   3   75.73    3.87 
   5   5  -3   76.65    3.72 
  -4  -5   3   51.69    2.39 
  -4  -5   3   49.62    2.46 
  -4  -5   3   45.74    2.41 
  -4  -5   3   49.61    2.45 
  -4  -5   3   46.35    2.59 
  -4  -5   3   52.22    2.85 
  -4  -5   3   52.31    2.42 
  -4  -5   3   50.34    2.57 
  -4  -5   3   51.87    2.54 
   4  -5  -3   51.48    2.35 
  -4  -5   3   47.24    2.56 
  -4   5   3   48.79    2.60 
  -4   5   3   50.23    2.36 
  -4   5   3   47.89    2.40 
  -4   5   3   46.81    2.39 
   4   5  -3   49.29    2.37 
  -4   5   3   50.36    2.44 
  -3  -5   3   66.58    3.24 
  -3  -5   3   57.53    3.16 
   3  -5  -3   70.88    3.14 
  -3  -5   3   65.86    3.31 
   3  -5  -3   62.38    3.26 
  -3  -5   3   62.25    3.20 
  -3  -5   3   68.02    3.19 
  -3  -5   3   67.36    3.34 
  -3  -5   3   70.84    3.62 
  -3  -5   3   69.46    3.42 
   3   5  -3   64.72    3.67 
  -3   5   3   61.94    3.15 
   3   5  -3   71.25    3.16 
  -3   5   3   70.95    3.45 
  -3   5   3   63.97    3.35 
  -3   5   3   62.90    3.20 
  -3   5   3   69.89    3.23 
  -3   5   3   65.16    3.15 
   3   5  -3   68.64    3.35 
  -3   5   3   67.92    3.20 
  -3   5   3   71.92    3.27 
   3   5  -3   64.84    3.37 
  -2  -5   3   32.19    1.55 
  -2  -5   3   32.83    2.14 
   2  -5  -3   32.57    1.52 
  -2  -5   3   31.31    1.62 
  -2  -5   3   31.68    1.56 
   2  -5  -3   33.67    1.66 
  -2  -5   3   31.44    1.67 
   2  -5  -3   30.67    1.52 
   2   5  -3   33.55    1.74 
  -2   5   3   32.45    1.80 
  -2   5   3   30.66    1.70 
  -2   5   3   30.89    1.54 
  -2   5   3   33.33    1.83 
   2   5  -3   30.45    1.92 
  -2   5   3   30.55    1.57 
   2   5  -3   31.49    1.67 
   2   5  -3   30.75    1.53 
  -2   5   3   34.83    1.58 
  -2   5   3   32.44    1.70 
  -2   5   3   28.80    1.64 
  -2   5   3   30.77    1.58 
   1  -5  -3   51.78    2.59 
   1  -5  -3   51.43    2.55 
  -1  -5   3   56.49    2.46 
  -1  -5   3   49.58    2.45 
  -1  -5   3   53.20    2.59 
  -1  -5   3   47.79    2.51 
  -1  -5   3   51.55    2.57 
   1  -5  -3   51.09    2.42 
   1   5  -3   51.09    2.42 
  -1   5   3   47.48    2.44 
   1   5  -3   52.61    2.77 
  -1   5   3   49.25    2.44 
   1   5  -3   49.40    2.47 
   1   5  -3   51.40    2.69 
   1   5  -3   50.59    2.54 
  -1   5   3   50.50    2.73 
   1   5  -3   50.59    2.45 
  -1   5   3   53.38    2.72 
  -1   5   3   49.31    2.51 
   1   5  -3   51.53    2.58 
  -1   5   3   52.24    2.67 
   0  -5   3   74.23    3.96 
   0  -5  -3   82.11    3.82 
   0  -5   3   81.56    3.99 
   0  -5  -3   75.26    3.85 
   0  -5   3   81.69    3.82 
   0  -5  -3   82.45    3.96 
   0  -5  -3   87.67    4.01 
   0   5   3   81.25    3.94 
   0   5   3   77.32    3.85 
   0   5  -3   86.02    3.96 
   0   5  -3   82.10    4.11 
   0   5  -3   79.82    3.85 
   0   5   3   80.88    4.13 
   0   5  -3   87.45    4.19 
   0   5  -3   79.40    3.92 
   0   5   3   83.98    3.98 
   0   5   3   85.39    4.14 
   0   5  -3   78.60    3.84 
   0   5   3   77.94    4.26 
   1  -5   3   37.02    2.38 
   1  -5   3   43.87    2.06 
   1  -5   3   40.96    2.20 
  -1  -5  -3   45.11    2.22 
  -1  -5  -3   43.28    2.10 
  -1  -5  -3   44.32    2.10 
   1  -5   3   41.66    2.24 
  -1  -5  -3   44.06    2.16 
  -1  -5  -3   44.89    2.45 
  -1  -5  -3   39.11    2.10 
  -1  -5  -3   45.70    2.23 
  -1   5  -3   42.74    2.07 
   1   5   3   46.13    2.21 
  -1   5  -3   45.84    2.14 
   1   5   3   47.44    2.28 
  -1   5  -3   43.27    2.35 
  -1   5  -3   42.13    2.41 
   1   5   3   43.47    2.06 
   1   5   3   42.25    2.12 
  -1   5  -3   44.72    2.08 
  -1   5  -3   43.24    2.09 
  -1   5  -3   43.38    2.30 
   1   5   3   39.57    2.37 
  -1   5  -3   40.71    2.17 
  -1   5  -3   44.32    2.11 
  -2  -5  -3   13.29    1.08 
  -2  -5  -3   13.26    0.72 
  -2  -5  -3   13.15    0.73 
  -2  -5  -3   12.89    0.73 
  -2  -5  -3   12.81    0.79 
  -2  -5  -3   13.12    0.77 
   2  -5   3   11.40    0.82 
   2  -5   3   12.74    0.67 
  -2  -5  -3   12.41    0.78 
  -2  -5  -3   14.43    1.27 
   2  -5   3   13.72    0.68 
   2   5   3   13.71    1.08 
  -2   5  -3   13.28    0.76 
   2   5   3   13.08    0.70 
  -2   5  -3   13.03    0.76 
   2   5   3   13.29    0.94 
  -2   5  -3   12.29    0.85 
  -2   5  -3   14.25    0.99 
  -2   5  -3   13.13    0.82 
  -2   5  -3   12.82    1.02 
  -2   5  -3   13.22    0.71 
   3  -5   3    0.47    0.13 
   3  -5   3    0.21    0.12 
  -3  -5  -3    0.43    0.24 
  -3  -5  -3    0.65    0.37 
  -3  -5  -3    0.49    0.23 
  -3  -5  -3    0.73    0.20 
  -3  -5  -3    0.33    0.26 
  -3  -5  -3    0.60    0.19 
  -3  -5  -3    0.43    0.24 
  -3  -5  -3    0.64    0.50 
  -3  -5  -3    0.67    0.23 
   3   5   3    0.69    0.17 
  -3   5  -3    0.82    0.23 
  -3   5  -3    0.36    0.13 
  -3   5  -3    0.18    0.29 
  -3   5  -3    0.47    0.12 
   3   5   3    0.30    0.38 
   3   5   3    0.42    0.43 
  -3   5  -3    0.34    0.38 
  -4  -5  -3    8.37    0.55 
  -4  -5  -3    8.80    0.57 
  -4  -5  -3    7.68    0.62 
  -4  -5  -3    7.11    0.55 
  -4  -5  -3    9.10    0.53 
  -4  -5  -3    8.44    0.61 
  -4  -5  -3    8.47    0.56 
  -4  -5  -3    8.06    0.57 
  -4  -5  -3    8.08    0.52 
  -4  -5  -3    7.59    0.53 
  -4  -5  -3    7.62    0.56 
  -4  -5  -3    7.14    0.71 
  -4  -5  -3    8.41    0.56 
  -4  -5  -3    7.23    0.58 
  -4  -5  -3    8.08    0.55 
  -4  -5  -3    8.41    0.52 
  -4  -5  -3    7.47    0.61 
  -4   5  -3    7.91    0.43 
  -4   5  -3    8.84    0.59 
  -4   5  -3    7.49    0.47 
  -4   5  -3    6.74    0.47 
  -4   5  -3    8.50    0.50 
  -4   5  -3    7.97    0.80 
  -4   5  -3    8.29    0.46 
  -4   5  -3    6.83    0.53 
  -4   5  -3    7.69    0.45 
   4   5   3    7.78    0.49 
  -5  -5  -3   17.55    0.97 
  -5  -5  -3   17.79    1.02 
  -5  -5  -3   16.68    0.98 
  -5  -5  -3   16.57    1.13 
  -5  -5  -3   19.08    0.92 
  -5  -5  -3   17.78    0.92 
  -5  -5  -3   15.93    0.92 
  -5  -5  -3   18.89    0.90 
  -5  -5  -3   19.18    0.95 
  -5  -5  -3   17.80    0.92 
  -5  -5  -3   16.38    0.97 
  -5  -5  -3   18.90    0.94 
  -5   5  -3   18.72    0.85 
  -5   5  -3   17.16    0.86 
  -5   5  -3   16.13    0.87 
  -5   5  -3   17.79    0.87 
  -5   5  -3   17.99    1.11 
  -5   5  -3   18.39    0.86 
  -6  -5  -3    1.47    0.17 
  -6  -5  -3    1.05    0.12 
  -6  -5  -3    1.32    0.24 
  -6  -5  -3    1.38    0.22 
  -6  -5  -3    1.06    0.13 
  -6  -5  -3    1.39    0.15 
  -6  -5  -3    1.40    0.11 
  -6  -5  -3    1.37    0.16 
  -6  -5  -3    1.12    0.25 
  -6   5  -3    1.24    0.08 
  -6  -6   3   13.39    0.69 
  -6  -6   3   12.46    0.67 
  -6  -6   3   13.07    0.69 
  -6  -6   3   13.25    0.70 
  -6  -6   3   13.68    0.68 
  -6  -6   3   12.63    0.70 
  -6  -6   3   13.50    0.86 
  -6   6   3   13.45    0.87 
  -6   6   3   13.01    0.62 
  -5  -6   3    3.28    0.50 
  -5  -6   3    2.61    0.52 
  -5  -6   3    2.66    0.52 
  -5  -6   3    3.22    0.34 
  -5  -6   3    2.98    0.44 
  -5  -6   3    3.49    0.35 
  -5  -6   3    3.29    0.36 
  -5  -6   3    2.68    0.56 
  -5  -6   3    2.99    0.30 
  -5  -6   3    3.42    0.32 
  -5  -6   3    2.91    0.30 
  -5  -6   3    2.85    0.28 
  -5   6   3    2.94    0.51 
  -5   6   3    2.99    0.20 
  -5   6   3    2.93    0.19 
  -5   6   3    3.49    0.21 
  -5   6   3    3.20    0.20 
  -5   6   3    3.08    0.22 
  -5   6   3    3.24    0.36 
  -5   6   3    3.09    0.19 
  -4  -6   3   45.11    2.39 
  -4  -6   3   49.20    2.36 
  -4  -6   3   48.09    2.37 
   4  -6  -3   48.04    2.29 
  -4  -6   3   46.32    2.33 
  -4  -6   3   49.40    2.40 
  -4  -6   3   50.13    2.43 
  -4  -6   3   47.51    2.28 
  -4  -6   3   49.30    2.55 
  -4  -6   3   51.93    2.57 
  -4  -6   3   47.64    2.36 
  -4  -6   3   50.81    2.54 
  -4   6   3   50.77    2.36 
  -4   6   3   46.04    2.29 
  -4   6   3   47.57    2.33 
  -4   6   3   46.11    2.55 
   4   6  -3   47.16    2.31 
  -4   6   3   45.82    2.30 
  -4   6   3   48.74    2.31 
  -3  -6   3    6.94    0.47 
  -3  -6   3    7.23    0.48 
  -3  -6   3    7.51    0.46 
  -3  -6   3    6.66    0.83 
  -3  -6   3    7.05    0.52 
  -3  -6   3    7.19    0.64 
  -3  -6   3    5.15    0.65 
  -3  -6   3    7.49    0.56 
   3  -6  -3    7.78    0.42 
  -3  -6   3    7.72    0.45 
   3  -6  -3    7.47    0.58 
   3  -6  -3    7.25    0.41 
  -3   6   3    7.40    0.66 
  -3   6   3    7.08    0.49 
  -3   6   3    7.13    0.47 
  -3   6   3    7.08    0.46 
  -3   6   3    7.47    0.45 
  -3   6   3    7.31    0.45 
  -3   6   3    6.46    0.42 
  -3   6   3    7.64    0.50 
  -3   6   3    7.46    0.61 
   3   6  -3    7.86    0.44 
  -3   6   3    7.17    0.53 
  -3   6   3    7.73    0.73 
   3   6  -3    7.21    0.67 
  -2  -6   3   11.14    0.61 
   2  -6  -3   11.64    0.59 
   2  -6  -3   12.57    0.77 
   2  -6  -3   12.56    0.60 
  -2  -6   3   11.05    0.73 
  -2  -6   3   12.02    0.77 
  -2  -6   3   11.28    0.78 
  -2  -6   3   11.32    0.64 
  -2  -6   3   11.65    0.66 
  -2  -6   3   10.83    1.01 
  -2   6   3   11.28    0.63 
  -2   6   3   11.64    0.92 
   2   6  -3   10.51    0.98 
  -2   6   3    9.06    0.76 
   2   6  -3   11.42    0.77 
  -2   6   3   11.18    0.81 
  -2   6   3   12.05    0.83 
  -2   6   3   11.17    0.65 
   2   6  -3   12.07    0.84 
  -2   6   3   11.65    0.67 
  -2   6   3   10.22    0.92 
   2   6  -3   12.30    0.61 
  -2   6   3   10.94    0.66 
  -1  -6   3   64.74    3.43 
   1  -6  -3   73.03    3.26 
   1  -6  -3   72.77    3.47 
  -1  -6   3   68.43    3.31 
  -1  -6   3   71.12    3.30 
  -1  -6   3   66.72    3.29 
  -1  -6   3   69.76    3.43 
  -1  -6   3   68.76    3.35 
   1  -6  -3   66.98    3.41 
   1   6  -3   67.23    3.34 
   1   6  -3   69.28    3.40 
   1   6  -3   67.03    3.33 
   1   6  -3   74.37    3.46 
  -1   6   3   66.74    3.35 
  -1   6   3   67.54    3.28 
  -1   6   3   66.97    3.33 
  -1   6   3   70.64    3.31 
   1   6  -3   65.30    3.62 
  -1   6   3   67.46    3.59 
  -1   6   3   68.63    3.42 
  -1   6   3   70.01    3.28 
  -1   6   3   69.67    3.64 
   1   6  -3   69.70    3.29 
   1   6  -3   68.67    3.29 
  -1   6   3   72.32    3.56 
   1   6  -3   67.59    3.57 
   0  -6   3   86.83    4.32 
   0  -6  -3   88.99    4.33 
   0  -6  -3   84.03    4.16 
   0  -6  -3   88.18    4.12 
   0  -6  -3   84.42    4.17 
   0  -6   3   91.19    4.12 
   0  -6   3   86.84    4.30 
   0  -6  -3   88.58    4.29 
   0   6  -3   89.34    4.15 
   0   6  -3   81.02    4.17 
   0   6  -3   91.33    4.47 
   0   6   3   83.23    4.16 
   0   6   3   87.19    4.19 
   0   6  -3   91.27    4.16 
   0   6  -3   92.21    4.55 
   0   6   3   90.64    4.49 
   0   6   3   90.62    4.17 
   0   6  -3   86.80    4.15 
   0   6  -3   85.78    4.20 
   0   6   3   84.00    4.47 
   0   6   3   86.10    4.29 
   0   6  -3   89.71    4.25 
   0   6   3   86.57    4.25 
   1  -6   3   39.45    1.87 
   1  -6   3   34.19    2.03 
  -1  -6  -3   39.74    1.98 
  -1  -6  -3   36.12    1.91 
  -1  -6  -3   39.78    2.05 
  -1  -6  -3   38.98    1.92 
  -1  -6  -3   40.89    1.93 
  -1  -6  -3   40.51    2.06 
   1  -6   3   41.16    2.10 
   1   6   3   42.19    2.05 
  -1   6  -3   39.27    2.14 
  -1   6  -3   39.52    1.88 
  -1   6  -3   38.03    1.89 
  -1   6  -3   38.89    1.91 
  -1   6  -3   43.28    2.32 
   1   6   3   34.01    2.22 
   1   6   3   36.34    1.92 
  -1   6  -3   39.47    1.97 
  -1   6  -3   37.13    1.93 
   1   6   3   39.00    1.87 
  -1   6  -3   38.80    2.20 
   1   6   3   39.87    2.10 
  -1   6  -3   38.50    1.95 
  -2  -6  -3   34.18    1.73 
  -2  -6  -3   33.62    1.68 
  -2  -6  -3   32.94    1.69 
   2  -6   3   30.53    1.59 
  -2  -6  -3   32.07    1.79 
  -2  -6  -3   34.45    1.65 
   2  -6   3   33.86    1.59 
  -2  -6  -3   31.83    2.07 
   2  -6   3   30.60    1.77 
  -2  -6  -3   34.41    1.65 
   2   6   3   33.38    1.88 
  -2   6  -3   31.60    1.63 
   2   6   3   34.12    1.81 
  -2   6  -3   32.66    1.60 
  -2   6  -3   34.61    1.64 
   2   6   3   35.14    1.61 
  -2   6  -3   31.30    1.66 
  -2   6  -3   31.58    1.78 
  -2   6  -3   31.03    1.92 
  -2   6  -3   29.58    1.97 
  -2   6  -3   32.34    1.79 
  -2   6  -3   35.43    1.68 
  -2   6  -3   33.84    1.67 
  -3  -6  -3    0.81    0.30 
  -3  -6  -3    0.59    0.27 
  -3  -6  -3    0.60    0.27 
  -3  -6  -3    0.61    0.37 
   3  -6   3    0.52    0.13 
  -3  -6  -3    1.50    0.34 
  -3  -6  -3    0.72    0.22 
  -3  -6  -3    0.63    0.20 
  -3  -6  -3    0.38    0.24 
  -3  -6  -3    0.42    0.24 
  -3  -6  -3    0.46    0.20 
   3  -6   3    0.36    0.13 
  -3   6  -3    0.60    0.15 
  -3   6  -3    0.50    0.14 
  -3   6  -3    0.26    0.34 
   3   6   3    0.52    0.17 
  -3   6  -3    0.36    0.15 
  -3   6  -3    0.49    0.18 
  -3   6  -3    0.55    0.39 
  -4  -6  -3    9.25    0.48 
  -4  -6  -3   10.66    0.61 
  -4  -6  -3    9.70    0.81 
  -4  -6  -3    7.38    0.82 
  -4  -6  -3   10.20    0.64 
  -4  -6  -3    9.71    0.62 
  -4  -6  -3   10.11    0.61 
  -4  -6  -3    9.91    0.71 
  -4  -6  -3    9.23    0.63 
  -4  -6  -3    9.52    0.70 
  -4  -6  -3    9.51    0.68 
  -4  -6  -3   10.45    0.69 
  -4  -6  -3    9.81    0.62 
  -4  -6  -3    9.31    0.63 
  -4  -6  -3    9.54    0.64 
  -4  -6  -3    9.91    0.63 
  -4  -6  -3    9.41    0.60 
  -4  -6  -3    9.33    0.62 
  -4   6  -3    9.05    0.56 
   4   6   3    9.29    0.62 
  -4   6  -3    9.33    0.55 
  -4   6  -3    9.73    0.50 
  -4   6  -3    9.25    0.83 
  -4   6  -3    9.10    0.54 
  -4   6  -3    9.97    0.54 
  -4   6  -3    9.39    0.53 
  -5  -6  -3    0.18    0.15 
  -5  -6  -3    0.02    0.15 
  -5  -6  -3   -0.03    0.19 
  -5  -6  -3    0.17    0.14 
  -5  -6  -3    0.50    0.25 
  -5  -6  -3   -0.01    0.17 
  -5  -6  -3   -0.16    0.22 
  -5  -6  -3   -0.01    0.13 
  -5  -6  -3    0.48    0.22 
  -5  -6  -3    0.21    0.17 
  -5  -6  -3    0.29    0.18 
  -5   6  -3    0.14    0.06 
  -5   6  -3    0.25    0.07 
  -5   6  -3    0.18    0.06 
  -5   6  -3    0.11    0.08 
  -5   6  -3    0.13    0.10 
   5   6   3    0.43    0.20 
  -5   6  -3   -0.13    0.26 
  -5   6  -3    0.16    0.07 
  -6  -7   3    3.32    0.43 
  -6  -7   3    2.84    0.23 
  -6  -7   3    3.17    0.24 
  -6  -7   3    2.99    0.24 
  -6  -7   3    2.86    0.26 
  -6  -7   3    2.84    0.27 
  -6   7   3    2.85    0.16 
   6   7  -3    2.85    0.26 
  -6   7   3    2.88    0.46 
  -5  -7   3    3.05    0.29 
  -5  -7   3    3.21    0.35 
  -5  -7   3    3.10    0.47 
  -5  -7   3    3.51    0.36 
  -5  -7   3    2.44    0.31 
  -5  -7   3    3.20    0.35 
  -5  -7   3    2.57    0.48 
  -5  -7   3    2.65    0.55 
  -5  -7   3    3.34    0.31 
  -5  -7   3    2.78    0.34 
  -5  -7   3    3.39    0.52 
  -5  -7   3    3.18    0.30 
  -5  -7   3    3.46    0.59 
  -5  -7   3    3.24    0.32 
  -5  -7   3    3.10    0.37 
  -5   7   3    3.36    0.19 
   5   7  -3    3.32    0.33 
  -5   7   3    3.24    0.20 
  -5   7   3    3.16    0.34 
  -5   7   3    3.44    0.21 
  -5   7   3    3.61    0.51 
  -5   7   3    3.02    0.23 
  -5   7   3    3.26    0.22 
  -4  -7   3    4.72    0.63 
  -4  -7   3    6.57    0.45 
  -4  -7   3    6.26    0.56 
  -4  -7   3    6.31    0.47 
  -4  -7   3    6.56    0.68 
  -4  -7   3    5.99    0.47 
  -4  -7   3    4.58    0.63 
  -4  -7   3    6.62    0.51 
   4  -7  -3    6.49    0.37 
  -4  -7   3    6.50    0.46 
  -4  -7   3    6.22    0.38 
  -4  -7   3    7.35    0.69 
  -4   7   3    4.53    0.51 
  -4   7   3    6.32    0.42 
  -4   7   3    5.93    0.44 
  -4   7   3    6.35    0.68 
  -4   7   3    5.47    0.72 
  -4   7   3    6.13    0.41 
  -4   7   3    6.18    0.40 
  -4   7   3    6.27    0.38 
  -4   7   3    5.02    0.40 
  -4   7   3    6.15    0.45 
   4   7  -3    6.43    0.41 
  -3  -7   3   27.53    1.46 
   3  -7  -3   26.22    1.29 
  -3  -7   3   27.13    1.52 
  -3  -7   3   27.25    1.39 
  -3  -7   3   26.92    1.86 
  -3  -7   3   22.85    1.32 
  -3  -7   3   27.38    1.32 
   3  -7  -3   25.14    1.29 
  -3  -7   3   26.77    1.34 
  -3   7   3   30.14    1.51 
  -3   7   3   23.29    1.63 
  -3   7   3   26.81    1.30 
  -3   7   3   24.00    1.31 
  -3   7   3   25.66    1.32 
  -3   7   3   26.94    1.32 
  -3   7   3   25.44    1.32 
  -3   7   3   27.43    1.43 
  -3   7   3   26.97    1.57 
   3   7  -3   26.22    1.31 
  -2  -7   3   16.97    0.86 
  -2  -7   3   16.01    1.03 
  -2  -7   3   16.81    0.88 
   2  -7  -3   17.61    0.83 
   2  -7  -3   15.57    1.01 
  -2  -7   3   16.49    0.96 
  -2  -7   3   14.24    1.00 
  -2  -7   3   18.12    0.89 
  -2   7   3   15.73    1.18 
  -2   7   3   17.83    1.10 
  -2   7   3   15.70    0.89 
  -2   7   3   13.21    1.00 
  -2   7   3   15.33    0.88 
  -2   7   3   14.81    0.88 
  -2   7   3   13.67    1.17 
  -2   7   3   17.01    1.06 
  -2   7   3   17.05    0.86 
   2   7  -3   16.61    0.83 
  -2   7   3   15.84    0.90 
   2   7  -3   14.69    1.06 
  -2   7   3   15.91    0.84 
   2   7  -3   16.85    1.02 
  -1  -7   3    4.66    0.38 
   1  -7  -3    5.02    0.57 
  -1  -7   3    4.09    0.52 
  -1  -7   3    4.70    0.57 
  -1  -7   3    4.67    0.39 
  -1  -7   3    5.19    0.43 
  -1  -7   3    4.86    0.46 
   1  -7  -3    4.81    0.32 
  -1   7   3    4.72    0.69 
   1   7  -3    5.16    0.39 
  -1   7   3    5.14    0.43 
   1   7  -3    4.89    0.54 
  -1   7   3    4.84    0.51 
  -1   7   3    5.40    0.69 
   1   7  -3    5.07    0.42 
   1   7  -3    4.84    0.46 
   1   7  -3    4.86    0.52 
  -1   7   3    4.71    0.46 
   1   7  -3    4.36    0.45 
  -1   7   3    4.46    0.37 
   1   7  -3    4.86    0.37 
  -1   7   3    5.55    0.40 
   1   7  -3    5.00    0.61 
   0  -7  -3   28.14    1.39 
   0  -7  -3   29.65    1.45 
   0  -7   3   29.81    1.39 
   0  -7   3   28.04    1.62 
   0  -7  -3   29.14    1.60 
   0  -7  -3   26.63    1.61 
   0  -7   3   29.01    1.60 
   0   7  -3   29.08    1.42 
   0   7  -3   25.65    1.38 
   0   7   3   27.42    1.77 
   0   7   3   26.55    1.43 
   0   7  -3   30.60    1.54 
   0   7   3   28.25    1.56 
   0   7  -3   29.69    1.50 
   0   7  -3   30.49    1.79 
   0   7   3   26.20    1.77 
   0   7   3   27.45    1.47 
   0   7  -3   29.96    1.43 
   0   7  -3   25.15    1.44 
   0   7  -3   29.17    1.86 
   0   7   3   28.98    1.44 
  -1  -7  -3    0.83    0.26 
   1  -7   3    0.72    0.14 
  -1  -7  -3    0.92    0.32 
   1  -7   3    1.03    0.39 
  -1  -7  -3    0.53    0.18 
  -1  -7  -3    1.42    0.32 
  -1  -7  -3    1.22    0.28 
  -1  -7  -3    1.40    0.27 
  -1   7  -3    0.82    0.25 
  -1   7  -3    1.04    0.23 
  -1   7  -3    0.85    0.20 
   1   7   3    0.78    0.23 
  -1   7  -3    1.19    0.42 
  -1   7  -3    0.80    0.24 
  -1   7  -3    0.30    0.39 
  -1   7  -3    0.72    0.39 
   1   7   3    1.12    0.41 
  -1   7  -3    1.28    0.28 
   1   7   3    0.78    0.39 
   1   7   3    1.43    0.38 
  -1   7  -3    0.87    0.22 
  -1   7  -3    0.99    0.23 
  -2  -7  -3    1.46    0.34 
  -2  -7  -3    0.52    0.42 
  -2  -7  -3    1.05    0.30 
   2  -7   3    1.00    0.20 
  -2  -7  -3    1.27    0.32 
  -2  -7  -3    1.28    0.29 
  -2  -7  -3    1.13    0.31 
   2   7   3    0.94    0.42 
   2   7   3    0.86    0.19 
  -2   7  -3    1.26    0.48 
  -2   7  -3    1.08    0.26 
  -2   7  -3    1.00    0.32 
  -2   7  -3    1.29    0.27 
  -2   7  -3    1.06    0.50 
  -2   7  -3    1.14    0.32 
  -2   7  -3    1.11    0.19 
  -2   7  -3    0.95    0.39 
  -3  -7  -3    1.11    0.24 
  -3  -7  -3    0.65    0.25 
  -3  -7  -3    0.92    0.30 
  -3  -7  -3    0.75    0.29 
   3  -7   3    0.82    0.19 
  -3  -7  -3    0.36    0.34 
  -3  -7  -3    1.25    0.29 
  -3  -7  -3    1.40    0.38 
   3  -7   3    0.96    0.20 
  -3  -7  -3    1.27    0.30 
  -3   7  -3    1.10    0.26 
  -3   7  -3    1.30    0.22 
   3   7   3    1.07    0.25 
  -3   7  -3    1.22    0.41 
  -3   7  -3    1.09    0.24 
  -4  -7  -3   34.44    1.72 
  -4  -7  -3   35.37    1.74 
  -4  -7  -3   33.02    1.72 
  -4  -7  -3   36.41    1.71 
  -4  -7  -3   33.03    1.69 
  -4  -7  -3   33.65    1.73 
  -4  -7  -3   31.70    1.76 
  -4  -7  -3   33.79    1.72 
  -4  -7  -3   35.05    1.75 
  -4  -7  -3   33.57    1.72 
  -4  -7  -3   30.17    1.75 
  -4  -7  -3   36.31    1.71 
  -4  -7  -3   35.04    1.70 
  -4  -7  -3   33.15    1.60 
  -4  -7  -3   34.52    1.80 
  -4  -7  -3   34.25    1.74 
   4   7   3   33.13    1.69 
  -4   7  -3   34.85    1.66 
   4   7   3   36.74    1.75 
  -4   7  -3   33.19    1.66 
  -4   7  -3   33.95    1.73 
  -4   7  -3   31.12    1.66 
  -4   7  -3   32.78    1.64 
  -4   7  -3   35.36    1.87 
  -4   7  -3   34.71    1.64 
  -4   7  -3   34.72    1.63 
  -5  -7  -3    1.19    0.32 
  -5  -7  -3    0.94    0.21 
  -5  -7  -3    0.25    0.13 
  -5  -7  -3    0.85    0.18 
  -5  -7  -3    1.03    0.24 
  -5  -7  -3    1.03    0.22 
  -5  -7  -3    1.10    0.21 
  -5  -7  -3    0.95    0.26 
  -5  -7  -3    0.62    0.20 
  -5  -7  -3    0.33    0.20 
  -5   7  -3    1.07    0.12 
   5   7   3    0.71    0.18 
  -5   7  -3    1.12    0.09 
  -5   7  -3    0.96    0.10 
  -5   7  -3    0.79    0.08 
  -5   7  -3    0.96    0.13 
  -5   7  -3    0.95    0.11 
  -5   7  -3    0.47    0.25 
  -6  -8   3    0.36    0.13 
  -6  -8   3    0.36    0.13 
  -6  -8   3    0.57    0.24 
  -6  -8   3    0.38    0.11 
  -6  -8   3    0.31    0.09 
  -6  -8   3    0.70    0.14 
   6   8  -3    0.40    0.11 
  -6   8   3    0.45    0.05 
  -5  -8   3    7.25    0.45 
  -5  -8   3    7.70    0.48 
  -5  -8   3    7.23    0.49 
  -5  -8   3    6.97    0.46 
  -5  -8   3    7.35    0.51 
  -5  -8   3    7.66    0.62 
  -5  -8   3    7.91    0.49 
  -5  -8   3    6.72    0.88 
  -5  -8   3    7.24    0.48 
  -5  -8   3    7.11    0.50 
  -5   8   3    7.57    0.39 
  -5   8   3    7.05    0.38 
  -5   8   3    7.63    0.38 
   5   8  -3    7.57    0.48 
  -5   8   3    7.14    0.38 
  -5   8   3    7.45    0.63 
  -5   8   3    7.04    0.49 
   5   8  -3    7.21    0.54 
  -4  -8   3   16.79    0.93 
  -4  -8   3   15.51    0.87 
  -4  -8   3   15.29    0.94 
  -4  -8   3   15.01    0.89 
  -4  -8   3   17.30    0.88 
  -4  -8   3   17.12    1.11 
  -4  -8   3   17.36    1.15 
  -4  -8   3   15.07    0.81 
  -4  -8   3   14.38    0.98 
  -4  -8   3   15.96    0.82 
  -4  -8   3   16.93    0.81 
  -4  -8   3   15.84    0.90 
  -4  -8   3   16.35    0.83 
  -4  -8   3   15.87    0.88 
  -4  -8   3   14.58    0.93 
  -4  -8   3   18.00    0.84 
  -4  -8   3   14.94    0.99 
  -4  -8   3   17.06    0.91 
  -4  -8   3   15.98    0.94 
  -4   8   3   15.77    0.94 
  -4   8   3   15.71    1.12 
  -4   8   3   14.62    1.04 
  -4   8   3   15.22    0.80 
   4   8  -3   17.32    0.87 
  -4   8   3   16.93    0.83 
  -4   8   3   15.51    0.81 
  -4   8   3   14.86    0.83 
  -4   8   3   14.91    0.82 
  -4   8   3   16.66    0.87 
  -4   8   3   15.78    0.84 
   4   8  -3   15.31    0.94 
  -4   8   3   15.84    0.84 
  -3  -8   3    7.62    0.49 
  -3  -8   3    6.86    0.54 
   3  -8  -3    7.08    0.42 
  -3  -8   3    6.16    0.71 
  -3  -8   3    7.49    0.56 
  -3  -8   3    6.84    0.47 
  -3  -8   3    7.26    0.63 
   3  -8  -3    6.94    0.43 
  -3   8   3    6.89    0.74 
  -3   8   3    6.70    0.46 
  -3   8   3    7.19    0.47 
  -3   8   3    6.88    0.48 
  -3   8   3    6.18    0.45 
  -3   8   3    6.29    0.57 
   3   8  -3    6.75    0.44 
   3   8  -3    7.60    0.70 
  -3   8   3    6.82    0.47 
  -3   8   3    7.53    0.69 
  -2  -8   3   60.19    2.75 
  -2  -8   3   55.40    2.73 
   2  -8  -3   54.85    2.69 
  -2  -8   3   56.54    2.84 
  -2  -8   3   56.46    2.91 
  -2   8   3   55.54    2.93 
  -2   8   3   56.59    3.18 
   2   8  -3   54.94    2.74 
   2   8  -3   57.87    2.91 
  -2   8   3   52.58    3.10 
  -2   8   3   57.44    2.76 
  -2   8   3   58.37    2.77 
  -2   8   3   53.33    2.92 
  -2   8   3   55.42    2.70 
  -2   8   3   55.30    2.74 
  -2   8   3   58.82    2.73 
   1  -8  -3    7.45    0.76 
  -1  -8   3    9.60    0.59 
  -1  -8   3    9.18    0.62 
  -1  -8   3    9.61    0.78 
  -1  -8   3    9.11    0.60 
  -1  -8   3    9.38    0.80 
   1  -8  -3    9.78    0.54 
  -1   8   3    9.10    0.61 
   1   8  -3    8.98    0.58 
   1   8  -3    9.48    0.61 
  -1   8   3    9.30    0.74 
   1   8  -3    9.30    0.62 
  -1   8   3    9.02    0.93 
  -1   8   3   10.06    0.58 
  -1   8   3    8.51    0.96 
  -1   8   3    8.88    0.55 
   1   8  -3    9.55    0.72 
  -1   8   3    9.94    0.67 
   1   8  -3    9.01    0.64 
   1   8  -3   10.84    0.82 
  -1   8   3    8.82    0.67 
   0  -8  -3    4.24    0.42 
   0  -8   3    4.24    0.57 
   0  -8   3    4.18    0.33 
   0  -8  -3    5.18    0.47 
   0  -8  -3    4.59    0.42 
   0  -8   3    4.92    0.58 
   0  -8  -3    5.08    0.55 
   0  -8  -3    4.53    0.59 
   0   8  -3    4.80    0.39 
   0   8   3    4.52    0.56 
   0   8  -3    3.73    0.40 
   0   8  -3    5.05    0.38 
   0   8   3    4.60    0.38 
   0   8   3    4.92    0.52 
   0   8  -3    4.55    0.45 
   0   8  -3    4.46    0.67 
   0   8  -3    4.94    0.49 
   0   8   3    5.11    0.43 
   0   8   3    5.09    0.74 
   1  -8   3    7.58    0.48 
  -1  -8  -3    8.03    0.70 
  -1  -8  -3    8.20    0.58 
  -1  -8  -3    9.13    0.57 
  -1  -8  -3    8.71    0.67 
  -1  -8  -3    8.78    0.59 
  -1  -8  -3    7.69    0.56 
  -1   8  -3    7.65    0.62 
  -1   8  -3    7.74    0.48 
   1   8   3    8.82    0.78 
   1   8   3    8.81    0.64 
  -1   8  -3    8.96    0.63 
  -1   8  -3    8.64    0.52 
   1   8   3    8.35    0.58 
  -1   8  -3    7.88    0.86 
  -1   8  -3    7.61    0.54 
  -1   8  -3    8.12    0.55 
  -1   8  -3    8.01    0.51 
   2  -8   3    1.25    0.22 
  -2  -8  -3    1.25    0.34 
  -2  -8  -3    1.68    0.46 
  -2  -8  -3    1.35    0.30 
  -2  -8  -3    1.03    0.27 
  -2  -8  -3    1.59    0.41 
  -2   8  -3    1.38    0.51 
   2   8   3    1.38    0.24 
  -2   8  -3    1.37    0.30 
  -2   8  -3    1.44    0.36 
  -2   8  -3    1.64    0.30 
   2   8   3    1.51    0.55 
  -2   8  -3    1.21    0.25 
  -2   8  -3    1.99    0.54 
  -2   8  -3    1.14    0.27 
  -2   8  -3    1.57    0.35 
  -2   8  -3    1.25    0.20 
  -3  -8  -3    9.32    0.68 
  -3  -8  -3    9.33    0.67 
  -3  -8  -3   10.15    0.69 
  -3  -8  -3    9.51    0.67 
  -3  -8  -3   10.14    0.76 
  -3  -8  -3    8.12    0.64 
  -3  -8  -3    9.15    0.70 
  -3  -8  -3    9.09    0.63 
  -3  -8  -3    9.46    0.68 
   3  -8   3   12.20    0.67 
  -3  -8  -3    8.60    0.55 
  -3  -8  -3    9.71    0.74 
  -3  -8  -3    9.01    0.56 
  -3  -8  -3    9.49    0.73 
  -3  -8  -3    9.10    0.72 
  -3  -8  -3    9.38    0.56 
  -3  -8  -3    8.81    0.49 
  -3  -8  -3    8.65    0.60 
  -3  -8  -3    9.21    0.62 
  -3   8  -3    9.07    0.56 
  -3   8  -3    9.16    0.83 
  -3   8  -3    9.23    0.56 
  -3   8  -3    8.93    0.77 
  -3   8  -3   10.11    0.55 
   3   8   3    9.45    0.60 
  -3   8  -3    9.76    0.54 
  -3   8  -3    9.04    0.56 
  -3   8  -3   10.15    0.60 
   3   8   3    8.55    0.69 
  -4  -8  -3    2.28    0.37 
  -4  -8  -3    1.71    0.34 
  -4  -8  -3    2.09    0.38 
  -4  -8  -3    1.97    0.31 
  -4  -8  -3    1.84    0.39 
  -4  -8  -3    1.61    0.38 
  -4  -8  -3    2.32    0.50 
  -4  -8  -3    1.65    0.32 
  -4  -8  -3    1.84    0.30 
  -4  -8  -3    1.89    0.32 
  -4  -8  -3    1.74    0.32 
  -4   8  -3    1.65    0.24 
  -4   8  -3    2.07    0.17 
   4   8   3    1.51    0.30 
  -4   8  -3    1.72    0.21 
  -4   8  -3    2.07    0.23 
  -4   8  -3    1.65    0.54 
  -4   8  -3    1.58    0.21 
   4   8   3    1.38    0.40 
  -5  -8  -3    0.05    0.13 
  -5  -8  -3    0.24    0.11 
  -5  -8  -3    0.09    0.14 
  -5  -8  -3    0.33    0.12 
  -5  -8  -3    0.20    0.13 
  -5  -8  -3    0.07    0.14 
  -5  -8  -3    0.12    0.10 
  -5  -8  -3    0.15    0.17 
  -5  -8  -3    0.13    0.11 
  -5   8  -3    0.17    0.05 
   5   8   3    0.30    0.13 
   5   8   3    0.26    0.17 
  -5   8  -3    0.14    0.07 
  -5   8  -3    0.12    0.07 
  -5   8  -3    0.10    0.21 
  -5  -9   3    3.49    0.44 
  -5  -9   3    3.81    0.32 
  -5  -9   3    3.48    0.30 
  -5  -9   3    5.76    0.44 
  -5  -9   3    4.59    0.35 
  -5  -9   3    3.97    0.35 
  -5  -9   3    4.40    0.36 
  -5  -9   3    4.03    0.33 
   5   9  -3    3.45    0.37 
  -5   9   3    4.19    0.22 
  -5   9   3    3.95    0.49 
  -5   9   3    4.13    0.23 
  -5   9   3    3.90    0.23 
  -5   9   3    4.28    0.23 
  -5   9   3    3.25    0.27 
   5   9  -3    4.33    0.32 
  -4  -9   3    4.68    0.51 
  -4  -9   3    4.93    0.64 
  -4  -9   3    4.76    0.33 
  -4  -9   3    4.96    0.37 
  -4  -9   3    4.34    0.42 
  -4  -9   3    5.30    0.42 
  -4  -9   3    4.74    0.31 
  -4  -9   3    5.65    0.46 
  -4  -9   3    4.85    0.49 
  -4  -9   3    5.30    0.33 
  -4  -9   3    4.82    0.39 
  -4  -9   3    4.67    0.35 
  -4  -9   3    5.13    0.44 
  -4  -9   3    5.85    0.51 
  -4   9   3    3.43    0.58 
  -4   9   3    3.56    0.46 
  -4   9   3    4.95    0.36 
  -4   9   3    5.47    0.31 
  -4   9   3    4.70    0.56 
  -4   9   3    5.28    0.34 
   4   9  -3    5.10    0.47 
  -4   9   3    4.35    0.35 
  -4   9   3    4.74    0.49 
  -4   9   3    4.82    0.35 
  -4   9   3    4.96    0.33 
   4   9  -3    4.88    0.39 
  -3  -9   3    9.01    0.60 
  -3  -9   3    8.42    0.58 
  -3  -9   3   10.20    0.62 
  -3  -9   3    9.61    0.63 
   3  -9  -3    8.48    0.54 
  -3  -9   3    9.81    0.64 
  -3  -9   3    8.41    0.60 
  -3  -9   3    8.64    0.78 
  -3  -9   3    9.58    0.75 
  -3  -9   3    9.37    0.59 
  -3  -9   3   10.28    0.67 
  -3  -9   3   10.16    0.62 
  -3  -9   3   10.57    0.62 
  -3  -9   3    9.51    0.55 
   3   9  -3   10.04    0.68 
  -3   9   3    9.17    0.66 
  -3   9   3   10.21    0.60 
  -3   9   3    9.55    0.55 
  -3   9   3    9.88    0.58 
  -3   9   3    9.83    0.57 
  -3   9   3    9.54    0.60 
   3   9  -3    8.53    0.55 
  -3   9   3    8.61    0.75 
  -3   9   3   10.64    0.85 
  -3   9   3    8.78    0.56 
   3   9  -3   11.38    0.69 
   3   9  -3   10.35    0.83 
   3   9  -3    9.28    0.59 
  -3   9   3    9.49    0.58 
  -3   9   3   10.44    0.59 
  -3   9   3    9.53    0.58 
  -3   9   3   10.42    0.60 
   3   9  -3    9.18    0.66 
  -2  -9   3    0.62    0.29 
  -2  -9   3    0.82    0.36 
   2  -9  -3    0.67    0.18 
  -2  -9   3    0.91    0.24 
  -2  -9   3    1.21    0.32 
  -2   9   3    0.57    0.25 
  -2   9   3    0.81    0.23 
  -2   9   3    0.78    0.35 
   2   9  -3    0.57    0.23 
  -2   9   3    0.97    0.20 
  -2   9   3    0.55    0.21 
   2   9  -3    0.37    0.23 
  -2   9   3    1.16    0.35 
  -2   9   3    0.84    0.44 
  -2   9   3    0.56    0.18 
   2   9  -3    0.77    0.36 
  -2   9   3    1.15    0.82 
  -2   9   3    0.84    0.24 
  -1  -9   3   44.75    2.26 
   1  -9  -3   44.29    2.20 
  -1  -9   3   46.81    2.46 
  -1  -9   3   41.82    2.25 
  -1  -9   3   49.64    2.27 
  -1   9   3   43.73    2.27 
   1   9  -3   46.56    2.32 
  -1   9   3   43.44    2.67 
   1   9  -3   46.79    2.25 
  -1   9   3   46.37    2.22 
   1   9  -3   47.23    2.25 
   1   9  -3   46.13    2.26 
  -1   9   3   44.98    2.30 
  -1   9   3   46.47    2.32 
  -1   9   3   41.78    2.42 
   1   9  -3   46.63    2.40 
  -1   9   3   48.01    2.22 
   1   9  -3   42.44    2.16 
   0  -9  -3   13.58    0.84 
   0  -9   3   14.35    1.02 
   0  -9  -3   13.82    0.97 
   0  -9  -3   13.33    1.02 
   0  -9   3   12.60    0.70 
   0   9  -3   13.57    0.75 
   0   9  -3   13.68    0.76 
   0   9  -3   10.74    1.08 
   0   9   3   14.29    0.77 
   0   9   3   11.15    1.12 
   0   9  -3   12.41    0.68 
   0   9  -3   10.31    0.95 
   0   9   3   12.40    0.91 
   0   9  -3   14.48    0.86 
   0   9   3   12.95    0.83 
   0   9  -3   12.55    0.78 
  -1  -9  -3    3.41    0.55 
   1  -9   3    2.85    0.28 
  -1  -9  -3    3.44    0.40 
  -1  -9  -3    3.16    0.41 
  -1  -9  -3    3.54    0.36 
  -1  -9  -3    3.55    0.41 
   1   9   3    3.05    0.56 
  -1   9  -3    2.75    0.32 
   1   9   3    3.78    0.44 
  -1   9  -3    3.10    0.40 
  -1   9  -3    3.50    0.47 
  -1   9  -3    3.02    0.36 
   1   9   3    2.67    0.45 
  -1   9  -3    2.53    0.28 
  -1   9  -3    4.10    0.87 
  -1   9  -3    2.85    0.32 
  -2  -9  -3    6.50    0.54 
  -2  -9  -3    7.09    0.69 
  -2  -9  -3    7.85    0.62 
  -2  -9  -3    7.18    0.57 
  -2  -9  -3    6.51    0.43 
  -2  -9  -3    6.65    0.63 
  -2  -9  -3    6.91    0.58 
   2  -9   3    5.24    0.43 
  -2  -9  -3    6.91    0.56 
  -2  -9  -3    6.93    0.58 
   2  -9   3    7.54    0.48 
  -2  -9  -3    6.90    0.46 
  -2  -9  -3    8.13    0.69 
  -2  -9  -3    7.56    0.51 
  -2  -9  -3    7.53    0.54 
  -2  -9  -3    7.67    0.54 
   2   9   3    7.20    0.57 
  -2   9  -3    7.02    0.39 
  -2   9  -3    7.82    0.76 
  -2   9  -3    7.81    0.51 
   2   9   3    6.82    0.75 
   2   9   3    6.85    0.60 
   2   9   3    5.64    0.50 
  -2   9  -3    6.92    0.49 
  -2   9  -3    6.55    0.43 
  -2   9  -3    6.58    0.53 
   2   9   3    6.61    0.58 
  -2   9  -3    7.11    0.49 
  -2   9  -3    7.64    0.57 
  -2   9  -3    7.41    0.50 
  -2   9  -3    6.92    0.71 
   2   9   3    7.74    0.64 
  -2   9  -3    6.86    0.51 
  -2   9  -3    6.43    0.50 
  -2   9  -3    7.48    0.47 
  -3  -9  -3    6.52    0.64 
  -3  -9  -3    8.37    0.66 
  -3  -9  -3    7.26    0.48 
  -3  -9  -3    7.69    0.58 
  -3  -9  -3    7.57    0.56 
  -3  -9  -3    7.84    0.55 
  -3  -9  -3    7.61    0.52 
  -3  -9  -3    6.96    0.59 
  -3  -9  -3    7.07    0.58 
  -3  -9  -3    7.25    0.45 
  -3  -9  -3    7.52    0.61 
  -3  -9  -3    7.21    0.60 
   3  -9   3    5.74    0.60 
  -3  -9  -3    7.40    0.50 
  -3  -9  -3    7.74    0.48 
  -3  -9  -3    7.32    0.69 
  -3  -9  -3    7.38    0.48 
  -3  -9  -3    8.10    0.45 
  -3  -9  -3    8.33    0.67 
  -3  -9  -3    7.96    0.58 
  -3   9  -3    6.93    0.45 
  -3   9  -3    7.53    0.46 
  -3   9  -3    8.32    0.72 
  -3   9  -3    7.67    0.75 
  -3   9  -3    7.42    0.47 
   3   9   3    7.36    0.50 
   3   9   3    6.79    0.57 
  -3   9  -3    7.32    0.48 
   3   9   3    7.25    0.62 
  -3   9  -3    7.96    0.48 
   3   9   3    7.63    0.60 
  -3   9  -3    7.31    0.51 
  -4  -9  -3    1.59    0.32 
  -4  -9  -3    1.10    0.25 
  -4  -9  -3    1.78    0.37 
  -4  -9  -3    1.36    0.31 
  -4  -9  -3    1.19    0.27 
  -4  -9  -3    1.15    0.22 
  -4  -9  -3    1.50    0.28 
  -4  -9  -3    1.25    0.31 
  -4  -9  -3    1.05    0.19 
  -4  -9  -3    1.19    0.35 
   4   9   3    1.41    0.24 
   4   9   3    1.36    0.36 
  -4   9  -3    1.17    0.20 
  -4   9  -3    1.58    0.28 
  -4   9  -3    1.08    0.20 
  -4   9  -3    0.97    0.31 
  -4   9  -3    1.24    0.17 
  -4   9  -3    1.54    0.14 
  -5 -10   3    0.47    0.14 
  -5 -10   3    0.58    0.14 
  -5 -10   3    0.58    0.13 
  -5 -10   3    0.60    0.16 
  -5 -10   3    0.67    0.23 
  -5 -10   3    0.55    0.14 
   5  10  -3    0.54    0.12 
  -5  10   3    0.60    0.06 
  -5  10   3    0.55    0.07 
  -5  10   3    0.59    0.07 
  -5  10   3    0.56    0.09 
  -5  10   3    0.42    0.21 
   5  10  -3    0.45    0.15 
  -5  10   3    0.53    0.08 
  -4 -10   3   10.72    0.50 
  -4 -10   3    9.99    0.64 
  -4 -10   3   10.03    0.58 
  -4 -10   3    9.02    0.50 
  -4 -10   3    9.94    0.54 
  -4 -10   3    9.31    0.51 
  -4 -10   3    8.91    0.53 
  -4 -10   3    9.80    0.53 
  -4 -10   3   10.43    0.63 
  -4 -10   3    9.83    0.67 
  -4 -10   3    9.67    0.62 
   4  10  -3    9.74    0.56 
  -4  10   3    9.85    0.55 
  -4  10   3    8.85    0.53 
   4  10  -3   10.77    0.65 
  -4  10   3   10.75    0.66 
   4  10  -3    9.61    0.64 
  -4  10   3   10.09    0.52 
   4  10  -3    9.43    0.62 
  -4  10   3    9.91    0.70 
  -3 -10   3   12.37    0.74 
  -3 -10   3   12.78    0.64 
   3 -10  -3   12.04    0.69 
  -3 -10   3   13.19    0.71 
  -3 -10   3   12.29    0.76 
  -3 -10   3   11.98    0.70 
  -3 -10   3   10.87    0.73 
  -3 -10   3   12.29    0.70 
  -3 -10   3   12.70    0.72 
  -3 -10   3   12.34    0.69 
  -3 -10   3   11.82    0.86 
  -3 -10   3   12.47    1.10 
  -3  10   3   10.89    0.67 
   3  10  -3   11.87    0.75 
  -3  10   3   12.64    0.67 
  -3  10   3   13.06    0.67 
  -3  10   3   11.17    0.70 
  -3  10   3   11.74    0.66 
  -3  10   3   12.39    0.86 
   3  10  -3   12.88    0.75 
   3  10  -3   11.98    0.77 
  -3  10   3   11.91    0.69 
  -3  10   3   11.90    0.70 
  -3  10   3   12.05    0.70 
   3  10  -3   11.09    0.66 
  -3  10   3   11.03    0.92 
  -3  10   3   11.96    0.76 
   3  10  -3   12.83    0.82 
  -3  10   3   12.90    0.73 
  -2 -10   3    1.35    0.39 
  -2 -10   3    1.22    0.26 
  -2 -10   3    1.63    0.35 
  -2 -10   3    1.16    0.30 
   2 -10  -3    1.36    0.38 
  -2 -10   3    1.46    0.32 
  -2 -10   3    1.79    0.19 
   2 -10  -3    1.83    0.25 
  -2 -10   3    1.28    0.29 
  -2 -10   3    1.34    0.46 
  -2 -10   3    1.07    0.33 
  -2 -10   3    1.55    0.32 
   2 -10  -3    2.20    0.33 
  -2  10   3    1.83    0.33 
   2  10  -3    1.52    0.36 
  -2  10   3    1.69    0.31 
   2  10  -3    1.55    0.35 
  -2  10   3    1.27    0.29 
   2  10  -3    1.49    0.35 
  -2  10   3    2.50    0.61 
   2  10  -3    1.33    0.38 
  -2  10   3    1.66    0.43 
  -2  10   3    1.88    0.38 
   2  10  -3    1.71    0.44 
  -2  10   3    1.94    0.53 
   2  10  -3    1.26    0.47 
  -2  10   3    1.12    0.26 
  -2  10   3    2.04    0.40 
   2  10  -3    1.49    0.38 
  -2  10   3    1.71    0.29 
  -2  10   3    1.05    0.24 
  -2  10   3    1.57    0.32 
  -2  10   3    1.62    0.23 
   2  10  -3    0.86    0.25 
  -2  10   3    1.39    0.41 
  -2  10   3    1.25    0.25 
  -2  10   3    1.58    0.37 
   1 -10  -3   15.35    0.85 
  -1 -10   3   16.73    1.14 
  -1 -10   3   16.29    0.96 
   1 -10  -3   16.39    0.87 
  -1 -10   3   17.47    0.95 
  -1 -10   3   16.33    0.93 
   1 -10  -3   17.13    1.19 
  -1 -10   3   14.92    0.91 
  -1 -10   3   16.58    0.91 
  -1 -10   3   16.34    0.91 
   1 -10  -3   16.58    0.93 
  -1 -10   3   14.80    0.89 
  -1  10   3   16.15    0.91 
   1  10  -3   14.44    0.94 
   1  10  -3   15.95    0.90 
   1  10  -3   16.06    1.06 
   1  10  -3   17.98    1.03 
  -1  10   3   15.72    0.94 
  -1  10   3   14.79    0.93 
   1  10  -3   17.16    0.93 
  -1  10   3   15.53    0.88 
  -1  10   3   16.41    1.00 
  -1  10   3   15.58    0.82 
   1  10  -3   15.72    0.90 
  -1  10   3   17.59    0.97 
  -1  10   3   17.18    0.89 
   1  10  -3   15.66    0.88 
  -1  10   3   16.87    0.89 
  -1  10   3   13.77    0.88 
  -1  10   3   15.36    0.94 
   1  10  -3   16.42    0.92 
  -1  10   3   17.73    1.00 
   0 -10  -3   11.40    0.74 
   0 -10   3   10.41    0.64 
   0 -10  -3   12.68    0.78 
   0 -10   3   11.15    0.69 
   0 -10   3   11.13    0.71 
   0 -10  -3   11.10    0.74 
   0 -10  -3   11.63    0.93 
   0 -10   3   11.42    0.95 
   0 -10   3   10.37    0.69 
   0 -10   3   10.33    0.77 
   0 -10  -3   11.12    0.71 
   0 -10  -3   10.50    0.73 
   0  10  -3   11.80    0.69 
   0  10  -3   11.93    0.70 
   0  10   3    9.64    0.74 
   0  10   3   10.50    0.68 
   0  10  -3   10.99    0.61 
   0  10   3   11.01    0.64 
   0  10   3   13.04    0.83 
   0  10  -3   12.59    0.73 
   0  10  -3   12.57    0.68 
   0  10   3   11.54    1.02 
   0  10  -3   11.60    0.78 
   0  10  -3   10.73    0.70 
   0  10  -3   11.32    0.62 
   0  10  -3   11.60    0.71 
   0  10   3   11.39    0.72 
   0  10   3   11.72    0.72 
   1 -10   3   25.60    1.37 
  -1 -10  -3   25.12    1.46 
  -1 -10  -3   25.97    1.36 
  -1 -10  -3   28.20    1.37 
  -1 -10  -3   28.07    1.40 
   1 -10   3   28.11    1.33 
   1 -10   3   28.36    1.33 
  -1 -10  -3   26.80    1.35 
  -1 -10  -3   27.62    1.38 
  -1 -10  -3   27.43    1.41 
  -1 -10  -3   26.73    1.43 
   1  10   3   26.28    1.34 
   1  10   3   26.67    1.43 
  -1  10  -3   25.14    1.36 
  -1  10  -3   25.55    1.36 
  -1  10  -3   26.52    1.31 
  -1  10  -3   26.66    1.41 
  -1  10  -3   26.30    1.26 
   1  10   3   25.09    1.37 
  -1  10  -3   26.53    1.30 
  -1  10  -3   26.16    1.38 
   1  10   3   25.29    1.39 
  -1  10  -3   26.82    1.44 
  -1  10  -3   25.27    1.43 
   1  10   3   24.47    1.36 
  -1  10  -3   26.48    1.31 
  -1  10  -3   25.52    1.32 
   1  10   3   22.28    1.53 
  -2 -10  -3    1.18    0.23 
  -2 -10  -3    1.13    0.26 
  -2 -10  -3    1.82    0.36 
  -2 -10  -3    0.29    0.35 
  -2 -10  -3    0.75    0.24 
   2 -10   3    0.78    0.23 
   2 -10   3    1.10    0.26 
  -2 -10  -3    0.98    0.33 
  -2 -10  -3    1.31    0.34 
  -2 -10  -3    1.07    0.32 
  -2 -10  -3    1.26    0.36 
  -2 -10  -3    1.27    0.18 
  -2  10  -3    0.87    0.13 
  -2  10  -3    0.53    0.16 
  -2  10  -3    1.22    0.34 
   2  10   3    1.01    0.28 
  -2  10  -3    0.97    0.28 
  -2  10  -3    1.36    0.27 
   2  10   3    0.89    0.27 
  -2  10  -3    0.88    0.35 
  -2  10  -3    1.14    0.27 
   2  10   3    1.09    0.27 
  -2  10  -3    1.50    0.30 
  -2  10  -3    1.21    0.24 
  -2  10  -3    1.25    0.30 
  -2  10  -3    1.49    0.55 
   2  10   3    1.24    0.28 
  -2  10  -3    1.03    0.29 
  -3 -10  -3    0.38    0.34 
  -3 -10  -3   -0.15    0.20 
  -3 -10  -3    0.16    0.15 
  -3 -10  -3   -0.09    0.31 
  -3 -10  -3    0.13    0.19 
  -3 -10  -3   -0.07    0.20 
  -3 -10  -3    0.34    0.11 
  -3 -10  -3    0.12    0.14 
  -3 -10  -3   -0.11    0.19 
  -3 -10  -3    0.09    0.27 
   3 -10   3    0.34    0.17 
  -3 -10  -3   -0.04    0.14 
  -3 -10  -3   -0.01    0.18 
  -3 -10  -3    0.14    0.16 
  -3  10  -3    0.15    0.13 
  -3  10  -3    0.00    0.28 
  -3  10  -3    0.22    0.14 
   3  10   3    0.01    0.23 
   3  10   3    0.24    0.22 
   3  10   3    0.51    0.24 
   3  10   3    0.16    0.23 
  -3  10  -3    0.23    0.17 
  -3  10  -3    0.21    0.12 
  -3  10  -3    0.29    0.12 
  -4 -10  -3    6.03    0.40 
  -4 -10  -3    6.47    0.33 
  -4 -10  -3    6.18    0.38 
  -4 -10  -3    6.20    0.48 
  -4 -10  -3    6.30    0.39 
   4 -10   3    5.07    0.38 
  -4 -10  -3    5.95    0.41 
  -4  10  -3    6.14    0.35 
  -4  10  -3    6.09    0.32 
   4  10   3    5.67    0.42 
  -4  10  -3    6.19    0.34 
   4  10   3    5.77    0.43 
  -4  10  -3    5.86    0.55 
   4  10   3    6.51    0.44 
   4  10   3    5.69    0.36 
  -4 -11   3   -0.15    0.11 
  -4 -11   3   -0.21    0.12 
  -4 -11   3    0.28    0.22 
  -4 -11   3    0.06    0.15 
  -4 -11   3   -0.04    0.08 
  -4 -11   3   -0.08    0.16 
  -4 -11   3    0.09    0.06 
   4 -11  -3    0.01    0.13 
  -4  11   3    0.02    0.12 
  -4  11   3    0.04    0.21 
   4  11  -3    0.02    0.15 
  -4  11   3    0.10    0.09 
   4  11  -3   -0.08    0.16 
  -4  11   3    0.17    0.11 
  -4  11   3    0.15    0.19 
   4  11  -3    0.01    0.13 
  -4  11   3    0.08    0.09 
  -3 -11   3    6.89    0.45 
  -3 -11   3    7.28    0.46 
  -3 -11   3    7.45    0.48 
   3 -11  -3    6.82    0.45 
  -3 -11   3    6.03    0.52 
  -3 -11   3    7.12    0.47 
  -3 -11   3    7.14    0.37 
  -3 -11   3    6.41    0.46 
  -3  11   3    7.24    0.44 
   3  11  -3    6.58    0.51 
   3  11  -3    6.99    0.54 
  -3  11   3    7.37    0.56 
  -3  11   3    7.34    0.51 
  -3  11   3    6.80    0.47 
   3  11  -3    7.31    0.49 
  -3  11   3    7.58    0.48 
  -3  11   3    6.79    0.47 
   2 -11  -3    1.19    0.34 
  -2 -11   3    1.08    0.26 
  -2 -11   3    2.55    0.62 
  -2 -11   3    1.47    0.30 
  -2 -11   3    1.60    0.34 
  -2 -11   3    1.51    0.25 
   2 -11  -3    1.51    0.29 
  -2 -11   3    1.33    0.38 
  -2  11   3    1.45    0.31 
  -2  11   3    1.22    0.33 
   2  11  -3    1.25    0.32 
  -2  11   3    2.12    0.36 
   2  11  -3    1.60    0.34 
  -2  11   3    0.80    0.45 
  -2  11   3    1.47    0.34 
  -2  11   3    1.49    0.29 
  -2  11   3    1.52    0.36 
  -2  11   3    1.53    0.31 
  -2  11   3    0.49    0.33 
   2  11  -3    1.20    0.32 
  -2  11   3    1.35    0.41 
  -2  11   3    0.35    0.39 
   2  11  -3    1.26    0.28 
  -2  11   3    1.70    0.17 
  -1 -11   3    1.68    0.32 
  -1 -11   3    1.40    0.30 
  -1 -11   3    1.30    0.35 
   1 -11  -3    1.75    0.31 
  -1 -11   3    0.97    0.22 
   1 -11  -3    0.91    0.26 
   1 -11  -3    1.48    0.40 
  -1 -11   3    1.19    0.34 
  -1 -11   3    1.46    0.40 
   1 -11  -3    1.38    0.26 
  -1  11   3    1.25    0.30 
   1  11  -3    1.54    0.37 
  -1  11   3    1.77    0.42 
  -1  11   3    1.00    0.31 
   1  11  -3    1.22    0.29 
   1  11  -3    1.23    0.30 
  -1  11   3    1.67    0.27 
   1  11  -3    1.49    0.41 
  -1  11   3    1.51    0.40 
  -1  11   3    1.18    0.29 
   1  11  -3    1.50    0.33 
  -1  11   3    1.44    0.40 
  -1  11   3    1.58    0.36 
  -1  11   3    1.25    0.19 
   1  11  -3    1.25    0.27 
   1  11  -3    1.10    0.23 
  -1  11   3    1.33    0.40 
   0 -11  -3    4.25    0.42 
   0 -11   3    3.88    0.44 
   0 -11  -3    3.73    0.43 
   0 -11   3    4.02    0.41 
   0 -11  -3    3.70    0.56 
   0 -11  -3    4.13    0.46 
   0 -11  -3    4.23    0.46 
   0 -11  -3    3.80    0.44 
   0 -11   3    3.86    0.40 
   0 -11   3    3.70    0.41 
   0  11   3    3.98    0.43 
   0  11   3    3.59    0.43 
   0  11  -3    3.56    0.34 
   0  11   3    3.66    0.51 
   0  11  -3    3.83    0.39 
   0  11  -3    4.51    0.30 
   0  11  -3    4.32    0.38 
   0  11   3    4.40    0.46 
   0  11  -3    3.70    0.35 
   0  11  -3    4.35    0.50 
   0  11   3    3.42    0.31 
   0  11  -3    3.67    0.38 
   0  11  -3    4.15    0.42 
  -1 -11  -3    3.17    0.55 
  -1 -11  -3    2.85    0.44 
  -1 -11  -3    3.02    0.36 
  -1 -11  -3    2.68    0.41 
  -1 -11  -3    2.46    0.36 
   1 -11   3    3.16    0.30 
  -1 -11  -3    2.90    0.36 
   1 -11   3    2.55    0.39 
   1 -11   3    2.90    0.37 
  -1  11  -3    3.23    0.26 
  -1  11  -3    3.09    0.40 
  -1  11  -3    2.96    0.42 
   1  11   3    2.94    0.32 
  -1  11  -3    3.34    0.42 
   1  11   3    2.79    0.37 
  -1  11  -3    3.13    0.29 
  -1  11  -3    2.87    0.38 
  -1  11  -3    2.61    0.35 
  -1  11  -3    2.81    0.28 
   1  11   3    3.18    0.47 
  -1  11  -3    2.89    0.27 
   1  11   3    2.43    0.38 
  -2 -11  -3    1.98    0.37 
  -2 -11  -3    2.16    0.48 
  -2 -11  -3    2.57    0.48 
  -2 -11  -3    2.64    0.35 
   2 -11   3    3.19    0.31 
   2 -11   3    2.49    0.36 
  -2 -11  -3    2.08    0.31 
  -2 -11  -3    1.78    0.31 
  -2 -11  -3    2.23    0.36 
  -2 -11  -3    2.84    0.26 
  -2 -11  -3    2.36    0.35 
  -2  11  -3    2.61    0.54 
   2  11   3    2.91    0.34 
   2  11   3    2.55    0.44 
  -2  11  -3    2.36    0.29 
  -2  11  -3    2.82    0.31 
  -2  11  -3    2.34    0.27 
   2  11   3    2.65    0.39 
  -2  11  -3    2.63    0.30 
   2  11   3    2.70    0.37 
  -2  11  -3    3.30    0.33 
  -2  11  -3    2.62    0.32 
  -2  11  -3    3.05    0.23 
  -3 -11  -3    5.01    0.56 
  -3 -11  -3    7.14    0.54 
  -3 -11  -3    7.00    0.38 
   3 -11   3    7.07    0.42 
  -3 -11  -3    6.63    0.39 
  -3 -11  -3    6.91    0.54 
  -3 -11  -3    7.15    0.50 
  -3 -11  -3    6.48    0.40 
  -3 -11  -3    6.91    0.38 
  -3 -11  -3    7.10    0.48 
  -3  11  -3    6.27    0.41 
   3  11   3    6.93    0.48 
  -3  11  -3    6.13    0.56 
   3  11   3    7.63    0.48 
  -3  11  -3    6.18    0.39 
   3  11   3    7.03    0.47 
  -3  11  -3    6.22    0.41 
  -3  11  -3    6.65    0.39 
  -3 -12   3    2.75    0.27 
  -3 -12   3    3.15    0.29 
  -3 -12   3    2.90    0.24 
  -3 -12   3    3.46    0.29 
   3 -12  -3    3.45    0.29 
  -3 -12   3    2.80    0.27 
   3 -12  -3    3.78    0.32 
  -3  12   3    3.06    0.38 
  -3  12   3    3.63    0.33 
   3  12  -3    3.59    0.29 
   3  12  -3    3.11    0.31 
  -3  12   3    2.98    0.28 
   3  12  -3    3.36    0.32 
  -3  12   3    3.74    0.28 
   3  12  -3    3.72    0.38 
  -3  12   3    3.55    0.28 
  -3  12   3    2.85    0.24 
  -2 -12   3    9.95    0.61 
   2 -12  -3   10.45    0.58 
  -2 -12   3    9.73    0.63 
   2 -12  -3   10.38    0.63 
  -2 -12   3    9.57    0.54 
  -2 -12   3   10.21    0.62 
  -2  12   3   10.16    0.63 
  -2  12   3   10.15    0.63 
   2  12  -3    9.90    0.60 
   2  12  -3   10.11    0.58 
   2  12  -3   10.90    0.60 
  -2  12   3   10.40    0.63 
   2  12  -3    9.65    0.65 
  -2  12   3   10.44    0.61 
  -2  12   3    9.86    0.63 
  -2  12   3   10.08    0.58 
   1 -12  -3    0.45    0.21 
   1 -12  -3    0.82    0.23 
   1 -12  -3    0.48    0.31 
   1 -12  -3    0.80    0.21 
  -1 -12   3    0.67    0.18 
  -1 -12   3    0.81    0.25 
  -1 -12   3    0.33    0.18 
  -1 -12   3    0.42    0.17 
   1 -12  -3    0.49    0.17 
   1  12  -3    0.52    0.12 
   1  12  -3    0.43    0.17 
  -1  12   3    0.69    0.14 
  -1  12   3    0.68    0.25 
  -1  12   3    0.42    0.32 
  -1  12   3    0.93    0.26 
   1  12  -3    0.29    0.20 
  -1  12   3   -0.04    0.16 
   1  12  -3    0.48    0.19 
  -1  12   3    0.27    0.15 
  -1  12   3    0.74    0.16 
   0 -12  -3    1.68    0.23 
   0 -12  -3    1.81    0.36 
   0 -12  -3    1.65    0.45 
   0 -12  -3    0.88    0.29 
   0 -12  -3    1.74    0.35 
   0 -12   3    1.44    0.35 
   0 -12  -3    1.94    0.39 
   0 -12  -3    2.04    0.33 
   0 -12   3    1.59    0.30 
   0 -12   3    1.47    0.32 
   0  12  -3    2.11    0.28 
   0  12   3    1.87    0.31 
   0  12  -3    1.49    0.23 
   0  12   3    2.05    0.22 
   0  12  -3    1.69    0.33 
   0  12  -3    1.88    0.19 
   0  12   3    1.98    0.34 
   0  12  -3    1.60    0.26 
   0  12  -3    1.46    0.18 
   0  12   3    1.60    0.30 
   0  12   3    2.22    0.34 
  -1 -12  -3    1.72    0.28 
   1 -12   3    1.11    0.31 
   1 -12   3    1.49    0.24 
   1 -12   3    1.86    0.32 
   1 -12   3    0.67    0.21 
  -1 -12  -3    1.66    0.35 
  -1 -12  -3    1.49    0.28 
  -1 -12  -3    1.90    0.38 
  -1 -12  -3    1.26    0.43 
  -1 -12  -3    1.36    0.26 
  -1  12  -3    1.72    0.29 
   1  12   3    1.39    0.32 
  -1  12  -3    1.68    0.15 
   1  12   3    1.49    0.24 
  -1  12  -3    1.62    0.19 
   1  12   3    1.62    0.37 
   1  12   3    1.38    0.38 
   1  12   3    1.13    0.35 
  -1  12  -3    1.43    0.30 
  -1  12  -3    1.65    0.35 
  -1  12  -3    1.64    0.18 
  -1  12  -3    1.55    0.21 
  -2 -12  -3    0.46    0.14 
  -2 -12  -3    1.36    0.25 
  -2 -12  -3    0.72    0.27 
   2 -12   3    0.47    0.16 
  -2 -12  -3    0.35    0.19 
  -2 -12  -3    0.70    0.22 
   2 -12   3    0.96    0.20 
  -2 -12  -3    0.38    0.14 
  -2  12  -3    0.93    0.15 
  -2  12  -3    0.93    0.28 
   2  12   3    0.50    0.16 
  -2  12  -3    0.64    0.16 
   2  12   3    1.02    0.25 
   2  12   3    0.66    0.22 
  -2  12  -3    0.83    0.22 
  -2  12  -3    0.83    0.16 
   2  12   3    0.60    0.17 
  -2  12  -3    0.79    0.16 
  -3 -12  -3    8.27    0.58 
  -3 -12  -3   12.85    0.74 
   3 -12   3   10.25    0.55 
  -3 -12  -3   10.68    0.52 
  -3 -12  -3   11.12    0.54 
   3  12   3   10.47    0.58 
   3  12   3    9.09    0.58 
   3  12   3   12.50    0.59 
  -3  12  -3   10.67    0.55 
  -2 -13   3    1.61    0.22 
  -2 -13   3    1.50    0.23 
  -2 -13   3    1.17    0.21 
  -2 -13   3    1.38    0.23 
   2 -13  -3    1.34    0.25 
   2 -13  -3    1.53    0.22 
   2 -13  -3    1.35    0.19 
  -2  13   3    1.09    0.23 
   2  13  -3    1.31    0.23 
   2  13  -3    1.54    0.26 
  -2  13   3    1.15    0.20 
   2  13  -3    1.68    0.27 
   2  13  -3    1.42    0.16 
  -2  13   3    1.42    0.26 
  -2  13   3    1.35    0.17 
   1 -13  -3    3.58    0.31 
  -1 -13   3    3.78    0.29 
   1 -13  -3    3.79    0.34 
   1 -13  -3    3.58    0.41 
  -1 -13   3    3.74    0.31 
  -1 -13   3    3.94    0.36 
   1 -13  -3    3.49    0.33 
  -1 -13   3    3.77    0.31 
  -1  13   3    4.11    0.25 
   1  13  -3    3.77    0.30 
   1  13  -3    3.43    0.24 
  -1  13   3    5.02    0.42 
  -1  13   3    3.56    0.31 
   1  13  -3    4.05    0.29 
  -1  13   3    3.95    0.37 
  -1  13   3    3.48    0.22 
   1  13  -3    4.14    0.32 
   1  13  -3    3.78    0.31 
   0 -13  -3    0.21    0.14 
   0 -13  -3    0.23    0.14 
   0 -13   3    0.21    0.14 
   0 -13   3    0.13    0.15 
   0 -13  -3    0.17    0.16 
   0 -13  -3   -0.02    0.20 
   0 -13  -3    0.05    0.15 
   0 -13   3    0.10    0.12 
   0 -13   3    0.30    0.16 
   0 -13  -3   -0.10    0.21 
   0 -13   3    0.07    0.19 
   0  13   3    0.25    0.14 
   0  13  -3    0.12    0.22 
   0  13   3    0.07    0.10 
   0  13  -3    0.00    0.12 
   0  13   3    0.18    0.05 
   0  13  -3    0.19    0.12 
   0  13  -3    0.20    0.09 
   0  13   3    0.19    0.13 
  -1 -13  -3    1.08    0.24 
  -1 -13  -3    1.09    0.27 
  -1 -13  -3    1.19    0.32 
   1 -13   3    0.54    0.15 
   1 -13   3    0.77    0.22 
  -1 -13  -3    1.18    0.15 
   1 -13   3    1.23    0.25 
  -1 -13  -3    1.10    0.26 
  -1 -13  -3    0.98    0.26 
   1  13   3    1.30    0.24 
   1  13   3    1.24    0.16 
   1  13   3    0.96    0.22 
  -1  13  -3    0.87    0.25 
   1  13   3    1.00    0.24 
  -1  13  -3    0.73    0.19 
  -1  13  -3    1.13    0.23 
   1  13   3    1.25    0.25 
  -7   0   4    0.04    0.04 
  -6   0   4   12.10    0.58 
  -6   0   4   11.47    0.58 
  -6   0   4   11.19    0.85 
  -6   0   4   11.83    0.57 
  -6   0   4   11.88    0.59 
  -6   0   4   12.52    0.59 
  -6   0   4   12.10    0.81 
  -6   0   4   11.51    0.86 
  -6   0   4   11.96    0.57 
  -5   0   4    8.54    0.58 
  -5   0   4    7.45    0.44 
  -5   0   4    7.26    0.48 
  -5   0   4    7.65    0.79 
   4   0  -4    4.55    0.42 
  -4   0   4    4.42    0.33 
  -4   0   4    4.13    0.42 
  -4   0   4    3.96    0.30 
  -4   0   4    3.86    0.54 
  -4   0   4    4.97    0.57 
  -4   0   4    4.50    0.56 
  -4   0   4    4.27    0.34 
  -4   0   4    4.54    0.43 
  -3   0   4   34.53    1.69 
  -3   0   4   34.52    1.68 
  -3   0   4   36.39    1.74 
  -3   0   4   33.04    1.64 
   3   0  -4   32.76    1.74 
  -3   0   4   34.91    1.68 
   3   0  -4   31.93    1.62 
  -2   0   4   99.02    4.66 
  -2   0   4   91.93    4.49 
   2   0  -4   93.33    4.59 
   2   0  -4   96.79    4.57 
   2   0  -4   95.37    4.45 
   1   0  -4   64.79    3.20 
  -1   0   4   66.79    3.20 
   1   0  -4   65.43    3.22 
   0   0  -4   11.09    0.69 
   0   0  -4   11.20    0.70 
   0   0  -4    9.93    0.81 
   0   0   4   10.67    0.72 
   1   0   4   38.58    2.11 
   1   0   4   39.86    1.92 
  -1   0  -4   37.08    2.08 
  -1   0  -4   34.89    1.79 
   1   0   4   35.28    1.93 
   1   0   4   37.79    1.78 
  -1   0  -4   36.64    1.80 
   1   0   4   38.35    1.95 
  -1   0  -4   36.78    2.01 
  -1   0  -4   38.00    2.28 
   2   0   4   64.28    2.81 
  -2   0  -4   58.01    3.16 
  -2   0  -4   59.59    2.88 
   2   0   4   56.33    2.96 
  -2   0  -4   60.69    2.84 
   2   0   4   59.12    2.81 
  -2   0  -4   54.37    2.81 
  -2   0  -4   61.02    2.89 
  -2   0  -4   61.72    2.90 
  -3   0  -4    2.49    0.52 
   3   0   4    2.99    0.22 
  -3   0  -4    2.82    0.46 
  -3   0  -4    2.67    0.33 
  -3   0  -4    2.64    0.31 
   3   0   4    2.84    0.25 
  -3   0  -4    2.57    0.27 
  -3   0  -4    2.79    0.29 
   3   0   4    2.37    0.40 
  -4   0  -4    3.53    0.33 
  -4   0  -4    3.67    0.34 
  -4   0  -4    3.50    0.32 
   4   0   4    3.49    0.28 
  -4   0  -4    3.97    0.47 
  -4   0  -4    3.26    0.46 
  -5   0  -4   17.55    0.97 
  -5   0  -4   15.98    0.91 
  -5   0  -4   16.61    0.85 
  -5   0  -4   17.04    0.84 
  -5   0  -4   16.55    0.85 
  -5   0  -4   15.85    0.83 
  -5   0  -4   15.13    0.83 
  -5   0  -4   16.61    0.82 
  -6   0  -4    6.29    0.29 
  -6   0  -4    5.35    0.30 
  -7  -1   4    1.50    0.10 
  -6  -1   4    1.72    0.42 
  -6  -1   4    0.93    0.28 
  -6  -1   4    1.21    0.18 
  -6  -1   4    1.19    0.14 
  -6  -1   4    1.62    0.14 
  -6  -1   4    1.48    0.17 
  -6  -1   4    1.23    0.17 
  -6  -1   4    1.37    0.14 
  -6  -1   4    1.51    0.13 
  -6  -1   4    1.42    0.42 
  -6  -1   4    1.00    0.43 
  -6  -1   4    2.36    0.55 
  -6  -1   4    1.28    0.14 
  -6   1   4    2.21    0.47 
  -6   1   4    1.86    0.12 
  -6   1   4    1.56    0.12 
  -6   1   4    1.79    0.13 
  -5  -1   4   10.11    0.70 
  -5  -1   4   11.34    0.73 
  -5  -1   4   10.69    0.64 
  -5  -1   4   10.58    0.60 
  -5  -1   4   11.06    0.66 
  -5  -1   4   12.09    0.92 
  -5  -1   4   10.01    0.62 
  -5  -1   4   10.56    0.59 
  -5   1   4   10.01    0.62 
  -5   1   4   11.83    0.88 
  -5   1   4   11.19    0.73 
  -4  -1   4   10.42    0.60 
  -4  -1   4   12.12    0.83 
  -4  -1   4   10.55    0.67 
  -4  -1   4   11.13    0.73 
   4  -1  -4    9.54    0.69 
  -4  -1   4   11.10    0.80 
  -4  -1   4   10.81    0.83 
  -4  -1   4   10.90    0.66 
  -4   1   4   10.89    0.67 
  -4   1   4   12.27    0.64 
  -4   1   4   10.60    0.81 
  -4   1   4   11.70    0.59 
   4   1  -4   10.62    0.73 
  -4   1   4   10.87    0.60 
   3  -1  -4   79.11    3.70 
  -3  -1   4   77.74    3.77 
  -3  -1   4   73.81    3.81 
  -3  -1   4   88.70    3.84 
   3  -1  -4   77.88    3.82 
  -3  -1   4   79.82    3.86 
  -3  -1   4   78.87    3.77 
  -3  -1   4   76.38    3.72 
  -3   1   4   84.16    3.81 
   3   1  -4   77.78    3.70 
  -3   1   4   76.32    3.75 
  -3   1   4   75.84    3.76 
  -3   1   4   81.96    3.72 
   3   1  -4   77.71    3.84 
  -2  -1   4    6.45    0.56 
   2  -1  -4    6.37    0.50 
   2  -1  -4    6.04    0.34 
  -2  -1   4    5.19    0.43 
   2  -1  -4    6.46    0.33 
   2  -1  -4    6.15    0.48 
   2   1  -4    6.26    0.34 
   2   1  -4    6.70    0.49 
  -2   1   4    6.18    0.41 
  -2   1   4    6.51    0.54 
  -2   1   4    5.09    0.46 
   2   1  -4    5.95    0.49 
  -1  -1   4   21.84    1.17 
  -1  -1   4   22.33    1.29 
   1  -1  -4   20.90    1.17 
   1  -1  -4   22.58    1.16 
   1   1  -4   21.65    1.19 
  -1   1   4   21.73    1.15 
   1   1  -4   19.59    1.15 
  -1   1   4   20.52    1.26 
   0  -1   4   38.41    1.92 
   0  -1  -4   36.67    1.91 
   0  -1  -4   37.62    2.07 
   0  -1  -4   38.33    2.15 
   0   1  -4   38.47    1.91 
   0   1  -4   35.83    2.05 
   0   1   4   36.18    1.92 
   0   1  -4   36.60    1.90 
   0   1   4   38.64    2.04 
  -1  -1  -4    8.96    0.52 
   1  -1   4    9.41    0.64 
   1  -1   4    9.86    0.81 
  -1  -1  -4    9.49    0.97 
   1  -1   4    9.27    0.50 
  -1  -1  -4    9.17    0.54 
  -1  -1  -4    9.99    0.82 
   1  -1   4    8.82    0.66 
   1   1   4    9.64    0.68 
   1   1   4    9.05    0.50 
  -1   1  -4    8.19    0.52 
  -1   1  -4    9.80    0.79 
  -1   1  -4    9.62    0.52 
   1   1   4    9.28    0.65 
   1   1   4    9.66    0.83 
   1   1   4   10.40    0.67 
  -1   1  -4    9.87    0.73 
  -2  -1  -4   20.18    1.36 
  -2  -1  -4   21.07    1.40 
   2  -1   4   21.72    1.04 
   2  -1   4   21.05    1.04 
   2  -1   4   21.94    1.20 
  -2  -1  -4   21.18    1.12 
  -2  -1  -4   20.35    1.12 
  -2  -1  -4   20.67    1.07 
  -2  -1  -4   21.38    1.06 
  -2  -1  -4   22.32    1.07 
   2   1   4   21.49    1.04 
  -2   1  -4   21.99    1.13 
  -2   1  -4   23.37    1.14 
   2   1   4   19.14    1.23 
   2   1   4   20.74    1.04 
  -2   1  -4   21.53    1.07 
  -2   1  -4   21.25    1.38 
   2   1   4   18.81    1.19 
   3  -1   4   21.93    1.11 
  -3  -1  -4   22.64    1.31 
  -3  -1  -4   23.43    1.22 
   3  -1   4   22.20    1.11 
  -3  -1  -4   20.67    1.13 
   3  -1   4   23.09    1.31 
  -3  -1  -4   22.87    1.18 
  -3  -1  -4   25.34    1.20 
  -3  -1  -4   22.89    1.52 
  -3  -1  -4   22.23    1.16 
   3   1   4   22.80    1.12 
  -3   1  -4   23.21    1.49 
   3   1   4   23.50    1.11 
   3   1   4   19.61    1.30 
  -3   1  -4   22.02    1.16 
  -3   1  -4   21.93    1.16 
  -3   1  -4   21.41    1.12 
  -3   1  -4   21.97    1.28 
  -3   1  -4   23.34    1.15 
   4  -1   4   24.35    1.27 
  -4  -1  -4   25.62    1.37 
  -4  -1  -4   23.68    1.31 
  -4  -1  -4   27.42    1.46 
  -4  -1  -4   26.68    1.31 
  -4  -1  -4   25.84    1.30 
  -4   1  -4   28.08    1.31 
  -4   1  -4   27.10    1.29 
   4   1   4   23.47    1.27 
   4   1   4   24.32    1.28 
  -4   1  -4   25.68    1.40 
  -4   1  -4   25.15    1.31 
  -4   1  -4   28.71    1.44 
  -5  -1  -4    3.68    0.30 
  -5  -1  -4    3.21    0.43 
  -5  -1  -4    4.31    0.42 
  -5  -1  -4    3.46    0.31 
  -5  -1  -4    4.07    0.27 
  -5  -1  -4    3.89    0.30 
  -5  -1  -4    3.50    0.30 
  -5  -1  -4    3.57    0.33 
  -5   1  -4    3.82    0.30 
  -5   1  -4    3.51    0.28 
  -5   1  -4    3.28    0.45 
  -5   1  -4    3.35    0.28 
  -5   1  -4    4.05    0.31 
  -5   1  -4    3.57    0.25 
  -6  -1  -4   13.90    0.66 
  -6  -1  -4   14.16    0.66 
  -6   1  -4   13.29    0.65 
  -6   1  -4   13.05    0.66 
  -6   1  -4   13.89    0.65 
  -6   1  -4   14.06    0.66 
  -7  -2   4   11.89    0.57 
  -7  -2   4   12.33    0.75 
  -7  -2   4   11.72    0.56 
  -7  -2   4   11.58    0.56 
  -6  -2   4    3.75    0.60 
  -6  -2   4    4.54    0.27 
  -6  -2   4    4.67    0.27 
  -6  -2   4    4.50    0.29 
  -6  -2   4    4.58    0.30 
  -6  -2   4    4.82    0.51 
  -6  -2   4    4.29    0.27 
  -6  -2   4    4.54    0.69 
  -6  -2   4    4.70    0.56 
  -6  -2   4    4.09    0.49 
  -6   2   4    4.95    0.25 
  -6   2   4    4.36    0.24 
  -6   2   4    4.58    0.25 
  -6   2   4    4.88    0.58 
  -6   2   4    4.73    0.23 
  -5  -2   4    1.96    0.56 
  -5  -2   4    1.63    0.27 
  -5  -2   4    1.88    0.35 
  -5  -2   4    1.37    0.23 
   5  -2  -4    1.66    0.16 
  -5  -2   4    1.88    0.41 
  -5  -2   4    1.85    0.54 
  -5  -2   4    1.70    0.24 
  -5  -2   4    1.51    0.25 
  -5  -2   4    1.82    0.41 
  -5   2   4    1.78    0.29 
  -5   2   4    1.79    0.24 
  -5   2   4    2.08    0.58 
  -4  -2   4    3.50    0.40 
  -4  -2   4    3.50    0.50 
  -4  -2   4    3.00    0.28 
  -4  -2   4    3.54    0.35 
  -4  -2   4    3.14    0.32 
  -4  -2   4    3.68    0.54 
   4  -2  -4    2.83    0.36 
  -4  -2   4    2.71    0.26 
  -4  -2   4    3.07    0.50 
  -4  -2   4    3.13    0.40 
  -4   2   4    3.07    0.51 
   4   2  -4    2.93    0.23 
  -4   2   4    3.11    0.30 
  -4   2   4    2.75    0.26 
  -4   2   4    3.21    0.22 
   4   2  -4    2.96    0.40 
  -4   2   4    2.92    0.36 
  -4   2   4    3.21    0.28 
   3  -2  -4   47.08    2.40 
   3  -2  -4   47.96    2.27 
  -3  -2   4   47.98    2.35 
  -3  -2   4   50.71    2.46 
   3  -2  -4   44.84    2.27 
  -3  -2   4   46.45    2.34 
  -3  -2   4   47.80    2.31 
  -3  -2   4   44.93    2.41 
  -3   2   4   47.62    2.33 
  -3   2   4   46.95    2.29 
  -3   2   4   51.16    2.39 
   3   2  -4   54.08    2.46 
  -3   2   4   49.10    2.33 
   3   2  -4   48.55    2.28 
   2  -2  -4   16.09    0.81 
   2  -2  -4   16.18    0.81 
  -2  -2   4   17.67    1.06 
  -2  -2   4   15.98    0.89 
  -2  -2   4   15.30    0.92 
   2  -2  -4   17.71    0.99 
  -2  -2   4   16.76    0.85 
   2  -2  -4   16.97    0.94 
   2   2  -4   16.44    0.81 
  -2   2   4   15.75    0.93 
  -2   2   4   14.95    0.85 
   2   2  -4   17.16    0.96 
  -2   2   4   16.35    0.84 
  -2   2   4   18.85    1.02 
   2   2  -4   16.01    0.97 
  -1  -2   4   34.68    1.94 
   1  -2  -4   36.99    1.78 
   1  -2  -4   36.77    1.90 
  -1  -2   4   38.06    1.91 
  -1  -2   4   40.82    1.92 
   1  -2  -4   41.76    1.95 
  -1  -2   4   35.39    1.85 
  -1   2   4   37.34    1.89 
  -1   2   4   36.30    2.01 
  -1   2   4   39.15    1.89 
   1   2  -4   37.68    1.78 
  -1   2   4   33.62    2.04 
  -1   2   4   37.26    2.04 
   1   2  -4   38.27    1.93 
   0  -2   4   23.52    1.25 
   0  -2   4   23.49    1.27 
   0  -2   4   21.90    1.10 
   0  -2  -4   25.78    1.29 
   0  -2  -4   21.89    1.24 
   0  -2  -4   21.50    1.22 
   0   2   4   23.86    1.24 
   0   2   4   22.38    1.35 
   0   2  -4   21.50    1.20 
   0   2  -4   24.67    1.25 
   0   2   4   24.11    1.26 
   0   2  -4   20.97    1.30 
   0   2  -4   22.32    1.39 
   0   2  -4   20.42    1.13 
   1  -2   4   67.49    3.37 
   1  -2   4   63.05    3.18 
  -1  -2  -4   58.25    3.03 
  -1  -2  -4   63.78    3.34 
  -1  -2  -4   64.19    3.03 
   1  -2   4   69.34    3.15 
   1  -2   4   64.28    3.00 
   1   2   4   64.83    3.19 
  -1   2  -4   63.11    3.33 
  -1   2  -4   59.66    3.08 
  -1   2  -4   62.69    3.03 
  -1   2  -4   63.68    3.24 
   1   2   4   64.11    3.14 
   1   2   4   66.26    3.01 
  -1   2  -4   62.48    3.02 
  -2  -2  -4   10.11    0.55 
  -2  -2  -4    9.91    0.63 
  -2  -2  -4    9.74    0.56 
  -2  -2  -4    7.82    0.85 
   2  -2   4    9.51    0.51 
   2  -2   4    8.86    0.67 
  -2  -2  -4   10.23    0.56 
  -2  -2  -4   10.44    0.90 
  -2  -2  -4    9.63    0.65 
  -2  -2  -4    9.20    0.89 
   2  -2   4    9.78    0.52 
  -2   2  -4    9.93    0.70 
  -2   2  -4    9.38    0.62 
  -2   2  -4   10.18    0.56 
  -2   2  -4    9.68    0.62 
   2   2   4    9.87    0.75 
   2   2   4    9.30    0.71 
  -2   2  -4    9.00    0.83 
   2   2   4   10.64    0.54 
  -3  -2  -4    4.15    0.36 
   3  -2   4    3.87    0.27 
   3  -2   4    4.39    0.47 
  -3  -2  -4    3.61    0.39 
  -3  -2  -4    3.93    0.33 
  -3  -2  -4    3.60    0.38 
  -3  -2  -4    4.39    0.55 
  -3  -2  -4    3.81    0.62 
  -3  -2  -4    3.81    0.42 
   3  -2   4    3.51    0.28 
  -3   2  -4    3.87    0.47 
  -3   2  -4    3.84    0.35 
   3   2   4    3.31    0.29 
  -3   2  -4    3.67    0.29 
  -3   2  -4    4.29    0.35 
   3   2   4    4.00    0.31 
  -3   2  -4    3.18    0.56 
  -3   2  -4    3.99    0.35 
  -3   2  -4    3.43    0.48 
   3   2   4    3.50    0.49 
  -4  -2  -4   24.02    1.19 
  -4  -2  -4   19.26    1.12 
   4  -2   4   20.29    1.09 
  -4  -2  -4   24.00    1.15 
  -4  -2  -4   21.97    1.21 
  -4  -2  -4   21.32    1.30 
  -4  -2  -4   21.02    1.23 
  -4  -2  -4   22.64    1.20 
  -4  -2  -4   25.48    1.16 
  -4  -2  -4   22.68    1.14 
  -4  -2  -4   23.82    1.13 
  -4  -2  -4   22.33    1.16 
  -4   2  -4   19.83    1.20 
   4   2   4   21.84    1.11 
  -4   2  -4   20.45    1.23 
  -4   2  -4   22.60    1.09 
   4   2   4   21.71    1.11 
  -4   2  -4   20.08    1.12 
  -4   2  -4   21.02    1.10 
  -4   2  -4   20.58    1.26 
  -4   2  -4   25.40    1.41 
  -4   2  -4   23.29    1.22 
  -4   2  -4   22.65    1.11 
  -4   2  -4   21.20    1.13 
  -4   2  -4   21.70    1.10 
  -4   2  -4   22.61    1.13 
  -5  -2  -4    5.60    0.46 
  -5  -2  -4    5.42    0.50 
  -5  -2  -4    5.07    0.38 
  -5  -2  -4    4.72    0.56 
  -5  -2  -4    5.46    0.37 
  -5  -2  -4    5.63    0.39 
  -5  -2  -4    4.98    0.39 
  -5  -2  -4    5.46    0.38 
  -5  -2  -4    6.01    0.34 
  -5   2  -4    5.71    0.66 
  -5   2  -4    5.74    0.35 
  -5   2  -4    5.27    0.35 
  -5   2  -4    5.27    0.32 
  -5   2  -4    4.59    0.50 
  -5   2  -4    5.75    0.32 
  -5   2  -4    5.50    0.34 
  -5   2  -4    5.63    0.42 
  -6  -2  -4    6.04    0.34 
  -6  -2  -4    6.48    0.33 
  -6   2  -4    6.42    0.32 
  -6   2  -4    6.53    0.31 
  -6   2  -4    6.59    0.32 
  -7  -3   4   13.70    0.66 
  -7  -3   4   14.14    0.80 
  -7  -3   4   13.58    0.66 
  -7  -3   4   14.06    0.66 
  -6  -3   4    3.97    0.29 
  -6  -3   4    2.80    0.61 
  -6  -3   4    4.32    0.59 
  -6  -3   4    3.48    0.28 
  -6  -3   4    3.41    0.25 
  -6  -3   4    4.07    0.47 
  -6  -3   4    3.93    0.30 
  -6  -3   4    4.19    0.36 
  -6  -3   4    4.58    0.53 
  -6  -3   4    3.83    0.48 
  -6  -3   4    4.67    0.60 
  -6  -3   4    4.22    0.25 
  -6   3   4    4.00    0.22 
  -6   3   4    3.74    0.37 
  -6   3   4    4.82    0.51 
  -6   3   4    4.17    0.21 
  -6   3   4    4.02    0.22 
  -6   3   4    4.17    0.21 
  -6   3   4    3.84    0.50 
  -5  -3   4   17.67    1.21 
  -5  -3   4   16.84    1.01 
  -5  -3   4   18.05    1.06 
  -5  -3   4   18.02    1.01 
  -5  -3   4   16.65    1.00 
   5  -3  -4   17.67    0.87 
  -5  -3   4   18.24    0.93 
  -5  -3   4   18.36    1.15 
  -5  -3   4   17.31    0.93 
  -5  -3   4   17.61    0.92 
  -5   3   4   17.98    0.93 
  -5   3   4   18.54    0.95 
  -4  -3   4   24.98    1.43 
  -4  -3   4   23.29    1.20 
   4  -3  -4   24.20    1.17 
   4  -3  -4   23.80    1.31 
  -4  -3   4   25.28    1.28 
  -4  -3   4   26.42    1.33 
  -4  -3   4   25.69    1.48 
  -4  -3   4   25.39    1.37 
  -4  -3   4   24.07    1.22 
  -4  -3   4   23.42    1.23 
  -4   3   4   20.84    1.27 
  -4   3   4   23.98    1.19 
   4   3  -4   23.99    1.18 
  -4   3   4   25.44    1.44 
  -4   3   4   24.18    1.18 
  -4   3   4   24.30    1.23 
  -4   3   4   22.88    1.21 
   4   3  -4   23.09    1.38 
   3  -3  -4   21.09    1.20 
   3  -3  -4   22.61    1.06 
  -3  -3   4   22.30    1.11 
   3  -3  -4   21.54    1.07 
  -3  -3   4   23.80    1.14 
  -3  -3   4   20.71    1.16 
  -3  -3   4   22.14    1.26 
  -3  -3   4   18.98    1.26 
  -3  -3   4   21.02    1.25 
  -3   3   4   22.82    1.42 
  -3   3   4   20.19    1.27 
  -3   3   4   23.63    1.24 
   3   3  -4   22.08    1.25 
  -3   3   4   20.79    1.08 
   3   3  -4   22.77    1.08 
  -3   3   4   22.10    1.11 
  -3   3   4   21.84    1.12 
  -3   3   4   24.34    1.14 
  -3   3   4   22.18    1.18 
  -2  -3   4   82.58    4.22 
  -2  -3   4   93.87    4.45 
   2  -3  -4   93.55    4.30 
   2  -3  -4   86.63    4.16 
   2  -3  -4   85.88    4.16 
  -2  -3   4   84.79    4.27 
  -2  -3   4   87.25    4.19 
   2   3  -4   90.86    4.34 
  -2   3   4   82.24    4.17 
  -2   3   4   93.01    4.48 
  -2   3   4   95.72    4.37 
   2   3  -4   91.31    4.32 
   2   3  -4   90.58    4.16 
  -2   3   4   91.85    4.45 
  -2   3   4   82.99    4.33 
  -2   3   4   88.18    4.19 
   1  -3  -4    7.02    0.55 
   1  -3  -4    6.56    0.38 
  -1  -3   4    7.14    0.58 
  -1  -3   4    7.35    0.55 
   1  -3  -4    7.46    0.53 
   1  -3  -4    7.17    0.57 
  -1  -3   4    6.60    0.52 
  -1   3   4    7.38    0.65 
   1   3  -4    6.74    0.52 
  -1   3   4    7.22    0.47 
   1   3  -4    6.44    0.52 
  -1   3   4    6.63    0.45 
  -1   3   4    7.04    0.69 
   1   3  -4    5.87    0.41 
  -1   3   4    6.37    0.53 
  -1   3   4    7.33    0.67 
   1   3  -4    6.11    0.37 
   0  -3   4    0.23    0.12 
   0  -3  -4    0.42    0.11 
   0  -3   4    0.29    0.21 
   0  -3  -4    0.47    0.16 
   0  -3   4    0.78    0.28 
   0  -3  -4    0.41    0.27 
   0  -3  -4    0.69    0.25 
   0  -3   4    0.31    0.28 
   0   3   4    0.34    0.12 
   0   3  -4    0.21    0.32 
   0   3  -4    0.44    0.14 
   0   3  -4    0.61    0.16 
   0   3   4    0.41    0.27 
   0   3  -4    0.57    0.24 
   0   3   4    0.79    0.32 
   0   3  -4    0.57    0.25 
   0   3   4    0.73    0.37 
   1  -3   4   25.97    1.39 
   1  -3   4   24.51    1.33 
  -1  -3  -4   24.21    1.22 
  -1  -3  -4   24.57    1.30 
  -1  -3  -4   24.79    1.33 
  -1  -3  -4   24.12    1.22 
  -1  -3  -4   27.38    1.58 
  -1  -3  -4   25.26    1.22 
   1  -3   4   23.76    1.18 
   1  -3   4   21.05    1.50 
  -1   3  -4   24.52    1.20 
  -1   3  -4   22.59    1.29 
   1   3   4   25.19    1.39 
   1   3   4   23.64    1.19 
  -1   3  -4   23.85    1.42 
  -1   3  -4   23.70    1.20 
  -1   3  -4   22.20    1.25 
   1   3   4   24.35    1.33 
  -1   3  -4   24.47    1.53 
   2  -3   4    0.75    0.15 
  -2  -3  -4    0.33    0.16 
   2  -3   4    0.77    0.31 
   2  -3   4    0.41    0.12 
  -2  -3  -4    0.55    0.44 
  -2  -3  -4    0.70    0.49 
  -2  -3  -4    0.67    0.18 
  -2  -3  -4    0.45    0.20 
  -2  -3  -4    0.27    0.14 
  -2  -3  -4    0.45    0.25 
  -2  -3  -4    0.65    0.18 
  -2   3  -4    0.58    0.42 
  -2   3  -4    0.40    0.21 
  -2   3  -4    0.29    0.15 
  -2   3  -4    0.31    0.19 
   2   3   4    0.27    0.30 
  -2   3  -4    0.78    0.31 
   2   3   4    0.46    0.33 
   2   3   4    0.44    0.15 
  -2   3  -4    0.51    0.19 
  -3  -3  -4   18.06    1.15 
  -3  -3  -4   18.31    1.04 
  -3  -3  -4   18.49    1.37 
  -3  -3  -4   18.29    0.97 
  -3  -3  -4   18.68    1.00 
   3  -3   4   16.31    0.89 
  -3  -3  -4   19.43    0.99 
  -3  -3  -4   18.10    0.94 
   3  -3   4   17.06    0.90 
   3   3   4   14.92    1.17 
  -3   3  -4   16.10    1.24 
  -3   3  -4   18.25    0.95 
  -3   3  -4   18.66    0.91 
   3   3   4   18.31    0.92 
  -3   3  -4   17.89    1.00 
  -3   3  -4   16.31    0.94 
  -3   3  -4   18.74    1.09 
  -3   3  -4   17.66    0.94 
  -4  -3  -4   34.00    1.72 
  -4  -3  -4   36.14    1.70 
  -4  -3  -4   33.14    1.74 
  -4  -3  -4   34.41    1.70 
  -4  -3  -4   34.75    1.89 
  -4  -3  -4   30.81    1.69 
  -4  -3  -4   34.78    1.73 
  -4  -3  -4   36.61    1.73 
  -4  -3  -4   33.72    1.69 
  -4  -3  -4   34.17    1.79 
  -4  -3  -4   33.40    1.71 
  -4  -3  -4   31.82    1.69 
  -4  -3  -4   33.41    1.72 
  -4  -3  -4   32.14    1.67 
  -4   3  -4   31.76    1.65 
  -4   3  -4   36.73    1.79 
  -4   3  -4   34.34    1.66 
  -4   3  -4   35.02    1.90 
  -4   3  -4   33.98    1.70 
  -4   3  -4   36.55    1.67 
  -4   3  -4   34.67    1.90 
  -4   3  -4   34.90    1.67 
   4   3   4   34.49    1.68 
  -4   3  -4   35.46    1.69 
  -4   3  -4   37.07    1.81 
  -4   3  -4   35.21    1.68 
  -5  -3  -4    5.28    0.45 
  -5  -3  -4    5.28    0.37 
  -5  -3  -4    5.12    0.37 
  -5  -3  -4    5.33    0.46 
  -5  -3  -4    5.08    0.39 
  -5  -3  -4    4.94    0.37 
  -5  -3  -4    5.18    0.49 
  -5  -3  -4    4.77    0.32 
  -5  -3  -4    4.89    0.38 
  -5   3  -4    5.73    0.63 
  -5   3  -4    5.04    0.47 
  -5   3  -4    5.11    0.30 
  -5   3  -4    5.25    0.32 
  -5   3  -4    5.13    0.29 
  -5   3  -4    5.17    0.30 
  -5   3  -4    5.07    0.32 
  -6  -3  -4    0.33    0.04 
  -6  -3  -4    0.39    0.05 
  -7  -4   4   16.44    0.87 
  -7  -4   4   15.36    0.74 
  -7  -4   4   15.98    0.74 
  -7  -4   4   15.58    0.74 
  -7  -4   4   14.99    0.75 
  -6  -4   4    3.20    0.58 
  -6  -4   4    3.32    0.42 
  -6  -4   4    3.57    0.29 
  -6  -4   4    3.88    0.31 
  -6  -4   4    3.42    0.25 
  -6  -4   4    3.53    0.58 
  -6  -4   4    3.84    0.48 
  -6  -4   4    3.50    0.27 
  -6  -4   4    3.30    0.28 
  -6  -4   4    3.61    0.29 
  -6   4   4    3.81    0.36 
  -6   4   4    3.33    0.51 
  -6   4   4    3.84    0.19 
  -6   4   4    3.60    0.19 
  -6   4   4    3.88    0.20 
  -5  -4   4    7.41    0.48 
  -5  -4   4    8.03    0.51 
  -5  -4   4    8.36    0.77 
  -5  -4   4    7.92    0.50 
  -5  -4   4    7.61    0.64 
  -5  -4   4    8.08    0.51 
  -5  -4   4    8.24    0.71 
  -5  -4   4    7.52    0.48 
  -5  -4   4    7.36    0.47 
  -5  -4   4    7.65    0.51 
  -5  -4   4    9.18    0.72 
  -5  -4   4    7.52    0.61 
  -5  -4   4    9.28    0.87 
  -5   4   4    8.15    0.51 
  -5   4   4    7.85    0.41 
  -5   4   4    6.81    0.63 
  -5   4   4    7.84    0.40 
  -5   4   4    7.97    0.49 
   5   4  -4    7.32    0.46 
  -5   4   4    7.45    0.40 
  -5   4   4    7.81    0.43 
  -5   4   4    7.14    0.42 
  -5   4   4    8.27    0.65 
  -5   4   4    7.82    0.40 
  -4  -4   4    1.20    0.33 
  -4  -4   4    1.28    0.26 
  -4  -4   4    1.19    0.29 
  -4  -4   4    1.28    0.27 
  -4  -4   4    2.14    0.55 
  -4  -4   4    1.17    0.49 
   4  -4  -4    1.34    0.16 
  -4  -4   4    1.33    0.49 
  -4  -4   4    1.40    0.42 
  -4  -4   4    1.89    0.38 
  -4  -4   4    1.32    0.24 
  -4   4   4    1.38    0.22 
   4   4  -4    1.59    0.19 
  -4   4   4    1.44    0.21 
  -4   4   4    2.07    0.37 
  -4   4   4    0.90    0.36 
  -4   4   4    1.80    0.26 
  -4   4   4    1.39    0.24 
   4   4  -4    1.77    0.71 
  -3  -4   4   16.84    0.92 
   3  -4  -4   14.71    0.94 
  -3  -4   4   18.49    1.17 
   3  -4  -4   15.93    0.80 
  -3  -4   4   16.03    0.85 
   3  -4  -4   15.45    0.80 
  -3  -4   4   15.66    1.01 
  -3  -4   4   16.80    0.88 
  -3  -4   4   16.18    1.01 
  -3  -4   4   14.32    0.85 
   3   4  -4   17.04    0.82 
  -3   4   4   15.20    0.91 
   3   4  -4   16.62    1.02 
  -3   4   4   16.22    0.85 
  -3   4   4   14.81    0.96 
  -3   4   4   15.90    0.87 
  -3   4   4   15.68    1.03 
  -3   4   4   15.99    0.86 
   3   4  -4   16.18    1.04 
  -3   4   4   17.04    1.14 
  -3   4   4   16.30    0.83 
  -2  -4   4    3.29    0.38 
   2  -4  -4    3.43    0.23 
   2  -4  -4    3.59    0.25 
  -2  -4   4    3.53    0.41 
  -2  -4   4    3.02    0.29 
  -2  -4   4    3.84    0.71 
   2  -4  -4    3.11    0.38 
  -2   4   4    3.37    0.34 
  -2   4   4    3.57    0.28 
  -2   4   4    2.91    0.27 
  -2   4   4    3.50    0.52 
  -2   4   4    3.67    0.43 
  -2   4   4    2.99    0.44 
   2   4  -4    3.02    0.43 
   2   4  -4    3.32    0.42 
  -2   4   4    3.34    0.35 
  -2   4   4    2.99    0.27 
  -2   4   4    3.75    0.54 
   2   4  -4    3.57    0.23 
  -1  -4   4   82.51    3.96 
   1  -4  -4   79.33    3.80 
   1  -4  -4   85.15    3.96 
  -1  -4   4   78.05    3.84 
  -1  -4   4   78.43    3.97 
  -1  -4   4   80.03    3.89 
  -1  -4   4   78.77    3.84 
   1  -4  -4   84.28    4.00 
   1  -4  -4   80.86    3.95 
  -1   4   4   88.76    4.19 
   1   4  -4   81.41    3.93 
  -1   4   4   79.11    3.91 
  -1   4   4   83.68    4.13 
   1   4  -4   82.67    3.80 
   1   4  -4   79.05    3.84 
   1   4  -4   72.72    3.83 
  -1   4   4   76.66    3.83 
   1   4  -4   86.67    3.99 
   0  -4   4   21.13    1.18 
   0  -4  -4   18.32    1.00 
   0  -4  -4   20.04    1.12 
   0  -4   4   20.20    0.96 
   0  -4  -4   19.21    1.01 
   0  -4  -4   20.63    1.16 
   0  -4  -4   18.59    0.96 
   0  -4   4   18.86    1.15 
   0   4  -4   19.35    1.08 
   0   4  -4   19.73    0.99 
   0   4  -4   16.91    1.09 
   0   4   4   20.08    1.29 
   0   4  -4   19.37    0.99 
   0   4  -4   16.29    1.27 
   0   4   4   22.07    1.13 
   0   4   4   18.55    1.00 
   0   4   4   20.55    1.15 
   1  -4   4   15.37    1.51 
  -1  -4  -4   16.41    0.82 
  -1  -4  -4   15.19    0.83 
  -1  -4  -4   15.04    0.94 
   1  -4   4   13.40    0.96 
  -1  -4  -4   14.31    0.89 
  -1  -4  -4   14.93    0.82 
   1  -4   4   15.06    0.93 
  -1  -4  -4   16.08    1.18 
   1  -4   4   15.63    0.78 
  -1   4  -4   15.70    0.82 
  -1   4  -4   14.49    0.79 
  -1   4  -4   14.97    0.86 
  -1   4  -4   15.09    0.80 
   1   4   4   15.16    1.12 
   1   4   4   15.51    0.95 
   1   4   4   14.77    0.77 
  -1   4  -4   15.00    0.81 
   1   4   4   15.45    0.99 
  -1   4  -4   15.96    1.16 
  -1   4  -4   15.33    1.03 
  -1   4  -4   14.92    0.87 
   2  -4   4   21.15    1.14 
  -2  -4  -4   22.83    1.19 
  -2  -4  -4   23.20    1.28 
  -2  -4  -4   23.49    1.18 
  -2  -4  -4   24.09    1.19 
  -2  -4  -4   22.78    1.26 
  -2  -4  -4   20.82    1.55 
  -2  -4  -4   23.10    1.22 
   2  -4   4   23.26    1.33 
   2  -4   4   22.77    1.15 
   2   4   4   23.32    1.16 
  -2   4  -4   22.80    1.34 
  -2   4  -4   23.09    1.19 
  -2   4  -4   24.38    1.23 
  -2   4  -4   23.20    1.23 
   2   4   4   23.36    1.41 
  -2   4  -4   25.12    1.35 
  -2   4  -4   24.83    1.57 
   3  -4   4   72.72    3.40 
  -3  -4  -4   74.97    3.39 
  -3  -4  -4   68.29    3.63 
  -3  -4  -4   73.41    3.49 
  -3  -4  -4   69.70    3.46 
  -3  -4  -4   73.19    3.48 
   3  -4   4   75.53    3.40 
  -3  -4  -4   72.30    3.45 
  -3  -4  -4   76.56    3.50 
  -3  -4  -4   70.78    3.43 
  -3  -4  -4   70.59    3.52 
  -3  -4  -4   66.90    3.92 
  -3  -4  -4   74.00    3.46 
  -3   4  -4   68.34    3.40 
  -3   4  -4   71.34    3.48 
   3   4   4   72.90    3.42 
  -3   4  -4   70.55    3.58 
  -3   4  -4   68.29    3.82 
  -3   4  -4   70.77    3.43 
  -3   4  -4   72.23    3.44 
  -3   4  -4   71.77    3.43 
  -3   4  -4   73.19    3.42 
  -4  -4  -4   10.20    0.66 
  -4  -4  -4   10.33    0.66 
  -4  -4  -4   10.82    0.66 
  -4  -4  -4   10.29    0.66 
  -4  -4  -4   11.08    0.71 
  -4  -4  -4   10.67    0.64 
  -4  -4  -4   10.40    0.65 
  -4  -4  -4   11.25    0.65 
  -4  -4  -4   10.42    0.62 
  -4  -4  -4    9.92    0.62 
  -4  -4  -4   11.02    0.74 
  -4  -4  -4   10.49    0.65 
  -4  -4  -4    9.67    0.83 
  -4  -4  -4   10.63    0.67 
  -4  -4  -4   10.64    0.63 
  -4   4  -4   10.70    0.56 
  -4   4  -4   11.34    0.61 
  -4   4  -4   10.69    0.87 
  -4   4  -4   10.55    0.59 
   4   4   4   10.65    0.79 
  -4   4  -4    9.88    0.58 
  -4   4  -4   10.84    0.73 
  -4   4  -4   10.68    0.58 
  -4   4  -4   10.80    0.72 
  -4   4  -4   11.27    0.62 
  -4   4  -4    9.98    0.59 
  -5  -4  -4    1.58    0.35 
  -5  -4  -4    1.40    0.26 
  -5  -4  -4    1.77    0.37 
  -5  -4  -4    1.51    0.25 
  -5  -4  -4    1.65    0.30 
  -5  -4  -4    2.09    0.25 
  -5  -4  -4    1.83    0.20 
  -5  -4  -4    1.21    0.31 
  -5  -4  -4    1.70    0.27 
  -5   4  -4    1.63    0.18 
  -5   4  -4    1.48    0.15 
  -5   4  -4    1.95    0.52 
  -5   4  -4    1.55    0.15 
  -5   4  -4    1.63    0.15 
  -5   4  -4    1.72    0.20 
  -5   4  -4    1.81    0.34 
  -6  -5   4    3.54    0.29 
  -6  -5   4    3.77    0.28 
  -6  -5   4    3.45    0.27 
  -6  -5   4    3.12    0.27 
  -6  -5   4    3.43    0.53 
  -6  -5   4    3.31    0.24 
  -6  -5   4    2.88    0.29 
  -6  -5   4    3.98    0.59 
  -6   5   4    3.40    0.18 
  -6   5   4    2.93    0.36 
  -6   5   4    3.42    0.18 
  -6   5   4    3.09    0.18 
  -5  -5   4    5.09    0.39 
  -5  -5   4    5.12    0.41 
  -5  -5   4    5.49    0.56 
  -5  -5   4    5.23    0.42 
  -5  -5   4    5.70    0.40 
  -5  -5   4    5.98    0.74 
  -5  -5   4    5.96    0.43 
  -5  -5   4    5.16    0.57 
  -5  -5   4    4.94    0.38 
  -5  -5   4    5.01    0.65 
  -5  -5   4    5.64    0.52 
  -5  -5   4    4.97    0.40 
  -5  -5   4    5.34    0.62 
  -5   5   4    5.42    0.29 
  -5   5   4    4.89    0.40 
  -5   5   4    5.47    0.32 
  -5   5   4    5.30    0.53 
  -5   5   4    4.95    0.32 
  -5   5   4    5.89    0.30 
  -5   5   4    5.86    0.43 
  -5   5   4    5.40    0.30 
  -5   5   4    4.57    0.60 
  -5   5   4    5.19    0.31 
  -4  -5   4   26.15    1.40 
  -4  -5   4   26.52    1.36 
  -4  -5   4   25.86    1.26 
  -4  -5   4   27.58    1.33 
  -4  -5   4   25.33    1.35 
  -4  -5   4   27.95    1.54 
  -4  -5   4   23.77    1.34 
   4  -5  -4   23.81    1.27 
  -4  -5   4   26.67    1.54 
  -4  -5   4   26.33    1.38 
  -4  -5   4   27.56    1.58 
  -4   5   4   25.50    1.32 
  -4   5   4   24.73    1.30 
  -4   5   4   26.92    1.28 
  -4   5   4   26.48    1.59 
   4   5  -4   28.85    1.31 
  -4   5   4   25.20    1.30 
  -4   5   4   27.49    1.36 
  -3  -5   4   44.67    2.46 
  -3  -5   4   48.64    2.28 
  -3  -5   4   51.71    2.31 
  -3  -5   4   48.03    2.45 
  -3  -5   4   43.90    2.43 
   3  -5  -4   44.04    2.40 
  -3  -5   4   48.75    2.33 
  -3  -5   4   46.58    2.31 
  -3  -5   4   44.05    2.54 
   3  -5  -4   49.60    2.25 
  -3  -5   4   48.65    2.37 
   3  -5  -4   46.36    2.24 
   3   5  -4   45.88    2.50 
  -3   5   4   46.81    2.37 
  -3   5   4   46.15    2.31 
   3   5  -4   44.68    2.62 
  -3   5   4   46.22    2.28 
  -3   5   4   44.77    2.25 
  -3   5   4   48.57    2.27 
  -3   5   4   47.75    2.28 
  -3   5   4   48.66    2.50 
   3   5  -4   48.51    2.26 
  -3   5   4   49.28    2.42 
  -2  -5   4   13.80    0.84 
  -2  -5   4   12.78    0.83 
   2  -5  -4   10.82    0.80 
  -2  -5   4   12.36    0.78 
  -2  -5   4   13.59    0.71 
   2  -5  -4   11.42    0.65 
  -2  -5   4   12.11    0.70 
   2  -5  -4   13.47    0.93 
   2  -5  -4   13.03    0.66 
  -2   5   4   13.12    0.88 
  -2   5   4   12.74    0.68 
  -2   5   4   11.90    0.86 
  -2   5   4   12.63    0.99 
  -2   5   4   12.24    0.84 
   2   5  -4   12.47    1.08 
  -2   5   4   11.44    0.69 
   2   5  -4   12.81    0.88 
   2   5  -4   13.53    0.83 
  -2   5   4   12.76    0.74 
   2   5  -4   12.61    0.66 
  -2   5   4   11.53    0.82 
  -2   5   4   14.46    1.04 
  -2   5   4   12.51    0.72 
   1  -5  -4    1.95    0.35 
  -1  -5   4    1.77    0.25 
   1  -5  -4    0.98    0.38 
  -1  -5   4    2.02    0.37 
  -1  -5   4    1.24    0.36 
   1  -5  -4    1.37    0.19 
  -1  -5   4    1.69    0.26 
  -1  -5   4    1.50    0.37 
  -1  -5   4    1.14    0.25 
  -1  -5   4    1.60    0.30 
  -1   5   4    1.60    0.29 
   1   5  -4    1.71    0.33 
   1   5  -4    1.28    0.37 
  -1   5   4    1.24    0.46 
  -1   5   4    1.52    0.25 
  -1   5   4    1.32    0.25 
   1   5  -4    1.50    0.24 
   1   5  -4    1.36    0.35 
  -1   5   4    1.74    0.52 
  -1   5   4    1.33    0.38 
   1   5  -4    1.67    0.54 
  -1   5   4    1.28    0.32 
   1   5  -4    1.33    0.23 
   1   5  -4    1.18    0.21 
   1   5  -4    1.63    0.29 
   0  -5   4   11.47    0.83 
   0  -5  -4   11.36    0.62 
   0  -5  -4   12.01    0.84 
   0  -5  -4   11.75    0.80 
   0  -5  -4   11.32    0.68 
   0  -5   4   10.79    0.61 
   0  -5   4   12.42    0.83 
   0  -5  -4   11.63    0.67 
   0   5   4   12.12    0.71 
   0   5  -4   11.66    0.65 
   0   5  -4   12.46    0.75 
   0   5  -4   11.45    0.67 
   0   5  -4   11.95    0.71 
   0   5   4   10.50    0.68 
   0   5  -4   11.60    0.99 
   0   5   4   11.78    0.70 
   0   5  -4   11.40    0.65 
   0   5   4   12.07    0.82 
   0   5   4   12.20    0.80 
   0   5   4   11.88    0.97 
  -1  -5  -4   82.54    3.82 
   1  -5   4   79.10    3.77 
  -1  -5  -4   76.68    3.88 
  -1  -5  -4   80.64    3.94 
  -1  -5  -4   77.01    3.82 
   1  -5   4   72.20    4.16 
   1  -5   4   84.59    4.02 
  -1  -5  -4   78.42    3.80 
   1   5   4   77.73    4.17 
  -1   5  -4   79.75    3.81 
  -1   5  -4   80.44    3.80 
   1   5   4   83.67    3.78 
  -1   5  -4   78.36    3.79 
  -1   5  -4   80.55    3.87 
   1   5   4   82.55    4.01 
  -1   5  -4   81.19    4.23 
  -1   5  -4   79.76    4.07 
  -1   5  -4   77.85    3.85 
  -1   5  -4   80.83    3.83 
   1   5   4   79.69    3.88 
   1   5   4   83.26    3.96 
  -2  -5  -4    0.82    0.21 
  -2  -5  -4    0.33    0.20 
  -2  -5  -4    0.35    0.29 
  -2  -5  -4    1.05    0.36 
  -2  -5  -4    0.83    0.20 
  -2  -5  -4    0.56    0.20 
  -2  -5  -4    0.41    0.24 
  -2  -5  -4    0.20    0.47 
   2  -5   4    0.73    0.17 
   2  -5   4    0.07    0.27 
  -2   5  -4    0.54    0.19 
   2   5   4    1.02    0.43 
   2   5   4    0.51    0.17 
  -2   5  -4    0.57    0.19 
  -2   5  -4    0.77    0.23 
  -2   5  -4    0.69    0.15 
  -2   5  -4    0.87    0.37 
  -2   5  -4    0.72    0.23 
   2   5   4    0.15    0.37 
  -2   5  -4    0.98    0.51 
   3  -5   4    1.78    0.23 
  -3  -5  -4    2.09    0.40 
  -3  -5  -4    1.58    0.41 
  -3  -5  -4    1.53    0.31 
  -3  -5  -4    1.86    0.35 
  -3  -5  -4    1.77    0.51 
  -3  -5  -4    1.57    0.26 
  -3  -5  -4    1.86    0.39 
  -3  -5  -4    1.53    0.42 
  -3  -5  -4    2.11    0.33 
   3  -5   4    1.37    0.21 
  -3  -5  -4    2.36    0.41 
  -3   5  -4    1.51    0.27 
  -3   5  -4    1.51    0.25 
  -3   5  -4    1.70    0.48 
  -3   5  -4    1.44    0.28 
   3   5   4    1.63    0.27 
  -3   5  -4    2.05    0.27 
  -3   5  -4    1.74    0.25 
  -4  -5  -4    9.24    0.59 
  -4  -5  -4    8.42    0.58 
  -4  -5  -4    9.66    0.58 
  -4  -5  -4    9.06    0.77 
  -4  -5  -4    8.68    0.60 
  -4  -5  -4    9.36    0.59 
  -4  -5  -4    8.17    0.58 
  -4  -5  -4    9.10    0.61 
  -4  -5  -4    9.42    0.56 
  -4  -5  -4    9.40    0.68 
  -4  -5  -4    9.27    0.59 
  -4  -5  -4    8.93    0.62 
  -4  -5  -4    8.59    0.58 
  -4  -5  -4    8.96    0.65 
  -4   5  -4    8.81    0.54 
  -4   5  -4    8.52    0.51 
  -4   5  -4    7.82    0.62 
  -4   5  -4    9.98    0.51 
  -4   5  -4    8.80    0.52 
  -4   5  -4    8.64    0.51 
  -4   5  -4    9.16    0.81 
  -4   5  -4    8.83    0.48 
   4   5   4    8.02    0.57 
  -4   5  -4    8.54    0.53 
  -5  -5  -4    5.61    0.42 
  -5  -5  -4    4.10    0.39 
  -5  -5  -4    4.98    0.31 
  -5  -5  -4    4.49    0.34 
  -5  -5  -4    4.90    0.45 
  -5  -5  -4    3.76    0.42 
  -5  -5  -4    5.01    0.37 
  -5  -5  -4    4.86    0.38 
  -5  -5  -4    4.63    0.34 
  -5  -5  -4    4.64    0.43 
  -5  -5  -4    5.03    0.37 
  -5   5  -4    4.68    0.28 
  -5   5  -4    5.45    0.58 
  -5   5  -4    4.94    0.27 
   5   5   4    4.49    0.37 
  -5   5  -4    4.79    0.27 
  -5   5  -4    5.01    0.26 
  -5   5  -4    4.74    0.29 
  -6  -6   4   12.63    0.69 
  -6  -6   4   13.61    0.66 
  -6  -6   4   12.98    0.68 
  -6  -6   4   13.50    0.77 
  -6  -6   4   13.09    0.69 
  -6  -6   4   11.79    0.68 
  -6  -6   4   12.72    0.82 
  -6   6   4   13.58    0.62 
  -6   6   4   12.76    0.62 
  -6   6   4   13.10    0.62 
  -6   6   4   12.90    0.85 
  -5  -6   4    9.85    0.89 
  -5  -6   4    9.89    0.65 
  -5  -6   4   11.94    0.64 
  -5  -6   4   11.08    0.88 
  -5  -6   4   10.97    0.63 
  -5  -6   4   10.82    0.68 
  -5  -6   4   11.36    0.64 
  -5  -6   4   11.45    0.67 
  -5  -6   4   11.14    0.63 
  -5  -6   4   10.22    0.71 
  -5  -6   4   11.27    0.65 
  -5  -6   4   12.12    0.82 
  -5  -6   4   11.12    0.82 
  -5  -6   4   11.27    0.67 
  -5   6   4   11.51    0.56 
  -5   6   4   11.56    0.56 
  -5   6   4   10.32    0.65 
   5   6  -4    9.99    0.66 
  -5   6   4   10.42    0.80 
  -5   6   4   11.38    0.58 
  -5   6   4   11.53    0.58 
  -5   6   4   11.09    0.82 
  -5   6   4   11.79    0.57 
  -4  -6   4   25.49    1.46 
  -4  -6   4   25.77    1.24 
  -4  -6   4   23.88    1.27 
  -4  -6   4   26.09    1.18 
  -4  -6   4   24.73    1.47 
  -4  -6   4   20.46    1.42 
  -4  -6   4   25.13    1.26 
  -4  -6   4   23.75    1.26 
  -4  -6   4   22.41    1.32 
   4  -6  -4   22.63    1.18 
  -4   6   4   24.08    1.27 
   4   6  -4   23.23    1.21 
  -4   6   4   24.15    1.21 
  -4   6   4   24.30    1.24 
  -4   6   4   24.53    1.21 
  -4   6   4   25.50    1.51 
  -4   6   4   22.22    1.34 
  -4   6   4   25.08    1.20 
   3  -6  -4   11.27    0.58 
  -3  -6   4   10.79    0.68 
  -3  -6   4   11.25    0.76 
   3  -6  -4   11.34    0.79 
  -3  -6   4   11.13    0.65 
  -3  -6   4   10.28    0.81 
  -3  -6   4   10.05    0.66 
  -3  -6   4   10.60    1.07 
   3  -6  -4   10.58    0.59 
  -3  -6   4    9.79    0.63 
   3   6  -4   10.84    0.60 
  -3   6   4   11.71    0.74 
  -3   6   4   11.93    0.65 
   3   6  -4   10.69    0.88 
  -3   6   4   10.61    0.64 
  -3   6   4   11.34    0.97 
  -3   6   4   10.73    0.60 
  -3   6   4   10.41    0.63 
  -3   6   4   11.18    0.63 
  -3   6   4   10.65    0.86 
  -3   6   4   10.23    0.80 
  -2  -6   4   20.01    1.03 
  -2  -6   4   19.45    1.00 
  -2  -6   4   19.38    1.16 
   2  -6  -4   19.80    1.16 
   2  -6  -4   17.77    1.20 
  -2  -6   4   20.70    1.12 
   2  -6  -4   19.72    0.96 
  -2   6   4   17.80    1.18 
  -2   6   4   19.24    0.99 
  -2   6   4   18.27    1.19 
  -2   6   4   14.59    1.15 
   2   6  -4   19.27    1.21 
  -2   6   4   19.66    1.18 
  -2   6   4   19.33    1.04 
   2   6  -4   18.64    0.96 
   2   6  -4   19.92    1.16 
  -2   6   4   19.55    1.04 
  -2   6   4   19.53    1.34 
  -1  -6   4    3.07    0.32 
  -1  -6   4    3.39    0.37 
   1  -6  -4    2.61    0.48 
  -1  -6   4    3.79    0.44 
   1  -6  -4    2.78    0.43 
   1  -6  -4    2.87    0.25 
  -1  -6   4    3.50    0.37 
  -1  -6   4    2.75    0.50 
  -1  -6   4    2.68    0.46 
   1   6  -4    3.12    0.40 
   1   6  -4    3.24    0.44 
  -1   6   4    3.22    0.37 
  -1   6   4    3.57    0.62 
  -1   6   4    3.30    0.32 
   1   6  -4    2.84    0.39 
   1   6  -4    3.41    0.45 
  -1   6   4    2.65    0.39 
  -1   6   4    3.02    0.61 
   1   6  -4    3.27    0.32 
  -1   6   4    2.44    0.43 
   1   6  -4    3.42    0.31 
   0  -6  -4   10.22    0.65 
   0  -6  -4   11.15    0.61 
   0  -6   4   10.57    0.81 
   0  -6   4   10.74    0.83 
   0  -6  -4   10.36    0.66 
   0  -6  -4    9.39    0.76 
   0  -6  -4   10.78    0.79 
   0  -6  -4   10.55    0.83 
   0  -6   4   10.62    0.59 
   0   6  -4    9.12    0.64 
   0   6  -4   11.19    0.63 
   0   6   4   10.81    0.65 
   0   6   4   10.79    0.70 
   0   6   4   11.65    1.01 
   0   6  -4   12.67    0.62 
   0   6   4   10.64    0.78 
   0   6  -4   10.66    0.74 
   0   6   4   10.63    0.81 
   0   6   4   11.66    0.67 
   0   6  -4   12.01    0.70 
   0   6  -4   10.83    0.63 
   1  -6   4   41.19    2.08 
  -1  -6  -4   45.21    2.15 
  -1  -6  -4   43.67    2.21 
  -1  -6  -4   43.16    2.12 
  -1  -6  -4   46.75    2.29 
  -1  -6  -4   42.24    2.13 
   1  -6   4   44.93    2.36 
  -1   6  -4   44.81    2.18 
  -1   6  -4   43.74    2.16 
   1   6   4   45.38    2.18 
  -1   6  -4   43.17    2.10 
  -1   6  -4   43.81    2.20 
  -1   6  -4   36.34    2.49 
   1   6   4   44.20    2.30 
   1   6   4   42.39    2.34 
  -1   6  -4   42.56    2.13 
  -1   6  -4   40.81    2.12 
  -1   6  -4   43.76    2.11 
   1   6   4   43.56    2.15 
  -1   6  -4   44.39    2.41 
  -2  -6  -4   25.52    1.80 
  -2  -6  -4   25.59    1.30 
  -2  -6  -4   23.99    1.35 
  -2  -6  -4   26.16    1.34 
   2  -6   4   26.23    1.26 
  -2  -6  -4   25.31    1.31 
  -2  -6  -4   26.59    1.43 
  -2   6  -4   23.81    1.25 
  -2   6  -4   26.59    1.35 
  -2   6  -4   23.57    1.29 
  -2   6  -4   26.34    1.50 
   2   6   4   26.90    1.27 
  -2   6  -4   22.31    1.67 
   2   6   4   24.65    1.50 
  -2   6  -4   24.91    1.34 
  -2   6  -4   23.34    1.29 
  -3  -6  -4    3.50    0.47 
  -3  -6  -4    2.78    0.44 
  -3  -6  -4    4.06    0.45 
  -3  -6  -4    4.46    0.48 
  -3  -6  -4    4.47    0.48 
  -3  -6  -4    3.52    0.40 
  -3  -6  -4    4.05    0.50 
  -3  -6  -4    3.80    0.34 
  -3  -6  -4    3.83    0.46 
  -3  -6  -4    4.14    0.26 
  -3  -6  -4    4.22    0.53 
   3  -6   4    4.50    0.32 
  -3  -6  -4    5.06    0.46 
  -3  -6  -4    4.14    0.39 
  -3  -6  -4    4.32    0.43 
  -3  -6  -4    4.16    0.35 
  -3  -6  -4    4.64    0.42 
  -3  -6  -4    4.84    0.37 
  -3  -6  -4    3.38    0.61 
  -3  -6  -4    4.02    0.48 
  -3  -6  -4    3.99    0.46 
  -3  -6  -4    4.69    0.57 
  -3   6  -4    4.52    0.39 
   3   6   4    4.62    0.43 
  -3   6  -4    3.78    0.36 
  -3   6  -4    3.98    0.68 
  -3   6  -4    4.37    0.36 
  -3   6  -4    4.23    0.35 
  -3   6  -4    4.56    0.33 
   3   6   4    4.36    0.55 
  -3   6  -4    3.53    0.34 
  -3   6  -4    3.54    0.36 
  -3   6  -4    3.82    0.32 
  -3   6  -4    4.27    0.58 
   3   6   4    4.10    0.36 
  -3   6  -4    3.69    0.33 
  -4  -6  -4    4.29    0.45 
  -4  -6  -4    3.41    0.45 
  -4  -6  -4    3.20    0.41 
  -4  -6  -4    4.08    0.41 
  -4  -6  -4    2.71    0.53 
  -4  -6  -4    3.69    0.40 
  -4  -6  -4    3.48    0.40 
  -4  -6  -4    3.56    0.36 
  -4  -6  -4    4.32    0.58 
  -4  -6  -4    3.77    0.39 
  -4  -6  -4    4.95    0.52 
  -4  -6  -4    3.47    0.40 
  -4  -6  -4    3.71    0.43 
  -4  -6  -4    3.54    0.38 
  -4  -6  -4    3.51    0.52 
  -4   6  -4    3.91    0.29 
  -4   6  -4    4.18    0.41 
  -4   6  -4    3.35    0.25 
   4   6   4    3.77    0.38 
  -4   6  -4    3.61    0.31 
   4   6   4    2.94    0.47 
  -4   6  -4    3.47    0.31 
  -4   6  -4    3.32    0.29 
  -4   6  -4    3.88    0.30 
  -4   6  -4    3.22    0.63 
  -5  -6  -4   17.71    0.87 
  -5  -6  -4   18.34    0.92 
  -5  -6  -4   15.02    0.89 
  -5  -6  -4   17.09    0.88 
  -5  -6  -4   17.64    0.86 
  -5  -6  -4   18.57    0.88 
  -5  -6  -4   15.87    0.89 
  -5  -6  -4   16.64    0.92 
  -5  -6  -4   17.68    0.89 
  -5   6  -4   16.64    0.83 
  -5   6  -4   17.65    1.01 
  -5   6  -4   16.55    0.82 
  -5   6  -4   17.56    0.82 
  -5   6  -4   17.05    0.83 
   5   6   4   17.72    0.89 
  -5   6  -4   16.89    0.82 
  -5   6  -4   17.49    0.81 
  -6  -7   4    9.42    0.49 
  -6  -7   4    7.66    0.48 
  -6  -7   4    8.65    0.44 
  -6  -7   4    8.67    0.50 
  -6  -7   4    7.94    0.46 
  -6  -7   4    8.19    0.47 
  -6  -7   4    9.20    0.60 
  -6   7   4    8.31    0.61 
  -6   7   4    8.52    0.40 
  -6   7   4    8.12    0.41 
   6   7  -4    8.06    0.47 
  -6   7   4    8.52    0.40 
  -5  -7   4    3.08    0.31 
  -5  -7   4    2.69    0.35 
  -5  -7   4    3.02    0.31 
  -5  -7   4    2.29    0.31 
  -5  -7   4    3.26    0.30 
  -5  -7   4    2.50    0.53 
  -5  -7   4    2.76    0.29 
  -5  -7   4    2.75    0.33 
  -5  -7   4    3.04    0.32 
  -5  -7   4    3.54    0.52 
  -5  -7   4    3.11    0.35 
  -5  -7   4    2.95    0.49 
  -5   7   4    3.59    0.34 
   5   7  -4    2.89    0.31 
  -5   7   4    3.03    0.19 
  -5   7   4    3.20    0.49 
  -5   7   4    2.70    0.20 
  -5   7   4    2.61    0.23 
  -5   7   4    2.77    0.21 
  -5   7   4    2.56    0.20 
  -4  -7   4   45.47    2.24 
  -4  -7   4   44.78    2.20 
  -4  -7   4   45.45    2.24 
  -4  -7   4   48.32    2.32 
  -4  -7   4   44.80    2.44 
  -4  -7   4   45.83    2.41 
  -4  -7   4   47.26    2.21 
  -4  -7   4   48.61    2.27 
  -4  -7   4   45.12    2.15 
  -4  -7   4   46.92    2.25 
  -4  -7   4   43.60    2.15 
  -4  -7   4   44.36    2.16 
  -4  -7   4   42.44    2.14 
  -4  -7   4   45.02    2.23 
  -4  -7   4   44.06    2.23 
  -4  -7   4   42.36    2.16 
  -4   7   4   47.27    2.18 
  -4   7   4   44.93    2.36 
  -4   7   4   47.11    2.18 
  -4   7   4   44.98    2.31 
  -4   7   4   46.13    2.17 
  -4   7   4   43.27    2.16 
  -4   7   4   44.75    2.14 
  -4   7   4   39.56    2.29 
   4   7  -4   42.98    2.19 
  -4   7   4   48.72    2.17 
  -4   7   4   48.30    2.20 
  -4   7   4   44.71    2.46 
   4   7  -4   44.39    2.18 
  -4   7   4   44.13    2.17 
   4   7  -4   42.40    2.24 
  -3  -7   4    8.60    0.67 
  -3  -7   4    7.74    0.59 
  -3  -7   4    8.37    0.54 
  -3  -7   4    6.97    1.43 
  -3  -7   4    8.12    0.74 
   3  -7  -4    7.72    0.47 
   3  -7  -4    8.05    0.46 
  -3  -7   4    8.04    0.66 
  -3   7   4    7.00    0.52 
  -3   7   4    7.71    0.50 
  -3   7   4    8.14    0.53 
  -3   7   4    8.06    0.49 
  -3   7   4    7.61    0.62 
  -3   7   4    7.82    0.75 
  -3   7   4    7.77    0.53 
   3   7  -4    8.06    0.48 
  -3   7   4    7.83    0.52 
  -3   7   4    9.22    0.73 
  -2  -7   4    0.84    0.35 
  -2  -7   4    1.37    0.37 
   2  -7  -4    1.22    0.39 
  -2  -7   4    1.24    0.28 
  -2  -7   4    1.05    0.30 
   2  -7  -4    1.12    0.21 
  -2  -7   4    1.45    0.29 
   2  -7  -4    1.46    0.48 
  -2   7   4    1.25    0.44 
  -2   7   4    0.85    0.22 
  -2   7   4    1.23    0.28 
  -2   7   4    1.14    0.54 
   2   7  -4    1.15    0.45 
  -2   7   4    1.24    0.33 
  -2   7   4    1.33    0.49 
  -2   7   4    1.12    0.26 
   2   7  -4    1.20    0.43 
  -2   7   4    0.75    0.24 
  -2   7   4    1.28    0.57 
   2   7  -4    1.00    0.20 
   1  -7  -4   25.02    1.16 
  -1  -7   4   21.96    1.21 
  -1  -7   4   23.97    1.39 
   1  -7  -4   25.03    1.45 
  -1  -7   4   21.33    1.20 
  -1  -7   4   23.23    1.40 
   1  -7  -4   23.49    1.39 
  -1  -7   4   23.57    1.23 
   1   7  -4   23.76    1.21 
   1   7  -4   24.56    1.36 
  -1   7   4   22.09    1.19 
  -1   7   4   21.92    1.35 
   1   7  -4   21.21    1.24 
  -1   7   4   22.02    1.25 
  -1   7   4   22.17    1.23 
   1   7  -4   23.31    1.27 
   1   7  -4   21.77    1.36 
   1   7  -4   23.18    1.21 
  -1   7   4   24.80    1.64 
   0  -7   4    0.30    0.36 
   0  -7  -4    0.46    0.35 
   0  -7  -4    0.55    0.20 
   0  -7  -4    0.32    0.22 
   0  -7  -4    0.48    0.22 
   0  -7   4    0.39    0.15 
   0  -7  -4    0.61    0.36 
   0  -7   4    1.09    0.43 
   0   7  -4    0.52    0.27 
   0   7   4    0.50    0.30 
   0   7   4    0.28    0.22 
   0   7  -4    0.37    0.21 
   0   7  -4    0.28    0.36 
   0   7  -4    0.33    0.19 
   0   7  -4    0.59    0.18 
   0   7   4    0.53    0.28 
   0   7  -4    0.55    0.20 
   0   7   4    0.55    0.47 
  -1  -7  -4    6.94    0.51 
   1  -7   4    6.96    0.43 
  -1  -7  -4    7.18    0.63 
  -1  -7  -4    7.26    0.50 
  -1  -7  -4    7.26    0.53 
  -1  -7  -4    6.63    0.66 
  -1   7  -4    5.76    0.48 
  -1   7  -4    4.50    0.74 
   1   7   4    9.98    1.11 
   1   7   4    7.03    0.69 
   1   7   4    6.62    0.51 
  -1   7  -4    7.20    0.46 
  -1   7  -4    6.00    0.43 
  -1   7  -4    6.61    0.51 
  -1   7  -4    6.60    0.45 
  -1   7  -4    6.33    0.56 
   1   7   4    7.13    0.59 
  -1   7  -4    7.29    0.57 
  -2  -7  -4   40.67    2.04 
  -2  -7  -4   42.89    2.07 
  -2  -7  -4   38.51    2.11 
   2  -7   4   38.51    2.00 
  -2  -7  -4   42.26    2.10 
  -2  -7  -4   41.81    2.17 
   2   7   4   39.51    2.25 
  -2   7  -4   43.73    2.10 
  -2   7  -4   41.70    2.02 
  -2   7  -4   42.34    2.06 
  -2   7  -4   43.33    2.27 
  -2   7  -4   42.60    2.01 
   2   7   4   42.38    2.02 
  -2   7  -4   37.75    1.96 
  -2   7  -4   41.68    2.10 
  -2   7  -4   40.35    2.05 
  -3  -7  -4    9.25    0.60 
  -3  -7  -4    8.66    0.55 
  -3  -7  -4    8.49    0.57 
  -3  -7  -4    9.67    0.46 
  -3  -7  -4    9.11    0.73 
  -3  -7  -4    9.50    0.67 
  -3  -7  -4    8.52    0.73 
  -3  -7  -4    8.44    0.54 
   3  -7   4    8.87    0.61 
  -3  -7  -4    9.40    0.62 
  -3  -7  -4    8.72    0.71 
  -3  -7  -4    9.29    0.63 
  -3  -7  -4    9.00    0.55 
  -3  -7  -4    9.28    0.66 
  -3  -7  -4   10.48    0.68 
  -3  -7  -4    8.60    0.80 
  -3  -7  -4    8.07    0.68 
  -3  -7  -4    9.87    0.67 
  -3  -7  -4    8.26    0.66 
  -3  -7  -4    8.41    0.60 
  -3   7  -4    9.76    0.82 
  -3   7  -4    8.61    0.76 
  -3   7  -4   10.08    0.57 
  -3   7  -4    8.15    0.52 
  -3   7  -4    9.24    0.53 
  -3   7  -4    9.03    0.58 
   3   7   4    8.79    0.68 
  -3   7  -4    9.31    0.54 
   3   7   4    9.12    0.60 
  -3   7  -4    9.26    0.56 
  -3   7  -4    9.17    0.55 
  -4  -7  -4    3.31    0.40 
  -4  -7  -4    3.09    0.38 
  -4  -7  -4    2.86    0.42 
  -4  -7  -4    3.22    0.37 
  -4  -7  -4    3.15    0.36 
  -4  -7  -4    3.10    0.40 
  -4  -7  -4    2.99    0.35 
  -4  -7  -4    3.15    0.40 
  -4  -7  -4    2.64    0.37 
  -4  -7  -4    3.14    0.35 
  -4  -7  -4    2.92    0.37 
   4   7   4    3.06    0.43 
  -4   7  -4    3.18    0.23 
  -4   7  -4    3.08    0.59 
  -4   7  -4    3.53    0.26 
  -4   7  -4    3.00    0.28 
  -4   7  -4    3.38    0.28 
   4   7   4    2.69    0.36 
  -4   7  -4    3.61    0.27 
  -5  -7  -4    1.19    0.19 
  -5  -7  -4    0.76    0.18 
  -5  -7  -4    1.33    0.17 
  -5  -7  -4    1.10    0.18 
  -5  -7  -4    1.06    0.23 
  -5  -7  -4    1.25    0.27 
  -5  -7  -4    0.98    0.22 
  -5  -7  -4    1.06    0.17 
  -5  -7  -4    0.88    0.17 
  -5   7  -4    0.39    0.19 
  -5   7  -4    1.01    0.11 
   5   7   4    1.17    0.26 
   5   7   4    0.72    0.19 
  -5   7  -4    0.89    0.10 
  -6  -8   4    3.12    0.31 
  -6  -8   4    2.79    0.42 
  -6  -8   4    3.66    0.26 
  -6  -8   4    2.82    0.21 
  -6  -8   4    3.58    0.24 
  -6  -8   4    3.46    0.24 
  -6   8   4    4.20    0.40 
   6   8  -4    3.46    0.24 
  -6   8   4    3.58    0.18 
  -5  -8   4    8.37    0.50 
  -5  -8   4    8.45    0.52 
  -5  -8   4    8.65    0.53 
  -5  -8   4    9.12    0.55 
  -5  -8   4    8.10    0.63 
  -5  -8   4    8.05    0.54 
  -5  -8   4    8.56    0.53 
  -5  -8   4    8.43    0.55 
  -5   8   4    8.72    0.45 
  -5   8   4    8.50    0.44 
  -5   8   4    9.18    0.68 
  -5   8   4    8.93    0.45 
   5   8  -4    8.00    0.56 
  -5   8   4    8.58    0.46 
   5   8  -4    8.24    0.51 
  -5   8   4    9.00    0.44 
  -5   8   4    8.52    0.53 
  -4  -8   4   -0.16    0.24 
  -4  -8   4    0.15    0.12 
  -4  -8   4   -0.07    0.40 
  -4  -8   4    0.12    0.21 
  -4  -8   4   -0.14    0.11 
  -4  -8   4    0.21    0.20 
  -4  -8   4    0.05    0.20 
  -4  -8   4   -0.01    0.13 
  -4  -8   4   -0.08    0.17 
  -4  -8   4    0.09    0.15 
  -4  -8   4    0.10    0.24 
  -4  -8   4    0.10    0.20 
  -4  -8   4    0.03    0.21 
  -4  -8   4   -0.05    0.16 
  -4  -8   4    0.27    0.30 
  -4  -8   4    0.12    0.20 
  -4   8   4    0.02    0.29 
  -4   8   4   -0.32    0.26 
  -4   8   4   -0.09    0.18 
  -4   8   4    0.30    0.26 
  -4   8   4   -0.02    0.11 
  -4   8   4    0.14    0.12 
  -4   8   4   -0.10    0.13 
  -4   8   4   -0.35    0.13 
  -4   8   4   -0.20    0.30 
   4   8  -4    0.14    0.17 
   4   8  -4   -0.10    0.20 
  -4   8   4    0.14    0.15 
  -4   8   4   -0.07    0.15 
  -4   8   4   -0.04    0.16 
  -3  -8   4   31.88    1.52 
  -3  -8   4   24.63    1.57 
  -3  -8   4   31.99    1.58 
  -3  -8   4   29.11    1.50 
  -3  -8   4   30.41    1.50 
  -3  -8   4   32.45    1.71 
  -3  -8   4   26.19    1.55 
   3  -8  -4   28.63    1.45 
  -3  -8   4   25.55    1.60 
  -3  -8   4   30.92    1.63 
  -3  -8   4   30.96    1.55 
  -3   8   4   30.87    1.46 
   3   8  -4   23.58    1.60 
   3   8  -4   27.47    1.67 
  -3   8   4   33.33    1.70 
   3   8  -4   28.36    1.45 
  -3   8   4   25.91    1.53 
  -3   8   4   30.89    1.58 
  -3   8   4   31.22    1.49 
  -3   8   4   26.34    1.50 
  -3   8   4   30.14    1.48 
  -3   8   4   28.58    1.58 
  -3   8   4   31.28    1.49 
  -3   8   4   31.46    1.77 
  -3   8   4   24.76    1.81 
   3   8  -4   32.35    1.54 
  -2  -8   4   37.78    1.76 
  -2  -8   4   34.42    1.86 
  -2  -8   4   34.66    1.92 
   2  -8  -4   34.18    1.69 
  -2  -8   4   34.32    1.75 
   2   8  -4   36.25    1.93 
  -2   8   4   34.45    1.71 
  -2   8   4   33.67    1.68 
  -2   8   4   28.12    2.08 
   2   8  -4   37.45    1.82 
  -2   8   4   32.98    1.73 
   2   8  -4   29.75    1.79 
  -2   8   4   36.20    1.98 
  -2   8   4   33.03    1.75 
  -2   8   4   34.56    1.74 
  -2   8   4   37.23    1.79 
  -2   8   4   34.63    1.78 
  -2   8   4   39.14    1.98 
  -1  -8   4   16.31    1.12 
   1  -8  -4   16.13    0.82 
   1  -8  -4   15.24    1.08 
  -1  -8   4   14.64    0.89 
  -1  -8   4   14.92    0.89 
  -1  -8   4   16.43    0.90 
  -1   8   4   12.26    1.27 
  -1   8   4   16.83    1.33 
   1   8  -4   15.49    1.01 
   1   8  -4   14.58    0.94 
  -1   8   4   14.82    0.94 
   1   8  -4   14.79    0.86 
   1   8  -4   15.38    0.87 
  -1   8   4   15.84    0.87 
  -1   8   4   15.96    0.91 
   1   8  -4   15.72    0.89 
   0  -8  -4    8.37    0.77 
   0  -8  -4    9.31    0.62 
   0  -8  -4    9.09    0.63 
   0  -8   4    8.65    0.77 
   0  -8  -4    8.49    0.63 
   0  -8   4    7.79    0.49 
   0   8  -4    7.84    0.65 
   0   8   4    8.41    0.57 
   0   8  -4    8.69    0.55 
   0   8   4    7.14    0.49 
   0   8  -4    9.18    0.65 
   0   8  -4    8.71    0.48 
   0   8  -4    7.55    0.59 
   0   8  -4    7.84    0.53 
   0   8   4    6.71    0.88 
   0   8   4    8.19    0.67 
   0   8   4    8.55    0.74 
  -1  -8  -4    3.61    0.41 
  -1  -8  -4    3.01    0.41 
  -1  -8  -4    3.91    0.52 
  -1  -8  -4    3.99    0.46 
  -1  -8  -4    3.29    0.35 
  -1  -8  -4    4.01    0.56 
   1  -8   4    2.82    0.30 
   1   8   4    4.31    0.63 
  -1   8  -4    1.75    0.40 
  -1   8  -4    3.50    0.46 
  -1   8  -4    4.17    0.31 
   1   8   4    3.26    0.41 
  -1   8  -4    3.94    0.47 
   1   8   4    4.14    0.49 
  -1   8  -4    3.65    0.41 
  -1   8  -4    2.86    0.32 
  -2  -8  -4    6.78    0.57 
  -2  -8  -4    7.15    0.54 
  -2  -8  -4    6.68    0.57 
  -2  -8  -4    6.26    0.52 
  -2  -8  -4    6.93    0.59 
  -2  -8  -4    7.27    0.67 
  -2  -8  -4    6.28    0.52 
  -2  -8  -4    6.75    0.44 
   2  -8   4    6.75    0.46 
   2  -8   4    6.82    0.49 
  -2  -8  -4    7.07    0.69 
  -2  -8  -4    7.38    0.51 
  -2  -8  -4    7.62    0.54 
  -2  -8  -4    6.95    0.67 
  -2  -8  -4    6.35    0.43 
  -2   8  -4    7.71    0.49 
  -2   8  -4    7.12    0.46 
  -2   8  -4    7.64    0.56 
   2   8   4    6.00    0.57 
   2   8   4    7.48    0.78 
  -2   8  -4    7.04    0.49 
  -2   8  -4    6.92    0.52 
  -2   8  -4    6.62    0.51 
   2   8   4    6.13    0.75 
   2   8   4    6.54    0.50 
   2   8   4    6.77    0.60 
  -2   8  -4    7.33    0.79 
  -2   8  -4    7.13    0.56 
  -2   8  -4    7.78    0.40 
   2   8   4    7.23    0.60 
  -2   8  -4    7.18    0.50 
  -2   8  -4    6.85    0.38 
  -2   8  -4    7.03    0.41 
  -2   8  -4    6.56    0.50 
  -2   8  -4    7.57    0.75 
  -3  -8  -4   33.00    1.79 
   3  -8   4   31.60    1.70 
  -3  -8  -4   34.98    1.69 
  -3  -8  -4   34.89    1.68 
  -3  -8  -4   35.85    1.82 
  -3  -8  -4   33.69    1.83 
  -3  -8  -4   33.46    1.80 
  -3  -8  -4   34.49    1.79 
  -3  -8  -4   36.10    1.78 
  -3  -8  -4   36.28    1.74 
  -3  -8  -4   34.22    1.75 
  -3  -8  -4   34.88    1.66 
  -3  -8  -4   36.42    1.68 
  -3  -8  -4   32.78    1.68 
  -3  -8  -4   36.00    1.68 
  -3  -8  -4   32.95    1.75 
  -3  -8  -4   34.40    1.79 
  -3   8  -4   30.87    1.86 
   3   8   4   35.79    1.77 
  -3   8  -4   34.78    1.73 
  -3   8  -4   36.23    1.90 
  -3   8  -4   32.95    1.69 
  -3   8  -4   35.40    1.71 
   3   8   4   35.38    1.76 
  -3   8  -4   33.48    1.69 
   3   8   4   33.45    1.71 
  -3   8  -4   37.16    1.69 
  -3   8  -4   34.95    1.69 
   3   8   4   33.92    1.76 
  -4  -8  -4    0.29    0.16 
  -4  -8  -4    0.41    0.24 
  -4  -8  -4    0.77    0.19 
  -4  -8  -4    0.93    0.25 
  -4  -8  -4    0.74    0.27 
  -4  -8  -4    0.92    0.24 
  -4  -8  -4    1.06    0.26 
  -4  -8  -4    1.25    0.30 
  -4  -8  -4    1.09    0.28 
  -4  -8  -4    0.42    0.20 
  -4  -8  -4    0.96    0.28 
  -4  -8  -4    1.10    0.24 
  -4   8  -4    0.47    0.12 
   4   8   4    0.38    0.17 
  -4   8  -4    0.80    0.13 
  -4   8  -4    0.79    0.19 
   4   8   4    0.60    0.24 
  -4   8  -4    0.58    0.14 
  -4   8  -4    0.54    0.29 
  -4   8  -4    0.76    0.14 
  -5  -9   4    2.32    0.30 
  -5  -9   4    2.06    0.21 
  -5  -9   4    2.03    0.28 
  -5  -9   4    2.94    0.29 
  -5  -9   4    2.46    0.28 
  -5  -9   4    2.09    0.26 
  -5   9   4    2.47    0.16 
   5   9  -4    2.60    0.30 
   5   9  -4    2.59    0.24 
  -5   9   4    2.73    0.17 
  -5   9   4    2.39    0.41 
  -5   9   4    2.45    0.21 
  -5   9   4    2.50    0.17 
  -5   9   4    2.52    0.18 
  -4  -9   4   18.96    0.92 
  -4  -9   4   18.22    0.92 
  -4  -9   4   19.15    1.03 
  -4  -9   4   18.35    0.96 
  -4  -9   4   18.41    1.01 
  -4  -9   4   18.21    1.00 
  -4  -9   4   17.57    0.92 
  -4  -9   4   18.15    0.90 
  -4  -9   4   17.96    0.90 
  -4  -9   4   18.83    0.91 
  -4  -9   4   16.73    0.99 
  -4   9   4   18.74    0.95 
  -4   9   4   18.06    0.93 
   4   9  -4   18.18    0.94 
  -4   9   4   16.36    1.04 
  -4   9   4   18.66    0.92 
  -4   9   4   18.35    1.02 
   4   9  -4   19.21    1.02 
  -4   9   4   17.52    0.90 
  -4   9   4   18.34    0.93 
  -4   9   4   18.22    0.92 
  -4   9   4   17.88    1.11 
  -3  -9   4    1.80    0.33 
   3  -9  -4    1.34    0.34 
  -3  -9   4    1.89    0.30 
  -3  -9   4    1.96    0.33 
  -3  -9   4    1.36    0.22 
  -3  -9   4    1.58    0.34 
  -3  -9   4    1.57    0.34 
  -3  -9   4    1.33    0.34 
  -3  -9   4    1.77    0.35 
  -3  -9   4    2.33    0.35 
  -3  -9   4    1.34    0.41 
  -3  -9   4    1.54    0.27 
  -3   9   4    1.13    0.32 
  -3   9   4    2.23    0.29 
  -3   9   4    1.73    0.30 
   3   9  -4    1.53    0.40 
  -3   9   4    1.98    0.32 
   3   9  -4    1.72    0.37 
  -3   9   4    1.37    0.27 
  -3   9   4    1.23    0.47 
  -3   9   4    1.86    0.25 
   3   9  -4    1.38    0.25 
  -3   9   4    1.82    0.40 
   3   9  -4    0.75    0.24 
  -3   9   4    1.69    0.47 
  -3   9   4    1.32    0.49 
  -3   9   4    2.14    0.30 
  -3   9   4    1.69    0.28 
  -3   9   4    1.95    0.31 
  -3   9   4    1.85    0.29 
  -3   9   4    1.63    0.37 
  -2  -9   4    3.79    0.28 
   2  -9  -4    3.54    0.44 
  -2  -9   4    3.09    0.39 
  -2  -9   4    2.93    0.45 
  -2  -9   4    4.11    0.41 
   2  -9  -4    3.72    0.33 
  -2  -9   4    3.65    0.50 
   2  -9  -4    2.68    0.38 
  -2  -9   4    3.53    0.35 
  -2  -9   4    3.81    0.56 
  -2  -9   4    3.74    0.42 
  -2  -9   4    3.75    0.39 
  -2  -9   4    3.31    0.37 
  -2  -9   4    3.29    0.41 
  -2   9   4    3.46    0.50 
  -2   9   4    3.63    0.43 
   2   9  -4    3.29    0.43 
  -2   9   4    4.50    0.62 
  -2   9   4    3.64    0.32 
  -2   9   4    3.73    0.46 
  -2   9   4    4.03    0.42 
  -2   9   4    3.35    0.35 
  -2   9   4    3.74    0.52 
   2   9  -4    3.90    0.55 
   2   9  -4    3.07    0.38 
  -2   9   4    3.76    0.40 
   2   9  -4    3.51    0.41 
  -2   9   4    3.68    0.35 
  -2   9   4    2.91    0.38 
   2   9  -4    3.12    0.45 
  -2   9   4    4.02    0.39 
   2   9  -4    3.40    0.41 
  -2   9   4    4.20    0.46 
  -2   9   4    3.54    0.64 
  -2   9   4    3.63    0.31 
  -2   9   4    3.70    0.45 
  -1  -9   4    7.12    0.58 
   1  -9  -4    8.22    0.78 
  -1  -9   4    7.63    0.56 
  -1  -9   4    8.39    0.57 
   1  -9  -4    8.09    0.49 
  -1  -9   4    7.33    0.73 
   1   9  -4    7.49    0.49 
   1   9  -4    7.79    0.61 
   1   9  -4    7.49    0.54 
   1   9  -4    7.47    0.43 
   1   9  -4    7.86    0.56 
   1   9  -4    6.77    0.66 
  -1   9   4    7.16    0.53 
  -1   9   4    7.32    0.57 
  -1   9   4    7.01    0.60 
  -1   9   4    7.06    0.64 
   0  -9  -4    8.80    0.65 
   0  -9   4    9.13    0.86 
   0  -9  -4   10.03    0.85 
   0  -9  -4    9.60    0.67 
   0   9   4    6.73    0.74 
   0   9  -4    9.70    0.52 
   0   9  -4    8.46    0.62 
   0   9  -4    9.42    0.60 
   0   9   4    8.97    0.63 
   0   9  -4   10.35    0.71 
   0   9   4    9.70    0.70 
   0   9  -4   10.31    0.64 
   0   9  -4    8.88    0.59 
  -1  -9  -4   27.37    1.44 
   1  -9   4   28.60    1.37 
  -1  -9  -4   26.68    1.40 
  -1  -9  -4   26.50    1.49 
  -1  -9  -4   24.43    1.57 
  -1  -9  -4   25.93    1.39 
  -1  -9  -4   28.22    1.51 
  -1  -9  -4   27.86    1.45 
  -1  -9  -4   28.24    1.39 
  -1  -9  -4   25.36    1.42 
  -1  -9  -4   25.96    1.39 
  -1  -9  -4   26.02    1.46 
   1  -9   4   28.20    1.42 
   1  -9   4   27.79    1.37 
  -1   9  -4   25.91    1.30 
  -1   9  -4   28.48    1.45 
  -1   9  -4   29.70    1.49 
   1   9   4   23.69    1.57 
   1   9   4   27.79    1.47 
   1   9   4   28.72    1.45 
   1   9   4   26.95    1.41 
  -1   9  -4   25.61    1.39 
  -1   9  -4   27.60    1.50 
  -1   9  -4   26.62    1.34 
   1   9   4   27.21    1.41 
   1   9   4   28.54    1.40 
  -1   9  -4   27.82    1.38 
  -1   9  -4   26.62    1.35 
  -1   9  -4   30.14    1.44 
   1   9   4   25.63    1.41 
  -1   9  -4   26.71    1.34 
  -1   9  -4   27.12    1.36 
  -2  -9  -4    9.85    0.54 
   2  -9   4   10.00    0.60 
  -2  -9  -4    9.42    0.71 
  -2  -9  -4    9.91    0.79 
   2  -9   4    9.06    0.64 
  -2  -9  -4   10.90    0.66 
  -2  -9  -4   11.21    0.70 
  -2  -9  -4    9.46    0.64 
  -2  -9  -4    9.98    0.66 
  -2  -9  -4   10.27    0.53 
  -2  -9  -4    9.12    0.76 
  -2  -9  -4    9.72    0.70 
  -2  -9  -4    8.72    0.74 
  -2  -9  -4    9.46    0.65 
  -2   9  -4   10.39    0.60 
  -2   9  -4    9.47    0.50 
  -2   9  -4   10.09    0.61 
  -2   9  -4    9.02    0.62 
  -2   9  -4   10.69    0.64 
  -2   9  -4    9.77    0.84 
   2   9   4   10.55    0.68 
  -2   9  -4    9.16    0.60 
  -2   9  -4    9.57    0.48 
   2   9   4    9.08    0.68 
  -2   9  -4    9.37    0.64 
   2   9   4   10.28    0.71 
  -2   9  -4    8.89    0.85 
  -2   9  -4    9.93    0.58 
  -2   9  -4    9.48    0.65 
  -2   9  -4    9.99    0.62 
   2   9   4   10.60    0.70 
  -3  -9  -4    0.12    0.31 
  -3  -9  -4    0.56    0.22 
  -3  -9  -4    0.39    0.22 
  -3  -9  -4    0.28    0.21 
   3  -9   4    0.06    0.16 
  -3  -9  -4    0.46    0.15 
  -3  -9  -4    0.33    0.25 
  -3  -9  -4    0.26    0.13 
  -3  -9  -4    0.39    0.13 
  -3  -9  -4    0.42    0.23 
  -3  -9  -4    0.32    0.27 
  -3  -9  -4    0.06    0.20 
  -3  -9  -4    0.19    0.12 
  -3  -9  -4    0.57    0.18 
  -3   9  -4    0.34    0.15 
   3   9   4    0.31    0.20 
  -3   9  -4    0.34    0.14 
   3   9   4    0.49    0.25 
   3   9   4    0.32    0.22 
  -3   9  -4    0.57    0.18 
  -3   9  -4    0.15    0.30 
  -3   9  -4    0.40    0.15 
  -3   9  -4    0.34    0.16 
   3   9   4    0.29    0.19 
   4  -9   4    9.35    0.52 
  -4  -9  -4    9.27    0.54 
  -4  -9  -4    9.61    0.48 
  -4  -9  -4    9.93    0.55 
  -4  -9  -4    9.36    0.55 
  -4  -9  -4    8.33    0.52 
  -4   9  -4    9.79    0.49 
   4   9   4    9.37    0.51 
   4   9   4    8.91    0.59 
   4   9   4    9.25    0.57 
  -4   9  -4    8.87    0.65 
   4   9   4    9.35    0.58 
  -4   9  -4    8.38    0.47 
  -4   9  -4   10.48    0.50 
  -4   9  -4    9.78    0.50 
  -5 -10   4    0.54    0.15 
  -5 -10   4    1.16    0.20 
  -5 -10   4    0.86    0.12 
  -5 -10   4    0.44    0.14 
  -5  10   4    0.75    0.07 
  -5  10   4    0.71    0.06 
  -5  10   4    0.89    0.33 
  -5  10   4    0.83    0.09 
  -5  10   4    0.80    0.08 
   5  10  -4    0.66    0.18 
   5  10  -4    1.05    0.27 
   5  10  -4    0.96    0.15 
  -5  10   4    0.65    0.07 
  -4 -10   4   15.25    0.79 
   4 -10  -4   16.04    0.89 
  -4 -10   4   15.43    0.76 
  -4 -10   4   14.81    0.85 
  -4 -10   4   15.15    0.75 
  -4 -10   4   16.95    0.78 
  -4 -10   4   13.93    0.88 
  -4 -10   4   16.41    0.86 
  -4 -10   4   14.47    0.84 
  -4 -10   4   14.89    0.76 
  -4 -10   4   15.51    0.74 
   4  10  -4   15.54    0.79 
   4  10  -4   14.16    0.84 
  -4  10   4   14.89    0.92 
   4  10  -4   14.82    0.84 
   4  10  -4   17.69    0.86 
  -4  10   4   13.38    0.76 
  -4  10   4   15.50    0.80 
  -4  10   4   15.34    0.78 
  -4  10   4   15.62    0.79 
  -4  10   4   14.71    0.87 
  -4  10   4   16.96    0.78 
  -3 -10   4    0.23    0.16 
  -3 -10   4    0.09    0.20 
   3 -10  -4    0.41    0.20 
  -3 -10   4    0.14    0.20 
  -3 -10   4    0.63    0.24 
  -3 -10   4    0.12    0.17 
  -3 -10   4    0.33    0.11 
  -3 -10   4   -0.03    0.18 
   3  10  -4    0.27    0.21 
  -3  10   4    0.36    0.36 
  -3  10   4    0.34    0.16 
  -3  10   4    0.20    0.20 
  -3  10   4    0.17    0.25 
  -3  10   4    0.46    0.20 
  -3  10   4    0.24    0.14 
  -3  10   4    0.10    0.14 
  -3  10   4    0.16    0.19 
   3  10  -4    0.39    0.20 
   3  10  -4    0.36    0.22 
  -3  10   4    0.14    0.23 
  -3  10   4    0.30    0.26 
  -3  10   4    0.16    0.19 
  -3  10   4    0.02    0.14 
  -2 -10   4    0.41    0.19 
   2 -10  -4    1.21    0.36 
  -2 -10   4    0.46    0.33 
  -2 -10   4    1.67    0.35 
   2 -10  -4    0.79    0.22 
  -2 -10   4    1.23    0.32 
  -2 -10   4    0.99    0.28 
  -2 -10   4    1.16    0.27 
   2  10  -4    0.57    0.20 
  -2  10   4    0.71    0.26 
  -2  10   4    0.79    0.33 
  -2  10   4    0.75    0.20 
   2  10  -4    1.31    0.32 
  -2  10   4    0.69    0.17 
  -2  10   4    0.78    0.33 
  -2  10   4    1.15    0.29 
   2  10  -4   -0.05    0.29 
  -2  10   4    1.34    0.48 
   2  10  -4    0.67    0.35 
  -2  10   4    1.80    0.34 
  -2  10   4    1.29    0.34 
  -2  10   4    1.06    0.28 
  -2  10   4    1.62    0.32 
  -2  10   4    1.26    0.30 
   2  10  -4    0.99    0.30 
  -2  10   4    1.15    0.34 
   2  10  -4    0.64    0.23 
   2  10  -4    0.99    0.24 
  -2  10   4    0.51    0.24 
  -2  10   4    1.19    0.23 
   1 -10  -4    7.80    0.51 
  -1 -10   4    7.64    0.62 
   1 -10  -4    7.94    0.60 
  -1 -10   4    7.02    0.51 
   1 -10  -4    7.07    0.60 
  -1 -10   4    7.60    0.54 
  -1 -10   4    8.09    0.60 
  -1 -10   4    9.13    1.02 
  -1 -10   4    7.41    0.55 
  -1 -10   4    7.43    0.56 
   1 -10  -4    7.39    0.57 
  -1 -10   4    7.13    0.66 
   1  10  -4    7.38    0.55 
  -1  10   4    8.16    0.54 
  -1  10   4   10.82    0.86 
  -1  10   4    7.81    0.61 
   1  10  -4    7.87    0.59 
   1  10  -4    7.72    0.54 
  -1  10   4    8.69    0.56 
   1  10  -4    8.21    0.52 
  -1  10   4    7.54    0.65 
  -1  10   4    8.58    0.62 
  -1  10   4    8.42    0.60 
  -1  10   4    7.70    0.46 
   1  10  -4    7.53    0.54 
   1  10  -4    7.90    0.67 
   1  10  -4    7.67    0.56 
  -1  10   4    6.73    0.60 
  -1  10   4    7.59    0.52 
  -1  10   4    6.70    0.60 
   0 -10   4    2.12    0.38 
   0 -10   4    2.23    0.40 
   0 -10   4    3.05    0.32 
   0 -10  -4    3.02    0.46 
   0 -10  -4    2.76    0.44 
   0 -10   4    2.14    0.39 
   0 -10  -4    3.16    0.43 
   0 -10   4    2.03    0.37 
   0 -10  -4    2.40    0.43 
   0 -10  -4    2.46    0.40 
   0  10  -4    2.45    0.35 
   0  10   4    2.81    0.45 
   0  10  -4    2.97    0.37 
   0  10   4    2.97    0.49 
   0  10   4    2.71    0.31 
   0  10  -4    2.83    0.26 
   0  10   4    2.54    0.41 
   0  10  -4    2.60    0.35 
   0  10  -4    2.44    0.24 
   0  10  -4    3.32    0.36 
   0  10  -4    2.80    0.32 
   0  10  -4    1.87    0.34 
   0  10  -4    2.27    0.46 
   0  10   4    2.23    0.37 
   0  10   4    2.95    0.40 
  -1 -10  -4    8.67    0.57 
  -1 -10  -4    8.32    0.56 
  -1 -10  -4    7.41    0.64 
   1 -10   4    7.44    0.51 
  -1 -10  -4    8.45    0.54 
  -1 -10  -4    8.36    0.58 
  -1 -10  -4    7.73    0.66 
  -1 -10  -4    8.21    0.70 
   1 -10   4    7.25    0.56 
  -1  10  -4    8.23    0.44 
  -1  10  -4    8.04    0.61 
   1  10   4    7.38    0.58 
   1  10   4    8.47    0.59 
  -1  10  -4    7.42    0.62 
  -1  10  -4    8.15    0.40 
  -1  10  -4    7.65    0.58 
  -1  10  -4    8.33    0.47 
  -1  10  -4    7.71    0.47 
  -1  10  -4    7.59    0.56 
   1  10   4    7.77    0.54 
  -1  10  -4    8.49    0.55 
  -1  10  -4    7.48    0.48 
   1  10   4    8.08    0.64 
   1  10   4    7.40    0.69 
  -1  10  -4    8.31    0.50 
   2 -10   4    9.92    0.60 
  -2 -10  -4   10.76    0.65 
  -2 -10  -4   10.21    0.65 
  -2 -10  -4    9.40    0.60 
  -2 -10  -4    9.56    0.74 
  -2 -10  -4    8.48    0.63 
  -2 -10  -4   10.05    0.62 
  -2 -10  -4    9.39    0.66 
   2 -10   4    9.90    0.64 
  -2 -10  -4   10.65    0.77 
   2  10   4    9.45    0.68 
  -2  10  -4   11.11    0.59 
  -2  10  -4   10.32    0.61 
  -2  10  -4   10.05    0.83 
   2  10   4   10.87    0.72 
  -2  10  -4   10.25    0.61 
   2  10   4    9.05    0.66 
  -2  10  -4    9.60    0.55 
  -2  10  -4   10.30    0.61 
   2  10   4   11.77    0.68 
  -2  10  -4   10.17    0.60 
  -2  10  -4   10.17    0.91 
  -2  10  -4    9.62    0.62 
  -3 -10  -4   10.65    0.64 
  -3 -10  -4   10.11    0.70 
  -3 -10  -4   10.78    0.63 
  -3 -10  -4   10.57    0.61 
  -3 -10  -4   10.55    0.72 
  -3 -10  -4   10.83    0.68 
  -3 -10  -4   10.61    0.52 
   3 -10   4    9.75    0.60 
  -3 -10  -4    9.97    0.62 
  -3 -10  -4   10.81    0.56 
  -3 -10  -4   10.98    0.58 
  -3 -10  -4   11.02    0.56 
  -3 -10  -4   11.00    0.55 
  -3 -10  -4   10.69    0.64 
  -3  10  -4    9.99    0.56 
  -3  10  -4   10.65    0.77 
  -3  10  -4   10.41    0.59 
  -3  10  -4   11.31    0.60 
   3  10   4   10.90    0.65 
   3  10   4    9.96    0.64 
   3  10   4   11.71    0.66 
  -4 -11   4    3.66    0.32 
   4 -11  -4    3.69    0.27 
  -4 -11   4    3.89    0.38 
  -4 -11   4    4.38    0.34 
  -4 -11   4    3.57    0.23 
  -4  11   4    3.62    0.33 
  -4  11   4    3.60    0.26 
  -4  11   4    4.08    0.42 
  -4  11   4    3.62    0.35 
   4  11  -4    3.74    0.33 
  -4  11   4    3.75    0.23 
  -4  11   4    3.80    0.25 
   4  11  -4    3.58    0.32 
   4  11  -4    3.53    0.30 
  -3 -11   4   14.12    0.85 
  -3 -11   4   13.51    0.74 
   3 -11  -4   15.32    0.77 
   3 -11  -4   14.28    0.80 
  -3 -11   4   15.44    0.78 
  -3 -11   4   14.56    0.76 
  -3 -11   4   13.60    0.75 
   3  11  -4   13.99    0.89 
   3  11  -4   13.86    0.84 
  -3  11   4   15.48    0.78 
  -3  11   4   14.92    0.78 
  -3  11   4   15.25    0.75 
  -3  11   4   14.67    0.83 
  -3  11   4   13.29    0.80 
   3  11  -4   13.88    0.80 
   3  11  -4   13.24    0.79 
  -3  11   4   14.50    0.77 
   3  11  -4   14.13    0.79 
  -2 -11   4    3.82    0.41 
  -2 -11   4    3.81    0.40 
   2 -11  -4    4.20    0.35 
  -2 -11   4    3.95    0.41 
   2 -11  -4    4.01    0.43 
  -2 -11   4    3.97    0.32 
   2  11  -4    4.76    0.41 
   2  11  -4    4.58    0.37 
  -2  11   4    4.16    0.37 
  -2  11   4    3.96    0.23 
  -2  11   4    3.82    0.44 
  -2  11   4    4.77    0.42 
   2  11  -4    4.31    0.46 
  -2  11   4    3.91    0.41 
   2  11  -4    4.19    0.39 
  -2  11   4    3.89    0.39 
  -2  11   4    3.83    0.47 
   1 -11  -4    0.05    0.23 
   1 -11  -4   -0.32    0.20 
  -1 -11   4    0.30    0.18 
  -1 -11   4    0.30    0.19 
  -1 -11   4   -0.05    0.25 
  -1 -11   4    0.03    0.18 
   1 -11  -4   -0.02    0.22 
   1 -11  -4    0.05    0.16 
   1 -11  -4   -0.16    0.22 
  -1  11   4    0.18    0.36 
  -1  11   4   -0.38    0.21 
  -1  11   4    0.18    0.14 
   1  11  -4   -0.13    0.17 
  -1  11   4   -0.09    0.25 
  -1  11   4   -0.05    0.28 
  -1  11   4   -0.10    0.25 
   1  11  -4   -0.13    0.22 
  -1  11   4    0.07    0.17 
   1  11  -4    0.05    0.13 
   1  11  -4    0.19    0.22 
  -1  11   4   -0.04    0.20 
   1  11  -4   -0.11    0.25 
  -1  11   4    0.06    0.15 
  -1  11   4    0.00    0.08 
   0 -11   4    7.60    0.54 
   0 -11  -4    6.43    0.61 
   0 -11  -4    7.70    0.68 
   0 -11  -4    7.26    0.56 
   0 -11   4    6.91    0.52 
   0 -11  -4    7.21    0.55 
   0 -11  -4    7.74    0.56 
   0 -11  -4    7.61    0.50 
   0 -11   4    7.92    0.56 
   0  11  -4    7.30    0.47 
   0  11  -4    7.41    0.56 
   0  11  -4    7.54    0.53 
   0  11  -4    7.88    0.50 
   0  11  -4    7.24    0.41 
   0  11   4    7.87    0.54 
   0  11   4    6.98    0.71 
   0  11  -4    7.69    0.51 
   0  11  -4    7.27    0.42 
   0  11   4    7.40    0.56 
   0  11   4    7.50    0.43 
   0  11   4    7.55    0.56 
  -1 -11  -4    2.85    0.42 
   1 -11   4    2.87    0.30 
  -1 -11  -4    2.34    0.39 
   1 -11   4    2.36    0.36 
  -1 -11  -4    2.49    0.31 
   1 -11   4    2.53    0.36 
   1 -11   4    3.04    0.39 
  -1 -11  -4    2.35    0.32 
  -1 -11  -4    3.03    0.31 
  -1 -11  -4    1.96    0.39 
  -1 -11  -4    2.34    0.46 
   1  11   4    3.17    0.35 
  -1  11  -4    2.68    0.24 
  -1  11  -4    2.34    0.24 
   1  11   4    2.76    0.35 
  -1  11  -4    2.03    0.57 
   1  11   4    2.07    0.44 
  -1  11  -4    3.01    0.36 
  -1  11  -4    2.12    0.36 
  -1  11  -4    2.43    0.26 
   1  11   4    2.39    0.31 
  -1  11  -4    2.52    0.33 
  -1  11  -4    2.65    0.22 
  -2 -11  -4   10.65    0.61 
  -2 -11  -4   10.35    0.61 
  -2 -11  -4   10.67    0.62 
  -2 -11  -4   11.26    0.72 
  -2 -11  -4    9.70    0.65 
   2 -11   4   12.36    0.66 
  -2 -11  -4   11.05    0.56 
  -2 -11  -4   10.89    0.65 
  -2 -11  -4   10.28    0.63 
   2 -11   4   10.96    0.61 
  -2 -11  -4   11.47    0.75 
  -2  11  -4   11.42    0.60 
  -2  11  -4   13.66    0.80 
  -2  11  -4   10.27    0.61 
   2  11   4   10.85    0.65 
  -2  11  -4    9.85    0.57 
   2  11   4   10.80    0.71 
  -2  11  -4   11.96    0.62 
   2  11   4   10.30    0.65 
  -2  11  -4   10.76    0.80 
   2  11   4   11.17    0.63 
  -2  11  -4   10.43    0.62 
  -3 -11  -4    2.30    0.20 
   3 -11   4    2.24    0.24 
   3 -11   4    2.22    0.22 
  -3 -11  -4    1.60    0.30 
  -3 -11  -4    2.08    0.15 
  -3 -11  -4    1.87    0.28 
  -3 -11  -4    2.41    0.28 
  -3 -11  -4    1.63    0.30 
   3  11   4    1.76    0.24 
   3  11   4    2.50    0.38 
   3  11   4    1.96    0.30 
   3  11   4    2.02    0.25 
  -3  11  -4    2.12    0.19 
  -3  11  -4    2.57    0.41 
  -3  11  -4    2.41    0.21 
   3  11   4    2.72    0.28 
   3 -12  -4    8.75    0.48 
  -3 -12   4    7.50    0.47 
   3 -12  -4    7.90    0.50 
  -3 -12   4    8.66    0.48 
  -3 -12   4    8.85    0.46 
  -3 -12   4    9.20    0.46 
   3  12  -4    7.64    0.48 
  -3  12   4    8.71    0.47 
   3  12  -4    8.37    0.54 
   3  12  -4    8.19    0.49 
  -3  12   4    8.73    0.48 
  -3  12   4    8.63    0.52 
   3  12  -4    8.63    0.48 
  -3  12   4    8.33    0.53 
  -2 -12   4    8.90    0.55 
  -2 -12   4    9.34    0.56 
   2 -12  -4    9.23    0.51 
  -2 -12   4    7.90    0.45 
   2 -12  -4    9.06    0.57 
  -2 -12   4    8.24    0.54 
   2 -12  -4    9.34    0.55 
   2  12  -4    8.32    0.57 
   2  12  -4    8.72    0.51 
  -2  12   4    8.45    0.56 
   2  12  -4    8.47    0.50 
  -2  12   4    9.19    0.56 
  -2  12   4    8.42    0.55 
   2  12  -4   10.03    0.58 
  -2  12   4    8.92    0.57 
   1 -12  -4    3.35    0.45 
   1 -12  -4    2.89    0.35 
  -1 -12   4    2.67    0.32 
  -1 -12   4    3.11    0.30 
   1 -12  -4    2.72    0.33 
  -1 -12   4    2.54    0.30 
   1 -12  -4    2.97    0.38 
  -1 -12   4    3.41    0.39 
   1 -12  -4    2.74    0.36 
  -1  12   4    2.93    0.28 
   1  12  -4    2.41    0.30 
   1  12  -4    2.40    0.31 
  -1  12   4    2.35    0.46 
  -1  12   4    3.03    0.35 
  -1  12   4    2.82    0.27 
  -1  12   4    3.07    0.26 
  -1  12   4    2.88    0.34 
   1  12  -4    2.38    0.33 
  -1  12   4    2.27    0.35 
   0 -12  -4    1.23    0.27 
   0 -12  -4    1.64    0.29 
   0 -12  -4    1.06    0.21 
   0 -12  -4    0.86    0.19 
   0 -12  -4    1.24    0.32 
   0 -12  -4    1.16    0.40 
   0 -12   4    1.20    0.30 
   0 -12   4    0.99    0.26 
   0 -12   4    1.17    0.29 
   0  12  -4    1.14    0.34 
   0  12  -4    1.02    0.20 
   0  12   4    1.08    0.28 
   0  12  -4    1.01    0.17 
   0  12  -4    1.28    0.12 
   0  12   4    0.88    0.18 
   0  12  -4    0.54    0.25 
   0  12   4    1.16    0.28 
   0  12   4    0.94    0.28 
   0  12  -4    1.10    0.24 
  -1 -12  -4    3.59    0.35 
  -1 -12  -4    3.23    0.41 
   1 -12   4    3.91    0.28 
  -1 -12  -4    3.53    0.40 
  -1 -12  -4    3.72    0.35 
  -1 -12  -4    4.09    0.28 
  -1 -12  -4    4.52    0.43 
  -1 -12  -4    3.31    0.37 
   1 -12   4    3.31    0.35 
   1 -12   4    3.73    0.37 
   1 -12   4    3.14    0.33 
  -1  12  -4    3.65    0.21 
   1  12   4    3.72    0.25 
   1  12   4    3.32    0.36 
  -1  12  -4    3.74    0.24 
  -1  12  -4    3.69    0.36 
   1  12   4    3.52    0.37 
  -1  12  -4    3.81    0.33 
   1  12   4    3.18    0.37 
  -1  12  -4    3.36    0.51 
   2 -12   4    3.83    0.31 
  -2 -12  -4    3.69    0.26 
  -2 -12  -4    3.50    0.36 
  -2 -12  -4    3.94    0.28 
   2 -12   4    3.52    0.27 
  -2 -12  -4    3.92    0.32 
   2  12   4    3.99    0.35 
   2  12   4    3.50    0.34 
  -2  12  -4    3.31    0.25 
   2  12   4    3.92    0.29 
   2  12   4    3.95    0.27 
  -2  12  -4    3.33    0.27 
  -2  12  -4    3.61    0.42 
   2 -13  -4    3.75    0.28 
  -2 -13   4    3.93    0.28 
  -2 -13   4    3.97    0.28 
   2 -13  -4    4.08    0.32 
   2  13  -4    3.13    0.30 
  -2  13   4    4.06    0.29 
   2  13  -4    4.41    0.29 
  -2  13   4    3.47    0.28 
  -2  13   4    3.53    0.35 
   1 -13  -4    2.13    0.33 
   1 -13  -4    2.37    0.23 
   1 -13  -4    2.37    0.25 
  -1 -13   4    2.56    0.21 
  -1 -13   4    2.44    0.29 
   1 -13  -4    2.56    0.27 
  -1 -13   4    2.64    0.23 
   1  13  -4    2.31    0.21 
   1  13  -4    2.34    0.22 
   1  13  -4    2.64    0.25 
  -1  13   4    2.41    0.29 
  -1  13   4    2.52    0.33 
   1  13  -4    2.28    0.16 
   0 -13  -4    3.42    0.30 
   0 -13   4    3.83    0.30 
   0 -13  -4    4.09    0.28 
   0 -13  -4    3.44    0.36 
   0 -13  -4    3.33    0.34 
   0 -13   4    3.63    0.34 
   0 -13   4    3.89    0.29 
   0 -13  -4    3.78    0.27 
   0 -13   4    3.74    0.31 
   0 -13  -4    4.04    0.29 
   0  13  -4    3.81    0.34 
   0  13  -4    3.67    0.42 
   0  13  -4    3.56    0.21 
   0  13  -4    3.24    0.24 
   0  13   4    3.60    0.26 
   0  13   4    3.09    0.28 
  -1 -13  -4    0.87    0.18 
  -1  13  -4    0.55    0.19 
  -7   0   5    0.70    0.07 
  -7   0   5    0.38    0.26 
  -6   0   5   31.86    1.55 
  -6   0   5   32.65    1.72 
  -6   0   5   32.16    1.70 
  -6   0   5   34.13    1.73 
  -6   0   5   32.60    1.53 
  -6   0   5   32.19    1.53 
  -6   0   5   31.30    1.54 
  -6   0   5   31.88    1.55 
  -6   0   5   32.62    1.53 
  -5   0   5   22.00    1.43 
  -5   0   5   19.60    1.20 
  -5   0   5   22.33    1.15 
  -5   0   5   24.99    1.24 
  -5   0   5   23.74    1.15 
  -5   0   5   23.96    1.14 
  -5   0   5   22.67    1.43 
  -4   0   5    0.42    0.14 
   4   0  -5    0.31    0.11 
  -4   0   5    0.11    0.15 
  -4   0   5    0.48    0.25 
  -4   0   5    0.20    0.15 
  -4   0   5    0.61    0.41 
   4   0  -5    0.57    0.29 
  -4   0   5    0.21    0.29 
  -4   0   5    0.26    0.36 
  -4   0   5    0.18    0.16 
  -4   0   5    0.42    0.40 
   3   0  -5  117.53    5.38 
   3   0  -5  119.34    5.56 
  -3   0   5  108.07    5.52 
  -3   0   5  113.38    5.44 
  -3   0   5  121.82    5.41 
  -3   0   5  106.66    5.53 
  -3   0   5  119.47    5.55 
  -3   0   5  112.77    5.55 
  -3   0   5  115.35    5.55 
   2   0  -5    0.29    0.26 
  -2   0   5    0.34    0.19 
   2   0  -5    0.18    0.11 
  -2   0   5    0.26    0.14 
  -2   0   5    0.02    0.20 
  -2   0   5    0.17    0.16 
   2   0  -5    0.29    0.25 
  -2   0   5    0.28    0.17 
  -1   0   5   32.71    1.72 
   1   0  -5   35.55    1.83 
  -1   0   5   34.53    1.68 
  -1   0   5   33.11    1.79 
  -1   0   5   34.75    1.80 
   1   0  -5   35.58    1.65 
   0   0   5  180.62    8.07 
   0   0   5  166.99    8.09 
   0   0   5  168.75    7.99 
   0   0   5  167.86    8.22 
   0   0  -5  169.88    7.94 
   0   0   5  167.20    7.91 
   0   0  -5  171.09    8.07 
   0   0  -5  167.48    7.95 
   0   0   5  165.61    7.94 
  -1   0  -5    7.81    0.53 
  -1   0  -5    7.83    0.95 
  -1   0  -5    8.07    0.56 
  -1   0  -5    8.26    0.50 
   1   0   5    8.19    0.64 
  -1   0  -5    8.43    0.50 
  -1   0  -5    8.55    0.82 
   1   0   5    7.00    0.64 
   1   0   5    8.58    0.46 
  -2   0  -5    2.92    0.51 
  -2   0  -5    2.64    0.32 
  -2   0  -5    2.64    0.37 
  -2   0  -5    2.71    0.36 
   2   0   5    2.99    0.49 
  -2   0  -5    2.96    0.32 
  -2   0  -5    2.01    0.55 
   2   0   5    2.94    0.26 
  -2   0  -5    2.90    0.37 
   2   0   5    2.67    0.44 
  -3   0  -5    5.15    0.41 
  -3   0  -5    3.85    0.51 
  -3   0  -5    4.28    0.41 
  -3   0  -5    5.18    0.42 
  -3   0  -5    4.58    0.29 
  -3   0  -5    4.77    0.59 
   3   0   5    4.32    0.35 
  -3   0  -5    4.62    0.47 
  -3   0  -5    5.12    0.44 
  -3   0  -5    5.05    0.38 
  -4   0  -5   20.77    1.07 
  -4   0  -5   21.50    1.09 
  -4   0  -5   20.91    1.09 
  -4   0  -5   21.03    1.23 
  -4   0  -5   23.02    1.08 
  -4   0  -5   20.63    1.07 
  -4   0  -5   21.40    1.18 
  -4   0  -5   21.29    1.10 
  -4   0  -5   21.43    1.08 
  -4   0  -5   20.05    1.10 
  -4   0  -5   19.17    1.14 
  -5   0  -5   12.52    0.60 
  -5   0  -5   11.54    0.63 
  -5   0  -5   11.16    0.63 
  -5   0  -5   12.36    0.63 
  -5   0  -5   11.68    0.62 
  -5   0  -5   13.13    0.69 
  -5   0  -5   11.67    0.71 
  -5   0  -5   10.37    0.65 
  -7  -1   5    0.41    0.07 
  -7  -1   5    0.40    0.24 
  -7   1   5    0.42    0.07 
  -7   1   5    0.35    0.05 
  -6  -1   5   16.42    0.76 
  -6  -1   5   15.16    0.78 
  -6  -1   5   14.97    0.77 
  -6  -1   5   15.37    1.00 
  -6  -1   5   14.21    0.95 
  -6  -1   5   13.85    1.07 
  -6  -1   5   15.14    0.76 
  -6  -1   5   14.62    0.94 
  -6  -1   5   16.28    0.76 
  -6   1   5   14.11    0.97 
  -6   1   5   15.33    0.75 
  -6   1   5   14.89    0.96 
  -6   1   5   15.21    0.75 
  -6   1   5   16.71    0.97 
  -6   1   5   15.71    0.74 
  -6   1   5   15.81    0.75 
  -6   1   5   15.22    0.74 
  -6   1   5   15.93    0.74 
  -6   1   5   16.14    0.75 
  -6   1   5   15.17    0.77 
  -5  -1   5   33.04    1.64 
  -5  -1   5   31.52    1.53 
  -5  -1   5   38.29    1.84 
  -5  -1   5   29.13    1.59 
  -5  -1   5   30.73    1.60 
  -5  -1   5   32.93    1.55 
   5  -1  -5   30.06    1.50 
  -5  -1   5   32.30    1.83 
  -5  -1   5   30.09    1.76 
  -5  -1   5   30.44    1.63 
  -5  -1   5   31.19    1.52 
  -5  -1   5   31.82    1.53 
  -5   1   5   31.46    1.57 
  -5   1   5   29.83    1.77 
  -5   1   5   29.19    1.52 
  -5   1   5   30.15    1.52 
  -5   1   5   31.65    1.52 
  -5   1   5   31.38    1.51 
  -5   1   5   27.47    1.57 
  -4  -1   5   28.82    1.56 
  -4  -1   5   27.85    1.50 
   4  -1  -5   30.66    1.57 
  -4  -1   5   30.74    1.48 
  -4  -1   5   26.85    1.40 
  -4  -1   5   29.70    1.62 
  -4  -1   5   26.49    1.39 
  -4  -1   5   27.83    1.64 
  -4  -1   5   28.73    1.61 
  -4  -1   5   29.32    1.41 
  -4   1   5   29.11    1.40 
  -4   1   5   27.95    1.38 
  -4   1   5   29.39    1.59 
   4   1  -5   29.06    1.37 
  -4   1   5   25.79    1.44 
  -4   1   5   28.25    1.53 
   4   1  -5   26.16    1.56 
  -4   1   5   26.38    1.46 
  -4   1   5   27.58    1.61 
  -3  -1   5   22.34    1.18 
  -3  -1   5   21.98    1.31 
   3  -1  -5   22.85    1.12 
  -3  -1   5   24.46    1.33 
   3  -1  -5   23.66    1.29 
   3  -1  -5   23.07    1.12 
  -3  -1   5   22.59    1.30 
  -3  -1   5   21.36    1.20 
  -3  -1   5   23.69    1.16 
  -3  -1   5   23.75    1.32 
  -3   1   5   21.92    1.30 
  -3   1   5   22.72    1.35 
  -3   1   5   22.03    1.14 
  -3   1   5   20.86    1.17 
  -3   1   5   23.84    1.30 
  -3   1   5   24.36    1.27 
  -3   1   5   22.19    1.25 
   3   1  -5   22.47    1.30 
   3   1  -5   23.29    1.12 
   2  -1  -5    9.70    0.70 
   2  -1  -5    9.91    0.68 
  -2  -1   5   10.07    0.54 
  -2  -1   5    9.11    0.76 
  -2  -1   5    9.75    0.61 
  -2  -1   5    9.20    0.62 
   2  -1  -5    9.17    0.50 
  -2  -1   5    9.19    0.54 
  -2  -1   5    8.90    0.66 
   2   1  -5    9.07    0.50 
  -2   1   5    9.90    0.76 
  -2   1   5    8.72    0.54 
  -2   1   5    9.64    0.59 
  -2   1   5    9.82    0.61 
   2   1  -5    9.31    0.70 
  -2   1   5    8.73    0.53 
  -2   1   5    9.03    0.59 
   2   1  -5    9.52    0.67 
   1  -1  -5   26.23    1.42 
  -1  -1   5   24.69    1.38 
   1  -1  -5   26.06    1.23 
  -1  -1   5   24.43    1.31 
  -1  -1   5   24.20    1.26 
  -1  -1   5   26.11    1.40 
  -1   1   5   25.87    1.38 
   1   1  -5   23.43    1.27 
  -1   1   5   25.76    1.32 
   1   1  -5   24.87    1.23 
   1   1  -5   26.61    1.42 
  -1   1   5   24.00    1.26 
  -1   1   5   26.24    1.37 
   0  -1   5   22.18    1.21 
   0  -1   5   20.33    1.10 
   0  -1  -5   19.85    1.04 
   0  -1   5   21.87    1.00 
   0  -1   5   19.75    1.17 
   0  -1  -5   20.98    1.17 
   0  -1   5   20.06    1.05 
   0  -1  -5   19.91    1.03 
   0   1   5   19.32    0.99 
   0   1   5   19.13    1.14 
   0   1   5   19.06    1.03 
   0   1  -5   18.81    1.15 
   0   1   5   19.59    1.18 
   0   1  -5   18.95    1.03 
   0   1   5   21.03    1.32 
   0   1  -5   20.16    1.03 
  -1  -1  -5   34.84    1.87 
   1  -1   5   35.62    1.95 
   1  -1   5   38.05    2.01 
   1  -1   5   38.16    1.79 
  -1  -1  -5   33.49    2.16 
  -1  -1  -5   39.70    1.83 
  -1  -1  -5   37.82    1.82 
  -1   1  -5   35.90    1.82 
  -1   1  -5   37.37    1.89 
   1   1   5   37.03    1.97 
  -1   1  -5   36.02    2.37 
   1   1   5   39.47    2.03 
  -1   1  -5   39.89    2.22 
  -1   1  -5   35.23    1.82 
  -1   1  -5   37.83    1.90 
   1   1   5   39.82    1.79 
  -1   1  -5   36.39    1.81 
  -1   1  -5   36.47    1.87 
  -2  -1  -5    1.45    0.42 
  -2  -1  -5    1.79    0.26 
   2  -1   5    2.11    0.41 
  -2  -1  -5    1.89    0.31 
  -2  -1  -5    1.87    0.28 
  -2  -1  -5    1.63    0.28 
   2  -1   5    2.04    0.46 
  -2  -1  -5    1.89    0.32 
  -2  -1  -5    1.78    0.54 
   2  -1   5    2.09    0.23 
  -2  -1  -5    2.09    0.39 
  -2  -1  -5    2.35    0.27 
  -2   1  -5    1.57    0.45 
  -2   1  -5    2.06    0.32 
  -2   1  -5    2.36    0.29 
   2   1   5    1.71    0.24 
  -2   1  -5    2.51    0.38 
   2   1   5    1.03    0.44 
  -2   1  -5    1.48    0.52 
  -2   1  -5    1.75    0.26 
  -2   1  -5    1.91    0.37 
   2   1   5    1.45    0.44 
  -3  -1  -5   38.64    1.85 
  -3  -1  -5   36.29    1.89 
  -3  -1  -5   36.57    1.79 
  -3  -1  -5   38.42    1.91 
  -3  -1  -5   36.54    1.87 
   3  -1   5   37.49    1.83 
  -3  -1  -5   36.82    1.87 
  -3  -1  -5   40.44    2.07 
  -3  -1  -5   35.70    1.92 
  -3  -1  -5   35.84    1.91 
  -3   1  -5   39.76    1.88 
  -3   1  -5   42.32    1.90 
  -3   1  -5   38.09    2.03 
  -3   1  -5   38.76    1.84 
   3   1   5   36.67    1.83 
  -3   1  -5   37.60    1.93 
  -3   1  -5   35.19    1.76 
  -3   1  -5   35.24    1.86 
  -3   1  -5   39.22    1.87 
  -4  -1  -5    9.79    0.62 
  -4  -1  -5   10.25    0.60 
  -4  -1  -5    9.78    0.58 
  -4  -1  -5    8.49    0.60 
  -4  -1  -5   10.19    0.58 
  -4  -1  -5    9.05    0.74 
  -4  -1  -5    9.37    0.59 
  -4  -1  -5    9.62    0.67 
  -4  -1  -5    9.94    0.64 
  -4  -1  -5    9.79    0.58 
  -4   1  -5    9.78    0.65 
  -4   1  -5    8.10    0.69 
  -4   1  -5   10.85    0.60 
  -4   1  -5   10.19    0.60 
  -4   1  -5   10.30    0.59 
  -4   1  -5    8.95    0.56 
  -4   1  -5    9.82    0.81 
  -4   1  -5    9.74    0.57 
  -4   1  -5   10.09    0.57 
  -4   1  -5   10.18    0.59 
  -4   1  -5   10.91    0.73 
  -4   1  -5    9.23    0.53 
  -5  -1  -5    5.89    0.38 
  -5  -1  -5    5.43    0.44 
  -5  -1  -5    5.87    0.36 
  -5  -1  -5    4.94    0.33 
  -5  -1  -5    5.98    0.44 
  -5  -1  -5    4.99    0.45 
  -5  -1  -5    6.04    0.37 
  -5  -1  -5    6.90    0.38 
  -5   1  -5    5.76    0.36 
  -5   1  -5    6.01    0.35 
  -5   1  -5    5.76    0.37 
  -5   1  -5    5.19    0.43 
  -5   1  -5    5.59    0.33 
  -5   1  -5    5.76    0.36 
  -5   1  -5    5.27    0.46 
  -7  -2   5   18.38    0.87 
  -7  -2   5   18.52    0.86 
  -7  -2   5   17.88    0.98 
  -7  -2   5   18.13    0.86 
  -6  -2   5    1.41    0.41 
  -6  -2   5    1.29    0.17 
  -6  -2   5    1.00    0.17 
  -6  -2   5    1.41    0.19 
  -6  -2   5    1.83    0.23 
  -6  -2   5    0.95    0.18 
  -6  -2   5    1.79    0.51 
  -6  -2   5    1.48    0.44 
  -6  -2   5    1.71    0.47 
  -6  -2   5    1.30    0.26 
  -6   2   5    1.36    0.12 
  -6   2   5    1.33    0.10 
  -6   2   5    0.77    0.31 
  -6   2   5    1.23    0.10 
  -6   2   5    1.10    0.13 
  -6   2   5    0.95    0.12 
  -6   2   5    1.11    0.18 
  -6   2   5    1.07    0.09 
  -6   2   5    1.58    0.46 
  -5  -2   5    1.11    0.41 
  -5  -2   5    1.59    0.54 
  -5  -2   5    0.95    0.27 
  -5  -2   5    0.88    0.25 
  -5  -2   5    0.94    0.22 
  -5  -2   5    0.99    0.22 
  -5  -2   5    1.31    0.50 
  -5  -2   5    1.21    0.42 
  -5  -2   5    1.55    0.49 
  -5  -2   5    1.24    0.35 
   5  -2  -5    0.75    0.16 
  -5  -2   5    0.86    0.37 
  -5  -2   5    0.97    0.22 
  -5  -2   5    0.70    0.19 
  -5  -2   5    0.74    0.14 
  -5  -2   5    1.10    0.24 
  -5   2   5    1.38    0.46 
  -5   2   5    0.74    0.21 
  -5   2   5    0.87    0.39 
  -5   2   5    0.91    0.19 
  -5   2   5    0.94    0.20 
  -5   2   5    1.21    0.17 
  -5   2   5    0.76    0.38 
  -5   2   5    1.00    0.46 
  -5   2   5    0.84    0.24 
  -5   2   5    0.75    0.22 
  -5   2   5    0.84    0.15 
  -4  -2   5   15.13    1.05 
  -4  -2   5   14.59    0.78 
  -4  -2   5   15.20    1.04 
  -4  -2   5   13.84    0.95 
  -4  -2   5   14.81    0.77 
  -4  -2   5   14.91    0.84 
   4  -2  -5   14.05    0.73 
  -4  -2   5   13.82    0.99 
  -4  -2   5   14.06    0.79 
  -4  -2   5   12.59    0.87 
  -4   2   5   13.30    0.79 
  -4   2   5   14.24    0.82 
  -4   2   5   14.31    0.75 
  -4   2   5   15.10    0.97 
   4   2  -5   14.15    0.74 
  -4   2   5   13.75    1.02 
  -4   2   5   14.94    0.77 
  -4   2   5   15.18    0.91 
  -4   2   5   13.95    0.82 
  -4   2   5   14.88    1.01 
   3  -2  -5    4.91    0.48 
  -3  -2   5    5.47    0.38 
  -3  -2   5    4.80    0.45 
  -3  -2   5    4.31    0.51 
  -3  -2   5    4.97    0.58 
  -3  -2   5    5.35    0.56 
  -3  -2   5    5.50    0.56 
  -3  -2   5    5.23    0.41 
   3  -2  -5    5.43    0.32 
   3  -2  -5    5.14    0.31 
  -3  -2   5    6.46    0.61 
  -3   2   5    4.97    0.36 
   3   2  -5    4.82    0.32 
  -3   2   5    4.70    0.41 
  -3   2   5    4.66    0.59 
  -3   2   5    6.02    0.56 
  -3   2   5    4.83    0.41 
  -3   2   5    4.25    0.59 
   3   2  -5    4.76    0.49 
  -3   2   5    4.87    0.47 
   2  -2  -5    9.94    0.74 
  -2  -2   5   11.64    0.61 
   2  -2  -5   10.19    0.72 
  -2  -2   5   10.54    0.85 
  -2  -2   5   10.02    0.66 
  -2  -2   5   11.43    0.72 
   2  -2  -5   11.07    0.56 
  -2  -2   5   10.13    0.59 
  -2  -2   5   10.38    0.67 
  -2   2   5   10.63    0.63 
  -2   2   5   10.94    0.65 
  -2   2   5    9.76    0.85 
  -2   2   5   10.35    0.59 
   2   2  -5   11.19    0.78 
   2   2  -5   10.91    0.55 
  -2   2   5   10.12    0.64 
  -2   2   5   10.08    0.79 
  -2   2   5    9.72    0.58 
   2   2  -5   10.33    0.76 
  -1  -2   5    1.06    0.32 
  -1  -2   5    1.24    0.30 
  -1  -2   5    1.22    0.37 
   1  -2  -5    1.66    0.34 
  -1  -2   5    1.36    0.34 
  -1  -2   5    1.34    0.24 
   1  -2  -5    1.19    0.17 
   1   2  -5    1.37    0.22 
  -1   2   5    1.43    0.24 
  -1   2   5    1.06    0.36 
   1   2  -5    1.24    0.26 
  -1   2   5    1.38    0.43 
   1   2  -5    1.58    0.18 
  -1   2   5    1.06    0.31 
   1   2  -5    1.51    0.36 
  -1   2   5    1.27    0.25 
   0  -2   5    9.56    0.65 
   0  -2  -5    9.41    0.63 
   0  -2   5    9.60    0.74 
   0  -2  -5    9.97    0.71 
   0  -2   5    9.96    0.52 
   0  -2  -5    8.91    0.56 
   0  -2  -5    9.07    0.56 
   0  -2   5   10.20    0.73 
   0  -2   5    8.68    0.56 
   0   2  -5    9.82    0.55 
   0   2   5    8.21    0.56 
   0   2  -5    9.79    0.57 
   0   2  -5    9.92    0.66 
   0   2  -5    9.97    0.68 
   0   2   5   10.32    0.72 
   0   2  -5    9.54    0.63 
   0   2   5    9.45    0.59 
   0   2   5    9.28    0.84 
   0   2  -5    8.56    0.60 
   0   2   5    9.43    0.69 
   1  -2   5    5.65    0.58 
   1  -2   5    5.64    0.35 
  -1  -2  -5    5.12    0.37 
  -1  -2  -5    4.66    0.38 
  -1  -2  -5    5.74    0.42 
  -1  -2  -5    5.81    0.48 
  -1  -2  -5    4.87    0.69 
   1   2   5    5.05    0.35 
  -1   2  -5    5.40    0.39 
  -1   2  -5    5.39    0.48 
   1   2   5    6.28    0.60 
  -1   2  -5    5.45    0.47 
   1   2   5    5.55    0.57 
  -1   2  -5    5.76    0.40 
  -1   2  -5    5.35    0.46 
  -1   2  -5    5.00    0.67 
  -1   2  -5    5.27    0.37 
  -2  -2  -5    1.98    0.36 
   2  -2   5    1.54    0.38 
  -2  -2  -5    1.36    0.24 
   2  -2   5    0.89    0.42 
   2  -2   5    1.15    0.22 
  -2  -2  -5    0.60    0.24 
  -2  -2  -5    1.39    0.25 
  -2  -2  -5    0.99    0.28 
  -2  -2  -5    1.29    0.35 
  -2  -2  -5    1.30    0.55 
  -2  -2  -5    1.43    0.27 
   2   2   5    0.71    0.17 
  -2   2  -5    1.14    0.29 
  -2   2  -5    0.84    0.25 
  -2   2  -5    1.30    0.43 
   2   2   5    1.19    0.41 
  -2   2  -5    1.37    0.28 
  -2   2  -5    0.98    0.18 
  -2   2  -5    1.45    0.35 
  -2   2  -5    1.23    0.49 
  -3  -2  -5   23.94    1.48 
  -3  -2  -5   25.24    1.30 
  -3  -2  -5   24.18    1.29 
  -3  -2  -5   23.92    1.33 
  -3  -2  -5   24.46    1.32 
  -3  -2  -5   25.58    1.36 
  -3  -2  -5   26.58    1.34 
  -3  -2  -5   25.05    1.21 
   3  -2   5   25.84    1.24 
  -3  -2  -5   23.67    1.26 
  -3   2  -5   25.32    1.29 
  -3   2  -5   23.59    1.28 
  -3   2  -5   26.75    1.46 
   3   2   5   24.36    1.25 
  -3   2  -5   24.65    1.34 
  -3   2  -5   25.19    1.29 
  -3   2  -5   25.11    1.25 
  -3   2  -5   23.30    1.27 
  -4  -2  -5   34.94    1.69 
  -4  -2  -5   33.58    1.66 
  -4  -2  -5   33.12    1.71 
  -4  -2  -5   32.98    1.69 
  -4  -2  -5   34.45    1.67 
  -4  -2  -5   33.71    1.86 
  -4  -2  -5   34.83    1.67 
  -4  -2  -5   31.92    1.68 
  -4  -2  -5   33.90    1.75 
  -4  -2  -5   36.15    1.67 
  -4  -2  -5   34.25    1.69 
  -4  -2  -5   36.20    1.85 
  -4   2  -5   34.58    1.65 
  -4   2  -5   31.13    1.65 
  -4   2  -5   33.95    1.65 
  -4   2  -5   34.65    1.71 
  -4   2  -5   36.19    1.80 
  -4   2  -5   30.19    1.62 
  -4   2  -5   33.40    1.84 
  -4   2  -5   35.82    1.68 
  -4   2  -5   34.67    1.65 
  -4   2  -5   30.82    1.65 
  -4   2  -5   33.66    1.75 
  -4   2  -5   32.87    1.68 
  -5  -2  -5    0.83    0.22 
  -5  -2  -5    0.41    0.20 
  -5  -2  -5    0.58    0.14 
  -5  -2  -5    0.71    0.21 
  -5  -2  -5    0.81    0.17 
  -5  -2  -5    0.53    0.13 
  -5  -2  -5    0.35    0.10 
  -5   2  -5    0.52    0.15 
  -5   2  -5    0.55    0.13 
  -5   2  -5    0.58    0.13 
  -5   2  -5    0.55    0.23 
  -5   2  -5    0.47    0.12 
  -5   2  -5    0.72    0.17 
  -5   2  -5    0.50    0.27 
  -7  -3   5    7.85    0.38 
  -7  -3   5    8.31    0.38 
  -7  -3   5    8.84    0.53 
  -7  -3   5    8.48    0.38 
  -7  -3   5    7.06    0.36 
  -7  -3   5    6.62    0.36 
  -6  -3   5    3.38    0.29 
  -6  -3   5    3.76    0.24 
  -6  -3   5    3.69    0.31 
  -6  -3   5    3.08    0.56 
  -6  -3   5    3.61    0.59 
  -6  -3   5    3.62    0.47 
  -6  -3   5    3.75    0.27 
  -6  -3   5    3.24    0.29 
  -6  -3   5    3.51    0.52 
  -6  -3   5    3.37    0.27 
  -6   3   5    3.76    0.47 
  -6   3   5    3.47    0.21 
  -6   3   5    3.60    0.21 
  -6   3   5    3.40    0.49 
  -6   3   5    3.59    0.20 
  -5  -3   5    5.06    0.60 
  -5  -3   5    5.08    0.36 
  -5  -3   5    3.83    0.36 
  -5  -3   5    4.38    0.65 
  -5  -3   5    4.55    0.66 
  -5  -3   5    3.82    0.31 
  -5  -3   5    4.50    0.37 
  -5  -3   5    4.46    0.50 
  -5  -3   5    4.52    0.35 
  -5  -3   5    4.75    0.49 
  -5  -3   5    4.10    0.35 
  -5  -3   5    4.37    0.37 
  -5  -3   5    4.48    0.37 
  -5  -3   5    3.83    0.51 
  -5  -3   5    3.13    0.60 
  -5   3   5    4.81    0.28 
  -5   3   5    4.33    0.30 
  -5   3   5    4.29    0.28 
  -5   3   5    4.18    0.37 
  -5   3   5    4.55    0.58 
  -5   3   5    4.55    0.32 
   5   3  -5    3.76    0.33 
  -5   3   5    5.03    0.40 
  -5   3   5    4.30    0.56 
  -5   3   5    4.45    0.33 
  -5   3   5    4.23    0.31 
  -4  -3   5   39.25    2.15 
  -4  -3   5   38.08    2.14 
  -4  -3   5   40.26    2.25 
  -4  -3   5   42.65    2.22 
  -4  -3   5   41.51    2.19 
  -4  -3   5   40.72    2.01 
   4  -3  -5   41.95    1.98 
  -4  -3   5   42.84    2.04 
  -4  -3   5   42.78    2.07 
  -4  -3   5   40.14    2.21 
  -4  -3   5   40.18    2.03 
  -4   3   5   41.70    2.02 
  -4   3   5   43.21    2.00 
   4   3  -5   43.57    2.00 
  -4   3   5   39.80    2.13 
  -4   3   5   41.62    2.27 
  -4   3   5   43.27    2.06 
  -4   3   5   42.59    2.24 
  -4   3   5   39.00    2.06 
  -4   3   5   41.84    2.01 
  -3  -3   5    8.26    0.78 
  -3  -3   5    8.63    0.72 
  -3  -3   5    9.02    0.76 
  -3  -3   5    8.47    0.54 
  -3  -3   5    8.12    0.51 
   3  -3  -5    8.23    0.64 
   3  -3  -5    8.20    0.45 
  -3  -3   5    8.56    0.72 
   3  -3  -5    8.61    0.46 
  -3  -3   5    8.47    0.70 
  -3  -3   5    8.42    0.58 
  -3   3   5    7.30    0.54 
   3   3  -5    8.58    0.68 
  -3   3   5    7.96    0.71 
   3   3  -5    8.43    0.69 
   3   3  -5    8.25    0.47 
  -3   3   5    7.75    0.53 
  -3   3   5    8.64    0.70 
  -3   3   5    8.10    0.61 
  -3   3   5    8.41    0.72 
  -3   3   5    8.74    0.80 
  -3   3   5    7.61    0.49 
  -3   3   5    8.34    0.72 
  -3   3   5    7.33    0.51 
   2  -3  -5   34.75    1.97 
   2  -3  -5   39.10    1.78 
  -2  -3   5   33.60    1.86 
  -2  -3   5   38.22    1.94 
  -2  -3   5   37.20    1.81 
  -2  -3   5   32.23    2.01 
  -2  -3   5   37.36    1.87 
   2  -3  -5   39.90    1.97 
   2   3  -5   37.39    1.99 
   2   3  -5   36.19    1.93 
  -2   3   5   36.03    1.84 
  -2   3   5   38.06    1.86 
   2   3  -5   35.94    1.77 
  -2   3   5   34.55    1.82 
  -2   3   5   38.55    2.14 
  -2   3   5   38.21    1.80 
  -2   3   5   38.48    1.94 
  -2   3   5   38.69    2.06 
  -2   3   5   37.50    1.80 
   1  -3  -5   29.48    1.49 
   1  -3  -5   25.46    1.25 
  -1  -3   5   22.60    1.30 
  -1  -3   5   25.44    1.30 
  -1  -3   5   24.60    1.36 
   1  -3  -5   23.92    1.41 
  -1  -3   5   26.78    1.44 
  -1  -3   5   24.84    1.36 
  -1  -3   5   27.22    1.45 
  -1   3   5   25.21    1.32 
   1   3  -5   25.61    1.25 
   1   3  -5   25.67    1.29 
  -1   3   5   27.30    1.63 
   1   3  -5   27.99    1.42 
   1   3  -5   27.51    1.47 
  -1   3   5   23.54    1.26 
   1   3  -5   24.68    1.30 
  -1   3   5   25.58    1.41 
  -1   3   5   24.88    1.28 
   0  -3  -5   31.54    1.70 
   0  -3   5   30.30    1.71 
   0  -3   5   31.89    1.70 
   0  -3   5   34.83    1.62 
   0  -3  -5   30.42    1.55 
   0  -3  -5   30.86    1.61 
   0  -3   5   30.81    1.61 
   0  -3  -5   28.86    1.66 
   0  -3   5   29.53    1.49 
   0  -3  -5   29.89    1.57 
   0  -3  -5   29.91    1.54 
   0   3  -5   31.47    1.54 
   0   3  -5   30.51    1.63 
   0   3   5   30.03    1.58 
   0   3   5   31.89    1.57 
   0   3   5   32.26    1.71 
   0   3  -5   30.53    1.60 
   0   3   5   29.18    1.54 
   0   3  -5   29.99    1.55 
   0   3   5   30.94    1.86 
   0   3  -5   29.88    1.68 
   0   3  -5   31.57    1.53 
   0   3   5   33.55    1.68 
  -1  -3  -5   26.56    1.31 
   1  -3   5   25.59    1.30 
  -1  -3  -5   24.29    1.73 
  -1  -3  -5   27.95    1.36 
  -1  -3  -5   27.28    1.44 
   1  -3   5   24.35    1.53 
  -1  -3  -5   26.72    1.36 
  -1   3  -5   27.65    1.33 
   1   3   5   26.46    1.31 
  -1   3  -5   23.89    1.64 
  -1   3  -5   29.62    1.77 
  -1   3  -5   26.54    1.42 
  -1   3  -5   26.57    1.34 
  -1   3  -5   27.05    1.35 
  -1   3  -5   25.90    1.40 
   1   3   5   27.48    1.51 
   1   3   5   27.84    1.56 
  -2  -3  -5   27.39    1.48 
   2  -3   5   29.09    1.35 
  -2  -3  -5   26.40    1.43 
  -2  -3  -5   26.21    1.82 
   2  -3   5   25.23    1.54 
  -2  -3  -5   27.85    1.37 
  -2  -3  -5   26.43    1.40 
  -2  -3  -5   27.21    1.37 
  -2  -3  -5   27.55    1.46 
  -2  -3  -5   27.35    1.38 
  -2   3  -5   26.50    1.44 
  -2   3  -5   27.39    1.40 
   2   3   5   29.31    1.36 
  -2   3  -5   26.64    1.39 
  -2   3  -5   28.29    1.81 
  -2   3  -5   28.44    1.44 
  -2   3  -5   26.18    1.55 
  -2   3  -5   26.38    1.35 
   3  -3   5   14.47    0.76 
  -3  -3  -5   14.44    0.85 
  -3  -3  -5   13.88    0.74 
  -3  -3  -5   14.31    0.83 
  -3  -3  -5   14.81    0.80 
  -3  -3  -5   12.44    0.81 
  -3  -3  -5   13.94    0.91 
  -3  -3  -5   15.00    1.05 
  -3  -3  -5   14.40    0.87 
  -3   3  -5   14.05    0.81 
  -3   3  -5   12.29    0.78 
  -3   3  -5   14.67    0.77 
   3   3   5   13.83    0.77 
  -3   3  -5   15.02    0.81 
  -3   3  -5   15.00    0.82 
  -3   3  -5   14.90    0.99 
  -3   3  -5   14.81    0.87 
  -4  -3  -5    5.12    0.39 
  -4  -3  -5    4.46    0.43 
  -4  -3  -5    4.29    0.41 
  -4  -3  -5    4.55    0.57 
  -4  -3  -5    4.65    0.42 
  -4  -3  -5    4.16    0.39 
  -4  -3  -5    4.71    0.40 
  -4  -3  -5    5.06    0.46 
  -4  -3  -5    4.96    0.38 
  -4  -3  -5    5.91    0.54 
  -4  -3  -5    4.56    0.42 
  -4  -3  -5    4.71    0.39 
  -4  -3  -5    5.45    0.40 
  -4   3  -5    4.20    0.37 
  -4   3  -5    4.76    0.31 
  -4   3  -5    4.52    0.47 
  -4   3  -5    4.52    0.36 
  -4   3  -5    4.74    0.36 
  -4   3  -5    3.61    0.45 
  -4   3  -5    4.82    0.50 
   4   3   5    5.07    0.41 
  -4   3  -5    4.95    0.66 
  -4   3  -5    5.88    0.40 
  -4   3  -5    5.07    0.35 
  -4   3  -5    4.69    0.35 
  -5  -3  -5    1.49    0.26 
  -5  -3  -5    1.70    0.31 
  -5  -3  -5    1.75    0.25 
  -5  -3  -5    1.71    0.23 
  -5  -3  -5    2.09    0.30 
  -5  -3  -5    1.81    0.18 
  -5  -3  -5    1.90    0.22 
  -5   3  -5    1.53    0.34 
  -5   3  -5    1.92    0.19 
  -5   3  -5    2.01    0.16 
  -5   3  -5    1.88    0.16 
   5   3   5    1.62    0.26 
  -5   3  -5    1.54    0.20 
  -5   3  -5    1.93    0.15 
  -5   3  -5    1.95    0.21 
  -5   3  -5    1.77    0.19 
  -6  -4   5   14.67    0.75 
  -6  -4   5   14.84    0.73 
  -6  -4   5   14.37    0.88 
  -6  -4   5   14.38    1.02 
  -6  -4   5   14.37    0.93 
  -6  -4   5   14.60    0.76 
  -6  -4   5   14.38    0.77 
  -6  -4   5   14.57    0.75 
  -6  -4   5   13.16    0.89 
  -6  -4   5   15.11    0.76 
  -6   4   5   16.00    0.92 
  -6   4   5   14.91    0.70 
  -6   4   5   14.64    0.79 
  -6   4   5   14.24    0.70 
  -6   4   5   14.71    0.70 
  -5  -4   5   31.81    1.54 
  -5  -4   5   31.53    1.62 
  -5  -4   5   28.75    1.65 
  -5  -4   5   30.64    1.75 
  -5  -4   5   32.30    1.53 
  -5  -4   5   31.71    1.54 
  -5  -4   5   30.14    1.54 
  -5  -4   5   31.46    1.55 
  -5  -4   5   33.45    1.54 
  -5  -4   5   28.05    1.55 
  -5  -4   5   29.04    1.67 
  -5  -4   5   30.52    1.70 
  -5  -4   5   30.08    1.83 
  -5  -4   5   28.80    1.64 
  -5   4   5   29.95    1.51 
  -5   4   5   32.75    1.48 
  -5   4   5   30.05    1.66 
  -5   4   5   31.79    1.48 
  -5   4   5   32.45    1.75 
  -5   4   5   31.94    1.55 
  -5   4   5   32.08    1.49 
  -5   4   5   30.31    1.50 
  -5   4   5   30.89    1.51 
  -4  -4   5    1.07    0.31 
  -4  -4   5    1.88    0.18 
  -4  -4   5    1.55    0.32 
  -4  -4   5    1.32    0.46 
   4  -4  -5    1.79    0.19 
  -4  -4   5    1.23    0.36 
  -4  -4   5    0.88    0.37 
  -4  -4   5    1.25    0.30 
  -4  -4   5    1.36    0.27 
  -4  -4   5    1.91    0.54 
  -4  -4   5    1.23    0.27 
  -4   4   5    1.36    0.23 
  -4   4   5    1.68    0.54 
  -4   4   5    1.43    0.26 
  -4   4   5    1.58    0.29 
  -4   4   5    1.45    0.42 
  -4   4   5    2.09    0.27 
   4   4  -5    1.40    0.21 
  -4   4   5    1.53    0.25 
  -4   4   5    1.72    0.28 
  -3  -4   5    6.99    0.58 
  -3  -4   5    6.63    0.67 
  -3  -4   5    6.60    0.44 
  -3  -4   5    6.40    0.47 
   3  -4  -5    6.75    0.39 
  -3  -4   5    5.62    0.45 
  -3  -4   5    6.59    0.50 
  -3  -4   5    5.81    0.68 
   3  -4  -5    5.79    0.56 
  -3  -4   5    6.36    0.66 
   3  -4  -5    6.90    0.40 
  -3   4   5    7.01    0.44 
  -3   4   5    5.99    0.72 
  -3   4   5    6.78    0.56 
   3   4  -5    6.72    0.40 
  -3   4   5    6.22    0.45 
  -3   4   5    6.54    0.50 
  -3   4   5    6.20    0.44 
  -3   4   5    7.81    0.48 
  -3   4   5    6.51    0.63 
  -3   4   5    6.00    0.45 
  -3   4   5    6.83    0.67 
  -3   4   5    6.19    0.64 
   3   4  -5    6.54    0.63 
  -3   4   5    6.14    0.42 
  -3   4   5    6.83    0.65 
  -2  -4   5   21.33    1.23 
   2  -4  -5   21.59    1.05 
   2  -4  -5   20.28    1.29 
  -2  -4   5   20.38    1.16 
  -2  -4   5   22.61    1.19 
  -2  -4   5   20.35    1.21 
  -2  -4   5   20.39    1.09 
   2  -4  -5   19.80    1.23 
  -2   4   5   19.71    1.13 
  -2   4   5   21.62    1.29 
   2   4  -5   22.23    1.29 
  -2   4   5   23.28    1.30 
   2   4  -5   20.79    1.24 
  -2   4   5   21.47    1.43 
  -2   4   5   21.28    1.32 
  -2   4   5   21.22    1.22 
  -2   4   5   20.85    1.12 
  -2   4   5   20.18    1.09 
  -2   4   5   21.48    1.08 
  -2   4   5   21.30    1.08 
   2   4  -5   21.38    1.05 
  -1  -4   5   40.35    2.11 
   1  -4  -5   40.00    1.91 
  -1  -4   5   40.18    1.97 
  -1  -4   5   40.32    2.02 
  -1  -4   5   40.99    2.12 
   1  -4  -5   39.71    2.14 
  -1  -4   5   39.39    1.96 
   1  -4  -5   43.78    2.12 
  -1  -4   5   36.88    2.03 
  -1   4   5   39.16    1.95 
  -1   4   5   41.80    2.07 
  -1   4   5   39.45    2.10 
   1   4  -5   37.36    2.01 
   1   4  -5   39.45    1.95 
   1   4  -5   40.37    1.96 
   1   4  -5   36.41    2.10 
   1   4  -5   39.13    2.07 
  -1   4   5   39.19    1.98 
  -1   4   5   41.39    1.90 
  -1   4   5   39.67    2.29 
   0  -4  -5   93.53    4.67 
   0  -4   5   91.00    4.68 
   0  -4  -5   97.38    4.55 
   0  -4  -5   93.41    4.70 
   0  -4   5   95.65    4.73 
   0  -4   5   98.32    4.49 
   0  -4  -5   92.53    4.54 
   0  -4  -5  106.18    4.58 
   0   4   5   96.90    4.54 
   0   4   5   98.69    4.90 
   0   4  -5   91.17    4.51 
   0   4   5   92.38    4.69 
   0   4   5  102.57    4.67 
   0   4   5   90.14    4.54 
   0   4   5   93.40    4.56 
   0   4  -5   94.26    4.52 
   0   4  -5   97.25    4.53 
   0   4  -5   94.32    4.58 
   0   4  -5   93.72    4.62 
   1  -4   5   -0.10    0.31 
   1  -4   5   -0.17    0.13 
  -1  -4  -5   -0.01    0.19 
  -1  -4  -5    0.09    0.19 
  -1  -4  -5    0.16    0.16 
  -1  -4  -5    0.00    0.26 
  -1   4  -5   -0.07    0.22 
  -1   4  -5    0.09    0.16 
   1   4   5    0.05    0.33 
   1   4   5    0.26    0.14 
  -1   4  -5    0.19    0.21 
  -1   4  -5    0.08    0.22 
   1   4   5   -0.16    0.29 
  -1   4  -5   -0.01    0.15 
  -1   4  -5    0.20    0.41 
  -1   4  -5    0.24    0.15 
  -2  -4  -5   54.59    2.58 
  -2  -4  -5   53.54    2.63 
  -2  -4  -5   54.68    2.62 
  -2  -4  -5   55.91    2.67 
  -2  -4  -5   53.71    3.10 
   2  -4   5   54.04    2.55 
  -2  -4  -5   55.35    2.70 
  -2  -4  -5   52.57    2.57 
  -2  -4  -5   53.44    2.57 
  -2   4  -5   53.27    2.64 
  -2   4  -5   52.76    2.64 
  -2   4  -5   53.61    2.60 
  -2   4  -5   51.70    2.55 
   2   4   5   56.02    2.56 
  -2   4  -5   54.94    2.60 
  -2   4  -5   43.82    2.96 
  -2   4  -5   49.59    2.60 
  -2   4  -5   52.82    2.77 
  -3  -4  -5   17.69    1.25 
  -3  -4  -5   18.63    1.04 
  -3  -4  -5   20.23    0.97 
  -3  -4  -5   18.55    1.12 
  -3  -4  -5   18.77    0.99 
  -3  -4  -5   22.51    1.11 
  -3  -4  -5   18.02    1.03 
  -3  -4  -5   18.49    0.96 
  -3  -4  -5   20.02    1.02 
  -3  -4  -5   18.72    1.05 
  -3  -4  -5   19.55    1.09 
  -3  -4  -5   18.77    1.12 
  -3  -4  -5   19.68    1.08 
   3  -4   5   16.79    0.97 
  -3  -4  -5   19.36    0.96 
  -3  -4  -5   20.00    1.08 
  -3  -4  -5   19.12    1.07 
  -3  -4  -5   21.20    1.08 
  -3   4  -5   19.10    1.03 
  -3   4  -5   18.64    1.08 
  -3   4  -5   18.69    1.00 
  -3   4  -5   17.75    1.01 
  -3   4  -5   17.86    1.00 
   3   4   5   19.00    0.99 
   3   4   5   19.84    1.03 
  -3   4  -5   18.87    1.01 
  -3   4  -5   19.52    1.01 
  -3   4  -5   19.33    1.20 
  -3   4  -5   18.01    1.00 
  -3   4  -5   17.54    0.97 
  -3   4  -5   19.17    0.98 
   3   4   5   19.84    1.14 
  -3   4  -5   18.31    0.99 
  -3   4  -5   20.60    1.08 
  -4  -4  -5    3.90    0.38 
  -4  -4  -5    3.87    0.40 
  -4  -4  -5    4.14    0.39 
  -4  -4  -5    3.59    0.36 
  -4  -4  -5    4.31    0.39 
  -4  -4  -5    3.09    0.44 
  -4  -4  -5    4.43    0.50 
  -4  -4  -5    4.52    0.41 
  -4  -4  -5    4.10    0.36 
  -4  -4  -5    4.17    0.39 
  -4  -4  -5    4.11    0.53 
  -4  -4  -5    4.69    0.37 
  -4  -4  -5    3.13    0.42 
  -4   4  -5    3.85    0.31 
  -4   4  -5    4.38    0.33 
  -4   4  -5    4.19    0.45 
  -4   4  -5    3.76    0.33 
   4   4   5    4.05    0.39 
  -4   4  -5    4.37    0.29 
  -4   4  -5    4.18    0.64 
  -4   4  -5    3.70    0.44 
  -4   4  -5    4.03    0.36 
  -4   4  -5    4.06    0.42 
  -4   4  -5    4.38    0.32 
  -5  -4  -5    3.18    0.27 
  -5  -4  -5    2.80    0.24 
  -5  -4  -5    2.68    0.25 
  -5  -4  -5    2.54    0.43 
  -5  -4  -5    2.49    0.28 
  -5  -4  -5    2.19    0.33 
  -5  -4  -5    2.29    0.20 
  -5  -4  -5    2.41    0.25 
  -5  -4  -5    2.50    0.24 
  -5   4  -5    2.51    0.16 
  -5   4  -5    2.44    0.21 
  -5   4  -5    2.42    0.18 
  -5   4  -5    2.41    0.17 
  -5   4  -5    2.73    0.20 
  -5   4  -5    2.75    0.20 
   5   4   5    2.52    0.27 
  -6  -5   5    0.69    0.29 
  -6  -5   5    1.83    0.20 
  -6  -5   5    1.56    0.23 
  -6  -5   5    1.80    0.28 
  -6  -5   5    1.44    0.18 
  -6  -5   5    1.45    0.24 
  -6  -5   5    1.52    0.44 
  -6  -5   5    1.56    0.22 
  -6   5   5    1.68    0.11 
  -6   5   5    1.85    0.27 
  -6   5   5    1.42    0.12 
  -6   5   5    1.68    0.12 
  -5  -5   5   22.84    1.43 
  -5  -5   5   21.86    1.16 
  -5  -5   5   22.05    1.35 
  -5  -5   5   21.37    1.29 
  -5  -5   5   23.91    1.21 
  -5  -5   5   22.93    1.17 
  -5  -5   5   24.58    1.19 
  -5  -5   5   23.71    1.25 
  -5  -5   5   22.06    1.19 
  -5  -5   5   23.69    1.18 
  -5  -5   5   23.76    1.17 
  -5  -5   5   22.13    1.16 
  -5  -5   5   23.90    1.42 
  -5  -5   5   22.31    1.29 
  -5   5   5   23.35    1.12 
  -5   5   5   23.60    1.10 
  -5   5   5   19.79    1.16 
  -5   5   5   22.74    1.10 
  -5   5   5   22.39    1.13 
  -5   5   5   24.37    1.35 
  -5   5   5   23.34    1.12 
  -5   5   5   21.89    1.29 
  -5   5   5   21.97    1.18 
  -4  -5   5   11.37    0.91 
  -4  -5   5   11.01    0.61 
  -4  -5   5   11.89    0.71 
  -4  -5   5   12.02    0.73 
  -4  -5   5   11.19    0.96 
  -4  -5   5   11.42    0.72 
  -4  -5   5   12.24    0.70 
  -4  -5   5   11.13    0.95 
   4  -5  -5   10.36    0.63 
  -4  -5   5   12.00    0.79 
  -4   5   5   11.60    0.67 
  -4   5   5   14.28    0.86 
  -4   5   5   11.63    0.67 
  -4   5   5   12.38    0.99 
   4   5  -5   12.66    0.66 
  -4   5   5   12.37    0.65 
  -4   5   5   12.49    0.70 
  -3  -5   5    6.13    0.69 
   3  -5  -5    6.49    0.40 
  -3  -5   5    6.27    0.47 
  -3  -5   5    6.62    0.70 
  -3  -5   5    5.88    0.45 
   3  -5  -5    6.56    0.39 
  -3  -5   5    6.21    0.50 
  -3  -5   5    6.35    0.57 
  -3  -5   5    6.36    0.44 
  -3   5   5    5.38    0.54 
   3   5  -5    6.37    0.40 
  -3   5   5    6.27    0.46 
  -3   5   5    6.64    0.42 
  -3   5   5    6.23    0.78 
  -3   5   5    6.01    0.65 
  -3   5   5    7.11    0.49 
  -3   5   5    6.07    0.50 
  -3   5   5    6.92    0.45 
  -3   5   5    6.19    0.47 
  -3   5   5    6.11    0.67 
   2  -5  -5    7.22    0.43 
   2  -5  -5    6.95    0.62 
  -2  -5   5    7.33    0.48 
  -2  -5   5    7.24    0.59 
   2  -5  -5    6.41    0.68 
  -2  -5   5    6.60    0.62 
  -2   5   5    7.23    0.67 
  -2   5   5    6.99    0.46 
   2   5  -5    7.07    0.61 
   2   5  -5    7.37    0.41 
  -2   5   5    7.63    0.65 
  -2   5   5    5.10    0.76 
   2   5  -5    6.92    0.66 
  -2   5   5    5.93    0.50 
  -2   5   5    7.42    0.54 
  -2   5   5    6.99    0.71 
  -2   5   5    7.61    0.70 
  -2   5   5    7.15    0.47 
  -2   5   5    7.15    0.52 
  -2   5   5    6.29    0.45 
  -2   5   5    7.13    0.81 
  -1  -5   5   75.60    3.71 
  -1  -5   5   75.06    3.60 
   1  -5  -5   75.17    3.49 
   1  -5  -5   72.91    3.68 
  -1  -5   5   69.73    3.53 
   1  -5  -5   79.14    3.76 
  -1  -5   5   64.46    3.68 
  -1  -5   5   77.05    3.63 
  -1  -5   5   73.11    3.55 
  -1   5   5   71.66    3.69 
   1   5  -5   74.71    3.53 
  -1   5   5   72.72    3.52 
   1   5  -5   80.77    3.68 
  -1   5   5   71.28    3.62 
   1   5  -5   74.06    3.71 
  -1   5   5   76.27    3.93 
  -1   5   5   72.54    3.98 
  -1   5   5   70.23    3.56 
   1   5  -5   72.95    3.54 
   1   5  -5   73.35    3.57 
   1   5  -5   74.81    3.66 
   0  -5   5   20.94    1.43 
   0  -5  -5   24.62    1.28 
   0  -5   5   24.63    1.21 
   0  -5  -5   23.65    1.29 
   0  -5  -5   26.56    1.43 
   0  -5  -5   24.52    1.46 
   0  -5  -5   24.56    1.27 
   0  -5   5   25.29    1.46 
   0   5  -5   25.02    1.36 
   0   5   5   23.79    1.31 
   0   5  -5   25.93    1.25 
   0   5  -5   23.30    1.25 
   0   5  -5   22.68    1.26 
   0   5   5   25.63    1.28 
   0   5   5   23.75    1.40 
   0   5  -5   24.90    1.22 
   0   5   5   25.88    1.28 
   0   5  -5   23.97    1.31 
   0   5   5   20.79    1.40 
   0   5   5   24.71    1.63 
  -1  -5  -5   26.10    1.34 
  -1  -5  -5   26.30    1.28 
  -1  -5  -5   24.94    1.42 
   1  -5   5   25.79    1.56 
  -1  -5  -5   26.51    1.32 
   1  -5   5   26.72    1.27 
   1   5   5   27.37    1.37 
  -1   5  -5   24.93    1.28 
  -1   5  -5   24.73    1.37 
  -1   5  -5   26.60    1.32 
  -1   5  -5   24.83    1.33 
  -1   5  -5   26.69    1.30 
   1   5   5   27.10    1.52 
  -1   5  -5   24.34    1.27 
  -1   5  -5   24.50    1.39 
   1   5   5   21.64    1.51 
   1   5   5   23.41    1.27 
   2  -5   5    6.47    0.43 
  -2  -5  -5    6.73    0.56 
  -2  -5  -5    5.65    0.52 
  -2  -5  -5    7.00    0.47 
  -2  -5  -5    6.80    1.02 
  -2  -5  -5    6.30    0.48 
  -2  -5  -5    5.97    0.59 
   2   5   5    6.68    0.73 
   2   5   5    6.43    0.44 
  -2   5  -5    6.74    0.49 
  -2   5  -5    6.75    0.56 
  -2   5  -5    6.89    0.56 
  -2   5  -5    5.73    0.47 
  -2   5  -5    6.23    0.47 
  -2   5  -5    5.94    0.40 
  -2   5  -5    7.36    0.71 
  -2   5  -5    6.75    0.44 
  -3  -5  -5    0.70    0.17 
  -3  -5  -5    0.58    0.21 
   3  -5   5    0.64    0.17 
  -3  -5  -5    0.81    0.25 
  -3  -5  -5    0.43    0.22 
  -3  -5  -5    0.95    0.31 
  -3  -5  -5    0.32    0.13 
  -3  -5  -5    0.76    0.21 
  -3  -5  -5    0.75    0.22 
  -3  -5  -5    0.24    0.22 
  -3  -5  -5    0.08    0.23 
  -3  -5  -5    1.06    0.38 
  -3  -5  -5    0.37    0.24 
  -3  -5  -5    0.03    0.22 
  -3  -5  -5    0.76    0.26 
  -3  -5  -5    0.81    0.26 
  -3  -5  -5    0.52    0.27 
  -3  -5  -5    0.29    0.17 
  -3  -5  -5    0.51    0.30 
  -3  -5  -5    0.82    0.29 
  -3   5  -5    0.49    0.17 
  -3   5  -5    0.62    0.18 
  -3   5  -5    0.38    0.19 
  -3   5  -5    0.62    0.22 
  -3   5  -5    0.70    0.26 
  -3   5  -5    0.32    0.35 
   3   5   5    0.53    0.25 
  -3   5  -5    0.46    0.36 
  -3   5  -5    0.64    0.18 
   3   5   5    0.62    0.26 
  -3   5  -5    0.75    0.23 
  -3   5  -5    0.35    0.17 
  -3   5  -5    0.51    0.18 
  -3   5  -5    0.98    0.28 
  -3   5  -5    0.50    0.19 
   3   5   5    0.53    0.20 
  -4  -5  -5   16.01    0.84 
  -4  -5  -5   13.03    1.21 
  -4  -5  -5   14.24    0.82 
  -4  -5  -5   15.86    0.84 
  -4  -5  -5   14.63    0.81 
  -4  -5  -5   13.67    0.85 
  -4  -5  -5   14.96    0.85 
  -4  -5  -5   16.13    0.91 
  -4  -5  -5   13.94    0.82 
  -4  -5  -5   14.47    0.83 
  -4  -5  -5   15.47    0.83 
  -4   5  -5   15.81    0.80 
  -4   5  -5   15.12    1.01 
  -4   5  -5   14.65    0.75 
   4   5   5   14.51    0.87 
  -4   5  -5   15.71    0.79 
   4   5   5   15.45    0.83 
  -4   5  -5   15.45    0.78 
  -4   5  -5   13.80    0.77 
  -4   5  -5   14.85    0.77 
  -5  -5  -5    4.36    0.35 
  -5  -5  -5    4.43    0.28 
  -5  -5  -5    4.37    0.38 
  -5  -5  -5    4.13    0.28 
  -5  -5  -5    4.60    0.31 
  -5  -5  -5    4.49    0.32 
  -5  -5  -5    4.03    0.27 
  -5  -5  -5    3.69    0.29 
  -5   5  -5    4.20    0.23 
  -5   5  -5    4.26    0.23 
  -5   5  -5    4.05    0.23 
  -5   5  -5    4.40    0.44 
  -5   5  -5    4.07    0.25 
   5   5   5    4.47    0.31 
  -5   5  -5    4.35    0.22 
  -5   5  -5    4.41    0.24 
  -6  -6   5    0.25    0.12 
  -6  -6   5    0.47    0.11 
  -6  -6   5    0.41    0.11 
  -6  -6   5    0.52    0.14 
  -6  -6   5    0.63    0.29 
  -6  -6   5    0.06    0.31 
  -6  -6   5    0.46    0.15 
  -6   6   5    0.53    0.08 
  -6   6   5    0.51    0.06 
  -6   6   5    0.40    0.07 
   6   6  -5    0.44    0.13 
  -6   6   5    0.48    0.08 
  -6   6   5    0.36    0.05 
  -5  -6   5    1.91    0.47 
  -5  -6   5    1.74    0.53 
  -5  -6   5    2.27    0.34 
  -5  -6   5    2.32    0.45 
  -5  -6   5    2.57    0.33 
  -5  -6   5    2.15    0.57 
  -5  -6   5    2.45    0.49 
  -5  -6   5    2.31    0.31 
  -5  -6   5    2.18    0.28 
  -5  -6   5    1.90    0.31 
  -5  -6   5    2.20    0.28 
  -5  -6   5    2.44    0.33 
  -5  -6   5    2.11    0.28 
  -5  -6   5    2.00    0.28 
   5   6  -5    2.55    0.28 
  -5   6   5    2.57    0.56 
  -5   6   5    2.33    0.18 
  -5   6   5    2.27    0.24 
  -5   6   5    2.45    0.22 
  -5   6   5    1.92    0.22 
  -5   6   5    2.12    0.26 
  -5   6   5    2.05    0.30 
  -5   6   5    2.40    0.20 
  -5   6   5    2.50    0.51 
  -4  -6   5    6.84    0.40 
  -4  -6   5    5.48    0.38 
  -4  -6   5    6.79    0.38 
  -4  -6   5    6.02    0.67 
  -4  -6   5    6.27    0.55 
  -4  -6   5    6.77    0.76 
  -4  -6   5    5.35    0.52 
  -4  -6   5    6.56    0.51 
  -4  -6   5    7.10    0.51 
  -4  -6   5    6.52    0.42 
  -4  -6   5    6.14    0.49 
  -4  -6   5    6.40    0.72 
  -4  -6   5    6.96    0.50 
  -4  -6   5    5.72    0.40 
  -4  -6   5    6.34    0.56 
  -4  -6   5    5.65    0.46 
  -4  -6   5    7.10    0.70 
  -4  -6   5    6.21    0.47 
  -4   6   5    6.18    0.38 
  -4   6   5    5.43    0.43 
  -4   6   5    5.66    0.65 
  -4   6   5    6.05    0.42 
  -4   6   5    6.92    0.48 
   4   6  -5    5.82    0.43 
  -4   6   5    6.60    0.44 
  -4   6   5    5.75    0.44 
  -4   6   5    6.03    0.43 
  -4   6   5    5.96    0.73 
  -4   6   5    5.49    0.41 
   4   6  -5    5.82    0.52 
  -4   6   5    5.48    0.60 
   4   6  -5    6.99    0.41 
  -4   6   5    5.68    0.64 
  -4   6   5    6.60    0.42 
  -3  -6   5   10.93    0.85 
  -3  -6   5   10.85    0.71 
   3  -6  -5   10.73    0.61 
  -3  -6   5   12.61    0.82 
  -3  -6   5   10.78    0.67 
  -3  -6   5   11.63    0.65 
  -3  -6   5   15.27    1.72 
  -3   6   5   11.50    0.67 
   3   6  -5   10.65    0.62 
  -3   6   5   12.11    0.80 
  -3   6   5   12.59    0.91 
  -3   6   5    8.91    0.97 
  -3   6   5   11.53    0.96 
  -3   6   5   10.84    0.68 
  -3   6   5   10.61    0.64 
  -3   6   5   10.95    0.67 
  -3   6   5   10.58    0.68 
  -3   6   5   11.03    0.55 
  -3   6   5   10.87    0.66 
  -2  -6   5    2.52    0.49 
  -2  -6   5    2.68    0.37 
  -2  -6   5    2.24    0.40 
  -2  -6   5    3.15    0.43 
   2  -6  -5    1.81    0.52 
   2  -6  -5    2.48    0.26 
  -2   6   5    1.85    0.57 
  -2   6   5    2.14    0.40 
  -2   6   5    2.55    0.54 
  -2   6   5    1.96    0.31 
  -2   6   5    2.03    0.48 
   2   6  -5    1.97    0.45 
  -2   6   5    1.64    0.29 
  -2   6   5    2.14    0.32 
  -2   6   5    2.41    0.34 
  -2   6   5    2.17    0.56 
  -2   6   5    1.92    0.59 
   2   6  -5    2.19    0.23 
  -2   6   5    2.22    0.40 
   2   6  -5    1.96    0.50 
  -1  -6   5   20.25    1.26 
  -1  -6   5   19.54    1.08 
   1  -6  -5   19.72    1.29 
  -1  -6   5   20.47    1.26 
   1  -6  -5   20.09    1.24 
  -1  -6   5   19.43    1.17 
   1  -6  -5   20.22    1.01 
  -1  -6   5   19.06    1.07 
  -1  -6   5   19.36    1.06 
  -1  -6   5   20.62    1.40 
   1   6  -5   18.68    1.12 
   1   6  -5   19.57    1.20 
  -1   6   5   20.44    1.12 
  -1   6   5   18.59    1.08 
   1   6  -5   19.47    1.24 
   1   6  -5   19.93    1.06 
   1   6  -5   20.08    1.05 
   1   6  -5   21.41    1.11 
  -1   6   5   19.09    1.17 
  -1   6   5   18.91    1.45 
  -1   6   5   19.54    1.06 
   0  -6   5    9.66    0.82 
   0  -6  -5    8.62    0.60 
   0  -6  -5    9.42    0.77 
   0  -6  -5    9.20    0.63 
   0  -6  -5    8.11    0.78 
   0  -6   5    8.70    0.52 
   0  -6  -5    8.84    0.60 
   0   6  -5    9.24    0.56 
   0   6  -5    9.13    0.70 
   0   6   5    8.00    0.70 
   0   6   5    7.89    0.58 
   0   6   5    8.45    0.93 
   0   6   5   10.04    0.61 
   0   6  -5    9.65    0.58 
   0   6   5    9.26    0.64 
   0   6  -5    8.45    0.59 
   0   6  -5    8.79    0.64 
  -1  -6  -5   37.71    1.98 
   1  -6   5   38.17    1.82 
  -1  -6  -5   39.59    1.89 
  -1  -6  -5   36.22    2.02 
  -1  -6  -5   38.28    1.81 
  -1  -6  -5   39.29    1.89 
   1   6   5   36.50    1.91 
  -1   6  -5   33.55    1.83 
   1   6   5   39.70    1.91 
   1   6   5   36.82    2.04 
  -1   6  -5   36.76    2.35 
  -1   6  -5   38.07    1.89 
  -1   6  -5   37.35    1.94 
  -1   6  -5   38.48    1.95 
  -1   6  -5   34.68    1.82 
  -1   6  -5   34.73    1.82 
  -2  -6  -5   27.63    1.50 
  -2  -6  -5   29.55    1.57 
   2  -6   5   29.63    1.45 
  -2  -6  -5   30.43    1.55 
  -2  -6  -5   29.57    1.49 
  -2  -6  -5   27.34    1.60 
  -2  -6  -5   27.42    1.48 
   2   6   5   29.49    1.72 
  -2   6  -5   28.80    1.55 
   2   6   5   29.09    1.46 
  -2   6  -5   29.12    1.71 
  -2   6  -5   30.03    1.42 
  -2   6  -5   28.59    1.50 
  -2   6  -5   31.78    1.46 
  -2   6  -5   28.63    1.55 
  -2   6  -5   27.61    1.47 
  -2   6  -5   30.41    1.51 
  -3  -6  -5    7.73    0.49 
  -3  -6  -5    7.59    0.52 
  -3  -6  -5    7.90    0.55 
  -3  -6  -5    8.68    0.68 
  -3  -6  -5    8.85    0.63 
  -3  -6  -5    8.10    0.61 
  -3  -6  -5    7.38    0.58 
  -3  -6  -5    6.97    0.67 
  -3  -6  -5    8.23    0.64 
  -3  -6  -5    7.49    0.62 
  -3  -6  -5    9.24    0.58 
  -3  -6  -5    8.89    0.61 
  -3  -6  -5    7.87    0.48 
  -3  -6  -5    8.69    0.58 
  -3  -6  -5    8.49    0.62 
  -3  -6  -5    7.96    0.57 
  -3  -6  -5    8.35    0.49 
  -3  -6  -5    8.94    0.70 
  -3   6  -5    7.80    0.54 
  -3   6  -5    8.26    0.50 
  -3   6  -5    7.77    0.52 
  -3   6  -5    7.54    0.77 
   3   6   5    7.55    0.64 
   3   6   5    8.66    0.55 
  -3   6  -5    8.59    0.50 
  -3   6  -5    7.37    0.52 
  -3   6  -5    8.47    0.52 
  -3   6  -5    8.02    0.58 
  -3   6  -5    7.94    0.72 
  -3   6  -5    7.79    0.52 
  -3   6  -5    8.73    0.50 
  -4  -6  -5    2.72    0.39 
  -4  -6  -5    2.52    0.36 
  -4  -6  -5    2.71    0.33 
  -4  -6  -5    2.75    0.40 
  -4  -6  -5    2.73    0.33 
  -4  -6  -5    3.02    0.34 
  -4  -6  -5    2.34    0.34 
  -4  -6  -5    3.16    0.32 
  -4  -6  -5    3.15    0.32 
  -4  -6  -5    2.64    0.33 
  -4  -6  -5    2.58    0.33 
  -4   6  -5    2.31    0.25 
   4   6   5    2.52    0.32 
   4   6   5    2.29    0.39 
  -4   6  -5    2.98    0.25 
  -4   6  -5    2.36    0.21 
  -4   6  -5    2.86    0.25 
  -4   6  -5    2.84    0.27 
  -4   6  -5    2.73    0.54 
  -4   6  -5    2.64    0.27 
  -6  -7   5    5.68    0.34 
  -6  -7   5    5.27    0.33 
  -6  -7   5    5.61    0.31 
  -6  -7   5    5.24    0.35 
  -6  -7   5    6.08    0.35 
  -6  -7   5    4.74    0.39 
  -6   7   5    5.05    0.45 
  -6   7   5    5.74    0.28 
  -6   7   5    5.54    0.27 
  -6   7   5    5.49    0.27 
   6   7  -5    5.43    0.34 
  -5  -7   5    2.66    0.30 
  -5  -7   5    2.88    0.33 
  -5  -7   5    2.86    0.32 
  -5  -7   5    2.69    0.29 
  -5  -7   5    2.42    0.35 
  -5  -7   5    2.58    0.31 
  -5  -7   5    2.06    0.47 
  -5  -7   5    2.44    0.32 
  -5  -7   5    2.21    0.29 
  -5   7   5    2.46    0.22 
  -5   7   5    2.79    0.19 
  -5   7   5    2.95    0.48 
   5   7  -5    3.02    0.29 
   5   7  -5    2.83    0.36 
  -5   7   5    2.61    0.24 
  -5   7   5    3.11    0.24 
  -5   7   5    2.39    0.31 
  -5   7   5    2.75    0.20 
  -5   7   5    2.95    0.25 
  -4  -7   5    8.42    0.58 
  -4  -7   5    8.24    0.46 
  -4  -7   5    6.88    0.60 
  -4  -7   5    8.59    0.57 
  -4  -7   5    7.53    0.59 
  -4  -7   5    8.26    0.46 
  -4  -7   5    6.98    0.55 
  -4  -7   5    6.76    0.61 
  -4  -7   5    7.49    0.48 
  -4  -7   5    8.19    0.53 
  -4  -7   5    8.03    0.47 
  -4  -7   5    8.09    0.71 
  -4  -7   5    8.17    0.58 
  -4  -7   5    7.85    0.78 
  -4  -7   5    7.33    0.53 
  -4  -7   5    7.77    0.49 
  -4   7   5    8.28    0.69 
  -4   7   5    8.37    0.72 
  -4   7   5    8.43    0.53 
  -4   7   5    8.37    0.46 
  -4   7   5    9.26    0.50 
  -4   7   5    8.25    0.51 
   4   7  -5    8.06    0.59 
  -4   7   5    8.41    0.52 
  -4   7   5    9.04    0.50 
   4   7  -5    8.12    0.51 
  -4   7   5    8.03    0.49 
  -4   7   5    7.58    0.76 
  -4   7   5    8.11    0.51 
  -4   7   5    7.78    0.70 
  -4   7   5    7.75    0.50 
  -3  -7   5    5.70    0.43 
  -3  -7   5    5.22    0.68 
   3  -7  -5    5.44    0.39 
  -3  -7   5    5.26    0.49 
  -3  -7   5    6.00    0.60 
  -3  -7   5    5.63    0.53 
  -3   7   5    6.13    0.44 
  -3   7   5    5.90    0.68 
   3   7  -5    5.29    0.63 
  -3   7   5    4.80    0.44 
  -3   7   5    5.55    0.45 
  -3   7   5    6.11    0.44 
  -3   7   5    6.14    0.44 
  -3   7   5    5.30    0.67 
  -3   7   5    5.90    0.45 
   3   7  -5    5.62    0.39 
  -2  -7   5   40.10    2.01 
  -2  -7   5   36.04    2.04 
   2  -7  -5   35.29    1.83 
  -2  -7   5   35.93    1.88 
  -2   7   5   37.67    1.84 
  -2   7   5   37.52    1.93 
  -2   7   5   38.77    1.92 
   2   7  -5   37.10    1.96 
  -2   7   5   36.43    1.84 
  -2   7   5   37.03    2.11 
   2   7  -5   39.72    2.07 
  -2   7   5   36.27    2.33 
  -2   7   5   38.32    1.90 
  -2   7   5   39.18    2.04 
  -2   7   5   36.99    1.87 
  -2   7   5   37.77    1.87 
  -1  -7   5   25.70    1.39 
  -1  -7   5   24.96    1.39 
  -1  -7   5   28.23    1.62 
  -1  -7   5   28.09    1.40 
   1  -7  -5   24.97    1.31 
   1  -7  -5   26.93    1.57 
   1   7  -5   25.98    1.52 
  -1   7   5   27.02    1.44 
   1   7  -5   28.36    1.41 
  -1   7   5   28.20    1.38 
  -1   7   5   25.88    1.40 
  -1   7   5   23.55    1.79 
   1   7  -5   27.30    1.39 
   1   7  -5   26.43    1.46 
   1   7  -5   25.08    1.36 
   0  -7  -5    9.72    0.65 
   0  -7  -5    9.08    0.76 
   0  -7  -5    8.27    0.60 
   0  -7   5    8.25    0.52 
   0  -7  -5    9.09    0.62 
   0  -7   5    7.90    0.82 
   0   7   5    6.60    0.71 
   0   7  -5    8.57    0.56 
   0   7   5    9.97    0.55 
   0   7  -5    9.10    0.67 
   0   7  -5    8.97    0.50 
   0   7   5    8.34    0.68 
   0   7   5    6.86    0.88 
   0   7  -5    9.08    0.58 
   0   7   5    8.74    0.60 
   0   7  -5    8.60    0.61 
   0   7  -5    8.79    0.69 
  -1  -7  -5   19.33    1.14 
   1  -7   5   17.80    0.93 
  -1  -7  -5   15.10    1.12 
  -1  -7  -5   17.74    0.98 
  -1  -7  -5   19.06    1.02 
  -1  -7  -5   18.14    1.01 
  -1   7  -5   18.71    1.06 
  -1   7  -5   18.77    1.00 
  -1   7  -5   17.48    0.93 
   1   7   5   18.05    1.03 
  -1   7  -5   13.90    0.94 
  -1   7  -5   16.25    0.94 
  -1   7  -5   16.63    0.94 
   1   7   5   19.12    1.04 
  -1   7  -5   17.61    1.07 
  -1   7  -5   17.93    0.90 
   1   7   5   17.75    1.19 
  -2  -7  -5    1.44    0.32 
  -2  -7  -5    0.95    0.23 
  -2  -7  -5    1.46    0.24 
   2  -7   5    1.39    0.32 
  -2  -7  -5    1.34    0.31 
  -2  -7  -5    1.63    0.35 
  -2  -7  -5    0.93    0.36 
  -2  -7  -5    0.83    0.25 
  -2  -7  -5    1.34    0.34 
  -2  -7  -5    1.97    0.39 
  -2  -7  -5    0.69    0.25 
  -2  -7  -5    0.67    0.27 
  -2  -7  -5    1.30    0.29 
   2  -7   5    1.52    0.26 
   2   7   5    1.40    0.33 
  -2   7  -5    1.32    0.36 
  -2   7  -5    1.32    0.40 
   2   7   5    1.80    0.59 
  -2   7  -5    1.25    0.26 
  -2   7  -5    1.00    0.23 
  -2   7  -5    1.10    0.17 
  -2   7  -5    1.50    0.55 
   2   7   5    1.46    0.41 
  -2   7  -5    1.04    0.32 
   2   7   5    1.83    0.43 
   2   7   5    0.98    0.29 
  -2   7  -5    1.43    0.18 
  -2   7  -5    0.64    0.26 
  -2   7  -5    1.19    0.28 
  -2   7  -5    1.01    0.31 
  -2   7  -5    1.00    0.24 
  -2   7  -5    1.63    0.32 
  -2   7  -5    1.41    0.22 
   3  -7   5   17.34    0.96 
  -3  -7  -5   19.47    1.03 
  -3  -7  -5   18.82    0.99 
  -3  -7  -5   19.44    1.04 
  -3  -7  -5   17.65    1.06 
  -3  -7  -5   17.56    0.92 
  -3  -7  -5   17.65    1.01 
  -3  -7  -5   17.06    1.02 
  -3  -7  -5   16.66    1.07 
  -3  -7  -5   19.21    1.02 
  -3  -7  -5   18.05    0.95 
  -3  -7  -5   17.91    0.92 
  -3  -7  -5   18.91    0.92 
  -3  -7  -5   18.03    0.92 
   3   7   5   17.95    1.03 
  -3   7  -5   18.54    0.94 
   3   7   5   18.52    1.04 
  -3   7  -5   16.96    1.12 
  -3   7  -5   18.99    1.16 
  -3   7  -5   17.28    0.94 
   3   7   5   16.88    0.96 
  -3   7  -5   19.37    0.96 
  -3   7  -5   18.55    0.95 
  -3   7  -5   18.09    0.94 
  -4  -7  -5    7.00    0.42 
  -4  -7  -5    7.61    0.60 
  -4  -7  -5    6.02    0.44 
  -4  -7  -5    6.16    0.49 
  -4  -7  -5    6.68    0.39 
  -4  -7  -5    6.30    0.46 
  -4  -7  -5    6.28    0.46 
  -4  -7  -5    6.81    0.46 
  -4  -7  -5    7.04    0.49 
  -4  -7  -5    6.80    0.45 
  -4   7  -5    6.30    0.60 
  -4   7  -5    6.85    0.39 
   4   7   5    6.51    0.50 
   4   7   5    7.65    0.44 
  -4   7  -5    6.83    0.40 
  -4   7  -5    7.00    0.37 
  -4   7  -5    7.15    0.39 
  -4   7  -5    6.48    0.41 
  -5  -8   5    7.05    0.50 
  -5  -8   5    7.40    0.48 
  -5  -8   5    8.57    0.58 
  -5  -8   5    7.00    0.48 
  -5  -8   5    7.19    0.48 
  -5  -8   5    7.06    0.43 
  -5   8   5    9.87    0.59 
  -5   8   5    7.61    0.41 
  -5   8   5    7.49    0.40 
  -5   8   5    7.77    0.43 
  -5   8   5    7.21    0.42 
   5   8  -5    7.90    0.51 
  -5   8   5    7.66    0.62 
  -5   8   5    7.74    0.39 
   5   8  -5    7.01    0.45 
  -4  -8   5    8.83    0.51 
  -4  -8   5    8.72    0.70 
  -4  -8   5    5.11    0.80 
  -4  -8   5    8.97    0.47 
  -4  -8   5    8.68    0.48 
  -4  -8   5    8.68    0.60 
  -4  -8   5    9.23    0.60 
  -4  -8   5    7.92    0.59 
  -4  -8   5    8.51    0.54 
  -4  -8   5    8.54    0.47 
  -4  -8   5    9.27    0.57 
  -4  -8   5    8.84    0.52 
  -4  -8   5    8.76    0.63 
  -4  -8   5    6.65    0.67 
  -4  -8   5    8.29    0.76 
  -4  -8   5    8.58    0.50 
  -4   8   5    8.57    0.48 
  -4   8   5    8.81    0.51 
  -4   8   5    8.47    0.53 
  -4   8   5    8.78    0.51 
  -4   8   5    5.72    0.85 
  -4   8   5    8.81    0.53 
  -4   8   5    8.62    0.61 
  -4   8   5    8.83    0.72 
  -4   8   5    8.34    0.51 
   4   8  -5   10.41    0.54 
  -4   8   5    6.61    0.66 
  -4   8   5    8.17    0.56 
   4   8  -5    9.63    0.61 
  -4   8   5    8.59    0.51 
  -3  -8   5   12.67    0.78 
  -3  -8   5   13.48    0.81 
   3  -8  -5   14.02    0.78 
  -3  -8   5   14.02    0.78 
  -3  -8   5   13.58    0.73 
  -3  -8   5   13.55    0.77 
  -3  -8   5   12.74    0.78 
  -3  -8   5   14.18    0.87 
  -3  -8   5   13.50    0.78 
  -3  -8   5   13.66    0.93 
  -3  -8   5   13.76    0.83 
   3   8  -5   14.73    0.84 
  -3   8   5   13.12    0.75 
  -3   8   5   13.34    0.86 
  -3   8   5   13.95    0.79 
  -3   8   5   14.44    0.78 
  -3   8   5   14.40    0.79 
   3   8  -5   15.57    0.87 
  -3   8   5   14.69    0.77 
  -3   8   5   11.78    0.99 
   3   8  -5   14.23    0.76 
  -3   8   5   14.79    1.08 
  -3   8   5   14.71    0.97 
  -3   8   5   13.33    0.80 
  -3   8   5   13.22    0.80 
  -3   8   5   14.81    0.81 
  -3   8   5   13.33    0.82 
   3   8  -5   14.02    0.84 
  -3   8   5   14.09    0.79 
   3   8  -5   11.35    1.00 
   3   8  -5   14.50    0.84 
  -3   8   5   13.60    0.79 
   2  -8  -5    0.49    0.16 
  -2  -8   5    0.20    0.34 
  -2  -8   5    0.13    0.27 
   2  -8  -5    0.34    0.32 
  -2  -8   5    0.35    0.14 
  -2  -8   5    0.43    0.25 
  -2  -8   5    0.39    0.36 
   2   8  -5    0.53    0.34 
  -2   8   5   -0.15    0.24 
   2   8  -5    0.34    0.29 
   2   8  -5    0.23    0.23 
  -2   8   5    0.08    0.24 
  -2   8   5    0.30    0.56 
  -2   8   5    0.17    0.14 
  -2   8   5    0.63    0.21 
  -2   8   5    1.48    0.35 
  -2   8   5    0.27    0.22 
  -2   8   5    0.48    0.20 
  -2   8   5    0.34    0.25 
   2   8  -5    0.36    0.23 
   2   8  -5    0.27    0.41 
  -2   8   5    0.38    0.36 
   1  -8  -5   29.14    1.78 
  -1  -8   5   32.53    1.60 
  -1  -8   5   29.37    1.60 
  -1  -8   5   31.09    1.61 
  -1  -8   5   30.05    1.81 
  -1   8   5   31.53    1.66 
  -1   8   5   31.50    1.58 
   1   8  -5   30.83    1.59 
   1   8  -5   28.30    1.72 
  -1   8   5   31.72    1.64 
   1   8  -5   32.95    1.59 
  -1   8   5   29.94    1.59 
   1   8  -5   31.79    1.55 
   1   8  -5   29.97    1.49 
   1   8  -5   32.55    1.68 
   0  -8  -5    6.66    0.56 
   0  -8   5    6.75    0.75 
   0  -8  -5    5.80    0.56 
   0  -8  -5    5.79    0.54 
   0  -8   5    6.53    0.72 
   0  -8  -5    6.19    0.66 
   0   8  -5    6.29    0.54 
   0   8  -5    6.22    0.52 
   0   8  -5    7.11    0.41 
   0   8   5    5.78    0.66 
   0   8  -5    7.01    0.50 
   0   8   5    6.34    0.51 
   0   8  -5    6.99    0.48 
   0   8  -5    5.98    0.58 
   0   8   5    6.96    0.63 
  -1  -8  -5    0.37    0.26 
  -1  -8  -5    1.16    0.18 
  -1  -8  -5    0.94    0.32 
  -1  -8  -5    0.84    0.27 
  -1  -8  -5    0.93    0.26 
  -1  -8  -5    1.29    0.34 
  -1  -8  -5    1.54    0.44 
  -1  -8  -5    1.11    0.26 
  -1  -8  -5    1.39    0.39 
   1  -8   5    1.03    0.28 
  -1  -8  -5    0.67    0.35 
  -1  -8  -5    1.47    0.36 
   1  -8   5    1.87    0.38 
  -1  -8  -5    1.52    0.37 
   1  -8   5    1.74    0.27 
   1   8   5    0.94    0.42 
  -1   8  -5    1.37    0.35 
  -1   8  -5    1.31    0.43 
   1   8   5    0.66    0.29 
  -1   8  -5    1.35    0.18 
  -1   8  -5    0.74    0.19 
  -1   8  -5    1.52    0.40 
  -1   8  -5    1.21    0.31 
  -1   8  -5    1.28    0.25 
   1   8   5    1.49    0.30 
   1   8   5    1.09    0.37 
   1   8   5    1.17    0.38 
   1   8   5    1.21    0.29 
  -1   8  -5    1.02    0.39 
   1   8   5    1.48    0.33 
  -1   8  -5    1.50    0.23 
  -1   8  -5    1.70    0.26 
  -1   8  -5    0.94    0.28 
   2  -8   5    4.72    0.47 
  -2  -8  -5    4.57    0.46 
  -2  -8  -5    5.05    0.52 
  -2  -8  -5    5.07    0.61 
  -2  -8  -5    5.30    0.48 
  -2  -8  -5    4.43    0.55 
  -2  -8  -5    5.27    0.42 
   2  -8   5    4.91    0.41 
  -2  -8  -5    4.89    0.34 
  -2  -8  -5    5.73    0.54 
  -2  -8  -5    5.27    0.46 
  -2  -8  -5    6.35    0.50 
  -2  -8  -5    6.09    0.51 
  -2  -8  -5    5.55    0.42 
   2   8   5    4.70    0.52 
  -2   8  -5    5.31    0.44 
  -2   8  -5    4.74    0.31 
  -2   8  -5    5.06    0.44 
  -2   8  -5    5.24    0.28 
  -2   8  -5    4.80    0.38 
  -2   8  -5    5.59    0.42 
  -2   8  -5    5.55    0.68 
  -2   8  -5    5.01    0.42 
  -2   8  -5    5.17    0.46 
  -2   8  -5    4.53    0.66 
  -2   8  -5    4.85    0.42 
   2   8   5    5.18    0.51 
  -2   8  -5    4.78    0.45 
   2   8   5    5.29    0.52 
   2   8   5    4.69    0.51 
  -2   8  -5    4.71    0.43 
  -3  -8  -5   29.63    1.55 
  -3  -8  -5   30.36    1.59 
  -3  -8  -5   32.09    1.56 
  -3  -8  -5   30.10    1.48 
  -3  -8  -5   30.69    1.47 
  -3  -8  -5   30.88    1.47 
  -3  -8  -5   31.06    1.54 
  -3  -8  -5   30.07    1.48 
  -3  -8  -5   33.37    1.63 
  -3  -8  -5   28.06    1.55 
  -3  -8  -5   29.94    1.58 
   3  -8   5   33.00    1.52 
   3   8   5   27.56    1.55 
   3   8   5   30.30    1.57 
  -3   8  -5   31.47    1.51 
  -3   8  -5   29.01    1.50 
  -3   8  -5   30.50    1.50 
   3   8   5   29.55    1.55 
  -3   8  -5   32.07    1.69 
  -3   8  -5   32.99    1.52 
   3   8   5   31.66    1.51 
  -3   8  -5   28.71    1.49 
  -4  -8  -5    8.21    0.46 
  -4  -8  -5    8.27    0.47 
  -4  -8  -5    7.06    0.49 
  -4  -8  -5    8.40    0.48 
  -4  -8  -5    7.49    0.42 
   4  -8   5    8.42    0.45 
  -4  -8  -5    8.64    0.49 
  -4  -8  -5    7.54    0.44 
  -4   8  -5    7.90    0.42 
   4   8   5    7.24    0.49 
  -4   8  -5    8.62    0.42 
  -4   8  -5    7.38    0.43 
  -4   8  -5    7.66    0.40 
   4   8   5    7.90    0.45 
  -4   8  -5    8.17    0.59 
   4   8   5    7.73    0.51 
  -5  -9   5    3.60    0.33 
  -5  -9   5    3.95    0.25 
  -5  -9   5    3.60    0.31 
  -5  -9   5    3.73    0.30 
  -5   9   5    3.69    0.22 
   5   9  -5    3.97    0.33 
   5   9  -5    4.00    0.28 
  -5   9   5    3.69    0.23 
  -5   9   5    3.68    0.25 
  -5   9   5    4.20    0.42 
  -5   9   5    4.03    0.21 
  -5   9   5    3.71    0.24 
  -5   9   5    3.93    0.22 
  -4  -9   5    3.48    0.39 
  -4  -9   5    3.70    0.27 
  -4  -9   5    3.77    0.26 
  -4  -9   5    3.73    0.47 
  -4  -9   5    3.63    0.24 
  -4  -9   5    3.81    0.29 
   4  -9  -5    4.00    0.41 
  -4  -9   5    3.66    0.38 
  -4  -9   5    3.30    0.29 
  -4  -9   5    3.64    0.24 
  -4  -9   5    3.34    0.38 
  -4   9   5    3.36    0.32 
  -4   9   5    3.98    0.50 
  -4   9   5    3.57    0.31 
  -4   9   5    3.94    0.30 
   4   9  -5    3.68    0.40 
  -4   9   5    4.18    0.40 
   4   9  -5    3.34    0.41 
   4   9  -5    3.55    0.30 
   4   9  -5    3.72    0.40 
  -4   9   5    3.37    0.41 
  -4   9   5    3.47    0.29 
  -4   9   5    3.55    0.25 
  -4   9   5    3.42    0.29 
  -3  -9   5    2.34    0.23 
  -3  -9   5    1.96    0.45 
  -3  -9   5    2.11    0.43 
   3  -9  -5    1.99    0.33 
  -3  -9   5    2.10    0.34 
  -3  -9   5    1.89    0.41 
  -3  -9   5    2.69    0.33 
  -3  -9   5    2.00    0.33 
  -3  -9   5    1.83    0.34 
  -3  -9   5    2.72    0.38 
  -3  -9   5    2.46    0.47 
  -3   9   5    2.41    0.26 
  -3   9   5    2.17    0.50 
  -3   9   5    1.67    0.54 
  -3   9   5    1.83    0.34 
  -3   9   5    2.63    0.38 
  -3   9   5    2.43    0.41 
   3   9  -5    2.47    0.28 
  -3   9   5    2.17    0.28 
  -3   9   5    2.56    0.31 
  -3   9   5    2.41    0.34 
  -3   9   5    1.96    0.32 
  -3   9   5    2.14    0.32 
   3   9  -5    2.27    0.37 
   3   9  -5    2.15    0.39 
  -3   9   5    1.76    0.30 
  -3   9   5    1.72    0.33 
  -3   9   5    2.08    0.52 
   3   9  -5    2.56    0.40 
   3   9  -5    2.14    0.35 
  -2  -9   5    1.17    0.17 
  -2  -9   5    0.84    0.27 
  -2  -9   5    1.18    0.26 
  -2  -9   5    0.71    0.27 
  -2  -9   5    0.64    0.22 
   2  -9  -5    0.78    0.24 
  -2  -9   5    0.93    0.26 
   2  -9  -5    0.94    0.24 
  -2  -9   5    0.85    0.34 
   2   9  -5    1.34    0.37 
  -2   9   5    1.20    0.30 
   2   9  -5    0.91    0.23 
  -2   9   5    0.75    0.19 
  -2   9   5    0.58    0.28 
   2   9  -5    1.03    0.27 
  -2   9   5    1.34    0.39 
  -2   9   5    1.28    0.34 
  -2   9   5    1.43    0.29 
  -2   9   5    1.34    0.24 
   2   9  -5    1.35    0.35 
  -2   9   5    1.65    0.36 
  -2   9   5    1.22    0.50 
  -2   9   5    1.38    0.29 
  -2   9   5    0.85    0.28 
   2   9  -5    1.05    0.32 
  -2   9   5    1.19    0.37 
   2   9  -5    0.84    0.30 
  -2   9   5    0.96    0.29 
  -2   9   5    1.06    0.25 
  -1  -9   5   10.62    0.70 
  -1  -9   5   10.00    0.65 
  -1  -9   5    9.31    0.64 
   1  -9  -5    9.43    0.64 
  -1  -9   5   10.12    0.61 
   1  -9  -5   10.87    0.60 
   1  -9  -5   10.63    0.69 
  -1  -9   5    8.48    0.83 
   1  -9  -5    9.91    0.87 
  -1  -9   5    8.65    0.70 
  -1  -9   5   10.40    0.73 
   1  -9  -5    8.66    0.70 
   1  -9  -5    9.11    0.59 
  -1  -9   5    9.01    0.65 
  -1  -9   5   10.88    0.66 
  -1   9   5    9.55    0.63 
  -1   9   5    9.27    0.62 
  -1   9   5   11.91    0.74 
  -1   9   5    9.18    0.72 
   1   9  -5    9.15    0.72 
   1   9  -5    9.32    0.75 
   1   9  -5    9.64    0.60 
   1   9  -5   11.44    0.65 
   1   9  -5   10.13    0.64 
  -1   9   5   10.66    0.63 
  -1   9   5    9.63    0.73 
   1   9  -5    9.06    0.62 
  -1   9   5    9.46    0.63 
  -1   9   5    9.13    0.55 
   1   9  -5    9.75    0.64 
  -1   9   5    9.80    0.68 
   1   9  -5    9.78    0.67 
  -1   9   5   10.01    0.66 
   0  -9   5    2.13    0.40 
   0  -9  -5    2.83    0.41 
   0  -9   5    1.75    0.67 
   0  -9  -5    1.66    0.39 
   0  -9   5    2.20    0.40 
   0  -9  -5    2.48    0.36 
   0  -9  -5    2.17    0.43 
   0  -9  -5    2.13    0.68 
   0  -9   5    2.48    0.32 
   0  -9   5    2.11    0.36 
   0  -9  -5    2.24    0.38 
   0  -9  -5    2.23    0.50 
   0  -9   5    2.70    0.43 
   0  -9  -5    1.94    0.48 
   0  -9  -5    2.17    0.43 
   0  -9  -5    2.34    0.42 
   0   9  -5    2.26    0.25 
   0   9  -5    2.01    0.34 
   0   9  -5    2.06    0.36 
   0   9   5    1.96    0.31 
   0   9  -5    2.07    0.43 
   0   9   5    1.83    0.43 
   0   9  -5    2.23    0.33 
   0   9  -5    2.58    0.25 
   0   9  -5    1.87    0.34 
   0   9   5    2.23    0.43 
   0   9   5    0.79    0.52 
   0   9   5    2.32    0.39 
   0   9   5    1.72    0.46 
   0   9   5    1.99    0.37 
   0   9  -5    2.33    0.34 
  -1  -9  -5   15.08    0.94 
   1  -9   5   15.02    0.83 
  -1  -9  -5   14.12    0.86 
  -1  -9  -5   15.69    0.86 
  -1  -9  -5   12.16    1.04 
  -1  -9  -5   14.57    0.91 
  -1  -9  -5   16.29    0.98 
   1  -9   5   16.70    0.89 
  -1  -9  -5   13.45    0.84 
  -1  -9  -5   15.64    0.98 
  -1   9  -5   14.93    0.80 
   1   9   5   16.34    0.89 
   1   9   5   15.95    0.86 
   1   9   5   15.67    0.85 
  -1   9  -5   15.25    0.78 
  -1   9  -5   15.85    1.05 
   1   9   5   15.74    0.89 
  -1   9  -5   15.47    0.82 
  -1   9  -5   15.16    0.90 
  -1   9  -5   13.47    0.85 
  -1   9  -5   15.51    0.80 
  -1   9  -5   16.22    0.80 
  -1   9  -5   15.54    0.93 
  -1   9  -5   15.71    0.90 
  -1   9  -5   14.69    0.94 
  -1   9  -5   15.43    0.74 
   1   9   5   14.81    0.95 
  -2  -9  -5    7.37    0.53 
  -2  -9  -5    7.30    0.56 
   2  -9   5    6.50    0.52 
  -2  -9  -5    7.25    0.49 
  -2  -9  -5    6.87    0.65 
  -2  -9  -5    7.16    0.59 
  -2  -9  -5    7.63    0.43 
  -2  -9  -5    7.48    0.40 
  -2  -9  -5    8.18    0.49 
  -2  -9  -5    6.99    0.54 
   2  -9   5    6.70    0.49 
  -2   9  -5    6.63    0.77 
  -2   9  -5    7.25    0.48 
  -2   9  -5    7.24    0.49 
  -2   9  -5    6.96    0.49 
   2   9   5    6.92    0.57 
   2   9   5    7.58    0.57 
   2   9   5    4.98    0.84 
  -2   9  -5    7.26    0.51 
   2   9   5    8.09    0.58 
  -2   9  -5    6.60    0.42 
  -2   9  -5    6.91    0.49 
  -2   9  -5    8.33    0.72 
  -3  -9  -5    2.55    0.44 
  -3  -9  -5    2.71    0.19 
  -3  -9  -5    2.94    0.24 
  -3  -9  -5    2.96    0.23 
  -3  -9  -5    2.73    0.19 
  -3  -9  -5    2.49    0.34 
  -3  -9  -5    2.80    0.21 
  -3  -9  -5    2.54    0.35 
  -3  -9  -5    2.45    0.33 
  -3  -9  -5    3.03    0.41 
   3  -9   5    2.59    0.29 
  -3  -9  -5    2.65    0.32 
  -3   9  -5    3.05    0.26 
  -3   9  -5    3.08    0.27 
   3   9   5    2.98    0.33 
  -3   9  -5    2.80    0.26 
   3   9   5    3.18    0.37 
  -3   9  -5    2.70    0.26 
  -3   9  -5    2.56    0.24 
   3   9   5    2.93    0.36 
  -3   9  -5    2.67    0.48 
  -4 -10   5    0.30    0.08 
  -4 -10   5    0.15    0.12 
  -4 -10   5    0.26    0.09 
  -4 -10   5    0.21    0.16 
  -4 -10   5    0.35    0.25 
   4 -10  -5    0.29    0.15 
  -4 -10   5    0.32    0.18 
  -4  10   5    0.44    0.17 
  -4  10   5    0.26    0.14 
  -4  10   5    0.43    0.14 
   4  10  -5    0.30    0.15 
   4  10  -5    0.12    0.17 
   4  10  -5    0.44    0.17 
  -4  10   5    0.26    0.09 
  -4  10   5    0.24    0.11 
  -4  10   5    0.33    0.20 
   4  10  -5    0.12    0.16 
  -4  10   5    0.21    0.11 
  -4  10   5    0.23    0.22 
  -3 -10   5    0.50    0.18 
  -3 -10   5    1.13    0.16 
  -3 -10   5    0.88    0.26 
  -3 -10   5    0.64    0.35 
   3 -10  -5    1.55    0.31 
   3 -10  -5    0.95    0.26 
  -3 -10   5    1.12    0.25 
  -3 -10   5    0.43    0.16 
  -3 -10   5    0.82    0.19 
  -3  10   5    1.19    0.25 
  -3  10   5    0.92    0.23 
  -3  10   5    1.14    0.31 
   3  10  -5    0.68    0.20 
  -3  10   5    0.86    0.20 
  -3  10   5    1.20    0.28 
  -3  10   5    0.34    0.23 
  -3  10   5    0.95    0.28 
   3  10  -5    0.55    0.20 
   3  10  -5    1.20    0.34 
  -3  10   5    1.09    0.26 
  -3  10   5    0.75    0.26 
   2 -10  -5    0.86    0.24 
   2 -10  -5    0.38    0.19 
  -2 -10   5    0.95    0.23 
  -2 -10   5    0.52    0.15 
  -2 -10   5    0.72    0.30 
  -2 -10   5    0.43    0.24 
  -2 -10   5    0.36    0.22 
  -2  10   5    0.72    0.17 
  -2  10   5    0.56    0.12 
   2  10  -5    0.33    0.18 
  -2  10   5    0.62    0.22 
   2  10  -5    0.57    0.21 
  -2  10   5    0.35    0.18 
  -2  10   5    0.52    0.34 
  -2  10   5    0.55    0.27 
  -2  10   5    0.79    0.16 
   2  10  -5    0.51    0.26 
  -2  10   5    0.66    0.22 
  -2  10   5    0.37    0.25 
  -2  10   5    0.33    0.24 
  -2  10   5    0.38    0.30 
   2  10  -5    0.62    0.21 
   1 -10  -5    0.43    0.22 
   1 -10  -5    0.34    0.21 
   1 -10  -5    0.46    0.25 
  -1 -10   5    0.08    0.18 
   1 -10  -5   -0.10    0.23 
  -1 -10   5   -0.24    0.25 
   1 -10  -5    0.01    0.17 
  -1 -10   5   -0.08    0.14 
  -1 -10   5   -0.09    0.20 
   1 -10  -5    0.42    0.25 
  -1 -10   5    0.32    0.20 
   1  10  -5    0.04    0.19 
  -1  10   5   -0.02    0.19 
  -1  10   5    0.13    0.24 
  -1  10   5   -0.48    0.35 
  -1  10   5    0.14    0.16 
   1  10  -5    0.14    0.15 
  -1  10   5    0.22    0.26 
   1  10  -5    0.05    0.27 
  -1  10   5    0.02    0.10 
  -1  10   5    0.04    0.30 
  -1  10   5   -0.26    0.25 
  -1  10   5    0.15    0.51 
  -1  10   5   -0.07    0.19 
   1  10  -5    0.19    0.22 
   1  10  -5    0.12    0.16 
   0 -10  -5    7.49    0.70 
   0 -10  -5   10.08    0.63 
   0 -10  -5   10.55    0.65 
   0 -10   5   10.49    0.66 
   0 -10   5    9.88    0.64 
   0 -10   5    8.58    0.64 
   0 -10  -5    8.83    0.65 
   0 -10  -5    9.44    0.73 
   0 -10  -5   10.90    0.76 
   0 -10  -5    9.62    0.63 
   0 -10  -5   10.04    0.64 
   0 -10   5    9.26    0.61 
   0  10  -5    9.94    0.52 
   0  10  -5    9.02    0.57 
   0  10  -5   10.29    0.73 
   0  10  -5    9.25    0.65 
   0  10  -5   10.53    0.53 
   0  10  -5    9.33    0.59 
   0  10   5   10.44    0.67 
   0  10  -5   10.36    0.60 
   0  10  -5    9.71    0.59 
   0  10   5    9.86    0.63 
   0  10   5    8.92    0.66 
   0  10   5    6.84    0.77 
   0  10   5   10.02    0.55 
  -1 -10  -5    0.54    0.18 
  -1 -10  -5    0.40    0.24 
   1 -10   5    1.22    0.33 
   1 -10   5    0.61    0.19 
  -1 -10  -5    0.35    0.24 
   1 -10   5    1.33    0.35 
  -1 -10  -5    0.87    0.35 
  -1 -10  -5    0.33    0.25 
  -1 -10  -5    0.75    0.24 
  -1 -10  -5    1.16    0.30 
   1 -10   5    0.48    0.22 
  -1  10  -5    0.82    0.20 
  -1  10  -5    0.58    0.15 
  -1  10  -5    0.92    0.21 
  -1  10  -5    0.61    0.26 
  -1  10  -5    1.39    0.50 
   1  10   5    0.85    0.20 
  -1  10  -5    0.82    0.18 
  -1  10  -5    0.81    0.17 
   1  10   5    0.79    0.23 
   1  10   5    0.79    0.23 
  -1  10  -5    0.70    0.18 
  -1  10  -5    1.43    0.31 
   1  10   5    0.25    0.27 
  -2 -10  -5    2.68    0.35 
  -2 -10  -5    2.93    0.37 
  -2 -10  -5    3.06    0.29 
  -2 -10  -5    2.55    0.48 
   2 -10   5    2.71    0.30 
  -2 -10  -5    3.46    0.36 
  -2 -10  -5    3.17    0.36 
  -2 -10  -5    2.71    0.22 
  -2 -10  -5    2.96    0.45 
   2 -10   5    3.24    0.35 
  -2  10  -5    3.21    0.30 
   2  10   5    3.06    0.37 
  -2  10  -5    2.98    0.31 
   2  10   5    2.61    0.32 
  -2  10  -5    2.92    0.53 
  -2  10  -5    3.12    0.28 
  -2  10  -5    2.82    0.23 
   2  10   5    3.38    0.43 
  -2  10  -5    2.34    0.26 
  -2  10  -5    3.09    0.38 
   2  10   5    2.76    0.36 
  -2  10  -5    2.05    0.31 
  -3 -10  -5    1.58    0.25 
  -3 -10  -5    1.67    0.25 
   3 -10   5    1.64    0.22 
  -3 -10  -5    1.65    0.32 
  -3 -10  -5    1.37    0.31 
   3 -10   5    1.93    0.24 
  -3 -10  -5    1.75    0.13 
  -3 -10  -5    1.35    0.34 
  -3  10  -5    1.70    0.19 
   3  10   5    1.46    0.25 
  -3  10  -5    1.88    0.38 
  -3  10  -5    1.94    0.21 
  -3  10  -5    1.97    0.19 
   3  10   5    1.49    0.26 
   3  10   5    2.03    0.25 
   3  10   5    1.73    0.26 
  -4 -11   5    3.74    0.33 
   4 -11  -5    3.56    0.26 
  -4 -11   5    2.84    0.31 
   4  11  -5    4.19    0.36 
  -4  11   5    3.53    0.32 
  -4  11   5    4.18    0.25 
  -4  11   5    4.28    0.39 
   4  11  -5    3.76    0.29 
   4  11  -5    3.77    0.29 
  -4  11   5    3.49    0.25 
  -4  11   5    3.60    0.22 
  -3 -11   5    2.21    0.25 
   3 -11  -5    1.97    0.24 
  -3 -11   5    2.04    0.26 
  -3 -11   5    2.16    0.21 
   3 -11  -5    1.10    0.30 
  -3 -11   5    1.76    0.23 
  -3 -11   5    1.70    0.20 
  -3 -11   5    1.09    0.25 
  -3  11   5    1.91    0.32 
   3  11  -5    1.70    0.26 
  -3  11   5    1.68    0.29 
  -3  11   5    1.88    0.25 
   3  11  -5    1.60    0.28 
  -3  11   5    1.92    0.26 
   3  11  -5    2.08    0.33 
  -3  11   5    1.82    0.25 
   3  11  -5    2.15    0.28 
   2 -11  -5    5.01    0.40 
  -2 -11   5    4.58    0.30 
   2 -11  -5    4.56    0.44 
  -2 -11   5    4.62    0.43 
  -2 -11   5    4.61    0.42 
   2 -11  -5    5.02    0.35 
   2 -11  -5    4.27    0.42 
  -2 -11   5    4.09    0.39 
  -2  11   5    4.48    0.44 
   2  11  -5    4.88    0.36 
   2  11  -5    4.55    0.43 
  -2  11   5    5.15    0.42 
  -2  11   5    4.99    0.42 
  -2  11   5    4.33    0.46 
  -2  11   5    4.20    0.40 
   2  11  -5    4.98    0.37 
   2  11  -5    4.97    0.37 
   1 -11  -5    1.55    0.38 
   1 -11  -5    1.64    0.34 
  -1 -11   5    1.03    0.27 
  -1 -11   5    1.20    0.30 
   1 -11  -5    1.47    0.35 
  -1 -11   5    1.25    0.32 
  -1 -11   5    1.53    0.37 
   1 -11  -5    1.44    0.33 
  -1  11   5    1.36    0.11 
  -1  11   5    1.62    0.26 
  -1  11   5    1.18    0.28 
  -1  11   5    1.78    0.24 
  -1  11   5    1.04    0.33 
   1  11  -5    1.43    0.29 
   1  11  -5    0.91    0.19 
  -1  11   5    1.03    0.26 
   1  11  -5    0.63    0.20 
  -1  11   5    1.63    0.44 
   1  11  -5    1.23    0.29 
  -1  11   5    1.51    0.35 
  -1  11   5    1.38    0.29 
  -1  11   5    1.17    0.31 
   0 -11  -5   15.53    0.87 
   0 -11   5   15.22    0.87 
   0 -11  -5   16.75    0.88 
   0 -11  -5   15.83    0.95 
   0 -11  -5   17.36    0.87 
   0 -11  -5   15.84    0.87 
   0 -11  -5   15.24    0.92 
   0 -11   5   14.64    0.88 
   0 -11   5   16.15    0.86 
   0  11  -5   16.52    0.82 
   0  11   5   15.69    0.87 
   0  11   5   15.50    0.86 
   0  11   5   15.04    0.87 
   0  11  -5   16.26    0.84 
   0  11  -5   15.56    0.90 
   0  11  -5   15.76    0.80 
   0  11  -5   16.31    0.78 
   0  11   5   16.27    0.86 
   0  11  -5   16.14    0.83 
  -1 -11  -5    0.46    0.13 
  -1 -11  -5    0.25    0.19 
   1 -11   5    0.10    0.18 
  -1 -11  -5    0.11    0.19 
  -1 -11  -5    0.49    0.20 
  -1 -11  -5    0.35    0.20 
  -1 -11  -5    0.49    0.20 
   1 -11   5    0.39    0.14 
  -1 -11  -5    0.21    0.24 
  -1 -11  -5    0.32    0.26 
   1 -11   5    0.06    0.17 
   1 -11   5    0.26    0.16 
   1  11   5    0.26    0.22 
  -1  11  -5    0.28    0.14 
  -1  11  -5    0.46    0.10 
  -1  11  -5    0.37    0.26 
  -1  11  -5    0.21    0.24 
   1  11   5    0.38    0.13 
   1  11   5    0.27    0.17 
  -1  11  -5    0.56    0.22 
   1  11   5    0.33    0.28 
  -1  11  -5    0.28    0.16 
  -1  11  -5    0.41    0.11 
  -1  11  -5    0.35    0.09 
   1  11   5    0.57    0.20 
  -2 -11  -5    0.26    0.16 
  -2 -11  -5    0.35    0.21 
  -2 -11  -5    0.37    0.21 
   2 -11   5    0.31    0.15 
  -2 -11  -5    0.31    0.15 
  -2 -11  -5    0.65    0.19 
   2 -11   5    0.52    0.14 
  -2 -11  -5    0.15    0.12 
  -2 -11  -5    0.22    0.13 
  -2 -11  -5    0.29    0.11 
  -2  11  -5    0.68    0.18 
   2  11   5    0.66    0.15 
  -2  11  -5    0.27    0.21 
   2  11   5    0.15    0.19 
  -2  11  -5    0.44    0.12 
   2  11   5    0.38    0.12 
  -2  11  -5    0.47    0.13 
   2  11   5    0.25    0.15 
  -3 -12   5   17.01    0.82 
  -3 -12   5   17.06    0.83 
  -3 -12   5   16.88    0.84 
  -3 -12   5   17.15    0.84 
   3 -12  -5   17.39    0.90 
   3 -12  -5   16.63    0.84 
   3  12  -5   17.14    0.89 
  -3  12   5   16.09    0.87 
   3  12  -5   17.42    0.87 
  -3  12   5   17.53    0.87 
  -3  12   5   16.69    0.87 
   3  12  -5   16.98    0.84 
   2 -12  -5   -0.06    0.14 
   2 -12  -5    0.14    0.16 
   2 -12  -5    0.28    0.12 
   2 -12  -5    0.13    0.22 
   2 -12  -5    0.28    0.16 
  -2 -12   5    0.11    0.12 
   2 -12  -5   -0.02    0.15 
  -2 -12   5    0.25    0.13 
  -2 -12   5   -0.12    0.13 
  -2 -12   5    0.06    0.13 
   2  12  -5    0.28    0.15 
  -2  12   5    0.10    0.15 
  -2  12   5    0.11    0.16 
   2  12  -5    0.11    0.08 
  -2  12   5    0.11    0.18 
  -2  12   5    0.18    0.18 
   2  12  -5   -0.04    0.14 
   2  12  -5    0.03    0.14 
  -1 -12   5    4.27    0.29 
   1 -12  -5    4.04    0.41 
   1 -12  -5    4.09    0.34 
   1 -12  -5    3.50    0.35 
  -1 -12   5    3.80    0.37 
   1 -12  -5    3.13    0.31 
  -1 -12   5    3.78    0.31 
  -1 -12   5    3.87    0.31 
   1 -12  -5    3.70    0.33 
  -1  12   5    3.18    0.43 
   1  12  -5    3.88    0.24 
  -1  12   5    3.49    0.26 
  -1  12   5    3.51    0.24 
   1  12  -5    3.38    0.28 
  -1  12   5    3.70    0.35 
  -1  12   5    3.84    0.24 
   1  12  -5    3.71    0.32 
   1  12  -5    3.62    0.29 
  -1  12   5    3.25    0.33 
   1  12  -5    3.79    0.30 
   0 -12   5    1.57    0.25 
   0 -12  -5    1.32    0.24 
   0 -12  -5    1.49    0.28 
   0 -12  -5    1.28    0.31 
   0 -12  -5    0.81    0.26 
   0 -12   5    1.06    0.24 
   0 -12   5    1.49    0.25 
   0 -12   5    1.16    0.31 
   0 -12  -5    1.51    0.23 
   0 -12   5    1.56    0.28 
   0 -12  -5    1.41    0.26 
   0  12   5    1.54    0.19 
   0  12  -5    1.46    0.31 
   0  12  -5    1.21    0.37 
   0  12   5    1.30    0.24 
   0  12  -5    1.23    0.15 
   0  12  -5    1.45    0.21 
   0  12   5    1.40    0.13 
   0  12  -5    1.40    0.15 
   0  12  -5    1.59    0.18 
   0  12   5    1.15    0.24 
   1 -12   5    4.60    0.34 
  -1 -12  -5    5.15    0.40 
   1 -12   5    4.37    0.35 
  -1 -12  -5    4.57    0.33 
  -1 -12  -5    4.00    0.37 
  -1 -12  -5    4.32    0.27 
   1 -12   5    4.36    0.32 
  -1 -12  -5    4.46    0.35 
   1  12   5    4.27    0.35 
   1  12   5    4.50    0.33 
  -1  12  -5    4.27    0.42 
   1  12   5    4.55    0.28 
  -1  12  -5    4.08    0.31 
  -1  12  -5    4.88    0.32 
   1  12   5    4.22    0.37 
   1  12   5    3.92    0.33 
  -7   0   6    0.23    0.05 
  -7   0   6    0.47    0.21 
  -6   0   6   15.10    0.75 
  -6   0   6   15.29    0.76 
  -6   0   6   12.90    0.93 
  -6   0   6   15.08    0.95 
  -6   0   6   15.05    0.93 
  -6   0   6   15.35    0.74 
  -6   0   6   15.26    0.73 
  -5   0   6   15.92    0.79 
  -5   0   6   16.71    0.84 
  -5   0   6   16.09    1.03 
  -5   0   6   13.67    0.82 
  -5   0   6   15.79    0.81 
  -5   0   6   14.60    1.09 
  -5   0   6   15.61    0.99 
  -5   0   6   16.42    0.81 
  -5   0   6   15.44    1.14 
  -5   0   6   15.36    0.81 
  -5   0   6   14.92    0.82 
  -5   0   6   14.83    0.97 
  -5   0   6   16.80    0.95 
  -5   0   6   13.85    1.05 
  -4   0   6   87.34    3.92 
   4   0  -6   84.38    3.90 
  -4   0   6   86.23    4.19 
  -4   0   6   83.61    3.94 
  -4   0   6   85.41    4.14 
  -4   0   6   82.24    4.15 
  -4   0   6   77.35    3.93 
  -4   0   6   74.11    4.04 
  -4   0   6   83.04    3.94 
  -4   0   6   82.97    4.11 
  -3   0   6    0.41    0.38 
  -3   0   6    0.57    0.19 
  -3   0   6    0.47    0.19 
  -3   0   6    0.59    0.17 
   3   0  -6    0.40    0.14 
  -3   0   6    0.58    0.24 
   3   0  -6    0.41    0.29 
  -3   0   6    0.26    0.35 
  -3   0   6    0.66    0.40 
  -2   0   6    4.56    0.34 
   2   0  -6    3.97    0.52 
   2   0  -6    4.54    0.31 
  -2   0   6    3.88    0.43 
  -2   0   6    4.63    0.57 
  -2   0   6    3.87    0.41 
  -2   0   6    4.01    0.53 
  -2   0   6    4.48    0.35 
  -1   0   6    1.98    0.43 
  -1   0   6    1.90    0.40 
  -1   0   6    2.18    0.29 
   1   0  -6    1.93    0.21 
   1   0  -6    1.84    0.28 
  -1   0   6    1.93    0.39 
  -1   0   6    1.98    0.38 
   1   0  -6    2.37    0.42 
  -1   0   6    1.95    0.30 
   0   0  -6   25.05    1.23 
   0   0   6   22.77    1.22 
   0   0   6   25.83    1.43 
   0   0   6   23.02    1.38 
   0   0  -6   24.32    1.30 
   0   0  -6   23.72    1.25 
   0   0  -6   21.85    1.35 
   0   0   6   21.54    1.27 
   0   0  -6   24.04    1.22 
   0   0   6   24.17    1.32 
   1   0   6    6.86    0.69 
  -1   0  -6    7.07    0.49 
  -1   0  -6    6.83    0.59 
  -1   0  -6    7.32    0.49 
   1   0   6    6.39    0.68 
  -1   0  -6    5.98    0.80 
   1   0   6    7.07    0.43 
  -1   0  -6    6.88    0.52 
  -2   0  -6   29.00    1.50 
  -2   0  -6   30.15    1.58 
  -2   0  -6   31.13    1.51 
   2   0   6   28.46    1.46 
  -2   0  -6   31.29    1.54 
  -2   0  -6   26.93    1.46 
  -2   0  -6   27.45    1.52 
  -2   0  -6   30.85    1.59 
  -3   0  -6   10.74    0.75 
  -3   0  -6   10.95    0.67 
  -3   0  -6   11.66    0.73 
   3   0   6   12.05    0.67 
  -3   0  -6   11.15    0.69 
  -3   0  -6   10.51    0.69 
  -3   0  -6   11.23    0.70 
  -3   0  -6   11.14    0.68 
  -3   0  -6   10.94    0.76 
  -3   0  -6   10.65    0.54 
  -3   0  -6   11.52    0.65 
  -3   0  -6   11.55    0.66 
   3   0   6   10.90    0.63 
  -3   0  -6   11.54    0.69 
  -3   0  -6   10.67    0.57 
  -3   0  -6   11.62    0.72 
  -3   0  -6   10.44    0.68 
  -3   0  -6   10.92    0.87 
  -4   0  -6    0.08    0.15 
  -4   0  -6    0.31    0.25 
   4   0   6   -0.13    0.17 
  -4   0  -6    0.07    0.15 
  -4   0  -6    0.30    0.20 
  -4   0  -6    0.16    0.17 
  -4   0  -6    0.49    0.19 
  -4   0  -6    0.28    0.16 
  -4   0  -6    0.25    0.33 
  -4   0  -6    0.32    0.18 
  -4   0  -6    0.51    0.22 
  -5   0  -6    0.30    0.11 
  -5   0  -6    0.06    0.10 
  -5   0  -6    0.27    0.09 
  -5   0  -6    0.28    0.07 
  -5   0  -6    0.27    0.14 
   5   0   6    0.37    0.13 
  -7  -1   6    0.44    0.05 
  -7  -1   6    0.43    0.05 
  -7  -1   6    0.49    0.22 
  -7  -1   6    0.39    0.07 
  -7   1   6    0.58    0.06 
  -6  -1   6    0.81    0.20 
  -6  -1   6    0.06    0.34 
  -6  -1   6    1.31    0.18 
  -6  -1   6    1.11    0.14 
  -6  -1   6    1.08    0.34 
  -6  -1   6    1.12    0.18 
  -6  -1   6    1.01    0.33 
  -6  -1   6    1.49    0.44 
  -6  -1   6    1.04    0.18 
  -6  -1   6    0.84    0.15 
  -6  -1   6    1.00    0.22 
  -6   1   6    1.26    0.36 
  -6   1   6    0.56    0.32 
  -6   1   6    1.07    0.13 
  -6   1   6    1.01    0.16 
  -6   1   6    1.02    0.18 
  -6   1   6    1.00    0.13 
  -6   1   6    1.07    0.13 
  -5  -1   6   28.74    1.43 
  -5  -1   6   29.18    1.44 
  -5  -1   6   28.57    1.56 
  -5  -1   6   26.77    1.41 
  -5  -1   6   26.58    1.58 
  -5  -1   6   30.17    1.57 
  -5  -1   6   30.76    1.73 
  -5  -1   6   29.09    1.42 
  -5  -1   6   27.27    1.40 
  -5  -1   6   28.00    1.56 
  -5  -1   6   31.28    1.73 
  -5  -1   6   28.41    1.65 
  -5  -1   6   29.11    1.44 
  -5  -1   6   28.02    1.58 
  -5  -1   6   28.59    1.41 
  -5  -1   6   30.73    1.55 
  -5   1   6   29.63    1.42 
  -5   1   6   28.53    1.39 
  -5   1   6   30.87    1.41 
  -5   1   6   25.57    1.51 
  -5   1   6   31.44    1.61 
  -5   1   6   26.47    1.42 
  -5   1   6   29.28    1.43 
  -5   1   6   29.22    1.41 
  -5   1   6   27.16    1.67 
  -5   1   6   28.97    1.43 
  -5   1   6   26.42    1.55 
  -5   1   6   30.62    1.57 
  -4  -1   6    5.04    0.39 
  -4  -1   6    5.62    0.66 
  -4  -1   6    5.92    0.62 
   4  -1  -6    5.41    0.36 
  -4  -1   6    6.00    0.73 
  -4  -1   6    6.03    0.43 
  -4  -1   6    4.46    0.50 
  -4  -1   6    5.18    0.43 
  -4  -1   6    5.29    0.42 
  -4  -1   6    6.16    0.78 
   4  -1  -6    5.13    0.34 
  -4   1   6    5.07    0.50 
  -4   1   6    4.87    0.41 
  -4   1   6    4.90    0.40 
  -4   1   6    6.31    0.71 
  -4   1   6    5.43    0.38 
  -4   1   6    5.07    0.68 
  -4   1   6    4.61    0.71 
   4   1  -6    4.87    0.36 
  -4   1   6    5.27    0.41 
  -4   1   6    5.65    0.61 
  -3  -1   6   85.07    4.13 
  -3  -1   6   80.74    3.99 
   3  -1  -6   79.71    4.14 
  -3  -1   6   81.08    4.03 
  -3  -1   6   86.97    4.17 
   3  -1  -6   83.31    3.94 
  -3  -1   6   86.10    4.14 
  -3  -1   6   82.47    3.97 
  -3  -1   6   85.45    3.96 
  -3   1   6   82.33    4.01 
  -3   1   6   83.65    4.13 
   3   1  -6   79.28    4.19 
  -3   1   6   91.41    4.16 
   3   1  -6   79.97    4.15 
  -3   1   6   84.08    3.99 
  -3   1   6   84.40    4.15 
   3   1  -6   85.77    3.94 
  -3   1   6   80.03    3.96 
  -3   1   6   82.93    3.95 
   2  -1  -6    9.68    0.80 
  -2  -1   6    9.97    0.76 
  -2  -1   6   11.77    0.77 
  -2  -1   6   10.67    0.70 
   2  -1  -6   10.65    0.57 
  -2  -1   6   10.11    0.76 
  -2  -1   6    9.94    0.71 
  -2  -1   6   10.47    0.61 
   2   1  -6   10.72    0.57 
  -2   1   6    9.82    0.79 
  -2   1   6   10.16    0.88 
  -2   1   6   10.30    0.68 
  -2   1   6   10.98    0.61 
  -2   1   6   10.02    0.62 
  -2   1   6   10.90    0.69 
  -2   1   6   10.45    0.69 
   2   1  -6   10.39    0.81 
  -1  -1   6   52.19    2.70 
   1  -1  -6   57.13    2.76 
  -1  -1   6   52.39    2.55 
  -1  -1   6   51.81    2.55 
   1  -1  -6   52.25    2.51 
  -1  -1   6   52.17    2.60 
  -1  -1   6   51.82    2.72 
  -1  -1   6   49.30    2.61 
  -1   1   6   50.68    2.67 
   1   1  -6   51.82    2.56 
  -1   1   6   53.92    2.65 
   1   1  -6   53.37    2.51 
  -1   1   6   51.56    2.59 
  -1   1   6   52.53    2.91 
   1   1  -6   53.93    2.57 
  -1   1   6   55.19    2.53 
   1   1  -6   54.87    2.74 
  -1   1   6   51.18    2.55 
  -1   1   6   52.43    2.61 
   0  -1   6   21.51    1.05 
   0  -1  -6   21.38    1.17 
   0  -1   6   20.44    1.10 
   0  -1  -6   19.68    1.12 
   0  -1   6   21.48    1.27 
   0  -1  -6   21.34    1.09 
   0  -1   6   21.24    1.18 
   0  -1  -6   17.26    1.22 
   0  -1   6   19.41    1.27 
   0  -1  -6   21.16    1.11 
   0   1  -6   20.86    1.12 
   0   1   6   21.58    1.11 
   0   1   6   21.48    1.20 
   0   1  -6   20.11    1.16 
   0   1  -6   23.01    1.11 
   0   1  -6   20.22    1.41 
   0   1   6   22.39    1.28 
   0   1   6   21.76    1.14 
   0   1   6   18.56    1.25 
   0   1  -6   21.88    1.10 
  -1  -1  -6    0.34    0.22 
   1  -1   6   -0.14    0.31 
   1  -1   6   -0.18    0.27 
  -1  -1  -6    0.23    0.19 
  -1  -1  -6   -0.05    0.22 
  -1  -1  -6    0.06    0.20 
  -1  -1  -6    0.03    0.43 
   1  -1   6    0.05    0.15 
  -1   1  -6   -0.06    0.16 
  -1   1  -6    0.19    0.45 
   1   1   6    0.11    0.32 
  -1   1  -6   -0.10    0.22 
   1   1   6   -0.01    0.15 
  -1   1  -6    0.28    0.20 
  -1   1  -6    0.24    0.19 
   1   1   6    0.01    0.34 
   2  -1   6    4.66    0.35 
  -2  -1  -6    3.89    0.44 
  -2  -1  -6    4.52    0.41 
  -2  -1  -6    4.67    0.52 
  -2  -1  -6    4.84    1.01 
  -2  -1  -6    4.80    0.47 
  -2  -1  -6    4.57    0.50 
  -2  -1  -6    4.66    0.40 
  -2  -1  -6    3.54    0.39 
  -2   1  -6    5.13    0.46 
  -2   1  -6    4.09    0.60 
  -2   1  -6    4.80    0.46 
  -2   1  -6    4.57    0.51 
  -2   1  -6    2.52    0.88 
  -2   1  -6    3.82    0.40 
  -2   1  -6    4.29    0.40 
   2   1   6    4.50    0.35 
  -2   1  -6    4.73    0.50 
  -2   1  -6    4.56    0.38 
  -2   1  -6    4.28    0.42 
  -3  -1  -6    9.41    0.61 
  -3  -1  -6    9.89    0.65 
  -3  -1  -6   10.05    0.52 
   3  -1   6    9.66    0.57 
  -3  -1  -6    9.27    0.63 
  -3  -1  -6   10.34    0.63 
  -3  -1  -6    9.89    0.70 
  -3  -1  -6    8.75    0.63 
  -3  -1  -6   10.69    0.61 
  -3  -1  -6    9.62    0.66 
  -3  -1  -6    9.14    0.64 
   3  -1   6    9.67    0.61 
  -3  -1  -6    9.39    0.67 
  -3  -1  -6    9.92    0.83 
  -3  -1  -6    9.90    0.66 
  -3  -1  -6    9.57    0.70 
  -3  -1  -6   10.36    0.51 
  -3   1  -6    9.81    0.60 
  -3   1  -6    9.52    0.63 
  -3   1  -6    9.40    0.59 
   3   1   6    8.65    0.57 
  -3   1  -6    9.67    0.61 
  -3   1  -6    9.89    0.59 
  -3   1  -6   10.08    0.71 
  -3   1  -6   10.49    0.64 
  -3   1  -6    9.20    0.81 
  -3   1  -6    8.79    0.62 
  -3   1  -6    9.22    0.62 
  -3   1  -6    9.64    0.63 
  -3   1  -6   10.17    0.67 
  -3   1  -6    9.37    0.48 
  -3   1  -6   10.85    0.62 
   3   1   6    9.51    0.61 
  -4  -1  -6    1.44    0.34 
  -4  -1  -6    1.47    0.27 
   4  -1   6    1.57    0.30 
  -4  -1  -6    1.55    0.29 
  -4  -1  -6    1.70    0.30 
  -4  -1  -6    1.85    0.58 
  -4  -1  -6    1.81    0.29 
  -4  -1  -6    1.83    0.36 
  -4  -1  -6    1.67    0.27 
  -4  -1  -6    1.39    0.30 
  -4  -1  -6    1.23    0.25 
  -4   1  -6    1.67    0.30 
  -4   1  -6    2.16    0.26 
   4   1   6    1.32    0.28 
  -4   1  -6    1.39    0.34 
  -4   1  -6    1.74    0.26 
  -4   1  -6    1.42    0.52 
  -4   1  -6    1.58    0.24 
  -4   1  -6    1.69    0.27 
  -4   1  -6    1.50    0.28 
  -4   1  -6    1.42    0.29 
  -4   1  -6    1.91    0.38 
  -5  -1  -6    0.05    0.08 
  -5  -1  -6    0.07    0.09 
  -5  -1  -6    0.00    0.11 
  -5  -1  -6    0.09    0.07 
  -5  -1  -6   -0.04    0.16 
  -5   1  -6    0.02    0.08 
  -5   1  -6    0.15    0.05 
  -5   1  -6   -0.03    0.08 
  -5   1  -6    0.23    0.14 
  -5   1  -6   -0.01    0.07 
  -5   1  -6    0.00    0.08 
   5   1   6    0.09    0.12 
  -6  -2   6    1.03    0.36 
  -6  -2   6    1.16    0.22 
  -6  -2   6    1.20    0.35 
  -6  -2   6    1.13    0.35 
  -6  -2   6    1.13    0.23 
  -6  -2   6    1.39    0.19 
  -6  -2   6    1.63    0.39 
  -6  -2   6    1.33    0.19 
  -6  -2   6    1.34    0.16 
  -6  -2   6    0.10    0.37 
  -6  -2   6    1.16    0.21 
  -6   2   6    1.28    0.17 
  -6   2   6    1.45    0.44 
  -6   2   6    1.34    0.13 
  -6   2   6    1.48    0.15 
  -6   2   6    1.25    0.12 
  -6   2   6    1.34    0.34 
  -6   2   6    1.35    0.13 
  -5  -2   6    1.00    0.25 
  -5  -2   6    0.50    0.19 
  -5  -2   6    0.87    0.19 
  -5  -2   6    0.74    0.17 
  -5  -2   6    0.81    0.17 
  -5  -2   6    0.30    0.16 
  -5  -2   6    0.67    0.39 
  -5  -2   6    0.54    0.35 
  -5  -2   6    0.40    0.40 
  -5  -2   6    1.06    0.46 
  -5  -2   6    0.70    0.20 
  -5  -2   6    0.98    0.37 
  -5  -2   6    0.57    0.20 
  -5  -2   6    0.42    0.28 
  -5  -2   6    1.07    0.37 
  -5   2   6    1.01    0.47 
  -5   2   6    0.54    0.15 
  -5   2   6    0.62    0.17 
  -5   2   6    0.75    0.14 
  -5   2   6    0.88    0.24 
  -5   2   6    0.80    0.18 
  -5   2   6    0.98    0.26 
  -5   2   6    1.14    0.40 
  -5   2   6    0.60    0.16 
  -5   2   6    0.54    0.27 
  -5   2   6    0.37    0.35 
  -4  -2   6    3.98    0.48 
  -4  -2   6    5.13    0.40 
  -4  -2   6    4.97    0.39 
  -4  -2   6    4.49    0.55 
   4  -2  -6    5.02    0.34 
  -4  -2   6    4.51    0.25 
  -4  -2   6    4.86    0.70 
  -4  -2   6    4.75    0.61 
  -4  -2   6    4.22    0.40 
  -4  -2   6    4.59    0.70 
   4  -2  -6    4.09    0.31 
  -4  -2   6    4.57    0.41 
  -4  -2   6    4.32    0.74 
  -4   2   6    4.57    0.38 
  -4   2   6    4.41    0.47 
  -4   2   6    4.80    0.67 
  -4   2   6    4.99    0.39 
  -4   2   6    4.22    0.39 
  -4   2   6    4.72    0.40 
  -4   2   6    4.05    0.57 
  -4   2   6    5.12    0.68 
   4   2  -6    4.77    0.33 
  -4   2   6    4.91    0.64 
  -4   2   6    4.73    0.37 
  -3  -2   6   25.39    1.29 
  -3  -2   6   25.48    1.47 
  -3  -2   6   24.27    1.37 
  -3  -2   6   26.32    1.52 
  -3  -2   6   25.58    1.54 
   3  -2  -6   22.76    1.45 
  -3  -2   6   22.65    1.44 
  -3  -2   6   26.56    1.31 
  -3  -2   6   25.21    1.32 
   3  -2  -6   26.36    1.26 
   3   2  -6   26.64    1.27 
  -3   2   6   25.94    1.34 
  -3   2   6   27.08    1.50 
  -3   2   6   25.84    1.30 
  -3   2   6   25.58    1.30 
  -3   2   6   26.37    1.51 
  -3   2   6   25.12    1.27 
   3   2  -6   21.21    1.49 
  -3   2   6   28.31    1.50 
  -3   2   6   25.24    1.31 
  -3   2   6   25.57    1.69 
   2  -2  -6    5.74    0.37 
  -2  -2   6    5.41    0.58 
   2  -2  -6    5.97    0.62 
  -2  -2   6    5.71    0.54 
  -2  -2   6    4.78    0.50 
  -2  -2   6    5.96    0.57 
  -2  -2   6    6.36    0.44 
   2   2  -6    5.77    0.61 
  -2   2   6    5.91    0.74 
   2   2  -6    5.52    0.36 
  -2   2   6    5.76    0.50 
   2   2  -6    6.49    0.59 
  -2   2   6    5.93    0.42 
  -2   2   6    5.62    0.66 
  -2   2   6    6.05    0.49 
  -2   2   6    6.37    0.50 
  -2   2   6    5.63    0.41 
  -2   2   6    5.28    0.57 
   1  -2  -6   35.24    1.76 
  -1  -2   6   37.96    1.99 
  -1  -2   6   35.60    1.81 
  -1  -2   6   34.68    1.81 
   1  -2  -6   34.58    1.98 
  -1  -2   6   36.71    1.90 
  -1  -2   6   35.33    1.96 
  -1  -2   6   35.98    1.87 
  -1   2   6   38.00    1.78 
   1   2  -6   37.40    1.82 
  -1   2   6   35.45    1.81 
   1   2  -6   38.16    1.94 
   1   2  -6   36.36    1.99 
   1   2  -6   36.33    1.82 
  -1   2   6   38.95    1.88 
  -1   2   6   37.46    2.19 
   1   2  -6   34.30    1.87 
  -1   2   6   33.92    1.85 
  -1   2   6   38.30    1.93 
  -1   2   6   39.64    1.96 
   0  -2   6    4.17    0.30 
   0  -2   6    4.70    0.57 
   0  -2  -6    3.96    0.49 
   0  -2   6    4.49    0.60 
   0  -2  -6    4.00    0.46 
   0  -2   6    4.91    0.54 
   0  -2  -6    4.25    0.40 
   0  -2   6    3.88    0.40 
   0  -2  -6    3.78    0.52 
   0  -2  -6    3.79    0.38 
   0   2   6    4.74    0.46 
   0   2   6    4.07    0.52 
   0   2  -6    4.56    0.37 
   0   2   6    4.33    0.52 
   0   2  -6    4.33    0.39 
   0   2   6    4.24    0.42 
   0   2  -6    4.27    0.42 
   0   2  -6    4.46    0.45 
   0   2  -6    4.43    0.49 
   1  -2   6    4.11    0.62 
  -1  -2  -6    3.90    0.42 
   1  -2   6    3.32    0.58 
  -1  -2  -6    4.79    0.41 
   1  -2   6    4.01    0.32 
  -1  -2  -6    4.23    0.51 
  -1  -2  -6    4.04    0.39 
   1   2   6    4.09    0.33 
  -1   2  -6    4.04    0.40 
   1   2   6    4.40    0.59 
  -1   2  -6    4.20    0.48 
  -1   2  -6    3.50    0.68 
  -1   2  -6    4.24    0.38 
  -1   2  -6    4.43    0.36 
   1   2   6    3.14    0.54 
  -2  -2  -6    5.26    0.57 
  -2  -2  -6    4.61    0.44 
  -2  -2  -6    4.09    0.51 
  -2  -2  -6    4.92    0.46 
   2  -2   6    5.19    0.38 
  -2  -2  -6    4.92    0.41 
  -2  -2  -6    5.40    0.48 
  -2  -2  -6    5.68    0.43 
  -2   2  -6    4.67    0.52 
  -2   2  -6    5.17    0.45 
  -2   2  -6    4.91    0.45 
  -2   2  -6    5.32    0.66 
  -2   2  -6    4.78    0.40 
   2   2   6    5.44    0.39 
  -2   2  -6    6.54    0.54 
  -2   2  -6    5.77    0.50 
  -2   2  -6    4.69    0.44 
  -2   2  -6    4.66    0.38 
  -3  -2  -6    8.77    0.60 
   3  -2   6    9.33    0.58 
  -3  -2  -6    9.82    0.64 
  -3  -2  -6    8.30    0.79 
  -3  -2  -6    9.63    0.59 
  -3  -2  -6    9.68    0.50 
  -3  -2  -6    8.42    0.64 
  -3  -2  -6    8.41    0.65 
  -3  -2  -6    9.79    0.62 
  -3  -2  -6    9.71    0.51 
  -3  -2  -6    8.75    0.58 
  -3  -2  -6    8.84    0.69 
  -3  -2  -6    9.44    0.63 
  -3  -2  -6    9.07    0.62 
  -3  -2  -6    8.88    0.48 
  -3  -2  -6    8.00    0.64 
  -3  -2  -6    8.40    0.64 
   3  -2   6    8.83    0.66 
  -3   2  -6    9.80    0.60 
  -3   2  -6    9.44    0.78 
  -3   2  -6    8.88    0.60 
  -3   2  -6    9.71    0.61 
  -3   2  -6    8.60    0.57 
   3   2   6    8.61    0.65 
  -3   2  -6    9.40    0.61 
  -3   2  -6    9.30    0.68 
  -3   2  -6    8.94    0.59 
  -3   2  -6    9.47    0.57 
  -3   2  -6    9.48    0.64 
   3   2   6    8.49    0.68 
   3   2   6    9.31    0.60 
  -3   2  -6    8.51    0.64 
  -3   2  -6    8.73    0.59 
  -3   2  -6    8.83    0.55 
  -4  -2  -6    2.15    0.40 
  -4  -2  -6    2.35    0.31 
  -4  -2  -6    2.56    0.29 
  -4  -2  -6    2.00    0.28 
  -4  -2  -6    2.26    0.36 
  -4  -2  -6    2.12    0.30 
  -4  -2  -6    2.54    0.32 
   4  -2   6    2.39    0.30 
  -4  -2  -6    2.01    0.32 
  -4  -2  -6    2.46    0.28 
   4   2   6    2.42    0.31 
  -4   2  -6    2.33    0.28 
  -4   2  -6    1.99    0.27 
  -4   2  -6    2.71    0.29 
  -4   2  -6    2.33    0.22 
  -4   2  -6    2.66    0.27 
  -4   2  -6    2.28    0.27 
  -4   2  -6    2.43    0.28 
  -4   2  -6    1.90    0.35 
  -4   2  -6    2.05    0.39 
  -5  -2  -6    0.28    0.10 
  -5  -2  -6    0.34    0.15 
  -5  -2  -6    0.19    0.09 
  -5  -2  -6    0.27    0.08 
  -5  -2  -6    0.36    0.10 
  -5   2  -6    0.29    0.17 
  -5   2  -6    0.32    0.09 
  -5   2  -6    0.41    0.10 
  -5   2  -6    0.24    0.06 
  -5   2  -6    0.28    0.08 
   5   2   6    0.41    0.13 
  -5   2  -6    0.29    0.11 
  -6  -3   6    2.35    0.22 
  -6  -3   6    2.14    0.24 
  -6  -3   6    2.16    0.21 
  -6  -3   6    1.63    0.22 
  -6  -3   6    2.11    0.26 
  -6  -3   6    2.12    0.19 
  -6  -3   6    2.24    0.44 
  -6  -3   6    2.73    0.46 
  -6  -3   6    1.95    0.39 
  -6   3   6    2.09    0.14 
  -6   3   6    1.43    0.39 
  -6   3   6    1.39    0.33 
  -6   3   6    2.02    0.15 
  -6   3   6    2.10    0.13 
  -6   3   6    2.15    0.14 
  -6   3   6    1.74    0.18 
  -6   3   6    1.65    0.15 
  -6   3   6    1.79    0.19 
  -5  -3   6    6.90    0.45 
  -5  -3   6    6.59    0.46 
  -5  -3   6    6.57    0.47 
  -5  -3   6    5.92    0.74 
  -5  -3   6    6.33    0.61 
  -5  -3   6    7.16    0.67 
  -5  -3   6    7.29    0.48 
  -5  -3   6    6.02    0.63 
  -5  -3   6    6.94    0.43 
  -5  -3   6    6.13    0.46 
  -5  -3   6    6.17    0.64 
  -5  -3   6    7.70    0.81 
  -5  -3   6    6.63    0.43 
  -5   3   6    7.07    0.76 
  -5   3   6    6.35    0.41 
  -5   3   6    6.23    0.43 
  -5   3   6    6.30    0.38 
  -5   3   6    6.38    0.41 
  -5   3   6    6.19    0.46 
  -5   3   6    6.91    0.44 
  -5   3   6    6.42    0.50 
  -5   3   6    6.39    0.41 
  -5   3   6    5.71    0.43 
  -5   3   6    6.77    0.63 
  -4  -3   6   17.04    1.01 
  -4  -3   6   15.74    1.17 
   4  -3  -6   15.97    0.87 
  -4  -3   6   16.68    0.94 
  -4  -3   6   16.58    0.83 
  -4  -3   6   16.89    0.93 
   4  -3  -6   17.20    0.88 
  -4  -3   6   16.18    0.91 
  -4  -3   6   16.33    1.14 
  -4  -3   6   18.44    1.21 
  -4  -3   6   17.58    1.14 
  -4  -3   6   16.13    0.93 
  -4   3   6   19.73    1.23 
  -4   3   6   17.50    0.90 
  -4   3   6   16.98    1.21 
  -4   3   6   14.82    1.17 
  -4   3   6   17.68    0.91 
  -4   3   6   14.84    1.12 
  -4   3   6   17.97    0.94 
  -4   3   6   16.89    0.91 
   4   3  -6   17.68    0.89 
  -4   3   6   18.66    1.10 
  -3  -3   6    4.28    0.38 
  -3  -3   6    3.77    0.62 
   3  -3  -6    3.53    0.54 
  -3  -3   6    3.66    0.45 
   3  -3  -6    3.78    0.30 
  -3  -3   6    2.77    0.40 
  -3  -3   6    3.94    0.63 
  -3  -3   6    2.63    0.35 
  -3  -3   6    3.46    0.49 
  -3   3   6    3.54    0.41 
  -3   3   6    3.28    0.60 
  -3   3   6    3.67    0.36 
  -3   3   6    4.50    0.59 
  -3   3   6    3.34    0.37 
  -3   3   6    3.10    0.61 
   3   3  -6    3.57    0.29 
  -3   3   6    3.45    0.61 
  -3   3   6    3.59    0.38 
  -3   3   6    3.57    0.33 
  -3   3   6    3.30    0.38 
  -2  -3   6   23.36    1.43 
  -2  -3   6   26.22    1.29 
  -2  -3   6   26.22    1.42 
   2  -3  -6   24.89    1.50 
   2  -3  -6   25.58    1.25 
  -2  -3   6   26.48    1.40 
  -2  -3   6   24.19    1.37 
  -2  -3   6   26.64    1.34 
  -2   3   6   25.46    1.32 
  -2   3   6   24.13    1.32 
  -2   3   6   26.63    1.70 
   2   3  -6   23.27    1.49 
  -2   3   6   26.16    1.35 
  -2   3   6   24.80    1.28 
  -2   3   6   25.22    1.28 
  -2   3   6   24.02    1.27 
   2   3  -6   25.95    1.45 
  -2   3   6   24.45    1.42 
   2   3  -6   25.81    1.25 
  -2   3   6   23.16    1.34 
  -1  -3   6   65.88    3.26 
   1  -3  -6   60.93    3.13 
  -1  -3   6   61.30    3.18 
  -1  -3   6   66.55    3.25 
  -1  -3   6   71.27    3.37 
  -1  -3   6   63.90    3.19 
  -1  -3   6   64.03    3.34 
   1   3  -6   61.97    3.23 
  -1   3   6   67.65    3.23 
   1   3  -6   63.78    3.18 
   1   3  -6   67.41    3.32 
  -1   3   6   67.16    3.29 
  -1   3   6   66.50    3.24 
  -1   3   6   71.03    3.13 
   1   3  -6   69.79    3.38 
  -1   3   6   65.75    3.58 
  -1   3   6   70.77    3.32 
   1   3  -6   66.30    3.20 
  -1   3   6   64.28    3.18 
   0  -3   6    0.92    0.39 
   0  -3   6    1.90    0.39 
   0  -3   6    1.15    0.22 
   0  -3   6    1.42    0.45 
   0  -3   6    0.83    0.30 
   0  -3  -6    1.37    0.39 
   0  -3  -6    1.39    0.29 
   0  -3  -6    1.00    0.40 
   0  -3  -6    1.39    0.33 
   0  -3  -6    1.29    0.39 
   0   3   6    1.34    0.33 
   0   3  -6    1.02    0.24 
   0   3   6    0.87    0.34 
   0   3  -6    1.45    0.40 
   0   3   6    1.36    0.38 
   0   3  -6    1.62    0.38 
   0   3   6    0.35    0.30 
   0   3  -6    1.37    0.28 
   0   3  -6    1.34    0.25 
   0   3   6    1.66    0.44 
   0   3   6    1.13    0.32 
  -1  -3  -6   11.04    0.69 
  -1  -3  -6   10.91    0.69 
  -1  -3  -6   12.23    0.80 
   1  -3   6   11.34    1.04 
  -1  -3  -6   10.34    0.74 
   1  -3   6   11.34    0.99 
   1  -3   6   11.39    0.63 
  -1   3  -6   11.10    0.70 
  -1   3  -6   11.09    0.77 
  -1   3  -6   11.48    0.65 
  -1   3  -6   11.64    0.78 
   1   3   6   11.01    0.62 
  -1   3  -6   11.81    0.68 
   1   3   6   11.44    0.90 
  -1   3  -6   10.49    0.71 
   1   3   6    8.94    1.11 
  -2  -3  -6   18.35    1.00 
  -2  -3  -6   15.93    1.05 
  -2  -3  -6   15.29    1.09 
  -2  -3  -6   18.00    0.99 
   2  -3   6   19.57    0.97 
  -2  -3  -6   19.12    1.12 
  -2  -3  -6   19.38    1.07 
  -2  -3  -6   17.79    1.02 
  -2   3  -6   20.38    1.04 
  -2   3  -6   19.00    0.99 
  -2   3  -6   20.98    1.26 
  -2   3  -6   17.76    0.93 
   2   3   6   19.68    0.98 
  -2   3  -6   20.85    1.06 
  -2   3  -6   19.23    1.09 
  -2   3  -6   18.66    0.95 
  -2   3  -6   15.92    1.00 
  -2   3  -6   19.74    1.07 
  -2   3  -6   20.95    1.11 
  -3  -3  -6   11.87    0.73 
  -3  -3  -6   12.73    0.73 
  -3  -3  -6   12.47    0.74 
  -3  -3  -6   11.55    0.63 
  -3  -3  -6   11.97    0.62 
  -3  -3  -6   13.09    0.96 
   3  -3   6   11.14    0.70 
  -3  -3  -6   11.82    0.62 
  -3  -3  -6   10.83    0.77 
  -3  -3  -6   11.85    0.80 
  -3  -3  -6   11.06    0.79 
  -3  -3  -6   11.05    0.72 
  -3  -3  -6   11.12    0.74 
  -3  -3  -6   11.44    0.76 
  -3  -3  -6   12.09    0.70 
  -3  -3  -6   12.16    0.70 
  -3   3  -6   12.78    0.70 
  -3   3  -6   13.53    0.91 
  -3   3  -6   12.43    0.79 
  -3   3  -6   12.13    0.72 
  -3   3  -6   12.08    0.71 
  -3   3  -6   13.29    0.73 
  -3   3  -6   11.30    0.71 
  -3   3  -6   11.69    0.67 
  -3   3  -6   11.94    0.75 
  -3   3  -6   12.00    0.72 
  -3   3  -6   11.81    0.68 
   3   3   6   11.79    0.71 
  -3   3  -6   11.53    0.68 
  -3   3  -6   11.63    0.69 
   3   3   6   13.16    0.79 
  -4  -3  -6   11.42    0.67 
  -4  -3  -6   13.50    0.71 
  -4  -3  -6   11.85    0.73 
  -4  -3  -6   12.06    0.70 
   4  -3   6   12.31    0.70 
  -4  -3  -6   12.75    0.76 
  -4  -3  -6   13.02    0.69 
  -4  -3  -6   12.68    0.70 
  -4  -3  -6   11.79    0.67 
  -4  -3  -6   11.75    0.68 
  -4   3  -6   11.84    0.63 
  -4   3  -6   13.50    0.69 
  -4   3  -6   13.50    0.68 
   4   3   6   12.81    0.76 
  -4   3  -6   11.42    0.66 
  -4   3  -6   12.17    0.82 
  -4   3  -6   11.99    0.72 
   4   3   6   11.88    0.69 
  -4   3  -6   11.95    0.66 
  -4   3  -6   12.89    0.66 
  -4   3  -6   10.17    0.74 
  -6  -4   6    2.32    0.23 
  -6  -4   6    2.44    0.41 
  -6  -4   6    2.79    0.42 
  -6  -4   6    2.66    0.26 
  -6  -4   6    1.90    0.25 
  -6  -4   6    2.20    0.21 
  -6  -4   6    2.29    0.44 
  -6  -4   6    2.36    0.20 
  -6   4   6    1.92    0.41 
  -6   4   6    2.41    0.18 
  -6   4   6    2.19    0.16 
  -5  -4   6    1.28    0.27 
  -5  -4   6    0.74    0.21 
  -5  -4   6    0.81    0.21 
  -5  -4   6    0.59    0.33 
  -5  -4   6    1.05    0.25 
  -5  -4   6    0.98    0.43 
  -5  -4   6    0.76    0.20 
  -5  -4   6    0.75    0.18 
  -5  -4   6    1.12    0.27 
  -5  -4   6    0.68    0.32 
  -5  -4   6    0.43    0.38 
  -5  -4   6    0.84    0.42 
  -5  -4   6    0.71    0.36 
  -5  -4   6    0.58    0.16 
  -5   4   6    0.91    0.35 
  -5   4   6    0.84    0.35 
  -5   4   6    0.55    0.17 
   5   4  -6    0.70    0.23 
  -5   4   6    0.92    0.21 
  -5   4   6    0.91    0.22 
  -5   4   6    1.19    0.28 
  -5   4   6    0.63    0.16 
  -5   4   6    1.25    0.26 
  -5   4   6    1.33    0.18 
  -5   4   6    0.97    0.22 
  -4  -4   6    7.94    0.47 
  -4  -4   6    6.88    0.74 
  -4  -4   6    7.50    0.60 
   4  -4  -6    6.41    0.45 
  -4  -4   6    7.21    0.51 
  -4  -4   6    8.92    0.83 
  -4  -4   6    6.17    0.63 
  -4  -4   6    7.71    0.63 
  -4  -4   6    8.00    0.83 
  -4  -4   6    8.38    0.46 
  -4  -4   6    7.49    0.55 
  -4  -4   6    8.12    0.77 
  -4  -4   6    8.93    0.78 
  -4  -4   6    8.46    0.55 
   4  -4  -6    7.87    0.47 
  -4  -4   6    8.19    0.55 
  -4  -4   6    7.70    0.43 
  -4  -4   6    7.80    0.53 
  -4   4   6    5.24    0.64 
   4   4  -6    7.20    0.47 
  -4   4   6    6.49    0.57 
  -4   4   6    7.23    0.53 
  -4   4   6    9.20    0.72 
  -4   4   6    8.08    0.82 
  -4   4   6    8.74    0.53 
  -4   4   6    8.31    0.52 
  -4   4   6    8.39    0.55 
  -4   4   6    7.69    0.49 
  -4   4   6    8.03    0.51 
   4   4  -6    6.78    0.65 
  -4   4   6    8.28    0.51 
  -4   4   6    7.67    0.79 
  -3  -4   6   18.06    1.05 
   3  -4  -6   19.43    0.98 
  -3  -4   6   19.50    1.02 
  -3  -4   6   19.88    1.21 
  -3  -4   6   18.78    1.14 
  -3  -4   6   17.05    1.00 
  -3  -4   6   19.38    1.09 
  -3  -4   6   19.25    1.28 
  -3   4   6   20.47    1.24 
  -3   4   6   19.81    1.02 
  -3   4   6   19.67    1.44 
  -3   4   6   19.67    1.08 
   3   4  -6   18.94    0.98 
  -3   4   6   16.96    1.05 
  -3   4   6   19.90    1.02 
  -3   4   6   18.62    0.95 
  -3   4   6   18.43    1.27 
  -3   4   6   19.68    1.25 
  -3   4   6   17.83    1.18 
  -3   4   6   19.92    1.03 
  -3   4   6   18.68    1.03 
  -3   4   6   19.73    1.00 
  -2  -4   6   20.09    1.28 
  -2  -4   6   21.73    1.21 
   2  -4  -6   22.91    1.07 
  -2  -4   6   20.11    1.21 
   2  -4  -6   17.87    1.32 
  -2  -4   6   22.70    1.13 
  -2  -4   6   20.95    1.16 
   2   4  -6   17.57    1.30 
   2   4  -6   19.53    1.06 
  -2   4   6   21.82    1.29 
  -2   4   6   23.46    1.18 
  -2   4   6   20.50    1.49 
  -2   4   6   21.92    1.10 
   2   4  -6   22.44    1.29 
  -2   4   6   21.97    1.16 
  -2   4   6   20.57    1.10 
  -2   4   6   20.31    1.18 
  -2   4   6   21.26    1.11 
  -2   4   6   22.94    1.36 
  -1  -4   6    1.26    0.33 
  -1  -4   6    0.78    0.37 
  -1  -4   6    0.64    0.35 
  -1  -4   6    1.04    0.33 
   1  -4  -6    0.74    0.17 
   1  -4  -6    1.55    0.46 
  -1  -4   6    0.87    0.30 
  -1  -4   6    1.56    0.30 
  -1   4   6    1.18    0.29 
   1   4  -6    1.59    0.43 
   1   4  -6    1.26    0.38 
  -1   4   6    1.21    0.29 
  -1   4   6    1.16    0.55 
   1   4  -6    1.19    0.40 
  -1   4   6    1.35    0.42 
  -1   4   6    0.82    0.29 
   1   4  -6    1.45    0.28 
   1   4  -6    0.92    0.23 
  -1   4   6    1.46    0.44 
   0  -4   6   44.33    2.47 
   0  -4  -6   40.62    2.27 
   0  -4   6   44.69    2.21 
   0  -4   6   48.27    2.48 
   0  -4   6   44.14    2.41 
   0  -4  -6   45.73    2.27 
   0  -4  -6   45.85    2.27 
   0   4   6   47.38    2.28 
   0   4  -6   47.59    2.20 
   0   4  -6   47.41    2.34 
   0   4  -6   48.05    2.27 
   0   4   6   45.86    2.46 
   0   4   6   42.05    2.30 
   0   4  -6   48.38    2.26 
   0   4   6   44.71    2.26 
   0   4   6   49.10    2.44 
   0   4  -6   45.60    2.37 
  -1  -4  -6   38.16    1.87 
  -1  -4  -6   36.00    1.86 
  -1  -4  -6   39.15    1.96 
   1  -4   6   36.91    1.81 
   1   4   6   37.91    2.07 
  -1   4  -6   39.11    1.94 
  -1   4  -6   35.96    1.86 
  -1   4  -6   35.64    1.87 
  -1   4  -6   36.47    1.93 
  -1   4  -6   36.25    1.84 
  -1   4  -6   35.14    1.82 
  -2  -4  -6    3.90    0.38 
  -2  -4  -6    4.36    0.44 
  -2  -4  -6    4.15    0.37 
   2  -4   6    3.97    0.34 
  -2  -4  -6    4.44    0.53 
  -2  -4  -6    4.11    0.57 
  -2  -4  -6    4.03    0.48 
  -2   4  -6    3.75    0.45 
   2   4   6    4.34    0.36 
  -2   4  -6    3.96    0.39 
  -2   4  -6    3.77    0.46 
   2   4   6    3.41    0.63 
  -2   4  -6    4.17    0.50 
  -2   4  -6    3.55    0.35 
  -2   4  -6    4.18    0.42 
  -2   4  -6    4.15    0.62 
  -2   4  -6    4.16    0.41 
  -2   4  -6    3.92    0.31 
  -3  -4  -6   55.41    2.62 
  -3  -4  -6   51.95    2.50 
  -3  -4  -6   56.29    2.49 
  -3  -4  -6   48.31    2.61 
  -3  -4  -6   52.47    2.65 
  -3  -4  -6   53.16    2.50 
  -3  -4  -6   56.17    2.56 
  -3  -4  -6   53.17    2.52 
  -3  -4  -6   51.67    2.61 
  -3  -4  -6   51.12    2.57 
   3  -4   6   56.78    2.55 
  -3  -4  -6   53.55    2.73 
  -3  -4  -6   50.79    2.58 
  -3  -4  -6   51.71    2.56 
  -3  -4  -6   49.99    2.58 
  -3  -4  -6   54.10    2.62 
  -3  -4  -6   49.47    2.55 
  -3   4  -6   54.20    2.54 
  -3   4  -6   54.72    2.54 
  -3   4  -6   50.29    2.60 
  -3   4  -6   49.94    2.55 
   3   4   6   52.16    2.60 
  -3   4  -6   48.18    2.57 
  -3   4  -6   54.34    2.57 
  -3   4  -6   57.18    2.59 
  -3   4  -6   52.58    2.54 
  -3   4  -6   55.56    2.54 
   3   4   6   53.15    2.55 
  -3   4  -6   54.41    2.53 
  -3   4  -6   50.01    2.55 
   4  -4   6   14.96    0.81 
  -4  -4  -6   16.61    0.90 
  -4  -4  -6   15.86    0.84 
  -4  -4  -6   15.91    0.84 
  -4  -4  -6   15.55    0.85 
  -4  -4  -6   16.57    0.85 
  -4  -4  -6   15.11    0.83 
  -4  -4  -6   15.61    0.88 
  -4  -4  -6   16.62    0.85 
  -4   4  -6   16.54    0.79 
   4   4   6   16.05    0.83 
  -4   4  -6   14.41    0.82 
  -4   4  -6   15.30    0.87 
  -4   4  -6   15.45    0.96 
  -4   4  -6   15.82    0.82 
  -4   4  -6   14.54    0.80 
  -4   4  -6   15.06    0.80 
  -4   4  -6   16.76    0.81 
  -4   4  -6   14.83    0.86 
   4   4   6   16.01    0.88 
  -6  -5   6    6.36    0.55 
  -6  -5   6    6.49    0.41 
  -6  -5   6    7.07    0.55 
  -6  -5   6    7.39    0.40 
  -6  -5   6    6.68    0.38 
  -6  -5   6    7.28    0.42 
  -6  -5   6    7.05    0.52 
  -6  -5   6    6.99    0.39 
  -6   5   6    6.94    0.34 
   6   5  -6    6.28    0.41 
  -6   5   6    6.52    0.35 
  -6   5   6    6.94    0.55 
  -6   5   6    6.75    0.34 
  -6   5   6    6.45    0.35 
  -5  -5   6    4.96    0.38 
  -5  -5   6    4.68    0.48 
  -5  -5   6    4.67    0.54 
  -5  -5   6    4.20    0.40 
  -5  -5   6    5.01    0.40 
  -5  -5   6    5.17    0.43 
  -5  -5   6    4.73    0.62 
  -5  -5   6    4.61    0.48 
  -5  -5   6    5.00    0.36 
  -5  -5   6    4.55    0.57 
  -5  -5   6    5.05    0.40 
  -5  -5   6    4.93    0.57 
  -5  -5   6    3.79    0.55 
  -5  -5   6    4.76    0.39 
  -5  -5   6    4.10    0.64 
  -5   5   6    5.93    0.41 
  -5   5   6    5.16    0.33 
  -5   5   6    4.92    0.36 
  -5   5   6    5.12    0.30 
  -5   5   6    5.35    0.34 
  -5   5   6    4.85    0.58 
  -5   5   6    4.69    0.36 
  -5   5   6    4.85    0.33 
   5   5  -6    5.19    0.38 
  -4  -5   6   11.34    0.61 
  -4  -5   6   11.83    0.71 
  -4  -5   6   12.19    0.60 
  -4  -5   6   11.87    0.85 
  -4  -5   6   10.84    0.71 
  -4  -5   6    9.59    0.72 
  -4  -5   6   10.79    0.74 
   4  -5  -6   11.08    0.63 
  -4  -5   6   11.00    0.69 
  -4  -5   6   10.55    0.77 
  -4  -5   6   11.29    0.70 
  -4  -5   6   10.50    0.62 
  -4  -5   6   11.22    0.72 
  -4  -5   6   11.59    0.73 
  -4  -5   6   12.36    0.96 
  -4  -5   6   11.30    0.84 
  -4  -5   6   10.09    0.90 
  -4  -5   6   10.98    0.91 
  -4  -5   6   11.11    0.60 
  -4  -5   6   11.80    0.72 
  -4   5   6   12.24    0.85 
  -4   5   6   12.72    0.67 
  -4   5   6   11.89    0.65 
  -4   5   6   11.35    0.83 
  -4   5   6   12.05    0.64 
  -4   5   6   11.97    0.67 
  -4   5   6   12.76    0.70 
  -4   5   6   12.04    0.71 
   4   5  -6   10.94    0.67 
  -4   5   6   11.57    0.68 
  -4   5   6   11.52    0.67 
  -4   5   6   10.95    0.97 
   4   5  -6   11.61    0.73 
   4   5  -6   11.07    0.64 
  -4   5   6   11.58    0.87 
  -4   5   6   12.07    0.65 
  -3  -5   6   20.06    1.04 
  -3  -5   6   18.77    1.28 
   3  -5  -6   19.80    1.01 
  -3  -5   6   20.27    1.17 
  -3  -5   6   20.94    1.09 
  -3  -5   6   20.42    1.12 
  -3  -5   6   19.59    1.23 
  -3  -5   6   18.31    1.06 
  -3   5   6   21.13    1.10 
  -3   5   6   17.49    1.25 
  -3   5   6   20.30    1.06 
  -3   5   6   21.09    1.04 
  -3   5   6   18.94    1.32 
  -3   5   6   19.00    1.05 
  -3   5   6   22.37    1.29 
  -3   5   6   19.59    1.05 
   3   5  -6   19.61    1.02 
  -3   5   6   19.21    0.97 
  -3   5   6   17.30    1.43 
  -3   5   6   19.77    1.08 
  -3   5   6   20.22    1.11 
  -3   5   6   20.28    1.28 
  -2  -5   6   15.74    0.88 
  -2  -5   6   14.65    1.01 
   2  -5  -6   16.09    0.82 
  -2  -5   6   13.57    1.01 
  -2  -5   6   14.87    0.91 
  -2   5   6   16.46    0.94 
  -2   5   6   15.47    0.86 
   2   5  -6   13.91    0.80 
  -2   5   6   14.69    0.83 
   2   5  -6   16.31    1.04 
  -2   5   6   16.08    0.94 
  -2   5   6   15.09    0.85 
  -2   5   6   16.42    1.07 
  -2   5   6   14.68    1.27 
  -2   5   6   16.77    1.13 
  -2   5   6   15.31    0.89 
  -1  -5   6   17.68    1.13 
  -1  -5   6   19.53    1.14 
  -1  -5   6   18.19    1.19 
   1  -5  -6   17.64    0.92 
   1  -5  -6   17.29    1.17 
  -1  -5   6   16.34    0.97 
  -1  -5   6   18.71    1.00 
   1   5  -6   18.17    1.02 
  -1   5   6   17.20    1.03 
   1   5  -6   18.24    0.97 
  -1   5   6   17.29    1.37 
  -1   5   6   16.95    1.05 
   1   5  -6   15.72    0.97 
  -1   5   6   17.84    1.13 
  -1   5   6   16.23    1.10 
  -1   5   6   18.09    0.99 
   1   5  -6   16.92    1.22 
   1   5  -6   19.12    1.13 
   0  -5   6    8.71    0.53 
   0  -5  -6    9.20    0.65 
   0  -5   6    8.81    0.83 
   0  -5  -6    8.98    0.60 
   0  -5  -6    8.60    0.61 
   0   5  -6    7.86    0.69 
   0   5   6    8.72    0.63 
   0   5  -6    9.18    0.56 
   0   5  -6    8.65    0.62 
   0   5  -6    8.11    0.67 
   0   5   6    8.71    0.78 
   0   5   6    9.37    0.70 
   0   5  -6    9.01    0.59 
   0   5   6    7.62    0.59 
   1  -5   6   74.81    3.46 
  -1  -5  -6   71.86    3.52 
  -1  -5  -6   72.88    3.52 
  -1  -5  -6   71.07    3.60 
  -1   5  -6   72.30    3.48 
  -1   5  -6   65.52    3.46 
  -1   5  -6   68.98    3.58 
   1   5   6   73.67    3.55 
   1   5   6   79.07    3.74 
  -1   5  -6   75.54    3.59 
   1   5   6   72.86    3.54 
  -1   5  -6   71.13    3.44 
  -1   5  -6   75.72    3.54 
  -2  -5  -6   45.09    2.41 
  -2  -5  -6   46.95    2.21 
  -2  -5  -6   48.54    2.22 
  -2  -5  -6   49.68    2.36 
  -2  -5  -6   44.85    2.21 
   2  -5   6   44.72    2.24 
  -2  -5  -6   43.34    2.17 
   2  -5   6   43.09    2.20 
  -2  -5  -6   46.56    2.24 
  -2  -5  -6   44.49    2.20 
  -2  -5  -6   46.47    2.22 
  -2  -5  -6   44.80    2.16 
  -2  -5  -6   45.13    2.22 
  -2  -5  -6   45.09    2.29 
   2  -5   6   44.26    2.19 
  -2  -5  -6   44.63    2.26 
  -2  -5  -6   46.33    2.32 
  -2   5  -6   46.09    2.23 
  -2   5  -6   45.05    2.20 
  -2   5  -6   42.86    2.24 
   2   5   6   41.35    2.19 
  -2   5  -6   43.98    2.20 
   2   5   6   41.63    2.25 
  -2   5  -6   45.61    2.24 
   2   5   6   46.06    2.25 
  -2   5  -6   44.61    2.29 
  -2   5  -6   46.25    2.22 
  -2   5  -6   47.41    2.30 
  -2   5  -6   46.40    2.24 
  -2   5  -6   44.48    2.17 
  -2   5  -6   44.79    2.44 
  -2   5  -6   46.97    2.16 
   2   5   6   46.94    2.26 
  -2   5  -6   44.95    2.15 
  -2   5  -6   47.08    2.15 
   2   5   6   38.23    2.42 
  -3  -5  -6    0.46    0.12 
  -3  -5  -6    1.23    0.24 
  -3  -5  -6    0.75    0.15 
  -3  -5  -6    1.00    0.33 
  -3  -5  -6    1.08    0.31 
  -3  -5  -6    0.88    0.30 
   3  -5   6    0.77    0.23 
  -3  -5  -6    0.72    0.23 
  -3  -5  -6    0.63    0.39 
  -3  -5  -6    0.99    0.24 
  -3  -5  -6    0.59    0.15 
  -3  -5  -6    1.35    0.38 
  -3  -5  -6    0.62    0.43 
  -3  -5  -6    0.90    0.25 
  -3  -5  -6    0.29    0.17 
  -3  -5  -6    0.26    0.25 
  -3   5  -6    0.68    0.17 
  -3   5  -6    0.98    0.28 
  -3   5  -6    0.92    0.19 
  -3   5  -6    0.64    0.18 
  -3   5  -6    1.24    0.47 
  -3   5  -6    0.74    0.18 
   3   5   6    0.74    0.22 
  -3   5  -6    1.17    0.36 
  -3   5  -6    0.89    0.24 
  -3   5  -6    0.99    0.27 
  -3   5  -6    0.80    0.21 
   3   5   6    0.94    0.29 
  -3   5  -6    0.74    0.24 
  -3   5  -6    0.92    0.36 
  -4  -5  -6    1.27    0.19 
  -4  -5  -6    1.49    0.28 
  -4  -5  -6    1.13    0.32 
  -4  -5  -6    1.35    0.28 
  -4  -5  -6    0.76    0.20 
  -4  -5  -6    0.86    0.21 
  -4  -5  -6    1.60    0.26 
   4  -5   6    1.16    0.22 
  -4  -5  -6    1.15    0.26 
   4   5   6    1.63    0.33 
  -4   5  -6    0.69    0.19 
  -4   5  -6    1.29    0.39 
  -4   5  -6    1.24    0.15 
  -4   5  -6    1.36    0.21 
  -4   5  -6    1.30    0.20 
  -4   5  -6    1.09    0.20 
  -4   5  -6    1.32    0.22 
   4   5   6    1.03    0.26 
  -6  -6   6    2.88    0.21 
  -6  -6   6    2.93    0.28 
  -6  -6   6    3.48    0.24 
  -6  -6   6    3.10    0.25 
  -6  -6   6    3.19    0.36 
  -6  -6   6    3.57    0.25 
  -6   6   6    3.29    0.18 
  -6   6   6    3.30    0.18 
  -6   6   6    3.37    0.19 
  -6   6   6    3.28    0.17 
   6   6  -6    3.65    0.26 
  -5  -6   6    2.38    0.32 
  -5  -6   6    2.26    0.29 
  -5  -6   6    2.14    0.31 
  -5  -6   6    1.54    0.54 
  -5  -6   6    2.59    0.32 
  -5  -6   6    2.09    0.54 
  -5  -6   6    2.21    0.27 
  -5  -6   6    2.46    0.34 
  -5  -6   6    2.49    0.48 
  -5  -6   6    2.14    0.28 
  -5  -6   6    2.58    0.28 
   5   6  -6    2.47    0.28 
  -5   6   6    2.58    0.24 
  -5   6   6    2.77    0.51 
  -5   6   6    3.00    0.22 
   5   6  -6    2.45    0.35 
  -5   6   6    2.18    0.26 
  -5   6   6    2.43    0.24 
  -5   6   6    2.55    0.23 
  -5   6   6    2.64    0.47 
  -5   6   6    2.17    0.30 
  -5   6   6    2.71    0.25 
  -4  -6   6    3.53    0.27 
  -4  -6   6    3.45    0.33 
  -4  -6   6    3.26    0.65 
  -4  -6   6    2.84    0.46 
  -4  -6   6    3.85    0.40 
  -4  -6   6    4.29    0.56 
  -4  -6   6    2.92    0.39 
  -4  -6   6    3.42    0.62 
  -4  -6   6    3.50    0.27 
  -4  -6   6    2.98    0.38 
  -4  -6   6    3.92    0.37 
  -4  -6   6    3.66    0.42 
  -4  -6   6    3.63    0.43 
  -4  -6   6    3.57    0.29 
  -4  -6   6    3.57    0.41 
  -4  -6   6    4.23    0.72 
  -4  -6   6    3.82    0.31 
  -4  -6   6    3.40    0.53 
  -4  -6   6    3.42    0.47 
   4   6  -6    3.48    0.41 
  -4   6   6    2.96    0.55 
  -4   6   6    4.00    0.34 
   4   6  -6    3.85    0.34 
  -4   6   6    3.49    0.34 
  -4   6   6    3.85    0.35 
  -4   6   6    3.85    0.33 
  -4   6   6    3.87    0.57 
  -4   6   6    3.52    0.60 
  -4   6   6    4.06    0.39 
  -4   6   6    3.34    0.36 
  -4   6   6    3.96    0.52 
  -4   6   6    3.35    0.32 
  -4   6   6    2.79    0.37 
  -3  -6   6    5.52    0.53 
  -3  -6   6    5.56    0.50 
  -3  -6   6    5.68    0.66 
  -3  -6   6    3.95    0.65 
  -3  -6   6    5.16    0.59 
  -3  -6   6    5.69    0.45 
   3  -6  -6    5.91    0.40 
  -3  -6   6    6.22    0.62 
  -3  -6   6    4.46    0.45 
  -3  -6   6    5.14    0.44 
  -3  -6   6    5.99    0.47 
   3  -6  -6    4.76    0.54 
  -3  -6   6    5.29    0.64 
  -3  -6   6    5.89    0.50 
  -3   6   6    6.14    0.47 
  -3   6   6    7.48    0.67 
  -3   6   6    6.03    0.47 
  -3   6   6    5.48    0.45 
  -3   6   6    4.61    0.67 
  -3   6   6    5.07    0.52 
  -3   6   6    5.09    0.70 
  -3   6   6    5.78    0.65 
   3   6  -6    5.73    0.39 
  -3   6   6    6.13    0.47 
  -3   6   6    5.81    0.55 
  -3   6   6    5.61    0.45 
  -3   6   6    5.69    0.32 
  -3   6   6    4.46    0.72 
  -3   6   6    4.70    0.54 
   3   6  -6    5.48    0.64 
  -3   6   6    6.40    0.45 
  -3   6   6    6.53    0.48 
  -3   6   6    6.21    0.48 
   3   6  -6    5.11    0.52 
   3   6  -6    6.32    0.45 
  -3   6   6    4.97    0.69 
  -2  -6   6   18.45    1.18 
  -2  -6   6   18.27    1.11 
   2  -6  -6   16.30    0.94 
  -2  -6   6   20.77    1.02 
  -2   6   6   17.87    1.06 
  -2   6   6   18.87    1.45 
  -2   6   6   17.80    1.06 
  -2   6   6   17.95    1.07 
  -2   6   6   18.73    1.04 
  -2   6   6   17.72    0.97 
  -2   6   6   18.44    1.17 
   2   6  -6   16.09    1.14 
   2   6  -6   17.53    1.07 
  -2   6   6   19.19    1.26 
  -2   6   6   17.87    0.97 
   1  -6  -6    1.28    0.25 
  -1  -6   6    2.36    0.36 
  -1  -6   6    2.19    0.55 
   1  -6  -6    1.57    0.47 
  -1  -6   6    2.82    0.57 
  -1  -6   6    1.92    0.37 
  -1   6   6    2.11    0.37 
   1   6  -6    1.75    0.21 
  -1   6   6    1.40    0.62 
  -1   6   6    0.94    0.43 
   1   6  -6    1.60    0.31 
   1   6  -6    2.03    0.34 
  -1   6   6    1.80    0.44 
   1   6  -6    1.84    0.37 
  -1   6   6    2.06    0.48 
  -1   6   6    1.52    0.57 
   1   6  -6    1.34    0.45 
   0  -6  -6   49.06    2.31 
   0  -6  -6   46.63    2.32 
   0  -6   6   49.51    2.51 
   0  -6   6   46.65    2.52 
   0  -6  -6   46.50    2.30 
   0   6   6   39.80    2.42 
   0   6   6   48.78    2.31 
   0   6  -6   46.16    2.27 
   0   6  -6   45.71    2.31 
   0   6  -6   45.11    2.20 
   0   6   6   48.01    2.24 
   0   6  -6   42.64    2.36 
   0   6  -6   45.20    2.36 
   0   6   6   45.59    2.35 
   0   6  -6   45.26    2.28 
  -1  -6  -6    1.77    0.35 
  -1  -6  -6    1.96    0.29 
  -1  -6  -6    1.50    0.35 
  -1  -6  -6    1.73    0.38 
  -1  -6  -6    0.74    0.33 
   1  -6   6    1.23    0.49 
   1  -6   6    1.29    0.26 
   1  -6   6    1.96    0.47 
  -1  -6  -6    0.63    0.45 
  -1  -6  -6    0.55    0.31 
  -1  -6  -6    1.07    0.36 
   1   6   6    1.82    0.39 
  -1   6  -6    2.24    0.43 
  -1   6  -6    2.05    0.44 
  -1   6  -6    1.85    0.34 
  -1   6  -6    1.26    0.37 
   1   6   6    2.02    0.59 
  -1   6  -6    1.48    0.29 
   1   6   6    1.36    0.43 
  -1   6  -6    1.40    0.24 
  -1   6  -6    0.91    0.28 
   1   6   6    1.32    0.45 
  -1   6  -6    2.03    0.30 
  -2  -6  -6   17.35    1.08 
   2  -6   6   19.49    1.01 
  -2  -6  -6   20.48    1.03 
  -2  -6  -6   19.19    1.02 
  -2  -6  -6   19.06    1.04 
  -2  -6  -6   18.56    1.00 
  -2  -6  -6   19.92    0.95 
  -2  -6  -6   19.50    1.06 
  -2  -6  -6   18.92    1.03 
   2  -6   6   18.81    1.05 
  -2  -6  -6   19.10    1.07 
  -2  -6  -6   19.71    0.96 
  -2  -6  -6   18.77    1.03 
  -2  -6  -6   18.36    1.14 
  -2  -6  -6   18.90    1.17 
   2   6   6   17.91    1.07 
  -2   6  -6   17.67    1.08 
   2   6   6   16.69    1.00 
   2   6   6   19.02    1.08 
  -2   6  -6   19.29    0.94 
  -2   6  -6   19.39    1.04 
  -2   6  -6   18.91    1.05 
  -2   6  -6   19.16    1.05 
  -2   6  -6   20.25    1.03 
  -2   6  -6   18.78    1.08 
  -2   6  -6   18.18    0.92 
  -2   6  -6   20.20    1.03 
   2   6   6   17.30    1.07 
  -2   6  -6   19.45    0.94 
  -2   6  -6   19.58    1.00 
  -2   6  -6   20.03    1.01 
  -2   6  -6   18.21    1.25 
  -3  -6  -6    2.57    0.39 
  -3  -6  -6    2.22    0.29 
  -3  -6  -6    2.32    0.21 
  -3  -6  -6    2.12    0.39 
  -3  -6  -6    2.05    0.37 
  -3  -6  -6    2.80    0.26 
  -3  -6  -6    3.15    0.43 
  -3  -6  -6    1.86    0.25 
   3  -6   6    2.16    0.33 
  -3  -6  -6    2.93    0.22 
  -3  -6  -6    2.24    0.35 
  -3  -6  -6    2.17    0.45 
  -3   6  -6    2.27    0.31 
  -3   6  -6    2.49    0.30 
  -3   6  -6    2.67    0.28 
   3   6   6    2.92    0.41 
  -3   6  -6    2.89    0.28 
   3   6   6    3.55    0.43 
  -3   6  -6    2.51    0.37 
   3   6   6    2.83    0.32 
  -3   6  -6    3.20    0.67 
  -3   6  -6    2.32    0.27 
  -3   6  -6    3.03    0.31 
  -3   6  -6    2.24    0.55 
  -4  -6  -6    0.73    0.15 
  -4  -6  -6    0.63    0.16 
  -4  -6  -6    1.12    0.24 
  -4  -6  -6    1.29    0.23 
  -4  -6  -6    0.94    0.24 
  -4  -6  -6    1.08    0.27 
   4  -6   6    0.74    0.16 
  -4  -6  -6    0.97    0.20 
  -4   6  -6    0.77    0.16 
   4   6   6    0.74    0.20 
  -4   6  -6    0.80    0.18 
  -4   6  -6    1.01    0.28 
  -4   6  -6    0.55    0.23 
   4   6   6    0.96    0.19 
  -4   6  -6    0.81    0.12 
  -4   6  -6    0.78    0.16 
  -5  -7   6    0.26    0.18 
  -5  -7   6    0.36    0.23 
  -5  -7   6    0.25    0.19 
  -5  -7   6    0.15    0.18 
  -5  -7   6    0.43    0.18 
  -5  -7   6    0.70    0.33 
  -5  -7   6    0.26    0.16 
   5   7  -6    0.40    0.15 
  -5   7   6    0.55    0.14 
  -5   7   6   -0.01    0.19 
   5   7  -6    0.29    0.17 
  -5   7   6    0.33    0.11 
  -5   7   6    0.32    0.13 
  -5   7   6    0.41    0.12 
  -5   7   6    0.33    0.10 
  -5   7   6    0.21    0.22 
  -4  -7   6    5.54    0.44 
  -4  -7   6    5.85    0.34 
  -4  -7   6    5.29    0.35 
  -4  -7   6    4.92    0.65 
  -4  -7   6    5.02    0.48 
  -4  -7   6    5.56    0.53 
  -4  -7   6    4.49    0.46 
  -4  -7   6    5.22    0.47 
  -4  -7   6    5.48    0.43 
  -4  -7   6    5.45    0.33 
  -4  -7   6    6.06    0.37 
  -4  -7   6    5.56    0.59 
  -4  -7   6    5.54    0.37 
  -4   7   6    5.32    0.42 
  -4   7   6    4.99    0.55 
  -4   7   6    5.95    0.39 
  -4   7   6    4.94    0.41 
  -4   7   6    5.17    0.40 
  -4   7   6    5.44    0.38 
   4   7  -6    5.69    0.40 
  -4   7   6    3.55    0.75 
  -4   7   6    5.05    0.43 
  -4   7   6    5.97    0.43 
  -4   7   6    5.20    0.39 
  -4   7   6    5.29    0.61 
   4   7  -6    5.60    0.48 
  -3  -7   6    3.58    0.54 
  -3  -7   6    3.19    0.37 
  -3  -7   6    4.35    0.48 
  -3  -7   6    3.78    0.40 
  -3  -7   6    3.85    0.39 
   3  -7  -6    3.68    0.40 
  -3  -7   6    3.59    0.37 
  -3  -7   6    3.49    0.44 
  -3  -7   6    4.18    0.38 
  -3  -7   6    3.32    0.31 
  -3  -7   6    3.68    0.45 
  -3  -7   6    3.86    0.53 
  -3   7   6    3.96    0.44 
  -3   7   6    3.84    0.40 
   3   7  -6    3.67    0.46 
  -3   7   6    3.93    0.38 
  -3   7   6    4.00    0.42 
   3   7  -6    3.64    0.33 
  -3   7   6    4.31    0.66 
  -3   7   6    3.61    0.40 
  -3   7   6    4.11    0.44 
   3   7  -6    3.54    0.43 
  -3   7   6    2.98    0.50 
   3   7  -6    3.86    0.45 
  -3   7   6    3.49    0.46 
  -3   7   6    4.22    0.38 
  -3   7   6    4.63    0.66 
  -3   7   6    3.21    0.44 
  -3   7   6    4.07    0.41 
  -3   7   6    3.69    0.38 
  -3   7   6    3.44    0.58 
  -3   7   6    4.01    0.43 
  -2  -7   6   11.35    0.72 
   2  -7  -6   12.05    0.66 
  -2  -7   6   11.61    0.77 
   2  -7  -6   11.52    0.69 
  -2  -7   6   11.98    0.72 
  -2  -7   6   12.15    0.62 
  -2  -7   6   12.43    0.86 
  -2  -7   6   11.14    0.90 
  -2  -7   6   11.71    0.71 
  -2  -7   6   11.18    0.67 
   2  -7  -6   13.07    0.76 
  -2   7   6   11.72    0.71 
   2   7  -6   11.64    0.74 
  -2   7   6   11.71    0.96 
  -2   7   6   11.32    0.88 
  -2   7   6   11.89    0.77 
   2   7  -6   11.25    0.74 
  -2   7   6   11.14    0.69 
  -2   7   6   11.43    0.67 
  -2   7   6   11.63    0.82 
  -2   7   6   11.89    0.70 
   2   7  -6   10.90    0.75 
  -2   7   6   12.07    0.75 
  -2   7   6   11.48    0.67 
  -2   7   6   11.30    0.60 
   2   7  -6   11.09    0.88 
  -2   7   6   11.14    0.65 
  -2   7   6   11.80    0.92 
   2   7  -6   10.89    0.78 
  -2   7   6   11.52    0.78 
  -2   7   6   11.26    0.69 
   2   7  -6   10.66    0.73 
  -2   7   6    9.92    0.76 
  -2   7   6   11.60    0.79 
  -2   7   6   11.92    0.79 
  -1  -7   6   26.75    1.66 
   1  -7  -6   28.50    1.68 
  -1  -7   6   29.19    1.47 
  -1  -7   6   27.48    1.43 
   1  -7  -6   27.24    1.40 
   1   7  -6   28.42    1.45 
  -1   7   6   27.87    1.44 
  -1   7   6   29.93    1.54 
   1   7  -6   28.76    1.40 
   1   7  -6   23.60    1.56 
  -1   7   6   26.68    1.46 
  -1   7   6   26.94    1.61 
  -1   7   6   28.37    1.50 
   1   7  -6   27.78    1.45 
   1   7  -6   28.04    1.60 
   0  -7  -6   20.02    1.12 
   0  -7  -6   17.04    1.16 
   0  -7   6   21.06    1.18 
   0  -7   6   20.50    1.07 
   0  -7  -6   23.24    1.36 
   0  -7   6   21.41    1.16 
   0  -7   6   20.39    1.37 
   0  -7  -6   22.33    1.14 
   0  -7  -6   20.07    1.11 
   0  -7  -6   20.68    1.14 
   0  -7  -6   22.74    1.18 
   0  -7   6   21.62    1.12 
   0  -7  -6   20.16    1.13 
   0  -7   6   18.55    1.13 
   0  -7  -6   16.20    1.28 
   0   7   6   20.55    1.16 
   0   7  -6   21.54    1.09 
   0   7  -6   20.73    1.14 
   0   7  -6   21.22    1.11 
   0   7  -6   19.13    1.11 
   0   7   6   21.60    1.15 
   0   7   6   19.51    1.09 
   0   7   6   17.68    1.26 
   0   7  -6   19.78    1.09 
   0   7   6   16.78    1.18 
   0   7   6   19.22    1.12 
   0   7  -6   21.89    1.15 
   0   7   6   22.17    1.22 
   0   7  -6   20.28    1.20 
   0   7  -6   20.17    1.04 
   0   7   6   21.46    1.17 
   0   7  -6   21.40    1.03 
  -1  -7  -6   11.14    0.75 
  -1  -7  -6   10.46    0.72 
   1  -7   6   10.16    0.66 
  -1  -7  -6   12.48    0.89 
  -1  -7  -6   10.65    0.69 
  -1  -7  -6   12.63    0.77 
   1  -7   6   11.24    0.73 
  -1  -7  -6   11.45    0.58 
  -1  -7  -6   11.58    0.67 
   1  -7   6   11.91    0.77 
  -1  -7  -6   10.33    0.83 
  -1  -7  -6   10.64    0.70 
  -1  -7  -6   10.32    0.72 
  -1  -7  -6   11.53    0.80 
  -1   7  -6   11.20    0.62 
  -1   7  -6   11.09    0.70 
  -1   7  -6   10.97    0.74 
   1   7   6   13.71    1.03 
   1   7   6   10.97    0.75 
  -1   7  -6   11.45    0.79 
   1   7   6   11.34    0.80 
  -1   7  -6   10.69    0.81 
  -1   7  -6   12.29    0.65 
  -1   7  -6   10.81    0.72 
  -1   7  -6   11.02    0.65 
  -1   7  -6   12.10    0.65 
   1   7   6   10.01    0.74 
  -1   7  -6   11.65    0.59 
   1   7   6   11.04    0.77 
   1   7   6   11.70    0.72 
   1   7   6   11.50    0.74 
  -1   7  -6   13.51    0.77 
  -2  -7  -6    5.07    0.45 
  -2  -7  -6    4.60    0.53 
  -2  -7  -6    5.21    0.50 
  -2  -7  -6    5.61    0.42 
   2  -7   6    5.88    0.44 
  -2  -7  -6    5.39    0.49 
   2  -7   6    5.52    0.48 
  -2  -7  -6    5.22    0.46 
  -2  -7  -6    5.37    0.56 
  -2  -7  -6    5.05    0.34 
  -2  -7  -6    5.52    0.44 
  -2  -7  -6    6.19    0.56 
  -2  -7  -6    5.76    0.62 
  -2  -7  -6    4.79    0.34 
   2   7   6    5.59    0.52 
   2   7   6    6.37    0.52 
   2   7   6    5.27    0.51 
  -2   7  -6    5.78    0.47 
  -2   7  -6    5.15    0.28 
  -2   7  -6    4.99    0.35 
  -2   7  -6    5.45    0.68 
   2   7   6    4.38    0.53 
  -2   7  -6    5.22    0.31 
  -2   7  -6    5.28    0.39 
  -2   7  -6    5.36    0.44 
  -2   7  -6    4.95    0.45 
  -2   7  -6    5.57    0.45 
  -2   7  -6    4.85    0.41 
  -2   7  -6    5.06    0.60 
  -2   7  -6    3.96    0.46 
  -3  -7  -6    7.22    0.40 
  -3  -7  -6    7.32    0.52 
  -3  -7  -6    7.46    0.53 
  -3  -7  -6    7.06    0.51 
  -3  -7  -6    7.43    0.39 
  -3  -7  -6    7.25    0.59 
  -3  -7  -6    7.25    0.41 
  -3  -7  -6    6.58    0.39 
  -3  -7  -6    7.58    0.52 
  -3  -7  -6    7.92    0.53 
  -3  -7  -6    6.44    0.49 
  -3  -7  -6    7.50    0.58 
   3  -7   6    6.65    0.47 
  -3   7  -6    7.50    0.51 
   3   7   6    7.60    0.46 
  -3   7  -6    7.40    0.46 
  -3   7  -6    7.89    0.44 
  -3   7  -6    7.33    0.45 
   3   7   6    6.93    0.53 
  -3   7  -6    7.85    0.45 
   3   7   6    7.28    0.55 
  -3   7  -6    6.44    0.64 
  -3   7  -6    7.48    0.46 
  -3   7  -6    6.88    0.44 
   3   7   6    6.54    0.53 
   4  -7   6    2.38    0.24 
  -4  -7  -6    1.76    0.25 
  -4  -7  -6    2.03    0.16 
  -4  -7  -6    3.27    0.36 
  -4  -7  -6    2.01    0.22 
  -4  -7  -6    2.19    0.23 
  -4   7  -6    1.90    0.17 
  -4   7  -6    2.72    0.38 
  -4   7  -6    1.85    0.15 
  -4   7  -6    2.06    0.18 
   4   7   6    2.16    0.27 
  -4   7  -6    1.94    0.19 
   4   7   6    2.21    0.20 
  -5  -8   6    5.12    0.32 
  -5  -8   6    5.20    0.37 
  -5  -8   6    6.22    0.47 
  -5  -8   6    6.10    0.38 
  -5  -8   6    4.10    0.41 
  -5  -8   6    4.82    0.39 
   5   8  -6    5.41    0.35 
  -5   8   6    5.11    0.29 
  -5   8   6    5.34    0.35 
  -5   8   6    5.20    0.31 
  -5   8   6    5.99    0.50 
  -5   8   6    5.76    0.33 
  -5   8   6    5.51    0.32 
   5   8  -6    5.26    0.39 
  -4  -8   6    3.46    0.26 
  -4  -8   6    3.19    0.50 
  -4  -8   6    4.02    0.29 
  -4  -8   6    3.44    0.29 
  -4  -8   6    3.71    0.28 
  -4  -8   6    3.90    0.24 
  -4  -8   6    3.40    0.38 
  -4  -8   6    3.29    0.38 
  -4  -8   6    3.55    0.23 
  -4  -8   6    3.11    0.39 
   4  -8  -6    3.64    0.35 
  -4  -8   6    4.19    0.48 
   4   8  -6    3.34    0.30 
  -4   8   6    3.44    0.32 
   4   8  -6    3.43    0.41 
  -4   8   6    3.62    0.30 
  -4   8   6    3.66    0.29 
  -4   8   6    3.31    0.41 
  -4   8   6    3.34    0.31 
  -4   8   6    3.48    0.32 
  -4   8   6    3.33    0.51 
  -4   8   6    3.52    0.33 
  -4   8   6    3.01    0.36 
   4   8  -6    3.65    0.41 
   4   8  -6    3.56    0.39 
  -4   8   6    3.48    0.29 
  -3  -8   6    4.99    0.42 
  -3  -8   6    5.31    0.43 
  -3  -8   6    5.21    0.58 
  -3  -8   6    6.59    0.59 
  -3  -8   6    6.21    0.50 
   3  -8  -6    5.75    0.46 
  -3  -8   6    5.33    0.36 
   3  -8  -6    7.37    0.57 
  -3  -8   6    5.79    0.46 
  -3  -8   6    5.75    0.44 
  -3  -8   6    6.13    0.53 
  -3   8   6    5.66    0.46 
   3   8  -6    6.05    0.56 
   3   8  -6    4.84    0.48 
  -3   8   6    5.13    0.45 
  -3   8   6    5.37    0.47 
  -3   8   6    5.21    0.47 
  -3   8   6    5.92    0.64 
   3   8  -6    5.46    0.39 
  -3   8   6    5.19    0.45 
   3   8  -6    5.16    0.50 
  -3   8   6    5.32    0.42 
  -3   8   6    5.97    0.55 
  -3   8   6    5.89    0.43 
  -3   8   6    4.86    0.66 
  -3   8   6    4.63    0.48 
  -3   8   6    5.38    0.68 
   3   8  -6    5.29    0.47 
  -3   8   6    6.24    0.44 
  -3   8   6    5.52    0.43 
  -2  -8   6   -0.01    0.11 
  -2  -8   6    0.12    0.19 
   2  -8  -6   -0.22    0.21 
  -2  -8   6    0.07    0.30 
   2  -8  -6   -0.17    0.21 
  -2  -8   6    0.06    0.20 
  -2  -8   6    0.09    0.17 
  -2  -8   6   -0.07    0.25 
  -2  -8   6    0.06    0.23 
  -2   8   6   -0.24    0.27 
   2   8  -6   -0.38    0.21 
  -2   8   6   -0.02    0.19 
  -2   8   6   -0.35    0.28 
  -2   8   6   -0.20    0.17 
   2   8  -6   -0.06    0.21 
  -2   8   6    0.03    0.33 
  -2   8   6    0.30    0.28 
   2   8  -6   -0.03    0.19 
  -2   8   6    0.21    0.25 
  -2   8   6    0.10    0.35 
   2   8  -6    0.17    0.21 
   2   8  -6   -0.25    0.22 
  -2   8   6    0.42    0.35 
  -2   8   6   -0.09    0.23 
  -2   8   6   -0.02    0.19 
   2   8  -6   -0.09    0.17 
  -2   8   6    0.03    0.05 
  -2   8   6    0.20    0.29 
  -2   8   6    0.14    0.15 
  -2   8   6    0.16    0.44 
  -2   8   6    0.15    0.25 
  -1  -8   6   13.68    0.82 
  -1  -8   6   13.41    0.81 
   1  -8  -6   15.33    0.80 
   1  -8  -6   14.91    0.88 
   1  -8  -6   13.72    0.96 
  -1  -8   6   15.16    0.88 
  -1  -8   6   16.00    0.92 
   1  -8  -6   16.51    0.86 
   1  -8  -6   13.75    0.89 
   1  -8  -6   15.92    1.27 
  -1  -8   6   13.72    1.22 
  -1  -8   6   15.77    0.86 
  -1  -8   6   15.07    0.85 
  -1   8   6   12.49    0.97 
  -1   8   6   14.71    0.87 
   1   8  -6   13.27    1.06 
  -1   8   6   15.72    0.97 
  -1   8   6   14.81    0.91 
  -1   8   6   15.29    0.85 
  -1   8   6   15.18    0.86 
  -1   8   6   12.42    1.02 
  -1   8   6   14.07    0.92 
  -1   8   6   16.91    0.81 
  -1   8   6   14.52    0.88 
   1   8  -6   13.81    0.85 
  -1   8   6   13.79    0.83 
   1   8  -6   14.88    0.84 
   1   8  -6   15.10    0.83 
  -1   8   6   15.10    0.85 
   1   8  -6   13.02    1.02 
   1   8  -6   16.30    0.82 
   1   8  -6   15.14    0.89 
   1   8  -6   10.51    0.98 
   0  -8  -6    5.46    0.50 
   0  -8  -6    5.90    0.53 
   0  -8  -6    5.84    0.58 
   0  -8   6    6.24    0.53 
   0  -8  -6    5.21    0.61 
   0  -8  -6    5.61    0.44 
   0  -8   6    6.04    0.49 
   0  -8  -6    6.05    0.49 
   0  -8  -6    5.71    0.53 
   0  -8   6    5.81    0.52 
   0  -8   6    5.30    0.58 
   0  -8  -6    6.50    0.50 
   0  -8   6    5.69    0.52 
   0   8   6    5.28    0.61 
   0   8   6    5.69    0.54 
   0   8   6    6.17    0.49 
   0   8   6    5.83    0.45 
   0   8  -6    5.34    0.51 
   0   8  -6    6.05    0.59 
   0   8  -6    4.94    0.46 
   0   8  -6    6.12    0.38 
   0   8  -6    5.99    0.38 
   0   8  -6    5.59    0.48 
   0   8   6    5.79    0.58 
   0   8   6    5.70    0.49 
   0   8  -6    5.92    0.47 
   0   8  -6    5.45    0.47 
   0   8   6    6.03    0.52 
   0   8   6    5.85    0.58 
   1  -8   6    4.32    0.46 
   1  -8   6    3.78    0.43 
  -1  -8  -6    3.06    0.52 
  -1  -8  -6    3.60    0.36 
  -1  -8  -6    3.34    0.43 
  -1  -8  -6    3.87    0.48 
  -1  -8  -6    3.15    0.38 
   1  -8   6    3.76    0.46 
  -1  -8  -6    4.13    0.47 
   1  -8   6    3.82    0.37 
  -1   8  -6    3.72    0.44 
  -1   8  -6    3.35    0.46 
  -1   8  -6    3.61    0.41 
  -1   8  -6    3.33    0.31 
   1   8   6    3.13    0.52 
  -1   8  -6    3.49    0.45 
  -1   8  -6    3.74    0.39 
  -1   8  -6    3.57    0.30 
   1   8   6    4.12    0.43 
  -1   8  -6    3.55    0.28 
   1   8   6    3.51    0.45 
  -1   8  -6    3.68    0.29 
  -1   8  -6    3.56    0.34 
  -1   8  -6    4.00    0.22 
   1   8   6    3.71    0.45 
   1   8   6    3.71    0.33 
  -1   8  -6    3.35    0.31 
   2  -8   6   11.79    0.63 
  -2  -8  -6   11.80    0.66 
  -2  -8  -6   10.58    0.56 
  -2  -8  -6   11.29    0.54 
  -2  -8  -6   11.62    0.76 
  -2  -8  -6    9.52    0.70 
   2  -8   6   11.45    0.68 
  -2  -8  -6   10.51    0.68 
  -2  -8  -6    8.91    0.67 
  -2  -8  -6   10.57    0.62 
  -2   8  -6   11.20    0.62 
   2   8   6   10.30    0.69 
  -2   8  -6    9.98    0.79 
  -2   8  -6    9.96    0.64 
  -2   8  -6   11.36    0.65 
  -2   8  -6   10.23    0.61 
   2   8   6   10.83    0.68 
  -2   8  -6   10.76    0.64 
  -2   8  -6   10.16    0.58 
   2   8   6   11.40    0.71 
  -3  -8  -6    1.99    0.31 
  -3  -8  -6    2.43    0.16 
  -3  -8  -6    2.37    0.34 
  -3  -8  -6    2.29    0.39 
  -3  -8  -6    2.31    0.29 
  -3  -8  -6    2.06    0.29 
  -3  -8  -6    2.14    0.16 
   3  -8   6    2.27    0.26 
   3  -8   6    1.93    0.27 
  -3   8  -6    2.22    0.22 
  -3   8  -6    2.28    0.40 
   3   8   6    2.26    0.33 
  -3   8  -6    1.62    0.19 
   3   8   6    2.54    0.32 
  -3   8  -6    1.94    0.22 
   3   8   6    1.78    0.32 
  -3   8  -6    2.04    0.24 
  -3   8  -6    1.79    0.22 
  -3   8  -6    2.27    0.24 
  -5  -9   6    1.80    0.22 
  -5  -9   6    1.76    0.24 
  -5  -9   6    1.69    0.14 
  -5   9   6    1.43    0.11 
   5   9  -6    2.07    0.22 
   5   9  -6    1.39    0.21 
  -5   9   6    1.68    0.14 
  -5   9   6    1.47    0.14 
  -5   9   6    1.59    0.30 
   4  -9  -6    0.74    0.17 
  -4  -9   6    0.90    0.17 
  -4  -9   6    0.66    0.19 
  -4  -9   6    0.88    0.16 
  -4  -9   6    0.63    0.20 
  -4  -9   6    1.13    0.35 
  -4  -9   6    0.76    0.13 
  -4  -9   6    0.77    0.31 
  -4   9   6    0.54    0.22 
   4   9  -6    0.58    0.18 
  -4   9   6    0.78    0.18 
  -4   9   6    0.92    0.23 
  -4   9   6    0.39    0.16 
   4   9  -6    0.77    0.20 
  -4   9   6    0.50    0.13 
  -4   9   6    0.58    0.24 
   4   9  -6    0.36    0.16 
   4   9  -6    0.68    0.18 
  -4   9   6    0.96    0.26 
  -4   9   6    0.69    0.14 
  -4   9   6    0.65    0.16 
  -3  -9   6    0.30    0.22 
   3  -9  -6    0.52    0.21 
  -3  -9   6    0.65    0.31 
   3  -9  -6    0.42    0.20 
  -3  -9   6    0.41    0.18 
  -3  -9   6    0.35    0.15 
  -3  -9   6    0.72    0.20 
  -3  -9   6    0.29    0.22 
  -3  -9   6    0.66    0.15 
  -3  -9   6    0.34    0.15 
  -3   9   6    0.88    0.25 
  -3   9   6    0.52    0.29 
  -3   9   6    0.98    0.28 
  -3   9   6    0.64    0.21 
  -3   9   6    0.74    0.24 
  -3   9   6    0.43    0.24 
   3   9  -6    0.51    0.22 
  -3   9   6    0.80    0.18 
   3   9  -6    0.71    0.19 
   3   9  -6    0.24    0.19 
  -3   9   6    0.20    0.16 
  -3   9   6    0.58    0.23 
  -2  -9   6    0.16    0.15 
   2  -9  -6   -0.09    0.20 
  -2  -9   6    0.67    0.29 
  -2  -9   6    0.06    0.23 
  -2  -9   6    0.08    0.21 
   2  -9  -6    0.35    0.19 
  -2  -9   6    0.07    0.22 
  -2  -9   6    0.39    0.22 
   2   9  -6    0.22    0.19 
  -2   9   6   -0.04    0.37 
  -2   9   6    0.20    0.25 
   2   9  -6    0.44    0.24 
  -2   9   6    0.16    0.16 
   2   9  -6    0.20    0.18 
  -2   9   6    0.07    0.28 
   2   9  -6    0.25    0.19 
  -2   9   6    0.03    0.15 
  -2   9   6    0.04    0.32 
  -2   9   6   -0.03    0.22 
  -2   9   6    0.21    0.33 
  -2   9   6    0.37    0.14 
  -2   9   6    0.66    0.28 
  -1  -9   6    1.49    0.33 
   1  -9  -6    2.09    0.34 
   1  -9  -6    1.81    0.41 
  -1  -9   6    1.85    0.44 
  -1  -9   6    2.20    0.38 
   1  -9  -6    2.29    0.30 
   1  -9  -6    1.91    0.40 
  -1  -9   6    2.18    0.37 
   1  -9  -6    1.18    0.28 
   1   9  -6    2.73    0.41 
  -1   9   6    2.21    0.39 
  -1   9   6    0.89    0.42 
  -1   9   6    2.08    0.36 
   1   9  -6    1.99    0.28 
  -1   9   6    2.66    0.42 
   1   9  -6    1.66    0.34 
  -1   9   6    2.53    0.38 
  -1   9   6    1.72    0.47 
  -1   9   6    1.72    0.46 
  -1   9   6    2.00    0.34 
   1   9  -6    2.03    0.32 
  -1   9   6    1.89    0.23 
   0  -9  -6    9.88    0.68 
   0  -9   6    8.98    0.65 
   0  -9   6    8.64    0.62 
   0  -9  -6    8.69    0.70 
   0  -9  -6    9.12    0.60 
   0  -9  -6    9.06    0.61 
   0  -9   6    8.51    0.59 
   0  -9  -6    9.56    0.62 
   0  -9  -6    9.01    0.68 
   0  -9  -6    9.14    0.83 
   0  -9  -6    8.47    0.59 
   0  -9   6    8.92    0.61 
   0   9  -6    9.00    0.49 
   0   9  -6    7.33    0.76 
   0   9   6   12.77    1.02 
   0   9   6    8.55    0.65 
   0   9  -6    8.92    0.55 
   0   9  -6    9.87    0.58 
   0   9   6    8.99    0.62 
   0   9  -6    8.52    0.50 
   0   9  -6    9.17    0.63 
   0   9  -6    9.16    0.57 
   0   9  -6    8.81    0.57 
   0   9   6    8.94    0.53 
   0   9   6    9.80    0.66 
  -1  -9  -6    9.12    0.69 
   1  -9   6    8.25    0.51 
   1  -9   6    7.86    0.57 
  -1  -9  -6    8.04    0.56 
  -1  -9  -6    8.33    0.59 
  -1  -9  -6    7.90    0.61 
  -1  -9  -6    8.16    0.50 
   1  -9   6    8.24    0.58 
   1  -9   6    7.83    0.59 
  -1  -9  -6    7.94    0.58 
  -1   9  -6    9.00    0.47 
   1   9   6    8.31    0.65 
   1   9   6    8.82    0.57 
  -1   9  -6    8.72    0.46 
   1   9   6    8.37    0.53 
  -1   9  -6    6.75    0.57 
  -1   9  -6    8.55    0.47 
  -1   9  -6    7.76    0.58 
   1   9   6    7.82    0.56 
  -1   9  -6    9.25    0.50 
  -1   9  -6    8.47    0.47 
  -2  -9  -6    7.80    0.59 
  -2  -9  -6    7.45    0.51 
   2  -9   6    8.06    0.48 
  -2  -9  -6    8.25    0.54 
  -2  -9  -6    8.30    0.51 
   2  -9   6    7.66    0.51 
  -2  -9  -6    7.10    0.46 
  -2  -9  -6    7.66    0.40 
   2   9   6    6.74    0.57 
  -2   9  -6    7.09    0.48 
   2   9   6    7.75    0.50 
  -2   9  -6    7.24    0.43 
  -2   9  -6    7.18    0.46 
   2   9   6    7.56    0.53 
  -2   9  -6    8.52    0.48 
  -2   9  -6    8.08    0.65 
  -2   9  -6    7.88    0.50 
   2   9   6    8.06    0.53 
  -2   9  -6    8.55    0.49 
  -3  -9  -6   10.73    0.62 
  -3  -9  -6   10.57    0.59 
   3  -9   6   10.28    0.56 
   3  -9   6   10.66    0.62 
  -3  -9  -6   10.83    0.61 
  -3  -9  -6    9.47    0.63 
   3   9   6   10.75    0.59 
  -3   9  -6   10.86    0.56 
   3   9   6   11.12    0.63 
   3   9   6   11.25    0.60 
  -3   9  -6   11.21    0.57 
  -3   9  -6    9.03    0.65 
  -3   9  -6   12.76    0.62 
  -4 -10   6    2.80    0.29 
  -4 -10   6    3.02    0.19 
  -4 -10   6    3.16    0.31 
  -4 -10   6    2.97    0.45 
  -4 -10   6    2.95    0.27 
   4 -10  -6    2.74    0.24 
  -4  10   6    2.83    0.27 
  -4  10   6    3.09    0.37 
   4  10  -6    2.84    0.27 
   4  10  -6    3.03    0.28 
   4  10  -6    2.84    0.28 
  -4  10   6    2.68    0.22 
  -4  10   6    3.29    0.32 
  -4  10   6    3.04    0.25 
  -3 -10   6    2.15    0.28 
   3 -10  -6    2.25    0.26 
  -3 -10   6    2.72    0.27 
  -3 -10   6    2.51    0.21 
  -3 -10   6    2.21    0.41 
  -3 -10   6    2.62    0.29 
   3 -10  -6    2.42    0.31 
  -3 -10   6    2.02    0.23 
  -3  10   6    2.61    0.35 
  -3  10   6    2.03    0.43 
  -3  10   6    2.40    0.29 
  -3  10   6    2.80    0.33 
  -3  10   6    2.32    0.30 
  -3  10   6    2.53    0.27 
  -3  10   6    2.64    0.31 
   3  10  -6    2.30    0.36 
   3  10  -6    3.09    0.30 
   3  10  -6    1.81    0.40 
   3  10  -6    2.74    0.32 
   3  10  -6    2.57    0.30 
   2 -10  -6    1.78    0.34 
   2 -10  -6    1.85    0.25 
  -2 -10   6    1.74    0.21 
   2 -10  -6    0.93    0.24 
  -2 -10   6    2.00    0.33 
  -2 -10   6    1.14    0.22 
   2 -10  -6    1.67    0.34 
  -2 -10   6    1.73    0.33 
  -2  10   6    1.74    0.17 
   2  10  -6    2.04    0.29 
  -2  10   6    1.68    0.40 
  -2  10   6    2.11    0.36 
   2  10  -6    1.74    0.28 
  -2  10   6    1.61    0.35 
   2  10  -6    1.72    0.28 
  -2  10   6    1.69    0.39 
   2  10  -6    1.78    0.35 
  -2  10   6    1.46    0.44 
  -1 -10   6    1.31    0.31 
   1 -10  -6    1.94    0.37 
  -1 -10   6    2.15    0.31 
   1 -10  -6    2.22    0.32 
  -1 -10   6    1.63    0.39 
  -1 -10   6    2.29    0.33 
   1 -10  -6    1.51    0.36 
   1 -10  -6    1.99    0.36 
   1  10  -6    1.87    0.32 
  -1  10   6    1.61    0.18 
  -1  10   6    1.86    0.49 
  -1  10   6    1.93    0.29 
  -1  10   6    1.79    0.36 
  -1  10   6    2.23    0.39 
   1  10  -6    1.72    0.33 
   1  10  -6    1.96    0.23 
  -1  10   6    1.61    0.35 
  -1  10   6    1.85    0.30 
  -1  10   6    1.66    0.24 
   1  10  -6    2.05    0.34 
   0 -10   6   10.17    0.60 
   0 -10   6    8.79    0.62 
   0 -10  -6   10.52    0.59 
   0 -10  -6    9.21    0.69 
   0 -10  -6    9.37    0.60 
   0 -10  -6    9.72    0.61 
   0 -10  -6    8.90    0.68 
   0 -10   6    9.29    0.61 
   0 -10  -6    9.61    0.62 
   0  10  -6   10.16    0.50 
   0  10   6   11.10    0.62 
   0  10   6   10.37    0.65 
   0  10   6    9.16    0.60 
   0  10  -6    8.24    0.63 
   0  10  -6    9.48    0.55 
   0  10  -6   10.11    0.58 
   0  10  -6    9.67    0.55 
   0  10   6   10.14    0.53 
   1 -10   6    0.58    0.20 
   1 -10   6    0.98    0.27 
   1 -10   6    0.79    0.21 
  -1 -10  -6    1.35    0.29 
  -1 -10  -6    1.26    0.32 
  -1 -10  -6    1.46    0.38 
  -1 -10  -6    0.70    0.22 
  -1 -10  -6    1.16    0.18 
  -1 -10  -6    0.81    0.21 
   1 -10   6    0.56    0.19 
  -1  10  -6    1.01    0.16 
   1  10   6    1.20    0.23 
   1  10   6    1.24    0.28 
  -1  10  -6    1.09    0.16 
   1  10   6    1.63    0.36 
  -1  10  -6    0.83    0.13 
  -1  10  -6    0.89    0.26 
   1  10   6    1.51    0.35 
  -1  10  -6    1.06    0.19 
  -1  10  -6    1.20    0.30 
  -1  10  -6    1.05    0.20 
  -1  10  -6    1.23    0.34 
  -2 -10  -6    4.19    0.29 
  -2 -10  -6    4.54    0.29 
  -2 -10  -6    4.92    0.43 
   2 -10   6    4.42    0.30 
  -2 -10  -6    4.62    0.28 
  -2 -10  -6    4.50    0.35 
   2 -10   6    3.64    0.33 
   2  10   6    4.90    0.39 
  -2  10  -6    4.52    0.30 
  -2  10  -6    4.23    0.45 
   2  10   6    4.39    0.32 
   2  10   6    3.87    0.31 
   2  10   6    4.15    0.32 
  -2  10  -6    4.40    0.31 
  -3 -11   6    4.66    0.39 
   3 -11  -6    4.93    0.35 
  -3 -11   6    5.02    0.30 
  -3 -11   6    4.63    0.32 
  -3 -11   6    5.16    0.30 
   3 -11  -6    5.09    0.36 
  -3 -11   6    4.72    0.44 
   3 -11  -6    5.05    0.32 
  -3 -11   6    5.09    0.31 
  -3  11   6    5.57    0.37 
  -3  11   6    5.13    0.34 
   3  11  -6    4.50    0.38 
   3  11  -6    5.01    0.32 
   3  11  -6    5.40    0.35 
  -3  11   6    6.17    0.41 
   3  11  -6    5.35    0.33 
  -3  11   6    5.43    0.33 
  -3  11   6    4.80    0.45 
   2 -11  -6    4.40    0.38 
  -2 -11   6    4.68    0.37 
  -2 -11   6    4.98    0.37 
  -2 -11   6    3.75    0.36 
   2 -11  -6    4.54    0.32 
   2 -11  -6    5.27    0.39 
   2 -11  -6    5.74    0.42 
  -2 -11   6    5.44    0.36 
   2 -11  -6    5.15    0.39 
   2  11  -6    4.72    0.33 
  -2  11   6    4.86    0.38 
   2  11  -6    4.64    0.47 
  -2  11   6    4.73    0.40 
   2  11  -6    5.11    0.31 
   2  11  -6    5.31    0.40 
  -2  11   6    5.23    0.40 
  -2  11   6    4.76    0.38 
   1 -11  -6    4.91    0.37 
   1 -11  -6    5.81    0.42 
  -1 -11   6    5.15    0.43 
  -1 -11   6    4.83    0.35 
   1 -11  -6    5.43    0.46 
  -1 -11   6    4.78    0.33 
  -1 -11   6    4.78    0.36 
   1 -11  -6    4.64    0.37 
   1 -11  -6    5.08    0.38 
   1  11  -6    4.80    0.30 
   1  11  -6    4.43    0.35 
   1  11  -6    4.20    0.33 
  -1  11   6    5.03    0.31 
  -1  11   6    4.52    0.43 
   1  11  -6    4.67    0.36 
  -1  11   6    4.91    0.34 
  -1  11   6    4.93    0.48 
  -1  11   6    4.89    0.33 
  -1  11   6    4.98    0.41 
   1  11  -6    4.84    0.36 
   0 -11   6    0.87    0.18 
   0 -11  -6    1.10    0.24 
   0 -11  -6    0.71    0.17 
   0 -11   6    0.59    0.15 
   0 -11  -6    0.69    0.16 
   0 -11   6    0.84    0.22 
   0 -11  -6    0.80    0.16 
   0 -11  -6    1.06    0.31 
   0 -11   6    1.10    0.29 
   0 -11   6    0.83    0.23 
   0 -11  -6    0.53    0.24 
   0  11  -6    1.27    0.19 
   0  11  -6    0.94    0.17 
   0  11   6    0.67    0.15 
   0  11  -6    0.74    0.16 
   0  11  -6    0.69    0.14 
   0  11   6    0.67    0.15 
   0  11   6    1.01    0.22 
   0  11   6    0.44    0.15 
   0  11  -6    0.49    0.22 
  -1 -11  -6   10.36    0.55 
  -1 -11  -6    9.93    0.53 
  -1 -11  -6    9.56    0.58 
  -1 -11  -6    9.75    0.54 
   1 -11   6    9.96    0.57 
  -1 -11  -6   10.55    0.59 
   1 -11   6    8.99    0.53 
  -1 -11  -6    9.15    0.54 
  -1 -11  -6    9.56    0.60 
  -1 -11  -6    9.15    0.49 
   1 -11   6    9.17    0.55 
   1  11   6    9.55    0.54 
   1  11   6    9.72    0.56 
  -1  11  -6    9.64    0.54 
   1  11   6    9.48    0.58 
  -1  11  -6    9.32    0.55 
   1  11   6    9.30    0.56 
   1 -12  -6    7.36    0.44 
   1 -12  -6    6.66    0.45 
   1 -12  -6    7.98    0.45 
   1 -12  -6    6.39    0.51 
  -1 -12   6    8.09    0.47 
  -1 -12   6    8.55    0.41 
   1  12  -6    8.40    0.42 
   1  12  -6    7.27    0.43 
  -1  12   6    8.23    0.51 
  -6   0   7    2.63    0.20 
  -6   0   7    3.06    0.43 
  -6   0   7    2.85    0.21 
  -6   0   7    3.03    0.47 
  -6   0   7    2.63    0.24 
  -6   0   7    2.81    0.20 
  -6   0   7    2.99    0.23 
  -6   0   7    2.68    0.24 
  -6   0   7    3.09    0.25 
  -6   0   7    2.38    0.44 
  -5   0   7    8.88    0.72 
  -5   0   7    9.12    0.55 
  -5   0   7    9.06    0.50 
  -5   0   7    9.45    0.53 
  -5   0   7    7.92    0.54 
  -5   0   7    7.61    0.85 
  -5   0   7    8.41    0.75 
  -5   0   7    9.70    0.54 
  -5   0   7    8.54    0.53 
  -5   0   7    8.56    0.80 
  -5   0   7    9.58    0.68 
  -5   0   7    9.27    0.72 
  -5   0   7    9.46    0.56 
  -5   0   7    9.09    0.55 
  -5   0   7    8.89    0.85 
  -4   0   7    0.12    0.17 
  -4   0   7    0.14    0.18 
  -4   0   7    0.05    0.26 
   4   0  -7    0.07    0.14 
  -4   0   7    0.37    0.21 
  -4   0   7    0.19    0.35 
  -4   0   7    0.00    0.17 
  -4   0   7   -0.04    0.16 
  -4   0   7   -0.07    0.40 
  -4   0   7    0.15    0.22 
  -4   0   7   -0.13    0.34 
  -4   0   7    0.13    0.50 
  -4   0   7    0.48    0.37 
  -4   0   7    0.26    0.22 
  -4   0   7   -0.32    0.25 
  -4   0   7    0.07    0.42 
  -4   0   7    0.12    0.23 
  -3   0   7   23.31    1.27 
  -3   0   7   25.81    1.50 
  -3   0   7   24.23    1.19 
  -3   0   7   24.36    1.25 
  -3   0   7   23.42    1.21 
  -3   0   7   24.32    1.45 
  -3   0   7   23.15    1.24 
  -3   0   7   22.17    1.31 
   3   0  -7   22.89    1.19 
  -3   0   7   24.36    1.48 
  -2   0   7   18.52    1.05 
  -2   0   7   19.26    1.11 
  -2   0   7   14.69    1.35 
  -2   0   7   18.84    1.21 
   2   0  -7   19.60    0.97 
  -2   0   7   19.14    1.20 
  -2   0   7   20.31    1.03 
  -2   0   7   21.04    1.11 
  -1   0   7    7.34    0.59 
   1   0  -7    8.10    0.52 
   1   0  -7    7.07    0.53 
  -1   0   7    6.84    0.86 
   1   0  -7    6.58    0.62 
  -1   0   7    6.98    0.49 
  -1   0   7    7.87    0.53 
  -1   0   7    8.57    0.74 
   1   0  -7    5.28    0.67 
  -1   0   7    8.34    0.67 
   0   0   7   14.14    0.93 
   0   0  -7   14.05    0.93 
   0   0   7   14.06    1.01 
   0   0   7   13.52    0.87 
   0   0  -7   14.75    0.85 
   0   0  -7   14.23    0.83 
   0   0   7   14.21    0.83 
   0   0  -7   14.27    0.81 
  -1   0  -7   31.61    1.64 
  -1   0  -7   32.75    1.70 
  -1   0  -7   34.17    1.67 
  -1   0  -7   32.95    1.76 
   1   0   7   31.37    1.88 
  -1   0  -7   32.11    1.69 
   1   0   7   33.53    1.62 
  -2   0  -7   22.12    1.23 
  -2   0  -7   22.66    1.14 
  -2   0  -7   23.20    1.15 
  -2   0  -7   23.29    1.21 
  -2   0  -7   23.99    1.13 
  -2   0  -7   21.95    1.27 
   2   0   7   23.67    1.23 
  -2   0  -7   21.67    1.29 
   2   0   7   21.77    1.24 
  -2   0  -7   23.08    1.25 
  -2   0  -7   23.41    1.17 
  -2   0  -7   23.03    1.08 
  -2   0  -7   21.33    1.19 
   2   0   7   22.38    1.15 
   2   0   7   22.42    1.16 
  -2   0  -7   21.34    1.27 
  -2   0  -7   21.76    1.19 
  -2   0  -7   21.56    1.17 
  -2   0  -7   21.40    1.13 
  -2   0  -7   21.80    1.13 
  -3   0  -7   39.62    2.01 
  -3   0  -7   40.79    2.01 
   3   0   7   43.55    1.99 
  -3   0  -7   38.99    2.04 
  -3   0  -7   40.93    2.01 
  -3   0  -7   39.93    1.98 
  -3   0  -7   41.02    1.99 
  -3   0  -7   42.30    2.19 
  -3   0  -7   38.62    2.00 
  -3   0  -7   42.20    2.03 
   3   0   7   39.31    2.02 
  -3   0  -7   40.16    2.01 
  -4   0  -7    0.03    0.14 
  -4   0  -7   -0.03    0.16 
  -4   0  -7   -0.06    0.12 
  -4   0  -7   -0.01    0.13 
  -4   0  -7   -0.14    0.18 
   4   0   7    0.14    0.15 
  -4   0  -7   -0.01    0.14 
  -4   0  -7    0.00    0.19 
  -4   0  -7    0.36    0.15 
  -6  -1   7    1.34    0.19 
  -6  -1   7    2.06    0.41 
  -6  -1   7    1.52    0.39 
  -6  -1   7    1.46    0.42 
  -6  -1   7    1.55    0.21 
  -6  -1   7    1.76    0.23 
  -6  -1   7    1.96    0.16 
  -6  -1   7    1.49    0.18 
  -6   1   7    1.60    0.17 
  -6   1   7    1.97    0.30 
  -6   1   7    1.63    0.43 
  -6   1   7    1.55    0.21 
  -6   1   7    1.51    0.15 
  -6   1   7    1.46    0.15 
  -6   1   7    1.56    0.38 
  -6   1   7    1.70    0.15 
  -6   1   7    1.50    0.19 
  -5  -1   7    1.16    0.29 
  -5  -1   7    1.41    0.52 
  -5  -1   7    1.18    0.28 
  -5  -1   7    0.92    0.38 
  -5  -1   7    1.17    0.38 
  -5  -1   7    1.26    0.23 
  -5  -1   7    0.37    0.17 
  -5  -1   7    1.61    0.25 
  -5  -1   7    1.64    0.55 
  -5  -1   7    0.95    0.21 
  -5  -1   7    1.15    0.44 
  -5  -1   7    1.34    0.30 
  -5  -1   7    1.07    0.36 
  -5  -1   7    1.44    0.24 
  -5  -1   7    1.64    0.45 
  -5   1   7    1.60    0.25 
  -5   1   7    1.27    0.27 
  -5   1   7    0.68    0.46 
  -5   1   7    1.76    0.20 
  -5   1   7    1.39    0.26 
  -5   1   7    1.57    0.25 
  -5   1   7    1.25    0.38 
  -5   1   7    0.73    0.44 
  -5   1   7    0.87    0.38 
  -5   1   7    0.92    0.18 
  -5   1   7    1.45    0.26 
  -5   1   7    1.82    0.56 
  -4  -1   7    2.78    0.35 
  -4  -1   7    2.49    0.65 
  -4  -1   7    2.76    0.37 
  -4  -1   7    3.23    0.66 
  -4  -1   7    2.61    0.38 
  -4  -1   7    2.45    0.39 
  -4  -1   7    2.59    0.32 
  -4  -1   7    3.07    0.51 
   4  -1  -7    2.79    0.28 
  -4  -1   7    2.98    0.58 
  -4  -1   7    2.66    0.48 
  -4  -1   7    2.69    0.41 
  -4  -1   7    2.31    0.61 
  -4  -1   7    2.56    0.24 
  -4  -1   7    2.48    0.40 
  -4  -1   7    2.81    0.36 
  -4  -1   7    2.58    0.20 
  -4  -1   7    3.26    0.52 
  -4  -1   7    2.77    0.31 
  -4   1   7    2.65    0.33 
  -4   1   7    2.16    0.34 
  -4   1   7    2.55    0.35 
  -4   1   7    2.52    0.31 
  -4   1   7    2.20    0.38 
   4   1  -7    2.53    0.34 
  -4   1   7    2.89    0.58 
  -4   1   7    2.78    0.36 
  -4   1   7    2.03    0.39 
  -4   1   7    2.55    0.64 
  -4   1   7    2.97    0.36 
  -4   1   7    2.54    0.62 
  -4   1   7    2.42    0.56 
   4   1  -7    2.29    0.28 
  -4   1   7    2.67    0.56 
  -4   1   7    2.78    0.41 
  -4   1   7    2.33    0.31 
  -3  -1   7    3.26    0.57 
  -3  -1   7    3.46    0.34 
  -3  -1   7    3.30    0.40 
  -3  -1   7    3.03    0.64 
  -3  -1   7    2.99    0.37 
  -3  -1   7    3.20    0.34 
  -3  -1   7    2.74    0.47 
  -3  -1   7    3.57    0.38 
   3  -1  -7    3.33    0.30 
  -3   1   7    3.07    0.44 
  -3   1   7    2.71    0.66 
  -3   1   7    2.86    0.60 
   3   1  -7    3.11    0.29 
  -3   1   7    2.78    0.31 
  -3   1   7    3.15    0.57 
  -3   1   7    3.69    0.69 
  -3   1   7    3.26    0.37 
  -3   1   7    3.53    0.39 
  -3   1   7    2.27    0.38 
  -3   1   7    3.29    0.34 
  -2  -1   7   64.86    3.44 
  -2  -1   7   69.45    3.39 
  -2  -1   7   68.54    3.39 
  -2  -1   7   66.83    3.31 
  -2  -1   7   67.09    3.35 
   2  -1  -7   66.88    3.28 
  -2   1   7   69.93    3.46 
  -2   1   7   70.82    3.38 
  -2   1   7   69.62    3.36 
  -2   1   7   66.88    3.37 
   2   1  -7   73.72    3.28 
  -2   1   7   72.29    3.31 
  -1  -1   7    0.65    0.32 
  -1  -1   7    0.30    0.28 
   1  -1  -7    0.33    0.29 
  -1  -1   7    0.44    0.20 
   1  -1  -7    0.87    0.24 
  -1  -1   7    0.93    0.40 
  -1  -1   7    0.38    0.25 
   1  -1  -7    1.03    0.40 
  -1  -1   7    0.44    0.46 
  -1   1   7    0.25    0.25 
   1   1  -7    0.10    0.29 
  -1   1   7    0.74    0.25 
   1   1  -7    0.68    0.23 
  -1   1   7    1.25    0.28 
  -1   1   7    0.34    0.42 
  -1   1   7    0.95    0.29 
   1   1  -7    0.68    0.22 
  -1   1   7    0.43    0.38 
   1   1  -7    0.47    0.37 
  -1   1   7    0.45    0.45 
   0  -1  -7    1.23    0.39 
   0  -1   7    0.26    0.29 
   0  -1   7    0.31    0.22 
   0  -1  -7    0.63    0.27 
   0  -1  -7    0.25    0.22 
   0  -1   7    0.11    0.38 
   0  -1   7    0.49    0.24 
   0  -1  -7    0.75    0.29 
   0   1   7    0.34    0.39 
   0   1   7    0.48    0.30 
   0   1  -7    0.31    0.29 
   0   1  -7    0.26    0.18 
   0   1  -7    0.31    0.28 
   0   1  -7    0.42    0.23 
   0   1   7    0.20    0.23 
   0   1  -7    0.30    0.23 
   0   1   7    0.66    0.25 
  -1  -1  -7    4.40    0.47 
  -1  -1  -7    4.90    0.44 
   1  -1   7    4.34    0.69 
   1  -1   7    5.11    0.37 
  -1  -1  -7    4.83    0.45 
  -1  -1  -7    4.87    0.55 
  -1  -1  -7    4.86    0.49 
  -1   1  -7    5.15    0.42 
   1   1   7    3.87    0.36 
  -1   1  -7    4.66    0.43 
   1   1   7    4.64    0.65 
  -1   1  -7    4.64    0.46 
  -1   1  -7    4.93    0.57 
  -1   1  -7    4.77    0.50 
  -2  -1  -7   50.15    2.45 
  -2  -1  -7   53.24    2.56 
  -2  -1  -7   48.85    2.42 
  -2  -1  -7   50.43    2.41 
  -2  -1  -7   43.15    2.52 
   2  -1   7   48.96    2.42 
  -2  -1  -7   46.61    2.46 
  -2  -1  -7   49.57    2.48 
  -2  -1  -7   50.92    2.50 
  -2  -1  -7   52.45    2.45 
  -2  -1  -7   50.31    2.36 
  -2  -1  -7   47.67    2.51 
   2  -1   7   51.16    2.50 
   2  -1   7   49.57    2.42 
   2  -1   7   51.07    2.48 
  -2  -1  -7   50.59    2.41 
  -2  -1  -7   50.17    2.41 
  -2  -1  -7   52.34    2.46 
  -2  -1  -7   50.78    2.52 
   2   1   7   46.69    2.48 
  -2   1  -7   51.48    2.47 
   2   1   7   51.41    2.43 
  -2   1  -7   49.26    2.40 
   2   1   7   50.44    2.42 
  -2   1  -7   49.26    2.53 
  -2   1  -7   50.96    2.35 
  -2   1  -7   53.09    2.41 
  -2   1  -7   50.57    2.54 
  -2   1  -7   50.96    2.50 
   2   1   7   50.55    2.48 
  -2   1  -7   51.55    2.46 
  -2   1  -7   49.35    2.43 
  -2   1  -7   53.70    2.50 
  -2   1  -7   49.34    2.41 
  -2   1  -7   51.70    2.38 
  -2   1  -7   48.32    2.45 
  -2   1  -7   48.29    2.50 
  -2   1  -7   47.50    2.43 
  -2   1  -7   50.35    2.40 
  -3  -1  -7    2.67    0.35 
  -3  -1  -7    2.29    0.36 
   3  -1   7    2.57    0.33 
  -3  -1  -7    2.79    0.38 
  -3  -1  -7    1.89    0.52 
   3  -1   7    2.18    0.41 
  -3  -1  -7    2.51    0.41 
  -3  -1  -7    2.80    0.32 
  -3  -1  -7    2.86    0.41 
  -3  -1  -7    2.24    0.37 
  -3  -1  -7    2.32    0.33 
   3  -1   7    3.00    0.47 
  -3  -1  -7    2.83    0.40 
  -3  -1  -7    2.22    0.38 
  -3   1  -7    2.22    0.34 
  -3   1  -7    2.18    0.40 
  -3   1  -7    2.60    0.33 
  -3   1  -7    2.51    0.30 
  -3   1  -7    2.93    0.37 
  -3   1  -7    2.09    0.34 
  -3   1  -7    1.92    0.48 
  -3   1  -7    2.48    0.36 
  -3   1  -7    2.33    0.39 
   3   1   7    2.37    0.34 
   3   1   7    2.90    0.44 
  -3   1  -7    2.85    0.36 
  -4  -1  -7    0.54    0.14 
  -4  -1  -7    0.33    0.13 
  -4  -1  -7    0.71    0.15 
  -4  -1  -7    0.87    0.20 
  -4  -1  -7    0.60    0.15 
  -4  -1  -7    0.54    0.17 
  -4  -1  -7    0.42    0.16 
   4  -1   7    0.59    0.16 
   4   1   7    0.65    0.20 
  -4   1  -7    0.57    0.17 
  -4   1  -7    0.58    0.16 
  -4   1  -7    0.47    0.15 
  -4   1  -7    0.61    0.17 
   4   1   7    0.57    0.16 
  -4   1  -7    0.13    0.13 
  -4   1  -7    0.66    0.17 
  -4   1  -7    0.24    0.21 
  -4   1  -7    0.45    0.14 
  -6  -2   7    2.97    0.24 
  -6  -2   7    3.03    0.44 
  -6  -2   7    2.82    0.25 
  -6  -2   7    2.85    0.21 
  -6  -2   7    3.18    0.23 
  -6  -2   7    3.23    0.47 
  -6  -2   7    3.65    0.45 
  -6  -2   7    2.83    0.26 
  -6   2   7    2.82    0.18 
  -6   2   7    2.45    0.39 
  -6   2   7    2.99    0.22 
  -6   2   7    2.95    0.25 
  -6   2   7    2.31    0.18 
  -6   2   7    2.72    0.43 
  -6   2   7    3.14    0.19 
  -6   2   7    3.10    0.21 
  -5  -2   7    0.32    0.23 
  -5  -2   7    0.35    0.39 
  -5  -2   7    0.71    0.23 
  -5  -2   7    0.35    0.38 
  -5  -2   7    1.07    0.28 
  -5  -2   7    0.68    0.16 
  -5  -2   7    0.92    0.24 
  -5  -2   7    1.03    0.23 
  -5  -2   7    0.70    0.39 
  -5  -2   7    1.22    0.36 
  -5  -2   7    1.40    0.38 
  -5  -2   7    0.51    0.30 
  -5  -2   7    0.43    0.19 
  -5  -2   7    1.09    0.23 
  -5   2   7    0.63    0.13 
  -5   2   7    0.56    0.16 
  -5   2   7    0.65    0.35 
  -5   2   7    0.68    0.19 
  -5   2   7    1.21    0.24 
  -5   2   7    0.69    0.18 
  -5   2   7    0.66    0.28 
  -5   2   7    0.70    0.42 
  -5   2   7    0.72    0.24 
  -5   2   7    0.82    0.20 
  -4  -2   7   16.45    0.91 
   4  -2  -7   15.00    0.84 
  -4  -2   7   16.68    0.78 
  -4  -2   7   16.37    1.18 
  -4  -2   7   15.93    0.93 
  -4  -2   7   16.22    0.92 
  -4  -2   7   17.29    0.92 
  -4  -2   7   16.31    0.92 
  -4  -2   7   15.73    0.82 
  -4  -2   7   16.67    1.13 
  -4  -2   7   15.78    0.80 
  -4  -2   7   16.39    0.88 
  -4  -2   7   17.65    0.91 
  -4  -2   7   15.89    0.90 
  -4  -2   7   15.56    1.01 
  -4  -2   7   16.24    1.15 
  -4  -2   7   15.40    0.98 
  -4  -2   7   15.21    1.01 
  -4  -2   7   17.12    1.13 
  -4  -2   7   15.07    0.91 
  -4  -2   7   17.30    1.06 
  -4   2   7   14.80    0.88 
  -4   2   7   16.68    0.90 
  -4   2   7   15.24    0.88 
  -4   2   7   15.30    0.86 
  -4   2   7   16.83    0.89 
  -4   2   7   16.05    1.09 
  -4   2   7   15.49    0.90 
  -4   2   7   17.05    1.14 
   4   2  -7   16.77    0.89 
   4   2  -7   16.27    0.85 
  -4   2   7   15.38    1.14 
  -4   2   7   17.38    0.90 
  -4   2   7   15.77    0.92 
  -4   2   7   17.53    1.05 
  -4   2   7   15.31    0.86 
  -4   2   7   17.67    0.90 
  -4   2   7   16.15    1.17 
  -4   2   7   15.54    0.87 
  -3  -2   7    1.93    0.63 
  -3  -2   7    2.16    0.31 
  -3  -2   7    2.92    0.55 
  -3  -2   7    2.19    0.36 
  -3  -2   7    2.72    0.37 
   3  -2  -7    2.54    0.28 
  -3  -2   7    2.37    0.46 
  -3   2   7    1.72    0.67 
  -3   2   7    3.30    0.43 
  -3   2   7    2.58    0.36 
  -3   2   7    2.26    0.37 
   3   2  -7    2.27    0.27 
  -3   2   7    2.65    0.31 
  -3   2   7    2.51    0.56 
  -3   2   7    3.15    0.58 
  -3   2   7    2.08    0.34 
  -3   2   7    2.86    0.32 
  -3   2   7    2.39    0.64 
  -3   2   7    2.10    0.36 
  -2  -2   7    4.37    0.58 
   2  -2  -7    4.52    0.34 
  -2  -2   7    4.08    0.41 
  -2  -2   7    3.91    0.67 
  -2  -2   7    3.51    0.76 
  -2  -2   7    4.27    0.48 
  -2  -2   7    3.94    0.54 
  -2   2   7    4.37    0.53 
   2   2  -7    4.61    0.34 
  -2   2   7    3.93    0.42 
  -2   2   7    4.75    0.40 
  -2   2   7    4.80    0.77 
  -2   2   7    4.61    0.51 
   2   2  -7    3.81    0.56 
  -2   2   7    3.97    0.47 
  -2   2   7    4.00    0.64 
   1  -2  -7   36.76    2.04 
  -1  -2   7   41.38    2.09 
  -1  -2   7   40.18    1.96 
  -1  -2   7   39.70    2.06 
  -1  -2   7   38.66    2.16 
   1  -2  -7   38.00    2.04 
  -1  -2   7   41.78    1.99 
  -1   2   7   40.79    2.09 
  -1   2   7   39.87    2.05 
   1   2  -7   40.68    2.13 
  -1   2   7   40.88    1.98 
  -1   2   7   39.35    2.14 
   1   2  -7   37.26    2.54 
   1   2  -7   38.07    1.97 
   1   2  -7   39.29    1.99 
  -1   2   7   40.00    2.05 
  -1   2   7   38.95    1.92 
   1   2  -7   40.94    2.04 
  -1   2   7   37.65    2.38 
   0  -2   7    5.01    0.49 
   0  -2  -7    5.83    0.61 
   0  -2  -7    6.72    0.53 
   0  -2  -7    7.00    0.54 
   0  -2  -7    6.01    0.51 
   0  -2   7    5.55    0.54 
   0  -2   7    5.51    0.63 
   0  -2   7    6.03    0.72 
   0   2   7    6.28    0.69 
   0   2  -7    6.70    0.43 
   0   2   7    5.95    0.52 
   0   2  -7    5.85    0.50 
   0   2  -7    6.35    0.61 
   0   2  -7    5.88    0.48 
   0   2   7    6.37    0.65 
   0   2  -7    5.67    0.56 
   0   2   7    6.12    0.53 
  -1  -2  -7   -0.11    0.31 
   1  -2   7   -0.06    0.16 
  -1  -2  -7   -0.23    0.26 
  -1  -2  -7    0.23    0.25 
   1  -2   7    0.20    0.43 
  -1  -2  -7   -0.30    0.20 
  -1  -2  -7   -0.12    0.23 
  -1  -2  -7    0.30    0.23 
   1   2   7   -0.33    0.37 
  -1   2  -7   -0.05    0.20 
  -1   2  -7   -0.19    0.26 
  -1   2  -7   -0.21    0.24 
  -1   2  -7    0.13    0.22 
  -1   2  -7   -0.32    0.19 
  -1   2  -7   -0.01    0.22 
   2  -2   7    8.04    0.62 
  -2  -2  -7    8.52    0.54 
  -2  -2  -7    8.14    0.63 
  -2  -2  -7    9.19    0.66 
  -2  -2  -7    8.04    0.61 
  -2  -2  -7    9.57    0.70 
   2  -2   7    9.12    0.57 
   2  -2   7    8.43    0.56 
  -2  -2  -7    8.87    0.47 
  -2  -2  -7    8.65    0.60 
  -2  -2  -7    8.54    0.54 
  -2  -2  -7    8.51    0.70 
  -2  -2  -7    6.96    0.68 
  -2  -2  -7    8.56    0.61 
  -2  -2  -7    8.57    0.56 
   2   2   7    8.80    0.66 
   2   2   7    7.97    0.55 
  -2   2  -7    9.51    0.64 
  -2   2  -7    8.16    0.65 
  -2   2  -7    8.98    0.60 
  -2   2  -7    8.29    0.51 
  -2   2  -7    8.33    0.52 
   2   2   7    8.85    0.68 
  -2   2  -7    8.45    0.62 
  -2   2  -7    8.27    0.50 
  -2   2  -7    8.85    0.64 
  -2   2  -7    8.58    0.56 
  -2   2  -7    8.72    0.50 
  -2   2  -7    9.10    0.66 
  -2   2  -7    8.26    0.67 
  -2   2  -7    8.63    0.55 
   2   2   7    6.74    0.58 
  -3  -2  -7    1.11    0.47 
  -3  -2  -7    1.47    0.38 
  -3  -2  -7    1.54    0.32 
  -3  -2  -7    2.09    0.30 
  -3  -2  -7    1.94    0.15 
   3  -2   7    1.95    0.42 
   3  -2   7    1.28    0.31 
  -3  -2  -7    1.68    0.32 
  -3  -2  -7    1.71    0.32 
  -3  -2  -7    1.22    0.34 
  -3  -2  -7    1.47    0.33 
   3  -2   7    1.45    0.38 
  -3  -2  -7    1.98    0.37 
  -3  -2  -7    2.08    0.42 
  -3   2  -7    1.60    0.30 
   3   2   7    1.82    0.40 
  -3   2  -7    2.09    0.41 
  -3   2  -7    1.84    0.37 
  -3   2  -7    1.61    0.30 
  -3   2  -7    1.73    0.30 
  -3   2  -7    2.43    0.33 
  -3   2  -7    2.32    0.33 
   3   2   7    1.79    0.32 
  -3   2  -7    1.98    0.29 
  -3   2  -7    1.80    0.48 
  -3   2  -7    1.72    0.32 
  -4  -2  -7    0.04    0.15 
  -4  -2  -7    0.10    0.13 
  -4  -2  -7    0.25    0.13 
  -4  -2  -7   -0.23    0.12 
  -4  -2  -7    0.20    0.14 
   4  -2   7   -0.05    0.13 
  -4  -2  -7    0.20    0.19 
  -4  -2  -7    0.08    0.16 
  -4  -2  -7    0.23    0.12 
  -4   2  -7    0.01    0.08 
  -4   2  -7    0.17    0.14 
   4   2   7    0.14    0.14 
  -4   2  -7   -0.06    0.13 
  -4   2  -7   -0.15    0.11 
  -4   2  -7   -0.02    0.15 
  -4   2  -7    0.11    0.13 
   4   2   7    0.05    0.17 
  -4   2  -7    0.07    0.15 
  -6  -3   7    5.76    0.51 
  -6  -3   7    5.58    0.34 
  -6  -3   7    5.61    0.33 
  -6  -3   7    5.32    0.35 
  -6  -3   7    5.91    0.50 
  -6  -3   7    5.33    0.49 
  -6  -3   7    5.26    0.35 
  -6  -3   7    5.48    0.32 
  -6   3   7    5.76    0.29 
  -6   3   7    5.41    0.28 
  -6   3   7    5.55    0.29 
  -6   3   7    5.26    0.30 
  -6   3   7    5.14    0.31 
  -6   3   7    5.68    0.29 
  -6   3   7    5.81    0.50 
  -5  -3   7    3.71    0.61 
  -5  -3   7    4.56    0.33 
  -5  -3   7    3.89    0.50 
  -5  -3   7    4.06    0.54 
  -5  -3   7    3.55    0.40 
  -5  -3   7    4.09    0.38 
  -5  -3   7    3.66    0.55 
  -5  -3   7    3.93    0.33 
  -5  -3   7    4.00    0.38 
  -5  -3   7    3.99    0.34 
  -5  -3   7    4.36    0.56 
  -5  -3   7    3.96    0.62 
  -5  -3   7    3.62    0.36 
  -5   3   7    3.32    0.56 
  -5   3   7    4.09    0.32 
  -5   3   7    3.23    0.40 
  -5   3   7    4.14    0.31 
  -5   3   7    4.04    0.32 
   5   3  -7    3.99    0.36 
  -5   3   7    4.43    0.37 
  -5   3   7    3.64    0.34 
  -5   3   7    3.55    0.65 
  -5   3   7    3.44    0.35 
  -5   3   7    3.74    0.27 
  -4  -3   7    1.40    0.20 
  -4  -3   7    2.19    0.38 
  -4  -3   7    2.11    0.55 
  -4  -3   7    1.29    0.23 
  -4  -3   7    1.08    0.26 
  -4  -3   7    1.84    0.24 
  -4  -3   7    2.00    0.41 
  -4  -3   7    2.08    0.47 
  -4  -3   7    1.50    0.36 
  -4  -3   7    1.56    0.52 
  -4  -3   7    1.77    0.60 
   4  -3  -7    1.68    0.31 
  -4  -3   7    1.34    0.33 
  -4  -3   7    1.62    0.52 
  -4  -3   7    1.59    0.52 
  -4  -3   7    1.64    0.19 
  -4  -3   7    1.79    0.29 
  -4  -3   7    1.38    0.39 
  -4  -3   7    1.27    0.31 
  -4  -3   7    1.66    0.36 
   4   3  -7    1.58    0.24 
  -4   3   7    2.63    0.55 
  -4   3   7    1.90    0.52 
   4   3  -7    0.97    0.31 
  -4   3   7    1.45    0.30 
   4   3  -7    1.53    0.31 
  -4   3   7    1.40    0.33 
  -4   3   7    1.71    0.32 
  -4   3   7    1.36    0.31 
  -4   3   7    1.30    0.35 
  -4   3   7    1.50    0.30 
  -4   3   7    1.96    0.31 
  -4   3   7    1.17    0.47 
  -4   3   7    1.33    0.31 
  -4   3   7    1.71    0.54 
  -4   3   7    1.90    0.29 
  -4   3   7    1.57    0.28 
  -4   3   7    1.54    0.36 
  -4   3   7    2.09    0.54 
  -3  -3   7   33.78    1.68 
   3  -3  -7   32.21    1.58 
  -3  -3   7   29.41    1.59 
  -3  -3   7   32.81    1.82 
  -3  -3   7   32.73    1.61 
  -3  -3   7   30.08    1.85 
  -3  -3   7   33.11    1.74 
  -3   3   7   34.21    1.88 
  -3   3   7   33.81    1.83 
  -3   3   7   33.27    1.91 
  -3   3   7   32.40    1.62 
  -3   3   7   31.60    1.62 
  -3   3   7   30.09    1.62 
  -3   3   7   33.28    1.68 
  -3   3   7   30.35    1.56 
  -3   3   7   31.74    1.83 
  -3   3   7   33.79    1.66 
  -3   3   7   32.73    1.61 
   3   3  -7   30.41    1.58 
  -2  -3   7   21.47    1.24 
  -2  -3   7   21.44    1.28 
   2  -3  -7   19.80    1.05 
  -2  -3   7   20.72    1.11 
  -2  -3   7   20.75    1.15 
  -2  -3   7   20.15    1.20 
  -2   3   7   21.35    1.18 
  -2   3   7   19.19    1.23 
  -2   3   7   21.39    1.14 
  -2   3   7   17.84    1.48 
   2   3  -7   20.32    1.27 
   2   3  -7   21.02    1.06 
  -2   3   7   21.88    1.18 
  -2   3   7   21.22    1.30 
  -2   3   7   20.41    1.10 
  -1  -3   7   10.29    0.78 
   1  -3  -7    9.33    0.82 
  -1  -3   7   10.37    0.65 
  -1  -3   7    9.67    0.68 
  -1  -3   7    9.85    0.86 
  -1  -3   7    9.28    0.79 
  -1   3   7   10.01    0.82 
  -1   3   7    9.50    1.03 
   1   3  -7   10.71    0.81 
  -1   3   7    9.26    0.75 
  -1   3   7   10.08    0.66 
   1   3  -7   10.25    0.73 
   1   3  -7   10.78    0.68 
   1   3  -7    9.74    0.64 
  -1   3   7    9.57    0.74 
  -1   3   7    9.80    0.78 
   0  -3  -7    3.95    0.47 
   0  -3  -7    3.43    0.45 
   0  -3   7    3.09    0.41 
   0  -3   7    3.88    0.61 
   0  -3   7    3.04    0.58 
   0  -3   7    2.99    0.46 
   0  -3  -7    3.15    0.41 
   0   3  -7    4.00    0.51 
   0   3  -7    3.82    0.40 
   0   3   7    4.10    0.45 
   0   3  -7    4.72    0.49 
   0   3   7    4.26    0.63 
   0   3   7    3.86    0.45 
   0   3  -7    3.68    0.38 
   0   3   7    3.43    0.61 
  -1  -3  -7   12.10    0.76 
  -1  -3  -7   10.55    0.70 
   1  -3   7   10.47    0.95 
  -1  -3  -7   10.05    0.78 
   1  -3   7   11.36    0.63 
  -1  -3  -7   10.52    0.69 
  -1  -3  -7   10.53    0.83 
  -1   3  -7   11.05    0.73 
  -1   3  -7   11.97    0.81 
  -1   3  -7   11.08    0.73 
   1   3   7   10.50    0.77 
  -1   3  -7   10.49    0.65 
  -1   3  -7   11.17    0.68 
   1   3   7    9.10    0.86 
  -1   3  -7   10.56    0.67 
  -2  -3  -7    6.49    0.50 
   2  -3   7    7.12    0.50 
  -2  -3  -7    5.30    0.57 
  -2  -3  -7    6.62    0.45 
  -2  -3  -7    6.99    0.48 
  -2  -3  -7    7.02    0.48 
  -2  -3  -7    6.69    0.64 
   2  -3   7    7.50    0.57 
  -2  -3  -7    7.21    0.60 
  -2  -3  -7    6.97    0.54 
  -2  -3  -7    6.41    0.40 
  -2  -3  -7    7.00    0.58 
  -2  -3  -7    7.05    0.63 
  -2   3  -7    7.31    0.50 
  -2   3  -7    7.16    0.49 
   2   3   7    7.01    0.49 
  -2   3  -7    7.39    0.58 
  -2   3  -7    6.64    0.45 
  -2   3  -7    7.52    0.54 
  -2   3  -7    5.35    0.58 
   2   3   7    7.64    0.61 
  -2   3  -7    7.85    0.57 
  -2   3  -7    7.45    0.43 
  -2   3  -7    7.35    0.60 
  -2   3  -7    6.61    0.58 
   2   3   7    7.39    0.61 
   2   3   7    6.90    0.60 
  -2   3  -7    7.41    0.43 
  -2   3  -7    6.59    0.57 
  -2   3  -7    6.89    0.54 
  -2   3  -7    7.64    0.42 
  -2   3  -7    6.63    0.55 
  -3  -3  -7    1.85    0.16 
  -3  -3  -7    1.76    0.34 
  -3  -3  -7    1.86    0.35 
  -3  -3  -7    1.37    0.31 
  -3  -3  -7    1.74    0.29 
  -3  -3  -7    2.02    0.35 
   3  -3   7    1.99    0.42 
   3  -3   7    2.43    0.32 
  -3  -3  -7    2.18    0.30 
   3  -3   7    1.79    0.38 
  -3  -3  -7    1.47    0.40 
  -3  -3  -7    1.54    0.27 
  -3  -3  -7    1.45    0.32 
  -3  -3  -7    2.38    0.33 
  -3   3  -7    1.84    0.28 
   3   3   7    1.79    0.31 
  -3   3  -7    1.55    0.30 
  -3   3  -7    1.86    0.30 
   3   3   7    1.62    0.40 
  -3   3  -7    1.75    0.30 
  -3   3  -7    1.86    0.39 
  -3   3  -7    1.79    0.29 
  -3   3  -7    1.45    0.26 
  -3   3  -7    2.09    0.32 
  -3   3  -7    1.33    0.33 
  -4  -3  -7   11.00    0.66 
  -4  -3  -7   11.42    0.62 
  -4  -3  -7   12.72    0.65 
  -4  -3  -7   11.23    0.63 
  -4  -3  -7   11.90    0.63 
   4  -3   7   12.24    0.63 
  -4  -3  -7   12.09    0.61 
   4   3   7   12.15    0.67 
  -4   3  -7   11.70    0.61 
  -4   3  -7   12.54    0.60 
  -4   3  -7   10.84    0.63 
  -4   3  -7   12.51    0.62 
  -4   3  -7   11.81    0.65 
  -4   3  -7   11.71    0.63 
   4   3   7   12.20    0.63 
  -6  -4   7    1.82    0.35 
  -6  -4   7    1.30    0.15 
  -6  -4   7    1.24    0.33 
  -6  -4   7    1.09    0.29 
  -6  -4   7    1.09    0.17 
  -6  -4   7    1.14    0.19 
  -6  -4   7    1.30    0.17 
  -6  -4   7    0.80    0.29 
  -6   4   7    1.35    0.37 
  -6   4   7    1.17    0.08 
  -6   4   7    1.45    0.14 
  -6   4   7    1.30    0.13 
   6   4  -7    1.21    0.21 
  -6   4   7    1.14    0.08 
  -5  -4   7    0.26    0.15 
  -5  -4   7    0.08    0.19 
  -5  -4   7    0.33    0.33 
  -5  -4   7    0.29    0.16 
  -5  -4   7    0.18    0.20 
  -5  -4   7    0.32    0.33 
  -5  -4   7    0.38    0.15 
  -5  -4   7    0.23    0.36 
  -5  -4   7    0.03    0.18 
  -5  -4   7    0.53    0.37 
  -5  -4   7    0.06    0.29 
  -5  -4   7   -0.05    0.18 
  -5  -4   7   -0.24    0.62 
  -5   4   7    0.21    0.14 
  -5   4   7    0.15    0.16 
   5   4  -7   -0.21    0.15 
  -5   4   7    0.08    0.11 
  -5   4   7    0.28    0.17 
  -5   4   7    0.10    0.19 
  -5   4   7    0.13    0.13 
  -5   4   7    0.19    0.15 
  -5   4   7   -0.08    0.32 
  -4  -4   7   12.07    0.73 
  -4  -4   7   11.81    0.78 
  -4  -4   7   12.18    0.62 
  -4  -4   7   11.45    0.60 
  -4  -4   7   11.97    0.73 
  -4  -4   7   11.31    0.86 
  -4  -4   7   11.70    0.74 
  -4  -4   7   11.51    0.97 
  -4  -4   7   11.28    0.71 
  -4  -4   7   10.88    0.84 
  -4  -4   7   12.97    0.74 
  -4  -4   7   11.71    0.63 
  -4  -4   7   12.20    0.80 
  -4  -4   7   12.38    0.94 
  -4  -4   7   12.05    0.82 
  -4  -4   7   11.24    0.72 
  -4  -4   7   11.83    0.69 
  -4  -4   7   11.73    0.94 
  -4  -4   7   12.17    0.60 
  -4   4   7   12.36    0.84 
  -4   4   7    9.57    0.89 
  -4   4   7   13.18    0.90 
  -4   4   7   13.46    0.99 
  -4   4   7   11.22    0.66 
  -4   4   7   11.65    0.71 
  -4   4   7   12.31    0.71 
  -4   4   7   12.12    0.67 
  -4   4   7   11.57    0.73 
  -4   4   7   12.74    0.71 
  -4   4   7    9.50    0.94 
  -4   4   7   11.37    0.69 
  -4   4   7   11.94    0.67 
   4   4  -7   11.59    0.75 
  -4   4   7   11.84    0.67 
  -4   4   7   12.22    0.71 
  -4   4   7   11.52    0.69 
   4   4  -7   11.63    0.69 
   3  -4  -7   21.67    1.06 
  -3  -4   7   20.75    1.07 
  -3  -4   7   21.11    1.15 
  -3  -4   7   15.38    1.19 
  -3  -4   7   25.34    1.41 
  -3  -4   7   21.04    1.14 
  -3  -4   7   15.33    1.30 
  -3  -4   7   21.39    1.10 
  -3  -4   7   19.06    1.06 
   3  -4  -7   22.93    1.17 
  -3  -4   7   20.81    1.27 
  -3  -4   7   21.39    1.32 
  -3  -4   7   19.64    1.22 
  -3  -4   7   20.15    1.34 
  -3  -4   7   19.37    1.06 
  -3   4   7   19.02    1.17 
  -3   4   7   21.53    1.13 
  -3   4   7   20.20    1.07 
   3   4  -7   19.29    1.05 
  -3   4   7   16.61    1.13 
  -3   4   7   21.12    1.10 
   3   4  -7   20.81    1.17 
   3   4  -7   19.30    1.07 
  -3   4   7   21.08    1.40 
  -3   4   7   17.59    1.26 
  -3   4   7   21.53    1.25 
  -3   4   7   22.18    1.38 
  -3   4   7   23.71    1.19 
  -3   4   7   20.57    1.09 
  -3   4   7   21.38    1.04 
  -3   4   7   20.79    1.10 
  -3   4   7   21.66    1.30 
  -3   4   7   20.52    1.31 
  -3   4   7   20.34    1.15 
  -3   4   7   20.64    1.02 
  -2  -4   7    0.24    0.35 
   2  -4  -7    0.09    0.16 
  -2  -4   7    0.62    0.31 
  -2  -4   7    0.49    0.34 
  -2  -4   7    0.53    0.25 
  -2  -4   7    0.76    0.28 
  -2   4   7    0.53    0.26 
  -2   4   7    0.03    0.31 
  -2   4   7    0.42    0.34 
  -2   4   7    0.71    0.28 
  -2   4   7    0.53    0.24 
  -2   4   7    0.58    0.24 
   2   4  -7    0.24    0.32 
  -2   4   7    0.70    0.43 
  -2   4   7    0.40    0.53 
  -2   4   7    0.39    0.37 
  -1  -4   7    0.31    0.20 
  -1  -4   7    0.37    0.30 
  -1  -4   7    0.45    0.34 
   1  -4  -7    0.06    0.30 
  -1  -4   7    0.38    0.37 
  -1   4   7    0.20    0.51 
  -1   4   7    0.67    0.27 
   1   4  -7    0.30    0.22 
  -1   4   7    0.28    0.25 
  -1   4   7    0.73    0.49 
  -1   4   7    0.21    0.37 
  -1   4   7    0.03    0.26 
   1   4  -7    0.11    0.22 
  -1   4   7    0.06    0.34 
   1   4  -7    0.23    0.23 
   1   4  -7    0.73    0.33 
   0  -4   7   14.61    1.13 
   0  -4   7   15.06    1.06 
   0  -4   7   15.15    0.94 
   0  -4  -7   15.26    0.90 
   0  -4  -7   15.71    0.91 
   0  -4  -7   15.20    0.90 
   0   4  -7   14.58    0.90 
   0   4   7   15.61    1.05 
   0   4  -7   15.11    1.00 
   0   4   7   15.98    0.91 
   0   4   7   13.76    1.05 
   0   4  -7   16.57    0.90 
   0   4   7   15.84    0.88 
   0   4  -7   15.09    0.99 
   0   4  -7   16.79    0.89 
   1  -4   7   43.82    2.17 
  -1  -4  -7   47.44    2.19 
  -1  -4  -7   45.45    2.16 
  -1  -4  -7   44.71    2.27 
  -1  -4  -7   41.96    2.10 
   1  -4   7   42.73    2.41 
  -1  -4  -7   42.25    2.08 
   1  -4   7   42.88    2.12 
   1  -4   7   39.90    2.19 
  -1  -4  -7   42.63    2.15 
  -1  -4  -7   41.85    2.17 
  -1  -4  -7   44.83    2.16 
  -1  -4  -7   47.59    2.24 
   1  -4   7   41.57    2.11 
  -1  -4  -7   41.21    2.31 
  -1   4  -7   40.99    2.19 
  -1   4  -7   43.93    2.26 
   1   4   7   42.43    2.17 
  -1   4  -7   43.40    2.13 
   1   4   7   44.90    2.40 
   1   4   7   42.68    2.17 
  -1   4  -7   44.43    2.13 
   1   4   7   38.96    2.19 
  -1   4  -7   44.12    2.12 
  -1   4  -7   42.57    2.14 
  -1   4  -7   45.65    2.18 
  -1   4  -7   42.36    2.08 
   1   4   7   42.69    2.17 
  -1   4  -7   45.46    2.17 
  -1   4  -7   48.71    2.27 
   1   4   7   43.18    2.20 
  -1   4  -7   42.47    2.14 
  -1   4  -7   46.94    2.20 
  -2  -4  -7   25.07    1.25 
  -2  -4  -7   24.31    1.41 
  -2  -4  -7   25.26    1.28 
  -2  -4  -7   26.90    1.37 
  -2  -4  -7   24.18    1.35 
  -2  -4  -7   23.73    1.41 
   2  -4   7   25.74    1.29 
  -2  -4  -7   25.74    1.32 
  -2  -4  -7   25.22    1.22 
  -2  -4  -7   24.87    1.28 
   2  -4   7   23.30    1.32 
  -2  -4  -7   25.28    1.29 
  -2   4  -7   27.38    1.24 
  -2   4  -7   26.54    1.29 
  -2   4  -7   26.21    1.29 
  -2   4  -7   26.55    1.33 
  -2   4  -7   24.28    1.38 
  -2   4  -7   24.87    1.35 
  -2   4  -7   23.88    1.31 
  -2   4  -7   25.68    1.23 
   2   4   7   25.14    1.34 
  -2   4  -7   24.71    1.34 
  -2   4  -7   25.60    1.32 
   2   4   7   26.59    1.29 
  -2   4  -7   26.10    1.25 
  -2   4  -7   26.87    1.35 
  -2   4  -7   25.20    1.36 
   2   4   7   24.62    1.35 
  -2   4  -7   24.34    1.23 
   2   4   7   23.65    1.33 
  -3  -4  -7    4.94    0.41 
   3  -4   7    5.06    0.39 
  -3  -4  -7    5.21    0.44 
  -3  -4  -7    5.32    0.40 
  -3  -4  -7    5.12    0.28 
  -3  -4  -7    4.66    0.34 
  -3  -4  -7    4.56    0.47 
  -3  -4  -7    5.49    0.48 
  -3  -4  -7    4.36    0.41 
   3  -4   7    4.65    0.44 
  -3  -4  -7    4.88    0.45 
  -3  -4  -7    4.46    0.43 
  -3   4  -7    4.72    0.37 
  -3   4  -7    5.96    0.41 
  -3   4  -7    4.96    0.37 
  -3   4  -7    4.96    0.39 
   3   4   7    4.22    0.45 
  -3   4  -7    5.12    0.46 
  -3   4  -7    5.28    0.44 
  -3   4  -7    4.81    0.38 
  -3   4  -7    4.98    0.39 
   3   4   7    4.03    0.39 
  -3   4  -7    5.05    0.41 
  -4  -4  -7    4.78    0.28 
  -4  -4  -7    4.77    0.33 
  -4  -4  -7    4.30    0.31 
   4  -4   7    4.46    0.30 
   4  -4   7    6.37    0.49 
  -4  -4  -7    4.60    0.32 
  -4  -4  -7    5.07    0.31 
  -4  -4  -7    4.54    0.35 
  -4   4  -7    4.61    0.30 
  -4   4  -7    5.00    0.26 
  -4   4  -7    4.18    0.31 
   4   4   7    5.14    0.36 
  -4   4  -7    4.52    0.29 
  -4   4  -7    3.48    0.34 
   4   4   7    4.55    0.31 
  -4   4  -7    4.31    0.29 
  -6  -5   7    4.77    0.35 
  -6  -5   7    4.94    0.40 
  -6  -5   7    4.41    0.26 
  -6  -5   7    4.53    0.26 
  -6  -5   7    4.49    0.29 
  -6  -5   7    3.84    0.38 
  -6  -5   7    4.49    0.27 
  -6   5   7    4.49    0.24 
   6   5  -7    4.39    0.30 
  -6   5   7    4.33    0.23 
  -6   5   7    4.36    0.23 
  -5  -5   7    0.97    0.19 
  -5  -5   7    1.41    0.34 
  -5  -5   7    1.28    0.30 
  -5  -5   7    0.50    0.19 
  -5  -5   7    1.20    0.34 
  -5  -5   7    0.82    0.21 
  -5  -5   7    0.60    0.19 
  -5  -5   7    0.52    0.39 
  -5  -5   7    1.53    0.31 
  -5  -5   7    1.47    0.45 
  -5  -5   7    1.16    0.32 
  -5   5   7    1.20    0.22 
  -5   5   7    0.98    0.21 
   5   5  -7    0.54    0.17 
  -5   5   7    0.96    0.24 
  -5   5   7    0.97    0.22 
  -5   5   7    0.42    0.29 
   5   5  -7    0.46    0.19 
  -5   5   7    0.69    0.14 
  -5   5   7    0.85    0.19 
  -5   5   7    0.83    0.17 
  -4  -5   7    9.81    0.79 
  -4  -5   7   10.30    0.64 
  -4  -5   7   10.41    0.53 
  -4  -5   7   10.66    0.67 
  -4  -5   7    9.71    0.84 
  -4  -5   7   10.27    0.71 
  -4  -5   7    9.02    0.70 
  -4  -5   7   10.60    0.54 
  -4  -5   7    9.78    0.62 
   4  -5  -7   11.26    0.62 
  -4  -5   7    9.85    0.65 
  -4  -5   7   10.96    0.77 
  -4  -5   7   10.91    0.67 
  -4  -5   7    9.80    0.89 
  -4  -5   7    9.33    0.76 
  -4  -5   7   10.99    0.53 
  -4  -5   7    9.21    0.65 
  -4  -5   7   10.32    0.57 
  -4   5   7    8.88    0.58 
  -4   5   7    9.02    0.86 
  -4   5   7    8.37    0.88 
   4   5  -7   11.18    0.69 
  -4   5   7   10.24    0.96 
  -4   5   7   10.00    0.59 
  -4   5   7   10.90    0.64 
  -4   5   7   10.80    0.62 
  -4   5   7    9.37    0.78 
  -4   5   7   10.57    0.82 
   4   5  -7    9.66    0.61 
  -4   5   7   10.63    0.64 
  -4   5   7   10.10    0.63 
  -4   5   7    9.57    0.65 
  -4   5   7   10.64    0.61 
  -3  -5   7   12.41    0.76 
  -3  -5   7    9.01    0.89 
  -3  -5   7   11.66    0.83 
  -3  -5   7   10.58    0.62 
  -3  -5   7   10.62    0.80 
  -3  -5   7   11.10    0.73 
   3  -5  -7   13.11    0.89 
  -3  -5   7   10.61    0.66 
  -3  -5   7   11.54    0.66 
  -3  -5   7   11.67    0.66 
  -3  -5   7   11.38    0.73 
   3  -5  -7   11.08    0.63 
  -3  -5   7   10.71    0.66 
  -3  -5   7   10.94    0.80 
  -3  -5   7   11.97    0.84 
   3  -5  -7   10.77    0.66 
   3   5  -7   11.62    0.63 
  -3   5   7   10.51    0.74 
   3   5  -7    9.39    0.84 
  -3   5   7    9.99    0.89 
   3   5  -7   10.97    0.72 
  -3   5   7   11.18    0.68 
  -3   5   7   11.34    0.68 
  -3   5   7   10.78    0.91 
  -3   5   7   11.32    0.72 
  -3   5   7   11.83    0.71 
  -3   5   7   11.07    0.68 
  -3   5   7   10.73    0.95 
  -3   5   7   11.37    0.66 
  -3   5   7   11.55    0.71 
  -3   5   7   11.25    0.87 
   3   5  -7   10.06    0.71 
  -3   5   7   10.81    0.74 
  -3   5   7    9.27    0.70 
  -3   5   7   11.33    0.57 
   3   5  -7   11.50    0.74 
   3   5  -7   10.37    0.64 
  -3   5   7    9.86    0.66 
  -3   5   7   11.44    0.58 
  -3   5   7   10.75    0.92 
  -2  -5   7   33.23    1.77 
  -2  -5   7   34.24    1.90 
  -2  -5   7   37.07    1.81 
  -2  -5   7   36.73    1.98 
   2  -5  -7   35.56    1.75 
  -2   5   7   34.60    1.96 
  -2   5   7   36.45    1.91 
  -2   5   7   34.46    1.86 
  -2   5   7   32.89    2.01 
   2   5  -7   36.41    1.99 
  -2   5   7   35.25    1.84 
  -2   5   7   41.54    2.10 
   2   5  -7   34.87    1.87 
  -2   5   7   34.42    1.85 
   2   5  -7   37.06    2.01 
  -2   5   7   34.92    1.76 
  -1  -5   7    0.26    0.19 
  -1  -5   7   -0.14    0.29 
   1  -5  -7   -0.15    0.25 
  -1  -5   7    0.11    0.34 
  -1  -5   7    0.11    0.27 
  -1   5   7   -0.39    0.24 
   1   5  -7   -0.23    0.20 
  -1   5   7    0.13    0.28 
   1   5  -7   -0.10    0.21 
  -1   5   7   -0.17    0.51 
  -1   5   7   -0.21    0.25 
   1   5  -7    0.20    0.20 
  -1   5   7    0.45    0.48 
  -1   5   7   -0.15    0.26 
   1   5  -7    0.04    0.29 
  -1   5   7   -0.20    0.30 
   0  -5   7   10.64    0.95 
   0  -5  -7   11.80    0.76 
   0  -5  -7    9.25    0.80 
   0  -5   7    7.90    0.81 
   0  -5  -7   13.60    0.79 
   0  -5   7   11.47    0.78 
   0  -5  -7   11.07    0.76 
   0  -5   7   11.75    0.76 
   0  -5  -7   11.29    0.73 
   0  -5  -7   13.92    0.80 
   0  -5   7   10.48    0.97 
   0  -5   7   12.75    0.81 
   0   5  -7   11.73    0.72 
   0   5   7    9.01    0.80 
   0   5  -7   12.93    0.74 
   0   5   7   12.44    0.80 
   0   5  -7   12.98    0.84 
   0   5  -7   10.48    0.97 
   0   5  -7   11.14    0.66 
   0   5   7   12.42    0.78 
   0   5  -7   13.61    0.77 
   0   5   7   12.16    0.92 
   0   5   7   11.68    0.76 
   0   5   7   12.32    0.88 
   0   5   7    9.37    0.79 
   0   5  -7   11.51    0.70 
   0   5   7   11.03    0.66 
  -1  -5  -7   23.90    1.16 
  -1  -5  -7   22.40    1.23 
  -1  -5  -7   22.73    1.31 
   1  -5   7   24.42    1.27 
  -1  -5  -7   24.72    1.40 
   1  -5   7   22.67    1.27 
   1  -5   7   24.53    1.22 
  -1  -5  -7   23.11    1.20 
  -1  -5  -7   19.46    1.41 
  -1  -5  -7   24.73    1.29 
  -1  -5  -7   23.16    1.27 
  -1  -5  -7   20.63    1.44 
   1  -5   7   24.74    1.29 
  -1  -5  -7   23.62    1.28 
  -1   5  -7   22.06    1.20 
  -1   5  -7   25.20    1.31 
  -1   5  -7   24.92    1.22 
   1   5   7   24.03    1.28 
   1   5   7   23.10    1.30 
   1   5   7   24.99    1.29 
  -1   5  -7   25.25    1.30 
   1   5   7   22.04    1.27 
  -1   5  -7   25.05    1.36 
  -1   5  -7   26.46    1.19 
  -1   5  -7   23.24    1.16 
   1   5   7   23.96    1.29 
  -1   5  -7   24.12    1.34 
  -1   5  -7   22.71    1.21 
  -1   5  -7   22.48    1.25 
   1   5   7   23.79    1.31 
   2  -5   7   31.85    1.65 
  -2  -5  -7   33.19    1.69 
  -2  -5  -7   32.48    1.63 
  -2  -5  -7   32.23    1.60 
  -2  -5  -7   33.41    1.55 
  -2  -5  -7   32.04    1.56 
   2  -5   7   32.43    1.61 
  -2  -5  -7   34.01    1.73 
  -2  -5  -7   33.77    1.62 
  -2  -5  -7   31.17    1.70 
  -2  -5  -7   33.68    1.60 
  -2   5  -7   34.69    1.64 
  -2   5  -7   32.38    1.55 
   2   5   7   33.55    1.66 
  -2   5  -7   33.16    1.61 
  -2   5  -7   28.19    1.60 
   2   5   7   31.73    1.60 
   2   5   7   31.03    1.65 
  -2   5  -7   29.71    1.65 
  -2   5  -7   34.21    1.54 
  -2   5  -7   32.62    1.65 
  -2   5  -7   31.02    1.54 
  -2   5  -7   32.05    1.90 
   2   5   7   32.10    1.66 
  -2   5  -7   33.10    1.63 
   3  -5   7    3.09    0.30 
  -3  -5  -7    3.09    0.32 
  -3  -5  -7    3.19    0.36 
  -3  -5  -7    3.02    0.24 
   3  -5   7    2.95    0.35 
  -3  -5  -7    2.11    0.39 
  -3  -5  -7    2.95    0.40 
  -3  -5  -7    3.44    0.41 
  -3  -5  -7    2.94    0.18 
  -3   5  -7    2.44    0.30 
  -3   5  -7    3.70    0.37 
  -3   5  -7    2.47    0.30 
   3   5   7    2.75    0.36 
   3   5   7    2.59    0.29 
   3   5   7    3.25    0.38 
  -3   5  -7    2.93    0.27 
   3   5   7    2.99    0.37 
  -3   5  -7    2.68    0.32 
  -3   5  -7    2.70    0.30 
  -5  -6   7    8.25    0.54 
  -5  -6   7    8.85    0.62 
  -5  -6   7    7.91    0.61 
  -5  -6   7    7.90    0.51 
  -5  -6   7    8.80    0.53 
  -5  -6   7    8.26    0.61 
  -5  -6   7    8.44    0.52 
  -5   6   7    8.81    0.49 
   5   6  -7    8.47    0.51 
  -5   6   7    9.17    0.65 
  -5   6   7    8.78    0.48 
  -5   6   7    8.96    0.64 
  -5   6   7    8.78    0.47 
   5   6  -7    7.28    0.53 
  -5   6   7    9.11    0.45 
  -5   6   7    7.95    0.48 
  -4  -6   7    0.28    0.14 
  -4  -6   7    0.12    0.20 
  -4  -6   7    0.35    0.36 
  -4  -6   7    0.51    0.16 
  -4  -6   7    0.09    0.21 
  -4  -6   7    0.03    0.30 
  -4  -6   7    0.36    0.09 
  -4  -6   7    0.31    0.11 
   4  -6  -7    0.29    0.20 
  -4  -6   7    0.13    0.11 
  -4  -6   7    0.01    0.38 
  -4  -6   7    0.45    0.23 
  -4  -6   7    0.36    0.24 
  -4  -6   7    0.38    0.26 
  -4  -6   7    0.43    0.41 
  -4  -6   7    0.34    0.18 
  -4   6   7    0.36    0.19 
  -4   6   7    0.59    0.17 
   4   6  -7    0.17    0.21 
   4   6  -7    0.34    0.17 
  -4   6   7    0.04    0.20 
  -4   6   7    0.55    0.21 
  -4   6   7    0.07    0.26 
  -4   6   7    0.66    0.34 
  -4   6   7    0.20    0.17 
  -4   6   7    0.41    0.23 
  -4   6   7    0.26    0.20 
  -4   6   7    0.46    0.17 
  -3  -6   7    3.53    0.52 
  -3  -6   7    3.99    0.37 
   3  -6  -7    4.23    0.45 
  -3  -6   7    4.24    0.40 
  -3  -6   7    4.00    0.38 
  -3  -6   7    4.00    0.47 
   3  -6  -7    3.84    0.38 
  -3  -6   7    3.71    0.53 
  -3  -6   7    4.00    0.53 
  -3  -6   7    4.39    0.38 
  -3  -6   7    3.70    0.44 
  -3  -6   7    4.00    0.32 
  -3  -6   7    4.11    0.55 
  -3   6   7    3.56    0.60 
  -3   6   7    4.11    0.46 
  -3   6   7    2.65    0.66 
  -3   6   7    4.82    0.68 
  -3   6   7    2.69    0.52 
  -3   6   7    3.62    0.39 
  -3   6   7    4.18    0.60 
  -3   6   7    3.74    0.39 
  -3   6   7    3.40    0.41 
   3   6  -7    3.43    0.43 
  -3   6   7    3.44    0.44 
  -3   6   7    3.00    0.46 
  -3   6   7    3.57    0.47 
  -3   6   7    3.11    0.63 
  -3   6   7    3.73    0.41 
  -3   6   7    3.90    0.41 
   3   6  -7    3.27    0.45 
  -3   6   7    4.01    0.40 
  -3   6   7    3.95    0.24 
   3   6  -7    3.31    0.43 
  -3   6   7    4.30    0.37 
   3   6  -7    3.82    0.36 
  -2  -6   7    3.76    0.46 
  -2  -6   7    3.59    0.55 
   2  -6  -7    4.39    0.35 
   2  -6  -7    4.18    0.38 
  -2  -6   7    4.08    0.46 
   2  -6  -7    4.85    0.46 
  -2  -6   7    4.83    0.46 
  -2  -6   7    4.19    0.32 
  -2  -6   7    4.18    0.37 
  -2  -6   7    3.88    0.70 
  -2  -6   7    2.52    0.61 
  -2   6   7    4.34    0.38 
  -2   6   7    4.77    0.38 
   2   6  -7    3.69    0.57 
  -2   6   7    3.56    0.61 
  -2   6   7    4.05    0.49 
  -2   6   7    3.90    0.41 
  -2   6   7    3.58    0.49 
  -2   6   7    3.53    0.58 
  -2   6   7    3.09    0.60 
   2   6  -7    3.95    0.45 
  -2   6   7    3.84    0.46 
   2   6  -7    4.67    0.50 
  -2   6   7    4.36    0.51 
   2   6  -7    4.04    0.42 
  -2   6   7    4.30    0.58 
  -2   6   7    3.51    0.41 
  -2   6   7    4.15    0.55 
  -2   6   7    3.91    0.52 
   2   6  -7    3.54    0.42 
   2   6  -7    4.01    0.46 
  -2   6   7    3.97    0.30 
  -1  -6   7   50.99    2.61 
   1  -6  -7   49.06    2.46 
  -1  -6   7   51.96    2.70 
  -1  -6   7   46.36    2.45 
   1  -6  -7   48.24    2.47 
  -1  -6   7   50.26    2.50 
   1  -6  -7   46.92    2.51 
   1  -6  -7   49.72    2.47 
   1  -6  -7   51.42    2.53 
  -1  -6   7   49.98    2.44 
  -1  -6   7   51.24    2.44 
  -1  -6   7   50.29    2.45 
  -1  -6   7   43.82    2.47 
   1  -6  -7   49.83    2.42 
  -1   6   7   50.46    2.63 
  -1   6   7   50.98    2.45 
  -1   6   7   55.09    2.54 
  -1   6   7   51.70    2.49 
   1   6  -7   51.23    2.63 
   1   6  -7   50.96    2.45 
  -1   6   7   48.16    2.52 
  -1   6   7   50.66    2.47 
   1   6  -7   49.70    2.49 
   1   6  -7   47.40    2.43 
   1   6  -7   53.15    2.45 
   1   6  -7   53.84    2.50 
   1   6  -7   50.18    2.48 
  -1   6   7   52.63    2.55 
  -1   6   7   49.92    2.40 
  -1   6   7   52.40    2.48 
   1   6  -7   43.83    2.41 
  -1   6   7   52.16    2.52 
  -1   6   7   52.24    2.48 
   0  -6   7    8.05    0.61 
   0  -6  -7    9.29    0.66 
   0  -6  -7    8.75    0.64 
   0  -6  -7    7.92    0.57 
   0  -6  -7    7.97    0.59 
   0  -6   7    9.25    0.64 
   0  -6   7    8.97    0.64 
   0  -6   7    8.52    0.85 
   0  -6   7    7.94    0.58 
   0  -6  -7    8.07    0.69 
   0  -6  -7    8.07    0.60 
   0  -6  -7    5.64    0.58 
   0  -6  -7    8.36    0.58 
   0   6  -7    7.65    0.65 
   0   6   7    7.23    0.65 
   0   6  -7    7.25    0.49 
   0   6  -7    9.21    0.59 
   0   6   7    8.27    0.59 
   0   6  -7    7.90    0.57 
   0   6   7    8.69    0.79 
   0   6   7    8.30    0.57 
   0   6   7    8.18    0.61 
   0   6  -7    8.28    0.56 
   0   6   7    8.82    0.64 
   0   6   7    8.08    0.70 
   0   6  -7    7.61    0.57 
   0   6  -7    8.88    0.63 
   0   6  -7    9.61    0.66 
   0   6   7    6.77    0.76 
  -1  -6  -7    4.35    0.33 
  -1  -6  -7    5.29    0.51 
  -1  -6  -7    5.20    0.51 
   1  -6   7    4.49    0.46 
  -1  -6  -7    4.78    0.46 
   1  -6   7    5.13    0.41 
  -1  -6  -7    4.78    0.57 
  -1  -6  -7    4.04    0.48 
  -1  -6  -7    4.53    0.57 
  -1  -6  -7    4.58    0.37 
   1  -6   7    5.66    0.53 
   1  -6   7    4.14    0.49 
  -1   6  -7    4.27    0.36 
  -1   6  -7    4.36    0.45 
  -1   6  -7    4.45    0.29 
  -1   6  -7    4.84    0.50 
   1   6   7    4.09    0.55 
   1   6   7    4.61    0.48 
  -1   6  -7    4.50    0.41 
  -1   6  -7    5.01    0.53 
  -1   6  -7    4.73    0.33 
  -1   6  -7    4.58    0.46 
  -1   6  -7    4.73    0.54 
   1   6   7    4.80    0.46 
   1   6   7    5.31    0.44 
   1   6   7    5.12    0.50 
  -1   6  -7    5.09    0.36 
  -1   6  -7    5.11    0.40 
  -2  -6  -7    3.90    0.42 
  -2  -6  -7    4.31    0.39 
  -2  -6  -7    3.89    0.27 
  -2  -6  -7    4.65    0.35 
  -2  -6  -7    4.64    0.50 
  -2  -6  -7    4.13    0.48 
   2  -6   7    4.50    0.43 
  -2  -6  -7    4.27    0.52 
   2  -6   7    3.60    0.38 
  -2  -6  -7    4.30    0.39 
  -2  -6  -7    4.20    0.29 
  -2   6  -7    3.94    0.41 
   2   6   7    5.49    0.45 
  -2   6  -7    3.89    0.40 
  -2   6  -7    3.80    0.30 
  -2   6  -7    4.11    0.39 
  -2   6  -7    3.67    0.42 
  -2   6  -7    4.16    0.38 
  -2   6  -7    4.11    0.36 
  -2   6  -7    4.27    0.24 
  -2   6  -7    3.52    0.34 
   2   6   7    4.18    0.44 
   2   6   7    4.10    0.45 
  -3  -6  -7    1.87    0.29 
  -3  -6  -7    2.09    0.18 
   3  -6   7    1.92    0.26 
   3  -6   7    1.79    0.30 
  -3  -6  -7    2.01    0.27 
  -3  -6  -7    2.25    0.35 
  -3  -6  -7    1.88    0.28 
  -3  -6  -7    2.18    0.32 
   3   6   7    2.00    0.35 
   3   6   7    1.79    0.22 
  -3   6  -7    1.78    0.24 
  -3   6  -7    2.01    0.27 
  -3   6  -7    1.80    0.29 
  -3   6  -7    1.87    0.23 
  -3   6  -7    1.67    0.26 
   3   6   7    1.90    0.32 
   3   6   7    2.02    0.33 
  -5  -7   7    1.78    0.24 
  -5  -7   7    1.14    0.35 
  -5  -7   7    1.21    0.25 
  -5  -7   7    1.39    0.25 
  -5  -7   7    1.50    0.18 
  -5  -7   7    2.29    0.36 
   5   7  -7    1.39    0.27 
  -5   7   7    1.20    0.19 
  -5   7   7    1.54    0.15 
  -5   7   7    1.32    0.34 
  -5   7   7    1.45    0.17 
  -5   7   7    1.83    0.25 
  -5   7   7    1.59    0.18 
   5   7  -7    1.81    0.22 
  -4  -7   7    0.46    0.33 
  -4  -7   7    0.23    0.09 
  -4  -7   7    0.11    0.29 
  -4  -7   7    0.10    0.13 
   4  -7  -7    0.07    0.18 
  -4  -7   7   -0.07    0.34 
  -4  -7   7    0.04    0.12 
  -4  -7   7    0.29    0.20 
  -4  -7   7    0.00    0.09 
  -4  -7   7    0.08    0.17 
  -4  -7   7   -0.01    0.18 
  -4  -7   7    0.03    0.21 
  -4   7   7   -0.17    0.13 
  -4   7   7    0.14    0.17 
   4   7  -7    0.09    0.20 
  -4   7   7    0.30    0.18 
  -4   7   7    0.07    0.15 
   4   7  -7    0.18    0.17 
  -4   7   7    0.18    0.17 
   4   7  -7    0.02    0.19 
  -4   7   7   -0.14    0.16 
  -4   7   7   -0.05    0.17 
   4   7  -7    0.47    0.20 
  -4   7   7    0.35    0.21 
  -4   7   7   -0.01    0.23 
  -3  -7   7    8.46    0.66 
  -3  -7   7    7.67    0.61 
  -3  -7   7    8.73    0.69 
   3  -7  -7    8.74    0.59 
  -3  -7   7    8.17    0.46 
   3  -7  -7    7.82    0.53 
  -3  -7   7    8.49    0.82 
  -3  -7   7    8.68    0.58 
  -3  -7   7    8.71    0.53 
  -3  -7   7    8.11    0.52 
  -3  -7   7    7.49    0.52 
  -3  -7   7    7.86    0.51 
  -3   7   7    8.52    0.53 
  -3   7   7    7.73    0.77 
  -3   7   7    7.26    0.71 
   3   7  -7    8.22    0.58 
  -3   7   7    7.66    0.54 
   3   7  -7    8.26    0.58 
  -3   7   7    7.83    0.59 
  -3   7   7    8.47    0.58 
   3   7  -7    7.37    0.57 
  -3   7   7    8.54    0.76 
  -3   7   7    8.74    0.56 
  -3   7   7    8.32    0.66 
  -3   7   7    7.88    0.59 
  -3   7   7    9.00    0.58 
  -3   7   7    7.71    0.54 
  -3   7   7    9.95    0.74 
   3   7  -7    7.71    0.51 
  -3   7   7    6.38    0.72 
   2  -7  -7   26.67    1.37 
   2  -7  -7   26.45    1.33 
  -2  -7   7   27.21    1.29 
  -2  -7   7   22.27    1.46 
  -2  -7   7   26.32    1.31 
  -2  -7   7   27.16    1.42 
  -2  -7   7   27.26    1.39 
  -2  -7   7   27.28    1.36 
  -2   7   7   25.08    1.32 
  -2   7   7   25.90    1.38 
   2   7  -7   25.66    1.36 
  -2   7   7   27.46    1.42 
   2   7  -7   27.66    1.36 
  -2   7   7   26.14    1.52 
  -2   7   7   25.40    1.40 
  -2   7   7   26.89    1.28 
  -2   7   7   26.03    1.34 
   2   7  -7   26.42    1.38 
  -2   7   7   23.96    1.42 
  -2   7   7   26.29    1.25 
   2   7  -7   27.92    1.37 
  -2   7   7   27.60    1.44 
  -2   7   7   25.67    1.42 
  -2   7   7   26.00    1.31 
  -2   7   7   26.69    1.45 
  -2   7   7   26.78    1.31 
   2   7  -7   27.10    1.41 
  -2   7   7   24.12    1.51 
  -1  -7   7   10.69    0.70 
   1  -7  -7   11.10    0.73 
  -1  -7   7   11.76    0.76 
   1  -7  -7   10.92    0.78 
   1  -7  -7   10.08    0.67 
   1  -7  -7   11.00    0.76 
  -1  -7   7   11.44    0.68 
  -1  -7   7   10.78    0.71 
  -1  -7   7   10.02    0.62 
   1  -7  -7   10.49    0.73 
  -1  -7   7   11.34    0.73 
   1   7  -7   10.46    0.70 
  -1   7   7    9.67    0.84 
  -1   7   7   11.35    0.71 
  -1   7   7   10.91    0.74 
   1   7  -7   11.14    0.67 
   1   7  -7   10.87    0.66 
   1   7  -7   10.95    0.72 
  -1   7   7   10.50    0.79 
  -1   7   7   11.53    0.72 
  -1   7   7   11.95    0.83 
  -1   7   7   10.73    0.58 
   1   7  -7   11.12    0.65 
  -1   7   7   11.51    0.68 
  -1   7   7   10.98    0.71 
  -1   7   7   11.67    0.70 
  -1   7   7   11.81    0.71 
  -1   7   7   11.26    0.87 
   0  -7  -7   12.63    0.87 
   0  -7   7   12.65    0.78 
   0  -7  -7   11.52    0.81 
   0  -7  -7   12.40    0.75 
   0  -7  -7   13.25    0.77 
   0  -7  -7   13.63    0.76 
   0  -7  -7   12.15    0.72 
   0  -7   7   11.55    0.77 
   0  -7   7   12.43    0.75 
   0  -7   7   12.14    0.78 
   0   7   7   14.88    0.91 
   0   7  -7   12.45    0.75 
   0   7  -7   12.62    0.80 
   0   7  -7   12.23    0.66 
   0   7   7   12.93    0.81 
   0   7  -7   13.15    0.74 
   0   7   7   12.49    0.72 
   0   7   7   11.30    0.74 
   0   7  -7   13.82    0.76 
   0   7  -7   12.40    0.85 
   0   7   7   13.19    0.75 
   0   7   7   13.33    0.79 
   0   7   7   11.37    0.95 
   0   7  -7   12.94    0.74 
   0   7   7   12.22    0.84 
  -1  -7  -7    3.23    0.41 
   1  -7   7    3.46    0.34 
   1  -7   7    3.40    0.42 
  -1  -7  -7    3.88    0.32 
   1  -7   7    3.88    0.46 
  -1  -7  -7    2.96    0.41 
   1  -7   7    2.99    0.42 
  -1  -7  -7    3.29    0.53 
  -1  -7  -7    3.63    0.41 
   1   7   7    3.89    0.50 
   1   7   7    2.58    0.56 
  -1   7  -7    3.22    0.28 
   1   7   7    3.76    0.43 
  -1   7  -7    3.08    0.30 
  -1   7  -7    3.47    0.31 
  -1   7  -7    3.92    0.35 
  -1   7  -7    4.06    0.41 
  -1   7  -7    4.00    0.45 
  -1   7  -7    3.56    0.39 
  -1   7  -7    3.87    0.32 
   1   7   7    3.27    0.44 
  -1   7  -7    3.62    0.19 
  -1   7  -7    3.74    0.28 
   1   7   7    3.53    0.41 
  -2  -7  -7    0.02    0.20 
  -2  -7  -7   -0.11    0.20 
  -2  -7  -7   -0.05    0.19 
  -2  -7  -7   -0.29    0.12 
   2  -7   7   -0.05    0.20 
  -2  -7  -7    0.02    0.06 
  -2  -7  -7   -0.13    0.17 
  -2  -7  -7   -0.18    0.14 
  -2  -7  -7    0.08    0.23 
   2  -7   7    0.03    0.18 
  -2  -7  -7    0.19    0.21 
  -2  -7  -7   -0.02    0.30 
  -2   7  -7   -0.07    0.16 
  -2   7  -7    0.05    0.16 
   2   7   7    0.21    0.22 
   2   7   7    0.01    0.19 
  -2   7  -7   -0.02    0.15 
  -2   7  -7   -0.30    0.13 
  -2   7  -7   -0.18    0.22 
  -2   7  -7    0.17    0.21 
   2   7   7   -0.09    0.21 
  -2   7  -7   -0.01    0.16 
  -3  -7  -7   18.77    0.95 
  -3  -7  -7   19.00    0.95 
  -3  -7  -7   17.69    0.94 
   3  -7   7   18.40    0.94 
   3  -7   7   19.60    0.92 
  -3  -7  -7   18.26    0.93 
  -3  -7  -7   18.21    0.93 
  -3   7  -7   15.77    0.92 
   3   7   7   19.06    0.94 
  -3   7  -7   17.65    0.91 
  -3   7  -7   18.88    0.90 
  -3   7  -7   19.63    0.91 
   3   7   7   17.51    0.94 
   3   7   7   18.40    0.94 
  -3   7  -7   18.73    0.92 
  -5  -8   7    2.63    0.18 
  -5  -8   7    2.85    0.26 
  -5   8   7    3.90    0.41 
   5   8  -7    2.93    0.27 
  -5   8   7    2.60    0.16 
  -4  -8   7    1.69    0.37 
  -4  -8   7    1.67    0.29 
  -4  -8   7    1.48    0.28 
  -4  -8   7    1.42    0.34 
  -4  -8   7    1.30    0.13 
  -4  -8   7    1.36    0.18 
  -4  -8   7    1.11    0.18 
  -4  -8   7    1.36    0.37 
   4  -8  -7    1.30    0.26 
   4   8  -7    1.40    0.28 
  -4   8   7    0.99    0.22 
   4   8  -7    1.20    0.28 
  -4   8   7    1.45    0.23 
  -4   8   7    1.24    0.22 
  -4   8   7    1.23    0.20 
  -4   8   7    1.24    0.38 
  -4   8   7    1.38    0.28 
  -4   8   7    1.45    0.25 
   4   8  -7    1.07    0.21 
   4   8  -7    1.13    0.29 
   3  -8  -7    5.82    0.47 
  -3  -8   7    6.54    0.35 
  -3  -8   7    6.26    0.52 
  -3  -8   7    6.49    0.56 
  -3  -8   7    5.88    0.40 
  -3  -8   7    6.08    0.46 
  -3  -8   7    5.00    0.42 
  -3  -8   7    6.63    0.43 
  -3  -8   7    6.35    0.42 
  -3  -8   7    6.12    0.55 
   3  -8  -7    6.24    0.44 
  -3   8   7    6.09    0.44 
  -3   8   7    6.20    0.46 
  -3   8   7    5.66    0.46 
  -3   8   7    6.22    0.49 
   3   8  -7    6.29    0.48 
  -3   8   7    5.37    0.52 
  -3   8   7    5.90    0.62 
   3   8  -7    6.55    0.48 
  -3   8   7    5.79    0.47 
  -3   8   7    6.58    0.49 
  -3   8   7    5.90    0.42 
  -3   8   7    5.25    0.42 
   3   8  -7    5.62    0.45 
  -2  -8   7    3.79    0.43 
   2  -8  -7    2.99    0.45 
   2  -8  -7    4.32    0.48 
  -2  -8   7    3.68    0.31 
  -2  -8   7    4.01    0.44 
  -2  -8   7    3.35    0.40 
   2  -8  -7    3.88    0.34 
   2  -8  -7    3.62    0.41 
   2   8  -7    3.73    0.38 
  -2   8   7    3.57    0.31 
  -2   8   7    3.91    0.34 
  -2   8   7    3.10    0.41 
  -2   8   7    3.63    0.32 
  -2   8   7    3.48    0.56 
   2   8  -7    3.69    0.35 
   2   8  -7    3.54    0.38 
  -2   8   7    3.92    0.53 
  -2   8   7    4.23    0.50 
  -2   8   7    3.42    0.57 
  -2   8   7    3.75    0.44 
  -2   8   7    2.94    0.47 
   2   8  -7    3.40    0.44 
   1  -8  -7    7.41    0.52 
   1  -8  -7    9.06    0.59 
  -1  -8   7    8.71    0.54 
  -1  -8   7    7.15    0.56 
  -1  -8   7    8.79    0.63 
   1  -8  -7    8.65    0.61 
  -1  -8   7    7.58    0.57 
   1   8  -7    7.07    0.52 
  -1   8   7    7.41    0.57 
  -1   8   7    8.73    0.64 
  -1   8   7    6.71    0.70 
  -1   8   7    9.15    0.57 
   1   8  -7    8.00    0.55 
  -1   8   7    8.29    0.55 
  -1   8   7    8.07    0.65 
  -1   8   7   11.71    0.96 
  -1   8   7    7.79    0.75 
  -1   8   7    8.22    0.57 
  -1   8   7    7.55    0.55 
   1   8  -7    8.15    0.51 
  -1   8   7    7.77    0.47 
   1   8  -7    7.76    0.58 
   0  -8   7   22.63    1.19 
   0  -8  -7   24.02    1.18 
   0  -8  -7   22.01    1.22 
   0  -8  -7   23.22    1.27 
   0  -8  -7   21.97    1.16 
   0  -8  -7   23.71    1.17 
   0  -8   7   22.69    1.20 
   0  -8   7   22.05    1.17 
   0   8   7   23.36    1.13 
   0   8  -7   21.51    1.10 
   0   8   7   20.50    1.22 
   0   8   7   22.61    1.21 
   0   8  -7   22.56    1.16 
   0   8   7   24.78    1.31 
   0   8  -7   22.14    1.16 
   0   8  -7   22.05    1.13 
   0   8  -7   21.90    1.15 
   0   8   7   20.28    1.17 
   0   8  -7   22.57    1.22 
   0   8   7   22.94    1.23 
   1  -8   7   19.01    1.04 
   1  -8   7   21.01    1.05 
   1  -8   7   19.69    1.00 
  -1  -8  -7   18.98    1.04 
   1  -8   7   19.79    1.07 
  -1  -8  -7   21.14    1.13 
  -1  -8  -7   18.00    0.96 
  -1  -8  -7   18.73    1.05 
  -1  -8  -7   19.90    1.05 
   1   8   7   18.44    1.03 
  -1   8  -7   18.90    0.96 
   1   8   7   19.89    1.09 
   1   8   7   20.66    1.04 
  -1   8  -7   18.95    0.98 
  -1   8  -7   19.72    0.97 
  -1   8  -7   20.32    1.06 
  -1   8  -7   20.08    1.04 
   1   8   7   18.88    1.01 
  -1   8  -7   18.25    1.07 
  -1   8  -7   20.99    0.97 
  -1   8  -7   19.92    0.97 
  -2  -8  -7    0.35    0.19 
   2  -8   7    0.46    0.16 
  -2  -8  -7    0.15    0.14 
  -2  -8  -7    0.66    0.31 
  -2  -8  -7    0.13    0.14 
  -2  -8  -7    0.38    0.20 
   2  -8   7    0.09    0.17 
  -2  -8  -7    0.21    0.12 
  -2  -8  -7    0.35    0.11 
  -2   8  -7    0.06    0.14 
   2   8   7    0.34    0.15 
   2   8   7    0.44    0.23 
   2   8   7    0.46    0.19 
  -2   8  -7    0.44    0.19 
  -2   8  -7    0.31    0.15 
  -2   8  -7    0.35    0.16 
  -2   8  -7    0.17    0.20 
   2   8   7    0.22    0.17 
  -4  -9   7    1.30    0.31 
   4  -9  -7    1.26    0.21 
  -4  -9   7    0.66    0.22 
   4  -9  -7    1.24    0.22 
  -4  -9   7    1.23    0.17 
  -4  -9   7    1.26    0.24 
  -4  -9   7    1.22    0.28 
  -4  -9   7    0.83    0.22 
  -4   9   7    1.19    0.17 
  -4   9   7    1.24    0.24 
   4   9  -7    1.20    0.25 
   4   9  -7    1.06    0.24 
  -4   9   7    1.09    0.30 
  -4   9   7    0.82    0.18 
   4   9  -7    0.98    0.23 
  -4   9   7    0.88    0.22 
  -3  -9   7   27.05    1.22 
   3  -9  -7   24.39    1.22 
  -3  -9   7   24.72    1.21 
   3  -9  -7   26.85    1.26 
  -3  -9   7   23.15    1.20 
  -3  -9   7   22.67    1.22 
  -3  -9   7   23.07    1.21 
  -3  -9   7   27.81    1.42 
  -3  -9   7   24.39    1.18 
  -3  -9   7   24.56    1.31 
  -3   9   7   25.97    1.25 
   3   9  -7   23.09    1.24 
   3   9  -7   25.67    1.25 
  -3   9   7   25.46    1.24 
  -3   9   7   24.02    1.21 
   3   9  -7   24.71    1.25 
  -3   9   7   22.40    1.33 
  -3   9   7   25.17    1.26 
  -3   9   7   25.06    1.28 
   3   9  -7   22.22    1.26 
  -3   9   7   25.00    1.23 
   3   9  -7   24.82    1.24 
  -2  -9   7    6.88    0.58 
   2  -9  -7    7.60    0.55 
  -2  -9   7    8.58    0.57 
   2  -9  -7    9.20    0.61 
  -2  -9   7    8.39    0.56 
  -2  -9   7    8.62    0.46 
   2  -9  -7    9.33    0.58 
   2  -9  -7    8.60    0.51 
  -2  -9   7    9.32    0.55 
  -2   9   7    9.04    0.46 
  -2   9   7    8.52    0.48 
  -2   9   7    9.66    0.64 
  -2   9   7    8.24    0.59 
  -2   9   7    8.41    0.58 
  -2   9   7    8.91    0.44 
   2   9  -7    8.12    0.52 
   2   9  -7    8.78    0.59 
   2   9  -7    8.00    0.53 
  -2   9   7    8.02    0.59 
  -2   9   7    8.51    0.62 
  -2   9   7    7.62    0.67 
   2   9  -7    8.57    0.53 
   1  -9  -7    8.15    0.57 
  -1  -9   7    7.81    0.53 
  -1  -9   7    8.39    0.59 
  -1  -9   7    8.45    0.50 
   1  -9  -7    8.17    0.55 
   1  -9  -7    8.01    0.52 
  -1  -9   7    8.50    0.54 
   1  -9  -7    7.51    0.55 
   1   9  -7    7.93    0.54 
  -1   9   7    6.77    0.56 
   1   9  -7    8.63    0.55 
  -1   9   7    7.98    0.52 
  -1   9   7    7.22    0.69 
  -1   9   7    8.25    0.61 
  -1   9   7    8.02    0.43 
   1   9  -7    8.13    0.46 
  -1   9   7    7.31    0.50 
  -1   9   7    8.48    0.61 
  -1   9   7    8.13    0.49 
   1   9  -7    7.18    0.51 
   0  -9  -7    4.55    0.48 
   0  -9  -7    4.64    0.48 
   0  -9  -7    4.53    0.41 
   0  -9  -7    4.74    0.37 
   0  -9   7    4.83    0.43 
   0  -9   7    4.09    0.41 
   0  -9   7    3.68    0.44 
   0  -9  -7    4.53    0.40 
   0  -9  -7    4.52    0.39 
   0  -9   7    5.01    0.39 
   0   9  -7    4.37    0.32 
   0   9  -7    4.63    0.37 
   0   9   7    4.85    0.42 
   0   9   7    3.75    0.40 
   0   9   7    4.23    0.28 
   0   9   7    4.31    0.43 
   0   9  -7    4.58    0.27 
   0   9   7    3.78    0.47 
   0   9  -7    4.48    0.33 
   0   9  -7    4.23    0.43 
   1  -9   7    4.80    0.40 
  -1  -9  -7    4.32    0.38 
  -1  -9  -7    5.02    0.49 
   1  -9   7    5.27    0.39 
  -1  -9  -7    5.07    0.38 
   1  -9   7    3.73    0.42 
  -1  -9  -7    4.92    0.42 
  -1  -9  -7    5.53    0.41 
   1  -9   7    4.91    0.43 
  -1   9  -7    5.99    0.44 
   1   9   7    4.99    0.46 
  -1   9  -7    4.37    0.28 
   1   9   7    4.68    0.37 
  -1   9  -7    5.80    0.39 
  -1   9  -7    4.62    0.26 
   1   9   7    4.86    0.34 
  -1   9  -7    4.51    0.34 
  -2  -9  -7   10.37    0.61 
  -2  -9  -7    8.13    0.54 
   2  -9   7    8.08    0.49 
  -2  -9  -7    8.95    0.44 
  -2  -9  -7    8.67    0.45 
  -2  -9  -7    9.01    0.51 
   2  -9   7    8.38    0.46 
  -2   9  -7    8.53    0.47 
   2   9   7    9.62    0.50 
   2   9   7    9.46    0.53 
   2   9   7    8.86    0.49 
   2   9   7    8.69    0.47 
  -2   9  -7    6.91    0.53 
  -2   9  -7    7.88    0.50 
  -3 -10   7    4.21    0.29 
   3 -10  -7    5.26    0.35 
   3 -10  -7    4.53    0.30 
  -3 -10   7    4.38    0.29 
  -3 -10   7    4.84    0.31 
  -3 -10   7    4.92    0.44 
  -3 -10   7    4.69    0.29 
  -3 -10   7    4.97    0.44 
   3  10  -7    4.79    0.34 
  -3  10   7    4.64    0.35 
  -3  10   7    4.50    0.35 
  -3  10   7    4.65    0.31 
  -3  10   7    4.75    0.33 
   3  10  -7    5.33    0.37 
  -3  10   7    4.35    0.40 
   3  10  -7    4.65    0.33 
   3  10  -7    4.49    0.31 
   2 -10  -7    4.51    0.38 
   2 -10  -7    4.95    0.39 
   2 -10  -7    4.16    0.37 
  -2 -10   7    4.73    0.37 
  -2 -10   7    4.28    0.35 
  -2 -10   7    4.26    0.36 
  -2 -10   7    3.96    0.35 
   2 -10  -7    4.51    0.37 
   2 -10  -7    4.33    0.30 
   2  10  -7    4.19    0.32 
  -2  10   7    4.94    0.39 
   2  10  -7    4.61    0.30 
  -2  10   7    5.08    0.41 
  -2  10   7    4.40    0.46 
  -2  10   7    4.26    0.37 
   2  10  -7    4.95    0.39 
  -2  10   7    4.76    0.39 
  -1 -10   7    3.02    0.37 
   1 -10  -7    3.30    0.33 
   1 -10  -7    3.66    0.41 
   1 -10  -7    3.44    0.38 
   1 -10  -7    2.77    0.32 
   1 -10  -7    2.92    0.34 
   1 -10  -7    3.67    0.33 
   1 -10  -7    2.74    0.30 
  -1 -10   7    2.59    0.27 
  -1 -10   7    2.66    0.25 
  -1 -10   7    3.20    0.29 
  -1  10   7    3.27    0.27 
   1  10  -7    3.09    0.30 
   1  10  -7    2.87    0.28 
   1  10  -7    3.77    0.33 
  -1  10   7    3.41    0.44 
  -1  10   7    3.61    0.26 
   1  10  -7    3.43    0.23 
  -1  10   7    3.34    0.28 
   1  10  -7    3.02    0.28 
  -1  10   7    3.61    0.36 
   0 -10  -7   11.90    0.63 
   0 -10  -7   11.83    0.69 
   0 -10   7   11.99    0.67 
   0 -10   7   12.55    0.67 
   0 -10  -7   11.72    0.66 
   0 -10  -7   11.38    0.64 
   0 -10   7   11.82    0.65 
   0 -10  -7   11.38    0.71 
   0 -10   7   13.07    0.72 
   0 -10  -7   13.10    0.65 
   0  10  -7   11.72    0.63 
   0  10   7   13.12    0.66 
   0  10   7   12.55    0.60 
   0  10  -7   12.01    0.62 
   0  10   7   11.29    0.68 
   0  10  -7   11.24    0.61 
   0  10  -7   11.19    0.71 
   0  10   7   12.02    0.66 
   0  10   7   11.55    0.65 
   0  10  -7   12.63    0.61 
  -1 -10  -7    1.64    0.24 
   1 -10   7    1.98    0.26 
  -1 -10  -7    2.36    0.31 
  -1 -10  -7    1.53    0.15 
  -1 -10  -7    1.36    0.29 
  -1 -10  -7    1.67    0.20 
   1 -10   7    1.28    0.20 
  -1 -10  -7    1.39    0.25 
   1 -10   7    1.23    0.22 
   1  10   7    1.55    0.27 
  -1  10  -7    1.54    0.22 
   1  10   7    1.80    0.26 
  -1  10  -7    2.39    0.26 
   1 -11  -7   10.08    0.59 
  -1 -11   7    7.60    0.51 
   1 -11  -7    8.71    0.49 
  -1 -11   7    8.90    0.46 
   1 -11  -7    8.74    0.49 
   1 -11  -7    8.37    0.50 
   1 -11  -7    9.13    0.49 
   1  11  -7    9.60    0.47 
  -1  11   7    9.08    0.64 
   1  11  -7    8.79    0.49 
  -6   0   8    1.26    0.33 
  -6   0   8    0.82    0.16 
  -6   0   8    1.20    0.15 
  -6   0   8    1.07    0.12 
  -6   0   8    1.27    0.28 
  -6   0   8    0.91    0.17 
  -6   0   8    0.96    0.12 
  -5   0   8    0.53    0.31 
  -5   0   8    0.70    0.20 
  -5   0   8    0.96    0.25 
  -5   0   8    0.45    0.20 
  -5   0   8    1.03    0.23 
  -5   0   8   -0.28    0.45 
  -5   0   8    0.81    0.36 
  -5   0   8    0.53    0.17 
  -5   0   8    0.45    0.15 
  -5   0   8    0.71    0.19 
   4   0  -8    0.05    0.26 
  -4   0   8    0.03    0.22 
  -4   0   8    0.19    0.24 
  -4   0   8    0.08    0.23 
  -4   0   8    0.19    0.25 
  -4   0   8    0.02    0.18 
  -4   0   8    0.12    0.34 
  -4   0   8   -0.01    0.37 
  -4   0   8   -0.02    0.24 
  -4   0   8   -0.07    0.36 
  -4   0   8    0.26    0.21 
  -4   0   8    0.38    0.45 
  -4   0   8    0.23    0.46 
  -4   0   8    0.10    0.18 
   3   0  -8   -0.04    0.25 
  -3   0   8   -0.05    0.13 
  -3   0   8    0.42    0.25 
  -3   0   8    0.49    0.46 
  -3   0   8    0.35    0.22 
  -3   0   8    0.51    0.29 
  -3   0   8    0.72    0.26 
  -3   0   8    0.24    0.44 
  -3   0   8    0.39    0.15 
  -3   0   8    0.55    0.21 
  -3   0   8    0.58    0.21 
   3   0  -8    0.70    0.20 
  -3   0   8   -0.05    0.27 
  -3   0   8    0.47    0.18 
  -3   0   8    0.38    0.21 
  -3   0   8    0.12    0.24 
  -3   0   8    0.74    0.37 
   2   0  -8    0.94    0.21 
  -2   0   8    1.73    0.50 
  -2   0   8    1.07    0.26 
  -2   0   8    1.32    0.49 
  -2   0   8    1.28    0.35 
  -2   0   8    1.27    0.31 
  -2   0   8    0.59    0.28 
  -2   0   8    0.84    0.42 
  -1   0   8    3.36    0.59 
   1   0  -8    3.96    0.44 
   1   0  -8    3.32    0.45 
  -1   0   8    3.28    0.55 
   1   0  -8    4.76    0.55 
  -1   0   8    3.16    0.60 
  -1   0   8    3.61    0.43 
   0   0   8   27.17    1.52 
   0   0  -8   25.75    1.50 
   0   0  -8   26.61    1.42 
   0   0  -8   26.00    1.40 
   0   0   8   26.96    1.40 
   0   0  -8   25.85    1.36 
   0   0   8   29.03    1.64 
   0   0   8   23.21    1.42 
   0   0   8   25.34    1.43 
   0   0  -8   26.43    1.40 
   0   0   8   27.58    1.40 
   0   0  -8   27.53    1.50 
   0   0   8   25.93    1.38 
   0   0   8   27.22    1.39 
   0   0  -8   26.17    1.41 
   0   0  -8   28.99    1.41 
   0   0  -8   25.08    1.36 
   0   0  -8   27.44    1.35 
   0   0  -8   25.28    1.28 
   0   0   8   26.15    1.41 
  -1   0  -8   61.34    2.78 
   1   0   8   50.12    2.76 
  -1   0  -8   58.26    2.86 
  -1   0  -8   54.87    2.77 
  -1   0  -8   61.74    2.82 
  -1   0  -8   60.46    2.81 
  -1   0  -8   56.18    2.79 
  -1   0  -8   59.05    2.74 
   1   0   8   54.98    2.81 
   1   0   8   54.31    2.85 
  -1   0  -8   58.72    2.80 
  -1   0  -8   59.57    2.81 
  -1   0  -8   57.86    2.91 
   1   0   8   55.20    2.82 
  -1   0  -8   58.92    2.84 
   1   0   8   58.32    2.82 
   1   0   8   61.09    2.85 
  -2   0  -8    1.40    0.36 
   2   0   8    2.12    0.43 
   2   0   8    1.88    0.30 
  -2   0  -8    1.73    0.24 
  -2   0  -8    1.51    0.23 
  -2   0  -8    1.73    0.25 
   2   0   8    2.27    0.43 
  -2   0  -8    1.95    0.25 
   2   0   8    2.18    0.41 
  -2   0  -8    1.73    0.34 
  -2   0  -8    1.48    0.28 
  -2   0  -8    1.72    0.41 
  -2   0  -8    2.17    0.37 
   2   0   8    1.46    0.45 
  -2   0  -8    1.69    0.35 
  -2   0  -8    0.94    0.26 
   3   0   8    0.16    0.21 
  -3   0  -8    0.42    0.18 
  -3   0  -8    0.02    0.15 
  -3   0  -8    0.20    0.20 
  -3   0  -8    0.51    0.18 
  -3   0  -8    0.20    0.16 
  -3   0  -8   -0.10    0.16 
   3   0   8    0.38    0.16 
   3   0   8    0.66    0.36 
  -3   0  -8    0.47    0.12 
  -3   0  -8    0.33    0.19 
  -6  -1   8    1.42    0.33 
  -6  -1   8    1.97    0.19 
  -6  -1   8    1.90    0.17 
  -6  -1   8    1.88    0.15 
  -6  -1   8    1.96    0.31 
  -6  -1   8    1.65    0.20 
  -6  -1   8    1.47    0.29 
  -6   1   8    1.67    0.18 
  -6   1   8    1.66    0.17 
  -6   1   8    1.89    0.14 
  -6   1   8    1.76    0.16 
  -6   1   8    1.88    0.28 
  -6   1   8    2.03    0.34 
  -6   1   8    1.64    0.13 
  -5  -1   8    0.27    0.32 
  -5  -1   8    0.00    0.32 
  -5  -1   8   -0.31    0.19 
  -5  -1   8   -0.07    0.18 
  -5  -1   8    0.21    0.14 
  -5  -1   8   -0.03    0.16 
  -5  -1   8   -0.16    0.43 
  -5  -1   8   -0.01    0.13 
  -5  -1   8   -0.04    0.17 
  -5  -1   8   -0.18    0.16 
  -5   1   8    0.04    0.14 
  -5   1   8    0.12    0.17 
  -5   1   8    0.17    0.12 
  -5   1   8   -0.01    0.16 
  -5   1   8   -0.06    0.16 
  -5   1   8   -0.07    0.15 
  -5   1   8    0.17    0.14 
  -5   1   8    0.09    0.29 
  -5   1   8    0.00    0.19 
  -4  -1   8   18.37    1.03 
  -4  -1   8   17.05    0.93 
  -4  -1   8   15.40    1.14 
  -4  -1   8   16.75    0.95 
  -4  -1   8   16.08    1.15 
  -4  -1   8   18.24    0.96 
  -4  -1   8   17.38    0.91 
  -4  -1   8   16.70    1.14 
  -4  -1   8   18.09    1.05 
  -4  -1   8   16.53    1.19 
  -4  -1   8   16.10    0.84 
  -4  -1   8   16.36    0.94 
  -4  -1   8   16.89    0.94 
  -4  -1   8   15.54    0.99 
  -4  -1   8   16.62    0.95 
  -4   1   8   15.88    0.91 
  -4   1   8   17.69    0.93 
  -4   1   8   17.53    0.94 
  -4   1   8   18.00    0.93 
  -4   1   8   17.45    1.16 
  -4   1   8   17.22    0.94 
  -4   1   8   17.08    1.21 
  -4   1   8   17.53    0.94 
  -4   1   8   17.63    0.91 
  -4   1   8   15.57    1.11 
   4   1  -8   17.01    0.97 
  -4   1   8   17.76    0.96 
  -4   1   8   15.38    1.04 
  -4   1   8   16.96    0.93 
  -4   1   8   15.95    1.17 
  -3  -1   8   32.13    1.78 
  -3  -1   8   34.10    1.65 
  -3  -1   8   28.56    1.60 
  -3  -1   8   31.85    1.54 
  -3  -1   8   29.86    1.54 
  -3  -1   8   31.77    1.55 
  -3  -1   8   31.75    1.65 
  -3  -1   8   33.82    1.54 
  -3  -1   8   29.18    1.57 
  -3  -1   8   31.18    1.56 
  -3  -1   8   32.70    1.55 
  -3  -1   8   30.53    1.94 
  -3  -1   8   28.08    1.85 
   3  -1  -8   33.31    1.63 
  -3  -1   8   30.70    1.61 
   3  -1  -8   31.60    1.55 
  -3  -1   8   31.83    1.69 
  -3   1   8   30.53    1.53 
  -3   1   8   31.82    1.67 
  -3   1   8   32.70    1.47 
  -3   1   8   30.61    1.61 
  -3   1   8   32.07    1.58 
  -3   1   8   29.87    1.54 
  -3   1   8   29.06    1.60 
  -3   1   8   29.53    1.79 
  -3   1   8   28.53    1.57 
  -3   1   8   33.38    1.64 
  -3   1   8   31.62    1.62 
  -3   1   8   33.33    1.79 
   3   1  -8   31.47    1.55 
  -3   1   8   30.76    1.54 
   3   1  -8   31.59    1.62 
  -3   1   8   31.56    1.52 
  -3   1   8   30.16    1.53 
  -3   1   8   30.66    1.65 
  -3   1   8   31.41    1.54 
  -2  -1   8   69.21    3.25 
   2  -1  -8   65.19    3.13 
   2  -1  -8   59.44    3.29 
  -2  -1   8   69.47    3.16 
  -2  -1   8   70.53    3.17 
  -2  -1   8   54.41    3.13 
  -2  -1   8   69.15    3.21 
  -2  -1   8   67.70    3.27 
  -2  -1   8   66.22    3.21 
  -2  -1   8   64.20    3.18 
  -2   1   8   55.58    3.18 
  -2   1   8   68.30    3.31 
  -2   1   8   72.78    3.27 
  -2   1   8   62.68    3.32 
  -2   1   8   65.44    3.33 
   2   1  -8   65.61    3.35 
  -2   1   8   69.91    3.23 
  -2   1   8   68.57    3.22 
  -2   1   8   62.25    3.15 
  -2   1   8   61.18    3.15 
  -2   1   8   67.15    3.36 
  -2   1   8   62.63    3.17 
  -2   1   8   63.13    3.17 
   2   1  -8   62.45    3.32 
  -2   1   8   74.35    3.29 
  -1  -1   8   25.68    1.49 
  -1  -1   8   25.84    1.45 
   1  -1  -8   28.05    1.44 
   1  -1  -8   25.74    1.38 
   1  -1  -8   25.17    1.37 
  -1  -1   8   21.08    1.51 
  -1  -1   8   27.07    1.38 
   1   1  -8   25.88    1.37 
  -1   1   8   26.01    1.37 
   1   1  -8   26.76    1.41 
  -1   1   8   25.58    1.45 
  -1   1   8   26.09    1.55 
   1   1  -8   24.42    1.50 
  -1   1   8   26.93    1.46 
   1   1  -8   27.13    1.39 
   0  -1   8   10.27    0.74 
   0  -1   8    9.65    0.72 
   0  -1  -8    9.30    0.62 
   0  -1  -8    9.96    0.55 
   0  -1   8   10.42    0.71 
   0  -1   8    8.95    0.88 
   0  -1   8    9.25    0.80 
   0  -1  -8    9.92    0.66 
   0  -1  -8    9.76    0.66 
   0  -1  -8   10.52    0.72 
   0  -1  -8   11.10    0.76 
   0  -1  -8   11.31    0.71 
   0  -1   8   11.72    0.71 
   0  -1   8   10.79    0.69 
   0  -1   8   10.04    0.98 
   0  -1  -8   10.84    0.69 
   0  -1   8   10.54    0.72 
   0  -1  -8   10.78    0.82 
   0  -1  -8   10.49    0.69 
   0   1  -8   10.62    0.65 
   0   1   8    9.83    0.75 
   0   1   8   11.20    0.84 
   0   1  -8   10.92    0.70 
   0   1  -8   11.54    0.69 
   0   1   8   11.11    0.69 
   0   1  -8   10.73    0.81 
   0   1   8   10.82    0.67 
   0   1  -8   10.51    0.69 
   0   1   8   10.14    0.68 
   0   1   8   10.53    0.70 
   0   1  -8   10.55    0.56 
   0   1  -8    9.89    0.66 
   0   1  -8    9.66    0.67 
   0   1  -8   10.02    0.79 
   0   1  -8   10.31    0.71 
   0   1   8    9.74    0.70 
   0   1   8    9.93    0.76 
   0   1  -8   10.71    0.66 
   0   1   8   10.09    0.90 
  -1  -1  -8    1.73    0.22 
  -1  -1  -8    1.32    0.41 
  -1  -1  -8    1.62    0.47 
   1  -1   8    2.12    0.44 
  -1  -1  -8    1.80    0.37 
   1  -1   8    1.89    0.44 
  -1  -1  -8    1.66    0.40 
   1  -1   8    1.32    0.31 
  -1  -1  -8    1.94    0.23 
   1  -1   8    1.05    0.29 
  -1  -1  -8    1.66    0.34 
  -1  -1  -8    1.49    0.37 
  -1  -1  -8    1.95    0.34 
   1  -1   8    1.51    0.32 
  -1  -1  -8    1.68    0.37 
  -1  -1  -8    1.89    0.37 
   1  -1   8    0.58    0.27 
   1   1   8    1.94    0.41 
   1   1   8    1.44    0.32 
   1   1   8    1.65    0.41 
  -1   1  -8    1.64    0.30 
  -1   1  -8    1.42    0.39 
  -1   1  -8    1.65    0.34 
   1   1   8    1.46    0.31 
   1   1   8    1.67    0.45 
  -1   1  -8    2.11    0.42 
  -1   1  -8    1.93    0.33 
  -1   1  -8    1.53    0.24 
  -1   1  -8    1.60    0.36 
  -1   1  -8    1.11    0.25 
  -1   1  -8    1.75    0.47 
   1   1   8    0.91    0.27 
  -1   1  -8    1.79    0.23 
  -1   1  -8    1.48    0.35 
  -2  -1  -8    5.69    0.50 
   2  -1   8    6.27    0.56 
  -2  -1  -8    5.79    0.41 
   2  -1   8    4.68    0.54 
  -2  -1  -8    5.32    0.48 
  -2  -1  -8    5.28    0.38 
  -2  -1  -8    5.29    0.53 
  -2  -1  -8    5.87    0.37 
  -2  -1  -8    5.26    0.37 
  -2  -1  -8    5.20    0.49 
  -2  -1  -8    5.55    0.37 
   2  -1   8    6.78    0.52 
  -2  -1  -8    5.52    0.48 
   2  -1   8    5.48    0.43 
  -2   1  -8    6.28    0.48 
  -2   1  -8    4.99    0.36 
  -2   1  -8    5.44    0.54 
   2   1   8    5.07    0.54 
   2   1   8    5.53    0.53 
   2   1   8    5.74    0.51 
  -2   1  -8    6.18    0.50 
  -2   1  -8    5.50    0.35 
  -2   1  -8    5.29    0.46 
  -2   1  -8    5.32    0.37 
  -2   1  -8    5.27    0.36 
   2   1   8    5.28    0.51 
  -2   1  -8    5.54    0.46 
  -2   1  -8    5.14    0.38 
   2   1   8    5.82    0.42 
  -2   1  -8    4.46    0.48 
  -3  -1  -8    0.62    0.17 
   3  -1   8    1.11    0.32 
  -3  -1  -8    0.35    0.22 
  -3  -1  -8    0.87    0.25 
  -3  -1  -8    1.00    0.20 
  -3  -1  -8    0.76    0.18 
  -3  -1  -8    0.74    0.19 
   3  -1   8    0.42    0.25 
  -3  -1  -8    1.08    0.26 
  -3  -1  -8    0.82    0.23 
   3  -1   8    1.00    0.24 
  -3   1  -8    0.66    0.18 
  -3   1  -8    0.84    0.21 
  -3   1  -8    0.84    0.22 
   3   1   8    1.00    0.24 
  -3   1  -8    1.07    0.24 
  -3   1  -8    0.55    0.19 
  -3   1  -8    0.56    0.19 
  -3   1  -8    1.16    0.24 
   3   1   8    1.22    0.33 
  -3   1  -8    0.57    0.18 
  -6  -2   8    1.37    0.17 
  -6  -2   8    1.55    0.13 
  -6  -2   8    1.61    0.18 
  -6  -2   8    1.56    0.33 
  -6  -2   8    1.55    0.29 
  -6  -2   8    1.67    0.30 
  -6  -2   8    1.33    0.16 
  -6   2   8    1.33    0.14 
  -6   2   8    1.01    0.29 
  -6   2   8    1.36    0.11 
  -6   2   8    1.60    0.11 
  -6   2   8    1.40    0.12 
  -6   2   8    1.22    0.11 
  -6   2   8    1.30    0.15 
  -6   2   8    1.41    0.17 
  -5  -2   8   17.54    1.05 
  -5  -2   8   17.50    0.93 
  -5  -2   8   16.08    0.90 
  -5  -2   8   18.09    1.02 
  -5  -2   8   15.93    1.01 
  -5  -2   8   17.65    0.93 
  -5  -2   8   17.29    1.48 
  -5  -2   8   18.14    0.93 
  -5  -2   8   17.84    0.91 
  -5  -2   8   16.91    0.95 
  -5  -2   8   18.21    0.92 
  -5   2   8   17.89    0.92 
  -5   2   8   18.88    1.05 
  -5   2   8   18.71    0.90 
  -5   2   8   16.32    0.90 
  -5   2   8   17.74    0.90 
  -5   2   8   19.73    0.92 
   5   2  -8   18.46    0.93 
  -4  -2   8    6.05    0.69 
  -4  -2   8    6.34    0.53 
  -4  -2   8    6.78    0.56 
  -4  -2   8    6.82    0.50 
  -4  -2   8    6.56    0.38 
  -4  -2   8    5.79    0.52 
  -4  -2   8    6.07    0.49 
  -4  -2   8    6.86    0.54 
  -4  -2   8    6.34    0.35 
  -4  -2   8    6.46    0.63 
  -4  -2   8    7.39    0.74 
  -4  -2   8    6.62    0.60 
  -4  -2   8    6.19    0.51 
  -4  -2   8    6.57    0.77 
  -4   2   8    6.16    0.63 
  -4   2   8    6.70    0.49 
  -4   2   8    5.90    0.69 
  -4   2   8    6.53    0.53 
  -4   2   8    6.38    0.72 
  -4   2   8    5.99    0.48 
   4   2  -8    6.52    0.47 
  -4   2   8    7.62    0.49 
  -4   2   8    5.58    0.45 
  -4   2   8    5.65    0.47 
  -4   2   8    5.87    0.48 
  -4   2   8    6.66    0.52 
  -4   2   8    6.54    0.71 
  -4   2   8    6.68    0.51 
   4   2  -8    7.36    0.54 
  -4   2   8    5.30    0.72 
  -4   2   8    7.02    0.47 
  -3  -2   8   39.66    2.07 
  -3  -2   8   43.64    2.07 
  -3  -2   8   40.41    1.99 
   3  -2  -8   41.94    2.06 
  -3  -2   8   40.44    1.99 
  -3  -2   8   38.90    2.10 
  -3  -2   8   39.75    2.21 
  -3  -2   8   41.07    2.12 
  -3  -2   8   39.58    1.99 
  -3  -2   8   42.76    1.99 
  -3  -2   8   42.80    2.07 
  -3  -2   8   41.13    1.99 
   3  -2  -8   43.68    2.03 
  -3  -2   8   41.28    2.10 
  -3  -2   8   44.56    2.14 
  -3  -2   8   41.62    2.30 
  -3   2   8   40.81    1.98 
  -3   2   8   41.30    2.18 
  -3   2   8   42.32    2.02 
  -3   2   8   43.54    2.07 
  -3   2   8   40.45    2.06 
  -3   2   8   38.57    1.97 
  -3   2   8   41.22    1.99 
  -3   2   8   40.68    1.97 
   3   2  -8   38.88    2.06 
  -3   2   8   40.20    2.02 
  -3   2   8   39.56    2.08 
  -3   2   8   42.95    2.22 
  -3   2   8   36.53    2.04 
  -3   2   8   39.56    2.05 
  -3   2   8   40.40    2.10 
  -3   2   8   41.66    2.25 
  -3   2   8   41.39    2.02 
  -2  -2   8    6.09    0.66 
   2  -2  -8    6.71    0.56 
  -2  -2   8    6.50    0.54 
  -2  -2   8    6.62    0.51 
  -2  -2   8    6.93    0.42 
  -2  -2   8    7.83    0.59 
  -2  -2   8    7.62    0.67 
   2  -2  -8    5.10    0.54 
   2  -2  -8    6.33    0.43 
  -2  -2   8    5.67    0.51 
  -2  -2   8    5.66    0.52 
  -2  -2   8    6.12    0.42 
  -2  -2   8    6.05    0.50 
   2  -2  -8    6.27    0.55 
   2  -2  -8    5.97    0.44 
  -2   2   8    5.97    0.43 
  -2   2   8    6.44    0.51 
  -2   2   8    6.79    0.54 
  -2   2   8    7.07    0.49 
   2   2  -8    6.15    0.68 
  -2   2   8    6.90    0.78 
  -2   2   8    6.01    0.50 
   2   2  -8    6.55    0.51 
   2   2  -8    6.24    0.52 
   2   2  -8    6.00    0.67 
  -2   2   8    5.61    0.46 
  -2   2   8    6.27    0.52 
  -2   2   8    7.30    0.74 
  -2   2   8    6.37    0.57 
  -2   2   8    6.18    0.53 
  -2   2   8    5.70    0.60 
  -1  -2   8   35.40    2.14 
   1  -2  -8   41.56    2.00 
  -1  -2   8   34.45    1.96 
  -1  -2   8   35.08    1.88 
   1  -2  -8   40.02    1.99 
  -1  -2   8   37.08    1.90 
   1  -2  -8   46.52    2.00 
   1  -2  -8   39.54    2.02 
   1  -2  -8   42.70    2.08 
  -1  -2   8   42.27    1.94 
   1  -2  -8   32.23    1.96 
  -1  -2   8   37.72    1.96 
  -1  -2   8   35.17    2.08 
  -1  -2   8   40.82    2.00 
   1  -2  -8   37.99    1.97 
  -1  -2   8   42.05    2.09 
  -1   2   8   41.72    2.06 
   1   2  -8   39.11    1.97 
   1   2  -8   38.53    1.98 
  -1   2   8   41.85    1.92 
  -1   2   8   41.34    1.98 
   1   2  -8   42.11    1.99 
   1   2  -8   34.30    1.95 
  -1   2   8   36.23    2.02 
   1   2  -8   40.41    1.99 
  -1   2   8   36.59    2.06 
   1   2  -8   40.13    2.12 
  -1   2   8   40.27    1.99 
  -1   2   8   44.07    2.07 
  -1   2   8   42.30    2.06 
  -1   2   8   34.81    2.12 
  -1   2   8   37.00    1.96 
   0  -2   8    8.60    0.85 
   0  -2  -8    7.80    0.62 
   0  -2  -8    9.01    0.56 
   0  -2  -8    8.98    0.62 
   0  -2   8    8.71    0.64 
   0  -2  -8    8.37    0.64 
   0  -2   8    8.58    0.77 
   0  -2   8    8.55    0.63 
   0  -2   8    9.35    0.64 
   0  -2   8    6.55    0.66 
   0  -2  -8    7.57    0.67 
   0  -2  -8    7.84    0.57 
   0  -2  -8    8.51    0.62 
   0  -2   8    8.14    0.62 
   0  -2   8    7.40    0.61 
   0  -2  -8    6.83    0.57 
   0   2   8    9.77    0.77 
   0   2   8    8.89    0.56 
   0   2   8    8.88    0.69 
   0   2  -8    7.86    0.57 
   0   2  -8    8.78    0.72 
   0   2   8    7.88    0.60 
   0   2   8    7.66    0.61 
   0   2  -8    8.33    0.55 
   0   2  -8    8.60    0.60 
   0   2   8    8.29    0.67 
   0   2  -8    8.53    0.62 
   0   2  -8    7.88    0.59 
   0   2  -8    8.96    0.64 
   0   2  -8    8.72    0.59 
   0   2  -8    8.13    0.68 
   0   2   8    8.09    0.81 
   0   2   8    7.95    0.60 
   0   2  -8    7.95    0.46 
   0   2   8    8.13    0.62 
  -1  -2  -8    3.78    0.55 
  -1  -2  -8    3.54    0.42 
   1  -2   8    3.79    0.45 
   1  -2   8    3.52    0.36 
   1  -2   8    3.48    0.47 
  -1  -2  -8    3.75    0.43 
  -1  -2  -8    4.07    0.50 
   1  -2   8    3.70    0.49 
  -1  -2  -8    3.13    0.44 
  -1  -2  -8    3.46    0.29 
  -1  -2  -8    3.45    0.41 
   1  -2   8    3.09    0.50 
  -1  -2  -8    3.16    0.41 
  -1  -2  -8    3.12    0.29 
   1  -2   8    3.40    0.58 
  -1  -2  -8    3.97    0.42 
  -1  -2  -8    3.53    0.49 
   1   2   8    4.36    0.47 
  -1   2  -8    3.44    0.40 
  -1   2  -8    3.81    0.39 
   1   2   8    3.83    0.49 
  -1   2  -8    3.39    0.50 
  -1   2  -8    4.17    0.43 
  -1   2  -8    3.21    0.29 
   1   2   8    2.73    0.47 
  -1   2  -8    3.56    0.29 
   1   2   8    4.39    0.49 
  -1   2  -8    3.06    0.39 
  -1   2  -8    3.41    0.37 
  -1   2  -8    3.94    0.37 
  -1   2  -8    3.62    0.35 
  -1   2  -8    2.84    0.47 
   1   2   8    4.39    0.54 
  -1   2  -8    4.14    0.48 
   2  -2   8   17.16    1.00 
  -2  -2  -8   17.90    0.92 
   2  -2   8   17.93    1.03 
  -2  -2  -8   17.58    0.93 
  -2  -2  -8   18.11    0.92 
  -2  -2  -8   17.79    0.99 
  -2  -2  -8   16.83    1.02 
  -2  -2  -8   18.46    1.00 
  -2  -2  -8   18.22    0.91 
  -2  -2  -8   18.62    1.13 
  -2  -2  -8   18.01    1.04 
   2  -2   8   17.40    0.94 
  -2  -2  -8   19.24    0.92 
  -2   2  -8   18.20    1.02 
  -2   2  -8   16.93    0.98 
  -2   2  -8   17.54    0.97 
   2   2   8   17.79    1.01 
  -2   2  -8   18.56    0.88 
  -2   2  -8   19.01    1.03 
   2   2   8   16.77    1.01 
  -2   2  -8   16.08    1.00 
   2   2   8   20.92    1.02 
  -2   2  -8   16.40    0.91 
  -2   2  -8   17.38    0.91 
   2   2   8   19.15    1.01 
  -2   2  -8   18.91    0.89 
  -2   2  -8   18.17    0.90 
  -2   2  -8   18.08    0.98 
   2   2   8   18.85    0.94 
  -3  -2  -8    1.47    0.29 
   3  -2   8    2.29    0.33 
   3  -2   8    1.57    0.33 
  -3  -2  -8    1.58    0.21 
  -3  -2  -8    1.95    0.31 
  -3  -2  -8    2.15    0.26 
  -3  -2  -8    1.24    0.26 
   3  -2   8    1.79    0.25 
  -3  -2  -8    1.44    0.22 
  -3  -2  -8    1.47    0.27 
  -3   2  -8    1.59    0.26 
   3   2   8    1.92    0.24 
  -3   2  -8    1.78    0.29 
  -3   2  -8    1.94    0.27 
   3   2   8    1.57    0.34 
  -3   2  -8    1.40    0.24 
  -3   2  -8    1.86    0.47 
   3   2   8    1.75    0.31 
  -3   2  -8    0.94    0.26 
  -3   2  -8    1.75    0.19 
  -6  -3   8    8.37    0.44 
  -6  -3   8    8.16    0.41 
  -6  -3   8    9.95    0.63 
  -6  -3   8    9.56    0.58 
  -6  -3   8    8.68    0.43 
  -6  -3   8    8.17    0.50 
  -6  -3   8    7.47    0.41 
  -6   3   8    7.20    0.39 
  -6   3   8    7.21    0.40 
  -6   3   8    7.66    0.38 
  -6   3   8    8.03    0.41 
  -6   3   8    8.80    0.53 
  -6   3   8    7.39    0.38 
  -5  -3   8    4.50    0.35 
  -5  -3   8    3.47    0.31 
  -5  -3   8    3.39    0.32 
  -5  -3   8    3.55    0.48 
  -5  -3   8    4.37    0.33 
  -5  -3   8    4.23    0.36 
  -5  -3   8    4.43    0.35 
  -5  -3   8    4.86    0.50 
   5  -3  -8    4.22    0.33 
  -5  -3   8    4.30    0.49 
  -5  -3   8    4.63    0.39 
  -5   3   8    4.12    0.31 
  -5   3   8    4.23    0.31 
   5   3  -8    4.03    0.38 
  -5   3   8    4.12    0.31 
   5   3  -8    4.67    0.35 
  -5   3   8    3.91    0.28 
  -5   3   8    4.11    0.34 
  -5   3   8    4.17    0.49 
  -5   3   8    4.26    0.33 
  -4  -3   8    3.23    0.57 
  -4  -3   8    3.78    0.25 
  -4  -3   8    3.80    0.55 
  -4  -3   8    4.14    0.46 
  -4  -3   8    3.77    0.39 
  -4  -3   8    4.15    0.46 
  -4  -3   8    3.72    0.35 
  -4  -3   8    3.75    0.41 
  -4  -3   8    4.53    0.56 
  -4  -3   8    3.20    0.40 
  -4  -3   8    3.61    0.28 
  -4  -3   8    3.28    0.65 
  -4  -3   8    3.70    0.56 
  -4  -3   8    3.45    0.59 
  -4  -3   8    3.64    0.43 
  -4   3   8    3.52    0.66 
  -4   3   8    3.35    0.35 
   4   3  -8    3.36    0.43 
   4   3  -8    3.84    0.37 
  -4   3   8    3.85    0.41 
  -4   3   8    3.76    0.35 
  -4   3   8    3.94    0.38 
  -4   3   8    3.61    0.58 
  -4   3   8    4.32    0.39 
  -4   3   8    4.23    0.38 
  -4   3   8    4.56    0.57 
  -4   3   8    3.01    0.58 
  -4   3   8    4.25    0.37 
  -4   3   8    3.02    0.44 
  -4   3   8    3.88    0.42 
  -4   3   8    3.90    0.39 
  -3  -3   8    1.18    0.31 
  -3  -3   8    0.97    0.22 
  -3  -3   8    1.31    0.38 
  -3  -3   8    1.73    0.37 
   3  -3  -8    0.64    0.24 
  -3  -3   8    0.86    0.33 
  -3  -3   8    1.26    0.26 
  -3  -3   8    1.51    0.50 
  -3  -3   8    1.39    0.53 
  -3  -3   8    1.42    0.38 
  -3  -3   8    1.36    0.24 
  -3  -3   8    1.50    0.27 
  -3  -3   8    1.25    0.35 
   3  -3  -8    0.87    0.27 
  -3  -3   8    1.39    0.37 
  -3  -3   8    1.93    0.42 
   3  -3  -8    1.10    0.28 
  -3  -3   8    0.52    0.45 
  -3   3   8    1.50    0.34 
  -3   3   8    0.85    0.44 
   3   3  -8    1.70    0.30 
   3   3  -8    1.36    0.30 
  -3   3   8    1.18    0.44 
  -3   3   8    1.18    0.21 
   3   3  -8    1.20    0.43 
  -3   3   8    1.97    0.39 
   3   3  -8    2.50    0.41 
  -3   3   8    1.04    0.27 
  -3   3   8    1.74    0.35 
  -3   3   8    1.20    0.31 
  -3   3   8    0.69    0.24 
  -3   3   8    0.92    0.22 
  -3   3   8    1.37    0.29 
  -3   3   8    1.46    0.43 
  -3   3   8    1.43    0.41 
  -3   3   8    1.36    0.21 
  -3   3   8    1.66    0.51 
  -3   3   8    1.21    0.38 
   2  -3  -8   78.26    4.22 
  -2  -3   8   83.90    4.12 
  -2  -3   8   87.59    4.11 
  -2  -3   8   86.48    4.26 
  -2  -3   8   88.58    4.20 
  -2  -3   8   95.20    4.21 
   2  -3  -8   86.09    4.14 
   2  -3  -8   83.43    4.14 
   2  -3  -8   89.39    4.19 
   2  -3  -8   86.07    4.19 
  -2  -3   8   89.58    4.16 
  -2  -3   8   91.82    4.19 
  -2  -3   8  102.15    4.32 
  -2  -3   8   96.43    4.20 
  -2  -3   8   93.72    4.24 
   2  -3  -8   84.37    4.19 
  -2   3   8   79.91    4.11 
   2   3  -8   86.22    4.19 
  -2   3   8   87.81    4.16 
  -2   3   8   84.21    4.20 
  -2   3   8   86.75    4.17 
  -2   3   8   84.54    4.13 
  -2   3   8   84.24    4.34 
  -2   3   8   92.26    4.23 
  -2   3   8   80.32    4.24 
   2   3  -8   83.78    4.19 
  -2   3   8   85.20    4.15 
  -2   3   8   89.58    4.16 
   2   3  -8   87.20    4.26 
  -2   3   8   88.37    4.22 
   2   3  -8   88.60    4.19 
  -1  -3   8   42.95    2.20 
   1  -3  -8   47.14    2.23 
   1  -3  -8   45.80    2.27 
  -1  -3   8   45.02    2.44 
  -1  -3   8   46.34    2.22 
   1  -3  -8   45.39    2.29 
  -1  -3   8   43.30    2.21 
  -1  -3   8   44.41    2.19 
  -1  -3   8   45.99    2.24 
  -1  -3   8   43.17    2.25 
   1  -3  -8   42.97    2.25 
   1  -3  -8   44.65    2.21 
   1  -3  -8   45.67    2.23 
  -1  -3   8   44.35    2.35 
   1   3  -8   42.06    2.20 
  -1   3   8   45.29    2.36 
  -1   3   8   44.18    2.17 
  -1   3   8   45.13    2.30 
  -1   3   8   44.66    2.26 
  -1   3   8   45.01    2.24 
  -1   3   8   46.81    2.41 
  -1   3   8   43.72    2.20 
   1   3  -8   42.62    2.21 
   1   3  -8   46.79    2.25 
   1   3  -8   43.37    2.25 
  -1   3   8   45.73    2.31 
   1   3  -8   47.01    2.21 
  -1   3   8   49.36    2.25 
   1   3  -8   43.99    2.20 
  -1   3   8   43.45    2.21 
   1   3  -8   47.84    2.26 
   1   3  -8   40.97    2.36 
   0  -3  -8    3.86    0.45 
   0  -3   8    3.99    0.46 
   0  -3   8    3.72    0.51 
   0  -3  -8    4.21    0.54 
   0  -3   8    3.83    0.66 
   0  -3  -8    3.79    0.42 
   0  -3   8    4.00    0.63 
   0  -3   8    4.16    0.48 
   0  -3   8    4.51    0.49 
   0  -3  -8    4.03    0.50 
   0  -3  -8    3.85    0.42 
   0  -3   8    3.81    0.47 
   0  -3  -8    4.36    0.42 
   0  -3   8    4.06    0.47 
   0  -3  -8    3.77    0.52 
   0   3   8    4.33    0.37 
   0   3   8    4.68    0.45 
   0   3   8    3.84    0.66 
   0   3   8    4.41    0.53 
   0   3  -8    4.35    0.29 
   0   3  -8    4.53    0.45 
   0   3   8    4.26    0.43 
   0   3  -8    3.86    0.55 
   0   3  -8    3.90    0.46 
   0   3  -8    4.39    0.38 
   0   3  -8    4.47    0.44 
   0   3  -8    4.09    0.43 
   0   3   8    4.37    0.53 
   0   3  -8    3.91    0.46 
   0   3   8    3.92    0.48 
   0   3   8    4.33    0.47 
  -1  -3  -8    7.92    0.64 
   1  -3   8    9.70    0.64 
  -1  -3  -8    6.96    0.67 
  -1  -3  -8    8.89    0.70 
  -1  -3  -8    7.94    0.64 
  -1  -3  -8    8.15    0.44 
   1  -3   8    8.33    0.61 
  -1  -3  -8    7.53    0.46 
   1  -3   8    7.80    0.60 
  -1  -3  -8    8.30    0.60 
  -1  -3  -8    8.24    0.57 
   1  -3   8    7.67    0.51 
   1  -3   8    7.24    0.58 
   1  -3   8    6.81    0.72 
  -1  -3  -8    7.98    0.55 
  -1   3  -8    6.88    0.57 
   1   3   8    7.23    0.63 
  -1   3  -8    7.33    0.51 
  -1   3  -8    7.18    0.58 
  -1   3  -8    6.96    0.68 
   1   3   8    7.70    0.60 
  -1   3  -8    7.98    0.44 
   1   3   8    9.14    0.61 
  -1   3  -8    7.88    0.52 
   1   3   8    6.98    0.60 
  -1   3  -8    7.43    0.65 
  -1   3  -8    7.77    0.56 
   1   3   8    7.07    0.60 
  -1   3  -8    7.57    0.50 
  -2  -3  -8    0.79    0.20 
  -2  -3  -8    0.51    0.17 
  -2  -3  -8    0.58    0.15 
  -2  -3  -8    1.11    0.24 
   2  -3   8    0.57    0.19 
  -2  -3  -8    1.14    0.31 
  -2  -3  -8    0.96    0.24 
  -2  -3  -8    1.16    0.35 
  -2  -3  -8    1.24    0.36 
   2  -3   8    0.42    0.22 
  -2  -3  -8    0.87    0.26 
   2  -3   8    0.64    0.29 
  -2   3  -8    1.17    0.31 
   2   3   8    0.81    0.24 
  -2   3  -8    1.05    0.15 
  -2   3  -8    0.91    0.18 
  -2   3  -8    1.14    0.31 
  -2   3  -8    1.21    0.21 
  -2   3  -8    0.28    0.17 
  -2   3  -8    1.10    0.31 
   2   3   8    1.00    0.27 
   2   3   8    1.37    0.36 
   2   3   8    1.49    0.38 
  -2   3  -8    0.82    0.26 
  -2   3  -8    1.25    0.26 
   2   3   8    0.71    0.21 
  -2   3  -8    0.66    0.23 
   3  -3   8    0.22    0.18 
   3  -3   8   -0.15    0.14 
  -3  -3  -8    0.09    0.18 
  -3  -3  -8   -0.06    0.14 
  -3  -3  -8   -0.02    0.14 
  -3  -3  -8    0.01    0.10 
   3  -3   8   -0.14    0.21 
  -3  -3  -8    0.22    0.18 
   3   3   8   -0.16    0.17 
  -3   3  -8   -0.12    0.15 
  -3   3  -8   -0.06    0.16 
  -3   3  -8   -0.18    0.13 
  -3   3  -8    0.10    0.10 
   3   3   8   -0.28    0.14 
   3   3   8   -0.04    0.17 
  -3   3  -8    0.06    0.14 
   3   3   8   -0.08    0.17 
  -3   3  -8   -0.10    0.15 
  -5  -4   8    0.47    0.30 
  -5  -4   8    0.72    0.19 
  -5  -4   8    0.61    0.19 
  -5  -4   8    0.95    0.22 
  -5  -4   8    0.48    0.16 
  -5  -4   8    0.10    0.25 
  -5  -4   8    0.88    0.33 
   5  -4  -8    0.57    0.16 
  -5  -4   8    0.51    0.18 
  -5   4   8    0.47    0.15 
  -5   4   8    0.69    0.17 
  -5   4   8    0.64    0.11 
  -5   4   8    0.20    0.12 
   5   4  -8    0.47    0.16 
   5   4  -8    0.64    0.18 
  -5   4   8    0.68    0.15 
  -5   4   8    0.75    0.27 
  -4  -4   8    2.55    0.35 
  -4  -4   8    2.06    0.51 
   4  -4  -8    2.29    0.31 
  -4  -4   8    3.48    0.60 
  -4  -4   8    2.50    0.24 
  -4  -4   8    2.56    0.60 
  -4  -4   8    2.45    0.31 
  -4  -4   8    3.47    0.40 
  -4  -4   8    3.16    0.22 
  -4  -4   8    2.39    0.36 
  -4  -4   8    2.60    0.53 
  -4  -4   8    3.05    0.45 
  -4  -4   8    2.89    0.50 
  -4  -4   8    2.61    0.39 
  -4  -4   8    2.99    0.44 
   4   4  -8    2.63    0.32 
  -4   4   8    2.37    0.34 
  -4   4   8    2.44    0.29 
  -4   4   8    2.49    0.29 
  -4   4   8    2.73    0.35 
  -4   4   8    2.16    0.63 
  -4   4   8    2.95    0.31 
   4   4  -8    2.49    0.40 
  -4   4   8    2.53    0.31 
  -4   4   8    2.33    0.30 
  -4   4   8    2.65    0.64 
  -4   4   8    3.35    0.51 
  -4   4   8    2.74    0.33 
  -4   4   8    2.56    0.36 
  -4   4   8    2.39    0.36 
  -3  -4   8   18.75    1.04 
  -3  -4   8   17.78    1.22 
  -3  -4   8   17.95    0.95 
  -3  -4   8   18.61    1.12 
  -3  -4   8   18.05    0.95 
  -3  -4   8   18.91    0.96 
  -3  -4   8   19.89    1.04 
   3  -4  -8   19.38    0.97 
   3  -4  -8   17.87    1.01 
  -3  -4   8   19.13    0.95 
  -3  -4   8   19.26    0.93 
  -3  -4   8   17.99    1.08 
  -3  -4   8   18.64    1.12 
  -3  -4   8   19.01    1.03 
  -3   4   8   18.42    0.97 
  -3   4   8   19.30    0.99 
  -3   4   8   14.03    1.02 
  -3   4   8   18.33    0.90 
  -3   4   8   15.42    1.03 
  -3   4   8   17.73    1.19 
  -3   4   8   17.18    1.03 
  -3   4   8   17.84    1.01 
  -3   4   8   18.58    1.02 
   3   4  -8   18.58    1.02 
  -3   4   8   17.04    0.93 
  -3   4   8   17.26    1.13 
   3   4  -8   18.53    1.02 
  -3   4   8   18.11    0.97 
   3   4  -8   18.28    1.01 
  -3   4   8   17.77    1.02 
  -3   4   8   17.53    1.25 
  -3   4   8   15.64    1.17 
  -3   4   8   18.75    0.99 
  -3   4   8   17.94    0.89 
   3   4  -8   17.62    0.96 
  -2  -4   8   19.14    0.95 
   2  -4  -8   20.55    1.06 
   2  -4  -8   19.19    1.12 
  -2  -4   8   17.08    1.04 
   2  -4  -8   18.40    1.06 
   2  -4  -8   18.30    0.99 
  -2  -4   8   18.66    1.03 
  -2  -4   8   18.65    1.24 
  -2  -4   8   18.60    1.16 
  -2  -4   8   17.84    0.96 
  -2  -4   8   19.28    1.04 
   2  -4  -8   16.81    1.04 
  -2  -4   8   24.12    1.33 
  -2  -4   8   18.95    1.07 
  -2   4   8   21.42    1.19 
  -2   4   8   19.09    0.98 
  -2   4   8   18.18    1.23 
  -2   4   8   17.76    1.00 
   2   4  -8   18.94    1.05 
  -2   4   8   20.80    1.02 
   2   4  -8   19.44    1.11 
  -2   4   8   20.32    1.11 
  -2   4   8   19.46    0.95 
   2   4  -8   19.47    1.05 
  -2   4   8   17.78    1.26 
  -2   4   8   17.89    1.11 
   2   4  -8   18.74    1.05 
  -2   4   8   17.87    1.18 
  -2   4   8   18.83    1.01 
  -2   4   8   17.01    1.11 
  -2   4   8   18.92    1.06 
  -2   4   8   17.36    1.06 
  -2   4   8   20.24    1.13 
  -1  -4   8   11.69    1.03 
   1  -4  -8   11.45    0.89 
   1  -4  -8   14.18    0.82 
  -1  -4   8   12.65    0.79 
  -1  -4   8   15.30    0.89 
   1  -4  -8   12.76    0.78 
   1  -4  -8   13.31    0.88 
  -1  -4   8   11.30    1.11 
  -1  -4   8   14.68    0.78 
   1  -4  -8   13.58    0.82 
  -1  -4   8   13.27    0.83 
   1  -4  -8   13.26    0.89 
  -1  -4   8   13.91    0.81 
   1   4  -8   13.44    0.84 
  -1   4   8   12.48    0.82 
  -1   4   8   15.18    1.06 
  -1   4   8   14.32    0.86 
   1   4  -8   15.55    0.79 
  -1   4   8   13.89    0.74 
  -1   4   8   13.38    0.83 
  -1   4   8   14.83    0.93 
   1   4  -8   11.81    0.77 
   1   4  -8   12.51    0.80 
   1   4  -8   10.38    0.96 
  -1   4   8   13.92    0.99 
  -1   4   8   12.93    0.78 
   1   4  -8   14.51    0.76 
   1   4  -8   13.14    0.79 
  -1   4   8   14.31    0.85 
   0  -4   8   36.91    1.85 
   0  -4  -8   35.16    1.74 
   0  -4  -8   37.13    1.81 
   0  -4  -8   32.92    1.81 
   0  -4   8   37.08    1.77 
   0  -4   8   35.14    1.78 
   0  -4   8   34.19    1.75 
   0  -4  -8   36.48    1.73 
   0  -4  -8   33.97    1.74 
   0  -4   8   35.26    1.76 
   0   4   8   35.35    1.73 
   0   4  -8   34.36    1.76 
   0   4   8   34.62    1.75 
   0   4  -8   32.71    1.85 
   0   4   8   33.55    1.80 
   0   4  -8   36.45    1.70 
   0   4   8   33.44    1.80 
   0   4  -8   34.87    1.75 
   0   4  -8   35.01    1.77 
   0   4  -8   34.24    1.77 
   0   4   8   31.43    1.78 
   0   4   8   34.64    1.75 
   0   4  -8   35.41    1.77 
   1  -4   8    6.81    0.48 
  -1  -4  -8    6.40    0.51 
  -1  -4  -8    6.95    0.38 
  -1  -4  -8    6.84    0.53 
  -1  -4  -8    7.26    0.56 
  -1  -4  -8    6.21    0.76 
   1  -4   8    7.14    0.54 
   1  -4   8    7.69    0.59 
   1  -4   8    6.47    0.56 
  -1  -4  -8    7.00    0.62 
   1  -4   8    7.53    0.56 
  -1  -4  -8    6.56    0.41 
   1   4   8    6.83    0.60 
  -1   4  -8    7.28    0.39 
  -1   4  -8    7.49    0.54 
  -1   4  -8    6.64    0.53 
  -1   4  -8    7.43    0.53 
  -1   4  -8    7.42    0.46 
  -1   4  -8    7.16    0.46 
  -1   4  -8    7.32    0.48 
  -1   4  -8    7.15    0.54 
   1   4   8    7.12    0.57 
   1   4   8    5.67    0.51 
  -1   4  -8    7.60    0.58 
  -1   4  -8    6.08    0.61 
   1   4   8    6.66    0.54 
   1   4   8    7.93    0.58 
  -1   4  -8    6.37    0.61 
   1   4   8    6.69    0.63 
  -2  -4  -8    9.94    0.57 
  -2  -4  -8   10.17    0.51 
  -2  -4  -8   10.33    0.65 
  -2  -4  -8    9.87    0.55 
   2  -4   8   10.86    0.65 
   2  -4   8    9.77    0.66 
   2  -4   8   10.19    0.57 
  -2  -4  -8   11.21    0.72 
  -2  -4  -8   10.36    0.55 
  -2  -4  -8    9.82    0.55 
  -2  -4  -8    9.01    0.61 
  -2  -4  -8    8.73    0.59 
  -2   4  -8   10.26    0.62 
  -2   4  -8    9.27    0.61 
  -2   4  -8   10.13    0.63 
   2   4   8    9.37    0.64 
   2   4   8    9.45    0.64 
  -2   4  -8   10.08    0.60 
  -2   4  -8    9.83    0.49 
  -2   4  -8    9.06    0.58 
  -2   4  -8    9.41    0.62 
  -2   4  -8    9.10    0.61 
   2   4   8    8.92    0.65 
  -3  -4  -8    6.40    0.45 
   3  -4   8    6.53    0.44 
  -3  -4  -8    7.05    0.42 
  -3  -4  -8    6.70    0.42 
   3  -4   8    6.56    0.45 
  -3  -4  -8    6.64    0.43 
  -3  -4  -8    6.48    0.35 
   3  -4   8    6.43    0.40 
  -3   4  -8    6.62    0.40 
   3   4   8    6.72    0.39 
   3   4   8    6.72    0.45 
  -3   4  -8    6.78    0.43 
  -3   4  -8    7.50    0.43 
   3   4   8    5.94    0.43 
   3   4   8    6.83    0.45 
  -3   4  -8    7.14    0.41 
  -3   4  -8    7.19    0.37 
   5  -5  -8    5.68    0.36 
  -5  -5   8    6.26    0.49 
  -5  -5   8    5.05    0.38 
  -5  -5   8    4.95    0.47 
  -5  -5   8    5.36    0.41 
  -5  -5   8    6.08    0.46 
  -5  -5   8    5.06    0.38 
  -5  -5   8    4.94    0.33 
  -5  -5   8    4.91    0.37 
  -5   5   8    5.87    0.34 
  -5   5   8    4.95    0.43 
  -5   5   8    5.26    0.31 
  -5   5   8    5.42    0.35 
  -5   5   8    5.47    0.35 
   5   5  -8    4.83    0.40 
   5   5  -8    5.50    0.37 
  -5   5   8    5.16    0.33 
  -4  -5   8    4.28    0.30 
  -4  -5   8    4.83    0.54 
  -4  -5   8    4.32    0.37 
  -4  -5   8    4.99    0.56 
  -4  -5   8    3.96    0.46 
  -4  -5   8    4.45    0.55 
  -4  -5   8    4.87    0.27 
  -4  -5   8    5.17    0.45 
  -4  -5   8    3.72    0.39 
  -4  -5   8    4.28    0.32 
   4  -5  -8    4.35    0.38 
  -4  -5   8    4.58    0.44 
  -4   5   8    4.05    0.35 
  -4   5   8    4.68    0.36 
  -4   5   8    4.58    0.54 
  -4   5   8    4.28    0.39 
  -4   5   8    4.69    0.39 
  -4   5   8    4.96    0.39 
  -4   5   8    5.17    0.36 
  -4   5   8    4.39    0.39 
   4   5  -8    4.93    0.44 
   4   5  -8    4.37    0.36 
  -4   5   8    4.56    0.42 
  -3  -5   8   10.91    0.64 
  -3  -5   8   11.13    0.78 
  -3  -5   8    9.52    0.70 
  -3  -5   8   11.20    0.72 
  -3  -5   8   10.93    0.61 
   3  -5  -8   11.56    0.69 
  -3  -5   8    9.56    0.76 
  -3  -5   8   10.57    0.69 
  -3  -5   8   10.92    0.58 
   3  -5  -8   11.79    0.65 
  -3  -5   8   10.34    0.62 
  -3  -5   8   10.99    0.82 
  -3  -5   8   10.61    0.62 
   3   5  -8   10.07    0.62 
  -3   5   8    9.65    0.65 
   3   5  -8   11.02    0.70 
  -3   5   8   11.27    0.73 
  -3   5   8   10.39    0.83 
  -3   5   8    9.47    0.65 
   3   5  -8    9.89    0.82 
  -3   5   8   10.37    0.68 
   3   5  -8   10.66    0.68 
  -3   5   8   10.50    0.70 
   3   5  -8   11.55    0.69 
  -3   5   8   11.25    0.54 
  -3   5   8    9.73    0.84 
  -3   5   8    9.19    0.96 
  -3   5   8   10.14    0.63 
  -3   5   8   11.15    0.65 
  -3   5   8   10.00    0.88 
  -3   5   8   11.41    0.69 
   2  -5  -8    6.76    0.47 
  -2  -5   8    6.86    0.54 
  -2  -5   8    5.32    0.67 
  -2  -5   8    5.93    0.63 
   2  -5  -8    7.21    0.64 
  -2  -5   8    6.72    0.55 
   2  -5  -8    6.63    0.57 
  -2  -5   8    7.52    0.39 
   2  -5  -8    6.49    0.53 
  -2  -5   8    7.44    0.54 
   2  -5  -8    6.94    0.55 
  -2  -5   8    6.10    0.43 
  -2   5   8    7.40    0.67 
   2   5  -8    6.69    0.54 
   2   5  -8    6.60    0.67 
  -2   5   8    8.53    0.78 
  -2   5   8    7.01    0.55 
   2   5  -8    6.47    0.54 
  -2   5   8    7.33    0.58 
   2   5  -8    6.23    0.53 
  -2   5   8    6.68    0.58 
   2   5  -8    7.52    0.52 
  -2   5   8    6.84    0.47 
  -2   5   8    6.49    0.60 
  -2   5   8    6.98    0.69 
  -2   5   8    6.45    0.50 
  -2   5   8    7.03    0.40 
  -2   5   8    7.03    0.65 
  -2   5   8    6.25    0.46 
  -2   5   8    6.52    0.59 
   2   5  -8    6.46    0.59 
  -1  -5   8   22.34    1.25 
  -1  -5   8   23.82    1.20 
   1  -5  -8   22.62    1.26 
   1  -5  -8   25.29    1.22 
  -1  -5   8   19.44    1.22 
  -1  -5   8   23.54    1.20 
  -1  -5   8   22.58    1.17 
   1  -5  -8   23.53    1.28 
   1  -5  -8   21.42    1.21 
   1  -5  -8   19.76    1.18 
  -1   5   8   24.10    1.21 
   1   5  -8   22.08    1.18 
   1   5  -8   21.39    1.18 
  -1   5   8   23.07    1.13 
  -1   5   8   25.08    1.33 
   1   5  -8   23.60    1.18 
   1   5  -8   23.90    1.24 
  -1   5   8   22.00    1.22 
  -1   5   8   21.58    1.26 
  -1   5   8   22.88    1.39 
  -1   5   8   21.06    1.27 
  -1   5   8   23.02    1.23 
   1   5  -8   23.53    1.26 
   0  -5  -8   16.18    0.92 
   0  -5  -8   16.95    0.90 
   0  -5   8   16.06    0.95 
   0  -5  -8   15.25    0.90 
   0  -5   8   16.42    0.95 
   0  -5   8   16.82    0.93 
   0  -5  -8   18.75    1.03 
   0  -5  -8   16.80    0.98 
   0  -5   8   16.79    0.95 
   0   5  -8   15.00    1.01 
   0   5   8   16.60    0.94 
   0   5   8   16.42    0.90 
   0   5   8   18.56    0.93 
   0   5   8   16.44    0.99 
   0   5  -8   17.05    0.85 
   0   5  -8   16.55    0.93 
   0   5   8   14.84    0.97 
   0   5  -8   15.88    0.93 
   0   5  -8   18.39    0.94 
  -1  -5  -8    0.98    0.19 
   1  -5   8    0.27    0.24 
  -1  -5  -8    0.32    0.20 
  -1  -5  -8    0.36    0.27 
   1  -5   8    0.39    0.21 
   1  -5   8    0.46    0.29 
   1  -5   8    0.44    0.20 
  -1  -5  -8    0.51    0.23 
   1  -5   8    0.79    0.25 
  -1  -5  -8    0.61    0.21 
   1   5   8    0.64    0.26 
  -1   5  -8    0.60    0.24 
   1   5   8    0.41    0.30 
  -1   5  -8    0.44    0.17 
   1   5   8    0.35    0.30 
  -1   5  -8    0.67    0.12 
  -1   5  -8    0.60    0.16 
  -1   5  -8    1.10    0.26 
  -1   5  -8    0.35    0.22 
  -1   5  -8    1.06    0.32 
   1   5   8    0.73    0.26 
   1   5   8    0.42    0.20 
  -1   5  -8    1.02    0.34 
   1   5   8    0.86    0.25 
  -1   5  -8    0.79    0.17 
  -1   5  -8    0.74    0.19 
   2  -5   8    4.91    0.44 
  -2  -5  -8    5.53    0.35 
  -2  -5  -8    5.51    0.35 
  -2  -5  -8    5.03    0.39 
   2  -5   8    5.24    0.44 
   2  -5   8    5.53    0.47 
  -2  -5  -8    5.30    0.51 
  -2  -5  -8    6.00    0.35 
   2  -5   8    5.66    0.38 
  -2  -5  -8    6.08    0.33 
  -2  -5  -8    4.93    0.60 
  -2  -5  -8    5.12    0.50 
  -2  -5  -8    5.02    0.38 
   2   5   8    4.99    0.43 
   2   5   8    5.20    0.44 
  -2   5  -8    4.66    0.42 
  -2   5  -8    5.36    0.43 
  -2   5  -8    6.05    0.44 
   2   5   8    5.55    0.46 
  -2   5  -8    5.27    0.44 
  -2   5  -8    4.80    0.38 
  -3  -5  -8    0.98    0.23 
  -3  -5  -8    0.60    0.18 
  -3  -5  -8    0.77    0.20 
   3  -5   8    0.46    0.18 
   3  -5   8    0.80    0.17 
  -3  -5  -8    1.28    0.29 
   3  -5   8    0.48    0.19 
  -3   5  -8    0.80    0.18 
   3   5   8    1.05    0.22 
  -3   5  -8    0.80    0.21 
  -3   5  -8    1.21    0.24 
   3   5   8    1.02    0.23 
  -3   5  -8    1.00    0.13 
  -3   5  -8    1.03    0.20 
   3   5   8    0.72    0.19 
   5  -6  -8    1.81    0.20 
  -5  -6   8    1.49    0.30 
  -5  -6   8    1.30    0.21 
  -5  -6   8    1.70    0.25 
  -5  -6   8    1.22    0.17 
  -5  -6   8    1.95    0.32 
  -5  -6   8    1.36    0.22 
  -5  -6   8    0.98    0.30 
  -5   6   8    1.44    0.14 
  -5   6   8    1.06    0.15 
  -5   6   8    1.76    0.19 
   5   6  -8    1.91    0.25 
   5   6  -8    1.65    0.20 
  -5   6   8    1.22    0.17 
  -4  -6   8   10.18    0.64 
  -4  -6   8   11.75    0.71 
  -4  -6   8   10.28    0.54 
   4  -6  -8   10.47    0.63 
  -4  -6   8    9.95    0.56 
  -4  -6   8   11.72    0.74 
  -4  -6   8   10.85    0.65 
  -4  -6   8   10.58    0.51 
  -4  -6   8   10.84    0.71 
  -4  -6   8   10.63    0.72 
  -4  -6   8    9.39    0.65 
   4  -6  -8   11.39    0.61 
   4   6  -8   10.31    0.64 
  -4   6   8    9.98    0.60 
  -4   6   8    9.30    0.63 
   4   6  -8   10.56    0.59 
  -4   6   8    9.99    0.75 
  -4   6   8   10.14    0.58 
   4   6  -8    9.72    0.64 
  -4   6   8   10.36    0.61 
  -4   6   8   10.51    0.61 
  -4   6   8   10.92    0.64 
  -4   6   8   10.33    0.58 
   4   6  -8   11.45    0.64 
  -4   6   8   11.67    0.64 
  -3  -6   8    2.24    0.46 
  -3  -6   8    2.40    0.24 
  -3  -6   8    2.92    0.37 
  -3  -6   8    2.26    0.32 
  -3  -6   8    2.62    0.52 
   3  -6  -8    2.38    0.37 
   3  -6  -8    2.67    0.31 
  -3  -6   8    2.47    0.29 
  -3  -6   8    1.94    0.46 
  -3  -6   8    2.47    0.31 
  -3  -6   8    2.13    0.26 
  -3  -6   8    2.20    0.38 
  -3   6   8    2.28    0.61 
  -3   6   8    2.27    0.32 
  -3   6   8    1.70    0.33 
  -3   6   8    2.07    0.51 
  -3   6   8    2.56    0.39 
  -3   6   8    2.85    0.33 
   3   6  -8    1.65    0.34 
   3   6  -8    2.94    0.39 
  -3   6   8    1.98    0.35 
  -3   6   8    2.69    0.42 
  -3   6   8    2.18    0.31 
   3   6  -8    2.67    0.38 
  -3   6   8    1.80    0.43 
  -3   6   8    2.00    0.35 
   2  -6  -8    0.44    0.26 
  -2  -6   8    0.07    0.21 
  -2  -6   8    0.19    0.21 
   2  -6  -8    0.16    0.24 
   2  -6  -8    0.01    0.19 
  -2  -6   8    0.02    0.13 
  -2  -6   8    0.17    0.23 
   2  -6  -8    0.36    0.26 
   2  -6  -8    0.01    0.18 
  -2   6   8    0.38    0.32 
   2   6  -8    0.27    0.19 
  -2   6   8    0.00    0.11 
  -2   6   8    0.41    0.17 
  -2   6   8    0.43    0.28 
  -2   6   8    0.04    0.19 
  -2   6   8    0.34    0.20 
  -2   6   8   -0.07    0.38 
   2   6  -8    0.25    0.19 
  -2   6   8    0.11    0.24 
  -2   6   8    0.28    0.38 
  -2   6   8    0.32    0.24 
   2   6  -8    0.16    0.24 
  -2   6   8    0.34    0.30 
  -2   6   8    0.24    0.34 
  -2   6   8    0.28    0.23 
  -2   6   8    0.16    0.07 
   2   6  -8   -0.08    0.20 
   1  -6  -8    7.99    0.62 
   1  -6  -8    7.44    0.57 
   1  -6  -8    6.27    0.58 
  -1  -6   8    7.24    0.61 
  -1  -6   8    7.71    0.54 
  -1  -6   8    6.77    0.53 
   1  -6  -8    8.43    0.64 
   1  -6  -8    7.70    0.52 
  -1  -6   8    7.55    0.51 
  -1   6   8    8.73    0.72 
   1   6  -8    8.60    0.59 
  -1   6   8    7.50    0.56 
  -1   6   8    7.58    0.66 
   1   6  -8    5.84    0.63 
  -1   6   8    8.14    0.73 
   1   6  -8    7.68    0.51 
   1   6  -8    7.84    0.49 
  -1   6   8    7.06    0.51 
  -1   6   8    7.88    0.65 
  -1   6   8    6.51    0.54 
  -1   6   8    7.14    0.77 
  -1   6   8    6.94    0.56 
  -1   6   8    7.23    0.46 
   1   6  -8    7.06    0.50 
   0  -6  -8    2.72    0.37 
   0  -6   8    2.69    0.42 
   0  -6   8    2.07    0.47 
   0  -6  -8    2.00    0.41 
   0  -6  -8    2.03    0.36 
   0  -6   8    2.81    0.40 
   0  -6   8    2.39    0.37 
   0  -6  -8    2.38    0.48 
   0  -6  -8    2.61    0.35 
   0   6  -8    2.80    0.31 
   0   6   8    2.99    0.47 
   0   6   8    2.46    0.40 
   0   6  -8    2.31    0.40 
   0   6  -8    2.45    0.34 
   0   6  -8    2.66    0.28 
   0   6   8    2.72    0.37 
   0   6   8    2.04    0.30 
   0   6  -8    2.27    0.35 
   0   6   8    2.50    0.45 
   0   6  -8    2.66    0.36 
   0   6   8    2.84    0.54 
   0   6   8    2.78    0.35 
  -1  -6  -8    7.93    0.51 
  -1  -6  -8    6.20    0.43 
  -1  -6  -8    7.45    0.51 
  -1  -6  -8    7.56    0.62 
   1  -6   8    7.17    0.55 
   1  -6   8    7.34    0.57 
  -1  -6  -8    7.69    0.52 
   1  -6   8    7.21    0.47 
   1  -6   8    8.11    0.54 
  -1  -6  -8    7.66    0.52 
   1  -6   8    8.52    0.54 
  -1   6  -8    7.10    0.44 
   1   6   8    7.36    0.50 
  -1   6  -8    7.66    0.53 
   1   6   8    7.55    0.55 
  -1   6  -8    7.54    0.52 
  -1   6  -8    7.67    0.43 
   1   6   8    8.14    0.59 
  -1   6  -8    7.30    0.46 
  -1   6  -8    7.29    0.44 
   1   6   8    7.84    0.53 
  -1   6  -8    8.22    0.58 
  -1   6  -8    7.18    0.54 
   1   6   8    7.88    0.58 
   2  -6   8    1.67    0.31 
  -2  -6  -8    2.17    0.37 
   2  -6   8    1.79    0.28 
  -2  -6  -8    1.73    0.20 
  -2  -6  -8    2.00    0.21 
  -2  -6  -8    1.72    0.33 
   2  -6   8    2.43    0.35 
   2  -6   8    2.33    0.25 
  -2  -6  -8    2.07    0.19 
  -2  -6  -8    1.72    0.24 
  -2  -6  -8    2.09    0.36 
  -2   6  -8    2.32    0.30 
   2   6   8    2.04    0.33 
   2   6   8    1.60    0.28 
  -2   6  -8    1.64    0.26 
   2   6   8    2.31    0.37 
   2   6   8    1.64    0.31 
  -2   6  -8    2.05    0.28 
   2   6   8    2.07    0.29 
  -4  -7   8    1.83    0.32 
  -4  -7   8    1.96    0.18 
  -4  -7   8    1.70    0.38 
  -4  -7   8    2.07    0.38 
  -4  -7   8    1.87    0.16 
  -4  -7   8    1.93    0.29 
   4  -7  -8    2.05    0.24 
   4  -7  -8    1.71    0.28 
  -4  -7   8    1.81    0.34 
  -4  -7   8    1.56    0.28 
   4   7  -8    2.01    0.29 
  -4   7   8    1.87    0.25 
  -4   7   8    1.90    0.41 
   4   7  -8    2.02    0.29 
   4   7  -8    2.11    0.29 
  -4   7   8    1.49    0.23 
  -4   7   8    1.97    0.28 
  -4   7   8    1.93    0.24 
  -4   7   8    2.15    0.22 
  -3  -7   8    6.15    0.44 
   3  -7  -8    6.58    0.43 
  -3  -7   8    6.95    0.61 
  -3  -7   8    6.57    0.44 
  -3  -7   8    6.63    0.38 
  -3  -7   8    7.02    0.43 
  -3  -7   8    6.92    0.52 
   3  -7  -8    6.47    0.48 
  -3  -7   8    6.47    0.57 
  -3  -7   8    7.13    0.58 
  -3  -7   8    6.62    0.42 
  -3  -7   8    6.82    0.45 
  -3   7   8    6.91    0.51 
   3   7  -8    7.08    0.48 
  -3   7   8    7.16    0.64 
  -3   7   8    6.25    0.44 
  -3   7   8    6.47    0.55 
   3   7  -8    7.11    0.49 
  -3   7   8    6.79    0.45 
  -3   7   8    5.86    0.48 
  -3   7   8    6.33    0.47 
  -3   7   8    7.14    0.50 
  -3   7   8    6.29    0.49 
  -3   7   8    6.49    0.45 
   3   7  -8    7.68    0.49 
  -2  -7   8    0.79    0.23 
   2  -7  -8    1.44    0.36 
   2  -7  -8    0.58    0.17 
   2  -7  -8    0.92    0.26 
  -2  -7   8    0.56    0.20 
  -2  -7   8    0.29    0.32 
  -2  -7   8    0.19    0.19 
   2  -7  -8    1.07    0.30 
  -2  -7   8    0.51    0.13 
   2   7  -8    0.56    0.18 
   2   7  -8    0.20    0.19 
   2   7  -8    0.20    0.23 
  -2   7   8    0.42    0.22 
  -2   7   8    0.59    0.31 
  -2   7   8    0.86    0.23 
  -2   7   8    0.51    0.20 
  -2   7   8    0.42    0.16 
  -2   7   8    0.56    0.33 
   2   7  -8    0.55    0.18 
  -2   7   8    0.32    0.26 
  -2   7   8    0.53    0.17 
  -2   7   8    0.85    0.28 
  -2   7   8    0.64    0.25 
  -1  -7   8    7.70    0.50 
   1  -7  -8    7.09    0.57 
   1  -7  -8    7.84    0.50 
  -1  -7   8    7.38    0.52 
   1  -7  -8    7.70    0.62 
  -1  -7   8    7.76    0.52 
   1  -7  -8    7.97    0.63 
  -1  -7   8    7.25    0.60 
   1  -7  -8    7.08    0.55 
  -1   7   8    8.22    0.69 
  -1   7   8    7.50    0.62 
   1   7  -8    7.51    0.55 
  -1   7   8    8.09    0.54 
  -1   7   8    7.52    0.44 
   1   7  -8    7.36    0.53 
  -1   7   8    8.17    0.51 
  -1   7   8    7.73    0.53 
  -1   7   8    8.07    0.60 
  -1   7   8    6.62    0.49 
   1   7  -8    8.05    0.52 
   1   7  -8    7.32    0.46 
   0  -7  -8    4.34    0.41 
   0  -7  -8    4.79    0.49 
   0  -7  -8    5.67    0.39 
   0  -7   8    4.70    0.50 
   0  -7  -8    5.64    0.41 
   0  -7   8    4.55    0.44 
   0  -7  -8    5.54    0.54 
   0  -7   8    5.76    0.45 
   0  -7   8    5.51    0.42 
   0   7   8    5.80    0.45 
   0   7   8    5.57    0.57 
   0   7  -8    4.82    0.31 
   0   7  -8    4.74    0.41 
   0   7  -8    5.15    0.39 
   0   7  -8    5.37    0.37 
   0   7   8    5.05    0.54 
   0   7  -8    4.17    0.42 
   0   7  -8    4.67    0.45 
   0   7   8    4.87    0.46 
   0   7   8    4.72    0.47 
   0   7   8    4.85    0.36 
   1  -7   8   15.43    0.80 
   1  -7   8   15.80    0.80 
   1  -7   8   13.93    0.80 
  -1  -7  -8   12.64    0.75 
  -1  -7  -8   14.79    0.79 
   1  -7   8   14.33    0.97 
  -1  -7  -8   13.96    0.77 
  -1  -7  -8   14.47    0.86 
  -1  -7  -8   14.59    0.72 
  -1  -7  -8   13.63    0.77 
   1   7   8   12.87    0.82 
  -1   7  -8   14.17    0.79 
  -1   7  -8   14.15    0.73 
  -1   7  -8   16.50    0.83 
   1   7   8   15.23    0.77 
  -1   7  -8   14.23    0.78 
  -1   7  -8   13.97    0.71 
   1   7   8   12.92    0.78 
  -1   7  -8   14.63    0.72 
   1   7   8   15.03    0.78 
  -1   7  -8   14.56    0.70 
   2  -7   8    5.70    0.38 
   2  -7   8    5.47    0.38 
  -2  -7  -8    4.93    0.40 
  -2  -7  -8    5.82    0.45 
  -2  -7  -8    4.99    0.27 
  -2  -7  -8    5.00    0.31 
  -2  -7  -8    4.70    0.35 
  -2  -7  -8    4.75    0.42 
   2  -7   8    4.80    0.31 
   2  -7   8    4.75    0.38 
   2  -7   8    5.15    0.37 
  -2  -7  -8    5.33    0.29 
   2   7   8    4.74    0.34 
   2   7   8    4.79    0.40 
   2   7   8    5.57    0.36 
   2   7   8    5.16    0.36 
  -2   7  -8    5.20    0.35 
  -2   7  -8    5.11    0.36 
  -4  -8   8    0.93    0.28 
  -4  -8   8    0.75    0.22 
   4  -8  -8    0.64    0.14 
   4  -8  -8    0.72    0.20 
  -4  -8   8    1.32    0.32 
  -4  -8   8    0.68    0.21 
  -4  -8   8    0.61    0.19 
   4   8  -8    0.88    0.21 
  -4   8   8    0.67    0.21 
  -4   8   8    0.88    0.28 
  -4   8   8    1.30    0.22 
   4   8  -8    0.84    0.22 
   4   8  -8    0.52    0.15 
  -4   8   8    0.70    0.16 
  -4   8   8    0.58    0.13 
  -3  -8   8    5.76    0.48 
  -3  -8   8    4.93    0.36 
  -3  -8   8    5.05    0.33 
  -3  -8   8    4.98    0.44 
   3  -8  -8    4.53    0.35 
  -3  -8   8    5.77    0.36 
  -3  -8   8    4.87    0.33 
  -3  -8   8    6.02    0.52 
  -3  -8   8    4.97    0.34 
   3  -8  -8    5.00    0.39 
  -3   8   8    6.56    0.55 
  -3   8   8    6.11    0.46 
   3   8  -8    5.75    0.37 
  -3   8   8    4.68    0.36 
  -3   8   8    5.22    0.39 
  -3   8   8    5.12    0.36 
   3   8  -8    5.97    0.40 
   3   8  -8    5.44    0.39 
   3   8  -8    5.25    0.43 
  -3   8   8    5.17    0.41 
  -3   8   8    4.27    0.38 
   2  -8  -8    3.23    0.36 
  -2  -8   8    2.85    0.33 
   2  -8  -8    2.94    0.32 
   2  -8  -8    2.78    0.28 
  -2  -8   8    2.64    0.43 
  -2  -8   8    2.65    0.33 
  -2  -8   8    2.89    0.34 
   2  -8  -8    3.16    0.40 
  -2  -8   8    2.70    0.40 
  -2  -8   8    2.74    0.36 
  -2   8   8    3.68    0.42 
  -2   8   8    3.02    0.42 
  -2   8   8    2.66    0.25 
   2   8  -8    2.92    0.30 
  -2   8   8    3.69    0.36 
   2   8  -8    3.80    0.30 
  -2   8   8    2.84    0.20 
   2   8  -8    2.88    0.36 
  -2   8   8    3.36    0.50 
  -2   8   8    4.23    0.65 
   2   8  -8    3.05    0.32 
  -2   8   8    2.70    0.22 
  -2   8   8    2.73    0.36 
  -1  -8   8    2.06    0.30 
   1  -8  -8    2.15    0.27 
   1  -8  -8    1.88    0.39 
  -1  -8   8    1.76    0.28 
   1  -8  -8    1.91    0.32 
   1  -8  -8    1.52    0.31 
   1  -8  -8    1.77    0.36 
   1  -8  -8    2.19    0.37 
  -1  -8   8    1.82    0.29 
   1  -8  -8    1.48    0.40 
  -1  -8   8    1.61    0.36 
   1   8  -8    2.03    0.31 
   1   8  -8    1.90    0.30 
   1   8  -8    1.95    0.20 
  -1   8   8    1.77    0.18 
  -1   8   8    2.31    0.31 
  -1   8   8    2.16    0.26 
   1   8  -8    1.74    0.31 
  -1   8   8    2.03    0.40 
  -1   8   8    1.76    0.44 
  -1   8   8    1.86    0.27 
   0  -8  -8   10.20    0.53 
   0  -8   8    9.37    0.58 
   0  -8  -8    8.71    0.54 
   0  -8  -8   11.07    0.61 
   0  -8   8   10.01    0.57 
   0  -8   8    8.45    0.59 
   0  -8   8    9.12    0.62 
   0  -8  -8    9.52    0.61 
   0  -8  -8    8.36    0.64 
   0  -8   8    8.78    0.56 
   0   8  -8    9.25    0.46 
   0   8   8    9.79    0.58 
   0   8  -8    9.50    0.50 
   0   8   8    9.54    0.72 
   0   8   8    9.70    0.62 
   0   8   8    9.47    0.58 
   0   8   8    9.05    0.60 
   0   8  -8    9.51    0.57 
   0   8  -8    9.54    0.55 
   0   8  -8    8.98    0.52 
   0   8   8    9.65    0.58 
  -1  -8  -8    4.78    0.43 
  -1  -8  -8    4.77    0.34 
  -1  -8  -8    5.16    0.38 
  -1  -8  -8    4.58    0.28 
   1  -8   8    5.39    0.38 
   1  -8   8    5.01    0.37 
   1  -8   8    5.15    0.36 
  -1  -8  -8    5.99    0.44 
   1   8   8    4.75    0.31 
  -1   8  -8    4.71    0.37 
  -1   8  -8    4.98    0.36 
   1   8   8    5.04    0.34 
  -1   8  -8    4.87    0.38 
   1   8   8    4.34    0.40 
   3  -9  -8    2.72    0.25 
   3  -9  -8    2.80    0.32 
  -3  -9   8    3.59    0.41 
  -3  -9   8    2.88    0.19 
  -3  -9   8    3.10    0.34 
   3  -9  -8    2.34    0.21 
  -3  -9   8    2.63    0.22 
  -3  -9   8    2.85    0.21 
  -3  -9   8    3.01    0.47 
  -3  -9   8    2.77    0.23 
  -3   9   8    2.65    0.28 
   3   9  -8    2.57    0.28 
  -3   9   8    2.97    0.28 
   3   9  -8    2.23    0.25 
  -3   9   8    2.78    0.36 
  -3   9   8    2.78    0.25 
   3   9  -8    2.82    0.24 
   2  -9  -8    2.76    0.33 
   2  -9  -8    3.13    0.31 
   2  -9  -8    2.78    0.27 
  -2  -9   8    2.76    0.27 
  -2  -9   8    2.80    0.27 
  -2  -9   8    2.83    0.35 
  -2  -9   8    2.88    0.30 
  -2  -9   8    3.12    0.28 
   2  -9  -8    3.18    0.31 
  -2  -9   8    2.75    0.35 
   2   9  -8    2.76    0.31 
  -2   9   8    3.34    0.33 
   2   9  -8    2.77    0.42 
   2   9  -8    3.20    0.27 
  -2   9   8    2.93    0.41 
   2   9  -8    3.03    0.23 
  -2   9   8    2.26    0.29 
  -2   9   8    2.82    0.33 
  -2   9   8    3.33    0.36 
  -1  -9   8    4.25    0.37 
   1  -9  -8    4.23    0.34 
   1  -9  -8    4.42    0.34 
  -1  -9   8    4.79    0.30 
  -1  -9   8    4.12    0.31 
   1  -9  -8    4.60    0.34 
   1  -9  -8    4.14    0.35 
   1  -9  -8    4.44    0.41 
   1   9  -8    4.41    0.34 
   1   9  -8    4.73    0.32 
  -1   9   8    4.43    0.29 
   1   9  -8    4.19    0.30 
   1   9  -8    4.40    0.30 
   1   9  -8    4.47    0.26 
  -1   9   8    4.64    0.40 
  -1   9   8    3.55    0.43 
  -1   9   8    4.15    0.31 
  -1   9   8    4.17    0.44 
   0  -9   8   17.31    0.81 
   0  -9   8   14.34    0.82 
   0  -9   8   16.68    0.81 
   0  -9   8   14.76    0.78 
   0  -9  -8   14.72    0.76 
   0  -9  -8   15.08    0.85 
   0  -9  -8   14.70    0.79 
   0   9   8   16.69    0.80 
   0   9  -8   14.46    0.84 
   0   9   8   15.60    0.75 
   0   9   8   16.52    0.80 
   0   9  -8   15.50    0.76 
   0   9  -8   15.45    0.77 
   0   9   8   15.22    0.83 
   0   9   8   14.77    0.79 
   0   9  -8   15.33    0.78 
   0   9   8   16.12    0.89 
  -5   0   9    0.32    0.16 
  -5   0   9    0.41    0.15 
  -5   0   9    0.36    0.13 
  -5   0   9    0.12    0.13 
  -5   0   9    0.32    0.24 
  -5   0   9    0.49    0.15 
   5   0  -9    0.18    0.16 
  -5   0   9    0.35    0.16 
  -4   0   9   22.08    1.13 
  -4   0   9   19.60    1.18 
   4   0  -9   23.03    1.14 
  -4   0   9   20.44    1.09 
  -4   0   9   22.03    1.12 
  -4   0   9   21.33    1.11 
  -4   0   9   20.77    1.11 
  -4   0   9   21.00    1.09 
  -4   0   9   21.73    1.11 
  -3   0   9    6.78    0.73 
  -3   0   9    9.64    0.87 
  -3   0   9    8.09    0.48 
  -3   0   9    7.71    0.59 
   3   0  -9    8.20    0.58 
  -3   0   9    8.18    0.64 
  -3   0   9    5.41    0.77 
  -3   0   9    7.84    0.57 
  -3   0   9    7.29    0.57 
   3   0  -9    7.62    0.60 
  -3   0   9    8.04    0.47 
  -3   0   9    7.51    0.49 
  -3   0   9    7.46    0.49 
  -3   0   9    8.58    0.80 
  -3   0   9    7.69    0.47 
   3   0  -9    7.62    0.57 
  -3   0   9    7.50    0.47 
   2   0  -9    2.21    0.39 
  -2   0   9    2.14    0.38 
  -2   0   9    1.42    0.35 
  -2   0   9    1.80    0.36 
  -2   0   9    1.74    0.39 
   2   0  -9    1.67    0.38 
  -2   0   9    2.13    0.25 
  -2   0   9    2.33    0.35 
  -2   0   9    1.51    0.37 
  -2   0   9    1.71    0.36 
   2   0  -9    2.37    0.52 
  -2   0   9    1.71    0.48 
   2   0  -9    1.94    0.41 
   1   0  -9    0.76    0.21 
  -1   0   9    0.82    0.20 
  -1   0   9    1.06    0.25 
   1   0  -9    0.91    0.30 
  -1   0   9    0.88    0.29 
   1   0  -9    0.85    0.24 
  -1   0   9    1.28    0.34 
   1   0  -9    1.33    0.36 
   1   0  -9    1.09    0.30 
  -1   0   9    1.37    0.49 
  -1   0   9    0.55    0.26 
  -1   0   9    0.45    0.30 
   1   0  -9    1.04    0.24 
   0   0   9    4.99    0.43 
   0   0  -9    4.95    0.73 
   0   0  -9    5.14    0.46 
   0   0  -9    5.08    0.49 
   0   0   9    4.47    0.47 
   0   0   9    5.30    0.49 
   0   0   9    5.32    0.53 
   0   0  -9    5.40    0.39 
   0   0   9    5.03    0.54 
   0   0  -9    6.71    0.59 
   0   0  -9    5.87    0.50 
   1   0   9    9.45    0.63 
  -1   0  -9    8.56    0.54 
   1   0   9    8.45    0.59 
  -1   0  -9    9.35    0.56 
  -1   0  -9    8.24    0.46 
   1   0   9    9.48    0.66 
  -1   0  -9    8.66    0.45 
  -1   0  -9    7.74    0.57 
  -1   0  -9    8.44    0.51 
  -1   0  -9    8.09    0.61 
   1   0   9    8.79    0.59 
  -1   0  -9    8.74    0.59 
  -2   0  -9   10.64    0.55 
  -2   0  -9   10.30    0.53 
  -2   0  -9   12.18    0.73 
   2   0   9   10.54    0.68 
  -2   0  -9   10.46    0.62 
   2   0   9   11.04    0.64 
  -2   0  -9   11.13    0.64 
   2   0   9   12.14    0.66 
   2   0   9   11.60    0.67 
  -2   0  -9   10.19    0.66 
   2   0   9   10.99    0.65 
   5  -1  -9    4.60    0.48 
   5  -1  -9    4.42    0.31 
  -5  -1   9    4.84    0.48 
  -5  -1   9    5.01    0.35 
  -5  -1   9    5.10    0.34 
  -5  -1   9    4.46    0.43 
  -5  -1   9    4.63    0.33 
  -5  -1   9    4.68    0.35 
  -5  -1   9    5.01    0.33 
  -5  -1   9    5.58    0.39 
  -5   1   9    4.99    0.34 
   5   1  -9    4.95    0.36 
  -5   1   9    5.35    0.33 
  -5   1   9    4.68    0.45 
  -5   1   9    5.00    0.32 
  -5   1   9    4.60    0.34 
  -5   1   9    4.53    0.32 
  -5   1   9    4.90    0.37 
  -4  -1   9    0.18    0.16 
  -4  -1   9    0.11    0.20 
  -4  -1   9   -0.15    0.22 
  -4  -1   9    0.07    0.19 
   4  -1  -9    0.16    0.20 
  -4  -1   9    0.18    0.23 
  -4  -1   9   -0.14    0.36 
  -4  -1   9    0.46    0.30 
  -4  -1   9    0.22    0.20 
  -4  -1   9    0.22    0.17 
  -4  -1   9    0.06    0.16 
  -4   1   9    0.12    0.21 
  -4   1   9    0.03    0.15 
  -4   1   9    0.24    0.17 
  -4   1   9    0.10    0.17 
  -4   1   9    0.20    0.19 
   4   1  -9    0.09    0.22 
  -4   1   9    0.10    0.18 
  -4   1   9    0.21    0.23 
  -3  -1   9    7.32    0.44 
  -3  -1   9    6.65    0.45 
  -3  -1   9    7.00    0.56 
  -3  -1   9    7.31    0.45 
  -3  -1   9    7.33    0.63 
   3  -1  -9    8.04    0.58 
   3  -1  -9    6.69    0.45 
  -3  -1   9    6.45    0.59 
  -3  -1   9    7.27    0.45 
  -3  -1   9    6.36    0.70 
  -3  -1   9    6.68    0.54 
  -3  -1   9    7.36    0.77 
  -3  -1   9    7.45    0.47 
  -3  -1   9    7.32    0.48 
   3  -1  -9    7.36    0.56 
  -3   1   9    7.02    0.54 
  -3   1   9    7.02    0.74 
  -3   1   9    6.88    0.56 
  -3   1   9    6.80    0.71 
  -3   1   9    7.83    0.44 
  -3   1   9    7.49    0.46 
   3   1  -9    6.15    0.54 
  -3   1   9    6.82    0.43 
  -3   1   9    7.54    0.44 
  -3   1   9    7.71    0.75 
  -3   1   9    5.91    0.54 
  -3   1   9    8.08    0.45 
  -3   1   9    7.38    0.47 
  -3   1   9    6.38    0.60 
   3   1  -9    6.83    0.54 
   3   1  -9    6.37    0.54 
   2  -1  -9   21.97    1.31 
  -2  -1   9   24.73    1.12 
   2  -1  -9   24.71    1.22 
  -2  -1   9   21.74    1.22 
   2  -1  -9   23.01    1.22 
  -2  -1   9   22.54    1.19 
  -2  -1   9   23.32    1.20 
  -2  -1   9   22.95    1.21 
  -2  -1   9   23.78    1.32 
  -2  -1   9   21.05    1.23 
  -2  -1   9   22.55    1.18 
  -2  -1   9   22.77    1.17 
  -2   1   9   22.91    1.13 
  -2   1   9   20.32    1.38 
   2   1  -9   22.60    1.21 
  -2   1   9   22.11    1.18 
  -2   1   9   22.87    1.18 
  -2   1   9   24.03    1.19 
  -2   1   9   22.79    1.25 
  -2   1   9   23.60    1.31 
  -2   1   9   21.84    1.22 
   2   1  -9   23.51    1.22 
  -2   1   9   22.16    1.20 
   2   1  -9   22.88    1.22 
   2   1  -9   23.75    1.29 
  -2   1   9   18.96    1.52 
  -1  -1   9    8.37    0.57 
  -1  -1   9    9.26    0.60 
   1  -1  -9    9.34    0.70 
   1  -1  -9   10.08    0.69 
   1  -1  -9    9.48    0.60 
   1  -1  -9    8.44    0.62 
  -1  -1   9    9.70    0.65 
   1  -1  -9    9.57    0.61 
   1  -1  -9    8.45    0.61 
  -1  -1   9    8.75    0.61 
  -1  -1   9    9.04    0.66 
  -1   1   9    8.81    0.57 
   1   1  -9    9.73    0.62 
   1   1  -9    9.09    0.62 
   1   1  -9   10.31    0.69 
  -1   1   9    9.69    0.60 
  -1   1   9   10.08    0.76 
  -1   1   9   10.31    0.69 
  -1   1   9   10.21    0.65 
  -1   1   9    9.79    0.67 
   1   1  -9    9.03    0.68 
   1   1  -9    9.63    0.61 
   0  -1  -9   19.77    1.02 
   0  -1   9   19.04    1.08 
   0  -1  -9   18.00    0.97 
   0  -1   9   19.11    1.07 
   0  -1   9   18.67    1.03 
   0  -1   9   17.99    1.03 
   0  -1  -9   20.35    1.06 
   0  -1   9   20.28    1.02 
   0  -1  -9   17.81    0.99 
   0  -1  -9   18.47    1.07 
   0  -1  -9   18.69    1.05 
   0   1  -9   17.40    1.01 
   0   1   9   20.05    1.03 
   0   1   9   18.63    1.01 
   0   1   9   17.94    1.07 
   0   1   9   18.97    1.02 
   0   1  -9   18.66    1.04 
   0   1  -9   19.65    0.96 
   0   1  -9   18.66    1.05 
   0   1  -9   20.13    1.07 
   0   1   9   18.33    1.07 
  -1  -1  -9    2.79    0.38 
  -1  -1  -9    3.42    0.35 
   1  -1   9    3.76    0.41 
   1  -1   9    3.26    0.42 
  -1  -1  -9    3.22    0.26 
   1  -1   9    3.53    0.44 
  -1  -1  -9    2.89    0.44 
   1  -1   9    3.44    0.46 
  -1  -1  -9    3.32    0.33 
  -1  -1  -9    3.32    0.38 
  -1   1  -9    3.82    0.39 
  -1   1  -9    3.65    0.32 
  -1   1  -9    3.25    0.42 
   1   1   9    3.75    0.46 
  -1   1  -9    3.80    0.25 
   1   1   9    2.96    0.41 
  -1   1  -9    3.49    0.41 
   1   1   9    3.48    0.44 
   1   1   9    3.56    0.49 
  -1   1  -9    3.42    0.35 
  -1   1  -9    3.36    0.37 
  -1   1  -9    3.45    0.32 
  -1   1  -9    4.86    0.63 
  -1   1  -9    3.79    0.24 
  -2  -1  -9    2.41    0.30 
   2  -1   9    2.09    0.35 
   2  -1   9    1.83    0.38 
  -2  -1  -9    2.26    0.38 
  -2  -1  -9    2.27    0.18 
  -2  -1  -9    2.16    0.18 
  -2  -1  -9    2.27    0.32 
   2  -1   9    1.84    0.33 
   2  -1   9    2.11    0.33 
   2  -1   9    2.16    0.25 
  -2   1  -9    2.45    0.31 
  -2   1  -9    2.08    0.28 
   2   1   9    2.25    0.34 
   2   1   9    2.31    0.33 
  -2   1  -9    2.64    0.33 
   2   1   9    2.31    0.33 
  -2   1  -9    2.08    0.31 
  -2   1  -9    2.40    0.20 
  -2   1  -9    3.09    0.38 
   2   1   9    2.29    0.35 
  -5  -2   9    5.19    0.45 
  -5  -2   9    5.64    0.35 
  -5  -2   9    4.71    0.34 
  -5  -2   9    5.17    0.34 
  -5  -2   9    4.92    0.33 
  -5  -2   9    5.43    0.39 
   5  -2  -9    5.09    0.33 
  -5  -2   9    5.19    0.46 
  -5  -2   9    5.85    0.36 
  -5   2   9    5.43    0.31 
  -5   2   9    5.16    0.34 
  -5   2   9    5.04    0.37 
  -5   2   9    5.07    0.38 
  -5   2   9    5.50    0.45 
   5   2  -9    5.93    0.41 
  -5   2   9    5.50    0.35 
  -5   2   9    4.94    0.33 
  -4  -2   9   11.10    0.68 
  -4  -2   9   11.69    0.73 
  -4  -2   9   11.93    0.70 
  -4  -2   9   12.31    0.70 
   4  -2  -9   11.85    0.64 
  -4  -2   9   10.23    0.98 
  -4  -2   9   11.67    0.61 
  -4  -2   9   11.51    0.77 
  -4  -2   9   10.65    0.65 
  -4  -2   9   11.42    0.71 
  -4  -2   9   11.85    0.67 
  -4  -2   9   11.02    0.66 
  -4   2   9   11.00    0.66 
  -4   2   9   11.52    0.64 
  -4   2   9   11.32    0.66 
  -4   2   9   10.56    0.65 
   4   2  -9   11.85    0.71 
  -4   2   9   10.50    0.69 
  -4   2   9   12.72    0.68 
  -3  -2   9   13.44    0.82 
  -3  -2   9   12.10    0.79 
   3  -2  -9   13.70    0.85 
  -3  -2   9   13.38    0.70 
   3  -2  -9   12.07    0.85 
  -3  -2   9   14.09    0.82 
  -3  -2   9   14.49    0.75 
  -3  -2   9   12.49    1.01 
   3  -2  -9   12.55    0.79 
  -3  -2   9   13.29    0.72 
  -3  -2   9   13.06    0.85 
  -3  -2   9   14.21    0.73 
  -3  -2   9   11.75    0.68 
  -3  -2   9   14.18    0.72 
  -3   2   9   11.87    0.97 
  -3   2   9   13.07    0.99 
  -3   2   9   11.93    0.94 
  -3   2   9   14.08    0.76 
  -3   2   9   14.74    0.86 
   3   2  -9   14.89    0.80 
  -3   2   9   13.30    0.81 
  -3   2   9   13.15    0.71 
   3   2  -9   14.48    0.81 
  -3   2   9   14.71    0.70 
  -3   2   9   13.38    0.81 
  -3   2   9   12.88    0.82 
  -3   2   9   14.46    0.72 
  -2  -2   9    3.07    0.25 
   2  -2  -9    2.95    0.39 
  -2  -2   9    3.51    0.38 
  -2  -2   9    2.99    0.41 
  -2  -2   9    3.19    0.38 
   2  -2  -9    2.66    0.54 
   2  -2  -9    2.85    0.40 
   2  -2  -9    2.55    0.38 
  -2  -2   9    2.38    0.37 
   2  -2  -9    3.51    0.49 
  -2  -2   9    3.12    0.41 
   2  -2  -9    3.24    0.43 
  -2  -2   9    3.07    0.27 
   2   2  -9    3.00    0.47 
  -2   2   9    2.91    0.50 
  -2   2   9    2.19    0.59 
   2   2  -9    3.23    0.41 
  -2   2   9    2.93    0.38 
  -2   2   9    3.23    0.36 
   2   2  -9    2.95    0.40 
  -2   2   9    2.77    0.45 
  -2   2   9    3.79    0.41 
  -2   2   9    3.26    0.58 
  -2   2   9    3.21    0.27 
  -2   2   9    3.86    0.38 
   2   2  -9    3.09    0.39 
  -2   2   9    2.86    0.35 
  -1  -2   9    6.24    0.47 
   1  -2  -9    5.92    0.57 
  -1  -2   9    5.52    0.45 
   1  -2  -9    6.13    0.57 
   1  -2  -9    6.23    0.49 
   1  -2  -9    5.78    0.48 
  -1  -2   9    5.13    0.48 
  -1  -2   9    6.10    0.55 
   1  -2  -9    5.64    0.49 
   1  -2  -9    5.88    0.48 
   1   2  -9    5.63    0.54 
   1   2  -9    6.17    0.46 
  -1   2   9    5.61    0.54 
  -1   2   9    5.92    0.49 
   1   2  -9    6.91    0.49 
  -1   2   9    5.51    0.53 
   1   2  -9    5.99    0.49 
  -1   2   9    5.98    0.41 
  -1   2   9    5.58    0.61 
  -1   2   9    6.86    0.56 
   0  -2  -9    8.24    0.53 
   0  -2  -9    8.24    0.51 
   0  -2  -9    8.48    0.57 
   0  -2   9    8.17    0.59 
   0  -2   9    7.58    0.62 
   0  -2   9    7.03    0.55 
   0  -2  -9    7.83    0.57 
   0  -2  -9    7.64    0.61 
   0  -2   9    7.44    0.61 
   0  -2   9    7.96    0.62 
   0  -2   9    9.05    0.60 
   0  -2  -9    8.23    0.63 
   0   2   9    8.20    0.53 
   0   2  -9    7.45    0.56 
   0   2  -9    7.85    0.55 
   0   2   9    8.08    0.56 
   0   2   9    8.65    0.56 
   0   2  -9    7.70    0.56 
   0   2   9    8.45    0.63 
   0   2  -9    7.97    0.57 
   0   2   9    8.17    0.64 
   0   2  -9    7.65    0.46 
   1  -2   9    6.24    0.53 
   1  -2   9    6.73    0.53 
  -1  -2  -9    5.97    0.37 
  -1  -2  -9    6.37    0.45 
  -1  -2  -9    5.93    0.45 
   1  -2   9    6.51    0.51 
  -1  -2  -9    5.73    0.53 
  -1  -2  -9    6.34    0.46 
   1  -2   9    6.73    0.50 
  -1   2  -9    6.38    0.41 
   1   2   9    5.26    0.56 
  -1   2  -9    6.76    0.47 
  -1   2  -9    6.07    0.51 
  -1   2  -9    6.59    0.34 
   1   2   9    5.18    0.54 
  -1   2  -9    6.25    0.49 
  -1   2  -9    6.11    0.57 
  -1   2  -9    6.71    0.42 
  -1   2  -9    6.73    0.39 
   1   2   9    5.83    0.51 
   1   2   9    6.12    0.51 
  -1   2  -9    6.64    0.36 
  -1   2  -9    6.57    0.44 
   1   2   9    6.67    0.48 
   2  -2   9    1.81    0.22 
   2  -2   9    1.63    0.33 
  -2  -2  -9    1.21    0.15 
   2  -2   9    1.57    0.32 
  -2  -2  -9    1.53    0.27 
   2  -2   9    1.28    0.30 
  -2  -2  -9    1.17    0.25 
   2  -2   9    1.08    0.30 
  -2  -2  -9    1.04    0.32 
  -2  -2  -9    1.48    0.26 
   2   2   9    1.64    0.34 
  -2   2  -9    1.00    0.25 
   2   2   9    1.74    0.30 
  -2   2  -9    0.98    0.25 
  -2   2  -9    1.28    0.27 
  -2   2  -9    1.53    0.29 
  -2   2  -9    1.69    0.17 
   2   2   9    1.08    0.31 
   2   2   9    1.40    0.29 
  -5  -3   9    0.59    0.24 
  -5  -3   9    0.29    0.15 
  -5  -3   9    0.95    0.20 
   5  -3  -9    0.42    0.13 
  -5  -3   9    0.41    0.15 
  -5  -3   9    0.43    0.22 
  -5  -3   9    0.72    0.16 
  -5   3   9    0.30    0.11 
  -5   3   9    0.83    0.19 
  -5   3   9    0.56    0.13 
  -5   3   9    0.45    0.20 
  -5   3   9    0.67    0.13 
  -5   3   9    0.44    0.16 
   5   3  -9    0.21    0.16 
  -4  -3   9    0.32    0.28 
  -4  -3   9    0.70    0.26 
  -4  -3   9    0.33    0.20 
   4  -3  -9    0.34    0.16 
  -4  -3   9    0.72    0.19 
  -4  -3   9    0.39    0.14 
  -4  -3   9    1.32    0.31 
  -4  -3   9    0.74    0.22 
   4  -3  -9    0.52    0.19 
  -4  -3   9    0.72    0.25 
  -4   3   9    0.76    0.19 
  -4   3   9    0.15    0.30 
  -4   3   9    0.80    0.21 
  -4   3   9    0.71    0.17 
  -4   3   9    0.81    0.18 
  -4   3   9    0.60    0.20 
   4   3  -9    0.70    0.22 
   4   3  -9    0.25    0.20 
  -4   3   9    0.72    0.22 
  -4   3   9    0.53    0.20 
  -3  -3   9    2.32    0.29 
  -3  -3   9    2.06    0.30 
  -3  -3   9    2.14    0.25 
  -3  -3   9    2.10    0.37 
   3  -3  -9    2.21    0.35 
   3  -3  -9    2.62    0.45 
  -3  -3   9    2.42    0.27 
   3  -3  -9    2.22    0.53 
  -3  -3   9    2.05    0.56 
  -3  -3   9    1.65    0.35 
  -3  -3   9    1.96    0.45 
  -3  -3   9    1.89    0.26 
  -3  -3   9    2.51    0.25 
  -3  -3   9    2.20    0.44 
   3  -3  -9    2.21    0.30 
  -3  -3   9    1.79    0.40 
  -3  -3   9    2.25    0.57 
  -3  -3   9    2.17    0.28 
  -3   3   9    1.78    0.32 
  -3   3   9    1.91    0.36 
  -3   3   9    2.23    0.77 
   3   3  -9    2.42    0.35 
  -3   3   9    2.35    0.37 
  -3   3   9    2.20    0.43 
  -3   3   9    2.36    0.22 
   3   3  -9    2.09    0.37 
  -3   3   9    1.96    0.25 
  -3   3   9    2.20    0.19 
  -3   3   9    2.12    0.29 
  -3   3   9    1.84    0.65 
  -3   3   9    2.87    0.40 
   2  -3  -9    9.28    0.62 
   2  -3  -9   10.24    0.66 
  -2  -3   9    8.13    0.60 
  -2  -3   9    8.56    0.50 
   2  -3  -9    9.47    0.60 
  -2  -3   9    9.43    0.62 
   2  -3  -9    8.50    0.59 
  -2  -3   9    8.40    0.60 
   2  -3  -9    9.92    0.71 
  -2  -3   9    9.13    0.59 
  -2  -3   9    8.89    0.68 
   2   3  -9    9.18    0.68 
  -2   3   9    9.61    0.50 
  -2   3   9    8.48    0.66 
  -2   3   9   10.17    0.64 
  -2   3   9    9.82    0.77 
   2   3  -9   11.09    0.64 
   2   3  -9   10.40    0.63 
  -2   3   9    9.54    0.59 
  -2   3   9    9.08    0.84 
  -2   3   9    8.40    0.78 
   2   3  -9    8.47    0.61 
  -2   3   9   10.21    0.58 
  -2   3   9    8.94    0.69 
  -2   3   9    9.45    0.57 
   1  -3  -9    2.54    0.47 
  -1  -3   9    2.14    0.36 
   1  -3  -9    2.34    0.43 
   1  -3  -9    2.32    0.36 
  -1  -3   9    2.00    0.33 
   1  -3  -9    2.12    0.36 
  -1  -3   9    2.43    0.35 
   1  -3  -9    2.32    0.38 
  -1  -3   9    2.79    0.43 
  -1   3   9    2.16    0.35 
  -1   3   9    2.38    0.42 
  -1   3   9    1.52    0.39 
  -1   3   9    2.50    0.40 
   1   3  -9    2.28    0.35 
   1   3  -9    1.91    0.41 
   1   3  -9    1.84    0.33 
   1   3  -9    1.74    0.37 
   1   3  -9    2.17    0.33 
  -1   3   9    1.85    0.26 
   0  -3   9    0.87    0.23 
   0  -3   9    1.41    0.24 
   0  -3   9    0.63    0.29 
   0  -3  -9    1.36    0.39 
   0  -3   9    1.39    0.39 
   0  -3   9    1.40    0.40 
   0  -3  -9    1.31    0.42 
   0  -3   9    0.67    0.30 
   0  -3  -9    1.36    0.35 
   0  -3  -9    1.43    0.30 
   0  -3  -9    1.53    0.28 
   0   3   9    0.36    0.21 
   0   3   9    1.45    0.30 
   0   3  -9    1.07    0.23 
   0   3   9    0.94    0.30 
   0   3  -9    1.39    0.18 
   0   3   9    1.46    0.35 
   0   3   9    0.90    0.31 
   0   3  -9    1.65    0.32 
   0   3  -9    1.80    0.35 
   0   3  -9    1.16    0.32 
  -1  -3  -9    9.99    0.59 
  -1  -3  -9   10.40    0.62 
  -1  -3  -9   10.81    0.59 
   1  -3   9    9.93    0.64 
  -1  -3  -9   10.79    0.53 
   1  -3   9   10.89    0.67 
   1  -3   9    9.46    0.66 
   1  -3   9   11.57    0.66 
  -1   3  -9    9.16    0.56 
  -1   3  -9    9.90    0.58 
  -1   3  -9    9.52    0.69 
  -1   3  -9   10.10    0.64 
  -1   3  -9   10.12    0.66 
   1   3   9   10.17    0.76 
   1   3   9    9.45    0.67 
   1   3   9   10.25    0.61 
   1   3   9   10.49    0.65 
  -1   3  -9    8.79    0.66 
   1   3   9   10.53    0.69 
  -1   3  -9    9.89    0.56 
  -1   3  -9   10.25    0.56 
  -1   3  -9   10.50    0.51 
  -1   3  -9   10.45    0.61 
  -1   3  -9   10.11    0.60 
   1   3   9   10.28    0.64 
  -2  -3  -9    1.54    0.22 
   2  -3   9    2.40    0.29 
  -2  -3  -9    1.99    0.16 
  -2  -3  -9    2.13    0.32 
  -2  -3  -9    1.83    0.27 
   2  -3   9    1.77    0.30 
   2  -3   9    2.35    0.34 
   2  -3   9    2.19    0.22 
  -2  -3  -9    1.38    0.22 
  -2  -3  -9    1.80    0.28 
   2  -3   9    2.03    0.29 
  -2   3  -9    1.98    0.25 
  -2   3  -9    2.47    0.27 
   2   3   9    2.16    0.29 
   2   3   9    2.15    0.30 
   2   3   9    2.18    0.29 
  -2   3  -9    2.11    0.26 
   2   3   9    2.21    0.27 
  -2   3  -9    2.25    0.27 
  -2   3  -9    2.29    0.17 
  -5  -4   9    5.16    0.41 
   5  -4  -9    4.37    0.30 
  -5  -4   9    5.34    0.35 
  -5  -4   9    5.02    0.33 
  -5  -4   9    4.96    0.41 
  -5  -4   9    4.80    0.32 
  -5  -4   9    4.57    0.28 
  -5   4   9    4.63    0.29 
   5   4  -9    4.41    0.35 
  -5   4   9    4.77    0.29 
  -5   4   9    4.96    0.28 
  -5   4   9    4.99    0.30 
  -5   4   9    4.27    0.37 
   4  -4  -9    4.76    0.36 
  -4  -4   9    4.71    0.40 
  -4  -4   9    4.66    0.30 
  -4  -4   9    4.20    0.50 
  -4  -4   9    4.78    0.41 
   4  -4  -9    4.45    0.39 
  -4  -4   9    5.27    0.31 
  -4  -4   9    5.81    0.42 
  -4  -4   9    5.04    0.46 
  -4   4   9    4.83    0.37 
  -4   4   9    4.90    0.37 
  -4   4   9    4.90    0.40 
  -4   4   9    5.11    0.39 
   4   4  -9    4.48    0.41 
   4   4  -9    3.89    0.39 
   3  -4  -9    4.95    0.49 
   3  -4  -9    6.33    0.46 
  -3  -4   9    6.25    0.56 
  -3  -4   9    5.62    0.37 
  -3  -4   9    4.49    0.43 
   3  -4  -9    5.98    0.52 
  -3  -4   9    7.33    1.07 
  -3  -4   9    6.35    0.41 
  -3  -4   9    5.45    0.33 
  -3  -4   9    5.01    0.52 
   3  -4  -9    5.29    0.39 
  -3  -4   9    6.03    0.48 
  -3  -4   9    4.94    0.48 
  -3  -4   9    5.36    0.40 
  -3  -4   9    4.95    0.36 
  -3  -4   9    5.82    0.55 
  -3  -4   9    5.42    0.38 
  -3   4   9    5.75    0.57 
  -3   4   9    5.15    0.42 
  -3   4   9    5.30    0.48 
   3   4  -9    5.31    0.45 
  -3   4   9    5.48    0.47 
  -3   4   9    5.58    0.51 
  -3   4   9    5.35    0.46 
   3   4  -9    5.07    0.46 
  -3   4   9    5.40    0.58 
  -2  -4   9    4.33    0.33 
   2  -4  -9    5.02    0.47 
   2  -4  -9    5.53    0.55 
   2  -4  -9    5.30    0.45 
  -2  -4   9    5.23    0.46 
  -2  -4   9    5.34    0.42 
  -2  -4   9    5.24    0.44 
   2  -4  -9    5.29    0.42 
  -2  -4   9    4.72    0.50 
  -2  -4   9    5.18    0.45 
  -2   4   9    5.28    0.42 
   2   4  -9    4.55    0.57 
   2   4  -9    4.37    0.49 
  -2   4   9    3.79    0.69 
   2   4  -9    5.20    0.44 
  -2   4   9    5.00    0.29 
  -2   4   9    4.94    0.36 
  -2   4   9    3.96    0.54 
  -2   4   9    4.13    0.72 
  -2   4   9    4.67    0.35 
  -2   4   9    5.06    0.58 
   2   4  -9    5.00    0.42 
  -2   4   9    4.58    0.54 
   2   4  -9    4.73    0.42 
  -2   4   9    5.56    0.46 
  -2   4   9    4.37    0.47 
  -2   4   9    5.41    0.67 
  -1  -4   9   18.62    0.97 
   1  -4  -9   18.60    0.98 
   1  -4  -9   18.68    0.98 
  -1  -4   9   16.75    0.96 
   1  -4  -9   18.25    0.98 
  -1  -4   9   19.02    0.95 
  -1  -4   9   18.71    1.02 
   1  -4  -9   18.38    1.05 
   1  -4  -9   18.01    1.06 
  -1   4   9   18.26    0.90 
   1   4  -9   17.15    0.95 
  -1   4   9   18.99    1.05 
  -1   4   9   16.35    0.99 
   1   4  -9   17.26    0.96 
  -1   4   9   19.80    0.98 
   1   4  -9   17.43    0.95 
   1   4  -9   18.38    1.02 
  -1   4   9   19.29    0.98 
   1   4  -9   16.32    0.99 
   0  -4  -9    7.05    0.51 
   0  -4   9    8.03    0.55 
   0  -4  -9    6.41    0.46 
   0  -4   9    6.97    0.52 
   0  -4   9    6.45    0.55 
   0  -4   9    6.29    0.47 
   0  -4  -9    6.66    0.59 
   0  -4  -9    6.52    0.44 
   0  -4   9    6.40    0.60 
   0  -4  -9    6.88    0.52 
   0   4   9    7.07    0.58 
   0   4  -9    7.19    0.50 
   0   4   9    7.17    0.48 
   0   4  -9    7.13    0.48 
   0   4   9    7.42    0.57 
   0   4  -9    7.07    0.48 
   0   4  -9    6.54    0.45 
   0   4  -9    6.82    0.50 
   0   4  -9    6.91    0.41 
   0   4   9    6.86    0.46 
   0   4   9    7.18    0.50 
  -1  -4  -9    0.32    0.14 
   1  -4   9    0.23    0.23 
  -1  -4  -9    0.25    0.18 
  -1  -4  -9    0.06    0.20 
  -1  -4  -9    0.16    0.08 
  -1  -4  -9    0.10    0.14 
   1  -4   9    0.33    0.21 
   1  -4   9    0.36    0.19 
   1  -4   9    0.54    0.21 
  -1   4  -9    0.02    0.17 
   1   4   9    0.44    0.17 
   1   4   9    0.11    0.17 
  -1   4  -9   -0.10    0.19 
  -1   4  -9    0.31    0.20 
  -1   4  -9    0.49    0.18 
   1   4   9    0.35    0.26 
   1   4   9    0.57    0.28 
  -1   4  -9    0.39    0.13 
  -1   4  -9    0.30    0.14 
  -1   4  -9    0.00    0.25 
  -1   4  -9    0.03    0.13 
  -1   4  -9    0.35    0.11 
  -1   4  -9    0.22    0.09 
   1   4   9    0.02    0.19 
   2  -4   9    1.35    0.25 
  -2  -4  -9    1.23    0.23 
   2  -4   9    0.91    0.21 
  -2  -4  -9    1.12    0.21 
   2  -4   9    1.22    0.26 
   2  -4   9    1.35    0.25 
  -2  -4  -9    1.56    0.28 
   2  -4   9    1.31    0.26 
  -2  -4  -9    1.32    0.12 
   2   4   9    1.11    0.24 
  -2   4  -9    0.92    0.21 
   2   4   9    0.99    0.24 
  -2   4  -9    1.44    0.20 
   2   4   9    1.34    0.23 
   2   4   9    1.31    0.25 
  -2   4  -9    1.28    0.23 
  -2   4  -9    1.26    0.12 
  -2   4  -9    1.03    0.22 
   2   4   9    1.36    0.34 
  -4  -5   9    3.48    0.36 
   4  -5  -9    4.20    0.31 
   4  -5  -9    4.16    0.34 
  -4  -5   9    3.99    0.40 
  -4  -5   9    4.02    0.25 
  -4  -5   9    4.15    0.41 
  -4  -5   9    4.18    0.35 
  -4  -5   9    4.01    0.33 
  -4  -5   9    3.62    0.40 
  -4   5   9    3.35    0.33 
  -4   5   9    3.70    0.35 
   4   5  -9    4.10    0.36 
   4   5  -9    3.64    0.34 
  -4   5   9    4.42    0.31 
   4   5  -9    4.52    0.35 
  -4   5   9    3.92    0.33 
  -3  -5   9    6.33    0.51 
  -3  -5   9    7.94    0.46 
  -3  -5   9    7.59    0.61 
   3  -5  -9    7.89    0.54 
  -3  -5   9    6.40    0.66 
  -3  -5   9    8.71    0.60 
  -3  -5   9    8.86    0.49 
  -3  -5   9    8.03    0.47 
   3  -5  -9    7.79    0.47 
  -3  -5   9    7.67    0.44 
  -3  -5   9    8.94    0.63 
   3  -5  -9    7.92    0.53 
  -3  -5   9    8.51    0.49 
  -3  -5   9    7.44    0.46 
  -3   5   9    8.47    0.54 
  -3   5   9    8.63    0.65 
  -3   5   9    6.67    0.50 
   3   5  -9    7.79    0.52 
   3   5  -9    8.22    0.53 
  -3   5   9    8.03    0.55 
   3   5  -9    8.50    0.53 
  -3   5   9    7.70    0.55 
  -3   5   9    9.20    0.60 
  -2  -5   9    7.40    0.49 
  -2  -5   9    7.12    0.50 
   2  -5  -9    7.10    0.57 
  -2  -5   9    6.94    0.51 
  -2  -5   9    6.61    0.57 
   2  -5  -9    6.76    0.50 
   2  -5  -9    7.04    0.53 
  -2  -5   9    7.95    0.50 
  -2   5   9    7.60    0.59 
  -2   5   9    7.56    0.48 
  -2   5   9    8.01    0.45 
  -2   5   9    7.30    0.62 
   2   5  -9    7.27    0.54 
  -2   5   9    7.50    0.45 
   2   5  -9    6.86    0.49 
  -2   5   9    7.21    0.55 
  -2   5   9    7.46    0.49 
  -2   5   9    7.07    0.65 
  -2   5   9    5.98    0.51 
  -2   5   9    7.67    0.58 
   2   5  -9    7.54    0.48 
   2   5  -9    7.23    0.49 
   1  -5  -9    2.86    0.35 
   1  -5  -9    2.83    0.37 
  -1  -5   9    2.98    0.31 
  -1  -5   9    3.96    0.43 
   1  -5  -9    3.32    0.37 
   1  -5  -9    3.29    0.44 
  -1  -5   9    3.28    0.35 
  -1  -5   9    3.13    0.36 
   1  -5  -9    3.39    0.47 
   1   5  -9    2.82    0.30 
   1   5  -9    2.81    0.32 
  -1   5   9    2.80    0.38 
  -1   5   9    3.34    0.47 
  -1   5   9    3.37    0.50 
  -1   5   9    2.64    0.37 
  -1   5   9    3.13    0.31 
   1   5  -9    3.45    0.39 
  -1   5   9    3.27    0.27 
  -1   5   9    3.57    0.36 
   1   5  -9    3.34    0.37 
   0  -5  -9    0.94    0.26 
   0  -5   9    0.80    0.22 
   0  -5  -9    1.22    0.39 
   0  -5   9    0.84    0.22 
   0  -5  -9    0.72    0.24 
   0  -5  -9    1.31    0.33 
   0  -5  -9    0.40    0.36 
   0  -5   9    0.32    0.22 
   0  -5  -9    0.43    0.15 
   0  -5   9    0.57    0.18 
   0   5   9    0.72    0.16 
   0   5  -9    1.00    0.24 
   0   5   9    0.77    0.19 
   0   5  -9    0.95    0.14 
   0   5   9    0.92    0.37 
   0   5  -9    0.82    0.28 
   0   5  -9    0.69    0.16 
   0   5  -9    0.81    0.19 
   0   5   9    0.80    0.23 
   0   5   9    1.01    0.31 
   0   5   9    1.34    0.34 
   0   5  -9    0.75    0.25 
  -1  -5  -9    3.36    0.32 
   1  -5   9    3.88    0.35 
   1  -5   9    3.56    0.36 
  -1  -5  -9    3.19    0.41 
  -1  -5  -9    3.22    0.29 
  -1  -5  -9    3.71    0.27 
   1  -5   9    3.39    0.34 
   1  -5   9    3.54    0.39 
  -1  -5  -9    3.39    0.22 
  -1   5  -9    3.36    0.34 
   1   5   9    3.78    0.34 
  -1   5  -9    3.61    0.27 
  -1   5  -9    3.69    0.31 
  -1   5  -9    3.35    0.32 
   1   5   9    3.47    0.33 
  -1   5  -9    3.38    0.21 
  -1   5  -9    3.48    0.23 
  -1   5  -9    3.59    0.39 
   1   5   9    3.55    0.30 
  -1   5  -9    3.80    0.24 
   1   5   9    3.52    0.39 
   1   5   9    3.52    0.39 
  -4  -6   9    2.53    0.24 
  -4  -6   9    3.46    0.34 
  -4  -6   9    2.45    0.28 
   4  -6  -9    2.87    0.23 
   4  -6  -9    2.46    0.26 
  -4  -6   9    3.11    0.36 
  -4  -6   9    2.71    0.34 
  -4  -6   9    2.37    0.26 
  -4   6   9    2.04    0.35 
  -4   6   9    2.70    0.24 
  -4   6   9    3.13    0.24 
   4   6  -9    2.67    0.28 
  -4   6   9    2.99    0.28 
   4   6  -9    2.69    0.28 
  -3  -6   9    2.31    0.25 
  -3  -6   9    1.40    0.40 
  -3  -6   9    1.80    0.21 
  -3  -6   9    2.14    0.22 
   3  -6  -9    0.94    0.24 
   3  -6  -9    1.71    0.21 
  -3  -6   9    1.64    0.20 
  -3  -6   9    2.14    0.39 
  -3  -6   9    1.52    0.39 
  -3  -6   9    1.74    0.23 
   3  -6  -9    1.73    0.34 
  -3  -6   9    2.25    0.35 
   3  -6  -9    1.75    0.28 
  -3   6   9    2.29    0.34 
  -3   6   9    1.70    0.35 
   3   6  -9    1.72    0.28 
  -3   6   9    2.05    0.41 
   3   6  -9    2.31    0.29 
   3   6  -9    1.55    0.28 
  -3   6   9    1.80    0.31 
  -3   6   9    1.78    0.28 
   3   6  -9    1.65    0.33 
   2  -6  -9    4.83    0.46 
   2  -6  -9    4.70    0.44 
  -2  -6   9    5.47    0.40 
   2  -6  -9    4.85    0.39 
  -2  -6   9    5.48    0.40 
  -2  -6   9    5.01    0.38 
  -2  -6   9    5.67    0.49 
   2  -6  -9    4.61    0.43 
  -2  -6   9    4.72    0.38 
  -2   6   9    4.92    0.32 
   2   6  -9    5.20    0.37 
  -2   6   9    4.76    0.35 
   2   6  -9    5.26    0.38 
  -2   6   9    4.80    0.42 
  -2   6   9    5.33    0.43 
  -2   6   9    5.05    0.50 
  -2   6   9    4.74    0.46 
  -2   6   9    5.49    0.54 
   2   6  -9    5.34    0.39 
  -2   6   9    4.96    0.32 
  -2   6   9    4.32    0.44 
   2   6  -9    4.55    0.44 
  -1  -6   9    0.31    0.14 
   1  -6  -9    0.24    0.18 
   1  -6  -9    0.22    0.17 
  -1  -6   9   -0.02    0.23 
  -1  -6   9    0.23    0.17 
  -1  -6   9    0.34    0.21 
   1  -6  -9   -0.05    0.20 
   1  -6  -9    0.19    0.18 
   1  -6  -9    0.27    0.26 
   1   6  -9    0.22    0.11 
   1   6  -9    0.15    0.17 
  -1   6   9    0.15    0.09 
   1   6  -9    0.26    0.18 
  -1   6   9    0.38    0.15 
  -1   6   9    0.15    0.15 
  -1   6   9    0.48    0.25 
   1   6  -9    0.02    0.18 
  -1   6   9    0.20    0.27 
  -1   6   9    0.12    0.18 
   0  -6  -9    5.51    0.46 
   0  -6   9    6.84    0.48 
   0  -6  -9    6.72    0.47 
   0  -6  -9    5.70    0.45 
   0  -6  -9    5.76    0.44 
   0  -6  -9    5.50    0.50 
   0  -6   9    5.47    0.42 
   0  -6   9    5.64    0.43 
   0  -6   9    6.01    0.43 
   0  -6  -9    6.11    0.37 
   0   6   9    5.91    0.44 
   0   6  -9    6.25    0.32 
   0   6  -9    6.76    0.42 
   0   6   9    6.03    0.46 
   0   6  -9    6.29    0.43 
   0   6   9    6.66    0.55 
   0   6   9    6.40    0.46 
   0   6   9    5.66    0.35 
   0   6   9    5.76    0.51 
   0   6  -9    6.15    0.36 
   0   6  -9    6.73    0.38 
  -1  -6  -9    0.08    0.13 
  -1  -6  -9    0.06    0.05 
  -1  -6  -9    0.00    0.11 
   1  -6   9    0.10    0.16 
   1  -6   9    0.17    0.14 
   1  -6   9    0.12    0.19 
  -1  -6  -9    0.12    0.17 
   1  -6   9    0.24    0.15 
  -1   6  -9    0.24    0.14 
  -1   6  -9    0.25    0.12 
   1   6   9    0.26    0.14 
   1   6   9    0.16    0.18 
  -1   6  -9    0.07    0.07 
  -1   6  -9    0.20    0.13 
  -1   6  -9    0.06    0.20 
   1   6   9    0.22    0.16 
   1   6   9    0.13    0.18 
   1   6   9    0.31    0.20 
   1   6   9    0.40    0.12 
  -3  -7   9    3.10    0.21 
  -3  -7   9    2.86    0.23 
  -3  -7   9    2.60    0.35 
  -3  -7   9    2.73    0.34 
  -3  -7   9    2.82    0.23 
  -3  -7   9    3.07    0.21 
  -3  -7   9    2.83    0.37 
   3  -7  -9    2.65    0.23 
   3  -7  -9    2.81    0.31 
  -3  -7   9    3.24    0.36 
   3  -7  -9    2.98    0.26 
   3  -7  -9    3.24    0.28 
   3   7  -9    2.74    0.32 
   3   7  -9    2.62    0.27 
  -3   7   9    3.38    0.29 
   3   7  -9    2.73    0.26 
  -3   7   9    2.99    0.37 
  -3   7   9    3.01    0.31 
   3   7  -9    3.19    0.27 
  -3   7   9    3.31    0.31 
  -3   7   9    2.94    0.24 
   2  -7  -9    0.54    0.17 
  -2  -7   9    0.33    0.14 
   2  -7  -9    0.15    0.13 
  -2  -7   9    0.05    0.12 
  -2  -7   9    0.36    0.14 
   2  -7  -9    0.41    0.18 
  -2  -7   9    0.51    0.23 
  -2  -7   9    0.32    0.13 
   2   7  -9    0.27    0.18 
  -2   7   9    0.25    0.23 
   2   7  -9    0.22    0.12 
   2   7  -9    0.40    0.18 
  -2   7   9    0.15    0.17 
  -2   7   9    0.17    0.19 
  -2   7   9    0.21    0.19 
  -2   7   9    0.60    0.26 
  -2   7   9    0.41    0.09 
  -2   7   9    0.37    0.16 
   2   7  -9    0.35    0.13 
   1  -7  -9    3.93    0.42 
   1  -7  -9    4.58    0.33 
   1  -7  -9    4.39    0.43 
   1  -7  -9    3.88    0.35 
   1  -7  -9    3.78    0.35 
  -1  -7   9    3.83    0.32 
  -1  -7   9    4.74    0.45 
  -1  -7   9    4.51    0.37 
  -1  -7   9    4.12    0.29 
  -1   7   9    4.40    0.27 
  -1   7   9    4.90    0.42 
   1   7  -9    4.33    0.34 
   1   7  -9    4.27    0.34 
  -1   7   9    4.78    0.47 
   1   7  -9    3.95    0.33 
   1   7  -9    4.44    0.27 
   1   7  -9    4.14    0.32 
  -1   7   9    4.10    0.32 
  -1   7   9    4.69    0.24 
  -1   7   9    4.92    0.35 
   0  -7   9   10.60    0.55 
   0  -7  -9   10.08    0.62 
   0  -7   9   10.36    0.54 
   0  -7  -9    9.76    0.55 
   0  -7   9   10.46    0.58 
   0  -7  -9    9.39    0.56 
   0  -7   9    9.93    0.54 
   0   7   9    8.68    0.53 
   0   7   9    9.47    0.53 
   0   7   9    8.16    0.54 
   0   7  -9    9.63    0.52 
   0   7   9   10.07    0.50 
   0   7  -9    9.16    0.60 
   0   7  -9   10.03    0.50 
   0   7  -9    9.11    0.50 
   0   7   9    9.74    0.55 
   0   7   9    9.21    0.58 
   0   7  -9    8.41    0.53 
   0   7   9    9.04    0.61 
   2  -8  -9   15.36    0.81 
  -2  -8   9   17.33    0.80 
  -2  -8   9   14.94    0.79 
   2  -8  -9   16.13    0.82 
  -2  -8   9   16.54    0.84 
  -2  -8   9   13.16    0.90 
  -2   8   9   15.48    0.83 
  -2   8   9   16.47    0.85 
   2   8  -9   16.39    0.81 
  -2   8   9   16.33    0.82 
  -2   8   9   16.27    0.90 
   1  -8  -9    1.50    0.25 
  -1  -8   9    1.00    0.19 
   1  -8  -9    1.32    0.19 
   1  -8  -9    1.05    0.18 
   1  -8  -9    1.39    0.34 
   1  -8  -9    0.52    0.20 
  -1  -8   9    0.91    0.21 
  -1   8   9    0.93    0.14 
   1   8  -9    0.88    0.20 
  -1   8   9    1.10    0.19 
  -1   8   9    1.02    0.31 
   1   8  -9    0.98    0.11 
  -1   8   9    1.21    0.26 
   1   8  -9    1.10    0.17 
  -4   0  10    4.17    0.38 
   4   0 -10    5.63    0.39 
  -4   0  10    4.59    0.39 
  -4   0  10    4.86    0.31 
  -4   0  10    5.01    0.36 
  -4   0  10    5.03    0.30 
   4   0 -10    4.75    0.44 
   4   0 -10    5.36    0.39 
   3   0 -10    2.06    0.38 
  -3   0  10    1.95    0.22 
  -3   0  10    1.75    0.38 
  -3   0  10    1.51    0.16 
   3   0 -10    1.38    0.29 
   3   0 -10    1.82    0.34 
   3   0 -10    2.22    0.32 
  -3   0  10    1.31    0.35 
  -3   0  10    1.83    0.32 
  -2   0  10    0.93    0.24 
  -2   0  10    0.49    0.18 
  -2   0  10    0.79    0.20 
  -2   0  10    0.95    0.17 
   2   0 -10    0.71    0.24 
   2   0 -10    0.61    0.20 
   2   0 -10    0.70    0.20 
   2   0 -10    0.45    0.25 
   2   0 -10    1.27    0.29 
  -2   0  10    0.82    0.34 
   2   0 -10    0.59    0.18 
  -2   0  10    0.60    0.15 
  -1   0  10    0.23    0.11 
   1   0 -10    0.90    0.25 
   1   0 -10    0.40    0.22 
  -1   0  10    0.76    0.28 
   1   0 -10    0.51    0.16 
   1   0 -10    0.39    0.17 
   1   0 -10    0.47    0.17 
  -1   0  10    0.12    0.20 
  -1   0  10    0.66    0.21 
  -1   0  10    0.35    0.19 
   1   0 -10    0.74    0.23 
   0   0 -10    3.98    0.37 
   0   0 -10    3.90    0.38 
   0   0  10    3.87    0.41 
   0   0 -10    4.55    0.34 
   0   0 -10    4.36    0.36 
   0   0 -10    3.64    0.28 
   0   0  10    4.03    0.33 
   0   0 -10    4.04    0.34 
   0   0  10    3.87    0.36 
   0   0  10    3.90    0.34 
   0   0  10    4.59    0.41 
   1   0  10    0.70    0.20 
   1   0  10    1.36    0.26 
   1   0  10    1.00    0.23 
  -1   0 -10    1.12    0.16 
  -1   0 -10    0.93    0.15 
   1   0  10    1.13    0.25 
  -1   0 -10    1.26    0.30 
  -1   0 -10    1.09    0.19 
   1   0  10    1.47    0.28 
  -4  -1  10    5.13    0.40 
   4  -1 -10    5.23    0.41 
  -4  -1  10    5.96    0.41 
   4  -1 -10    5.29    0.39 
   4  -1 -10    5.29    0.43 
  -4  -1  10    5.99    0.36 
  -4  -1  10    6.00    0.33 
   4   1 -10    6.82    0.41 
   4   1 -10    6.00    0.41 
  -4   1  10    5.34    0.37 
  -4   1  10    5.33    0.33 
   4   1 -10    5.47    0.33 
   4   1 -10    6.22    0.42 
  -4   1  10    6.73    0.41 
  -4   1  10    6.15    0.41 
   3  -1 -10    3.98    0.36 
  -3  -1  10    3.63    0.41 
  -3  -1  10    3.93    0.26 
   3  -1 -10    4.23    0.37 
  -3  -1  10    4.15    0.27 
   3  -1 -10    4.28    0.39 
  -3  -1  10    4.41    0.29 
   3  -1 -10    4.12    0.40 
  -3  -1  10    4.08    0.46 
  -3  -1  10    4.63    0.31 
  -3  -1  10    4.43    0.31 
   3  -1 -10    4.67    0.46 
  -3  -1  10    4.25    0.38 
  -3   1  10    4.44    0.43 
  -3   1  10    4.59    0.40 
  -3   1  10    4.24    0.26 
  -3   1  10    4.33    0.38 
  -3   1  10    4.75    0.37 
   3   1 -10    5.06    0.41 
   3   1 -10    4.17    0.35 
   3   1 -10    4.51    0.39 
   2  -1 -10    3.59    0.43 
  -2  -1  10    4.03    0.36 
  -2  -1  10    3.74    0.33 
   2  -1 -10    3.91    0.38 
   2  -1 -10    3.51    0.38 
   2  -1 -10    3.92    0.45 
  -2  -1  10    3.64    0.32 
   2  -1 -10    3.79    0.33 
  -2  -1  10    3.76    0.34 
   2   1 -10    3.98    0.39 
   2   1 -10    3.45    0.38 
  -2   1  10    3.59    0.24 
   2   1 -10    3.74    0.42 
   2   1 -10    4.17    0.36 
  -2   1  10    6.25    0.70 
  -2   1  10    4.82    0.36 
  -2   1  10    3.70    0.32 
   2   1 -10    3.48    0.44 
  -2   1  10    3.47    0.28 
  -1  -1  10    6.29    0.50 
   1  -1 -10    7.22    0.47 
   1  -1 -10    6.84    0.55 
   1  -1 -10    7.61    0.46 
   1  -1 -10    8.25    0.55 
   1  -1 -10    7.15    0.51 
  -1  -1  10    7.42    0.52 
   1  -1 -10    7.69    0.48 
  -1  -1  10    7.60    0.51 
  -1  -1  10    7.63    0.43 
  -1   1  10    7.02    0.51 
   1   1 -10    7.49    0.52 
   1   1 -10    7.24    0.45 
  -1   1  10    7.61    0.40 
  -1   1  10    6.72    0.49 
   1   1 -10    7.03    0.47 
   1   1 -10    7.55    0.54 
  -1   1  10    8.49    0.53 
  -1   1  10    6.64    0.50 
   1   1 -10    7.55    0.50 
   0  -1  10    2.64    0.32 
   0  -1 -10    2.20    0.23 
   0  -1 -10    2.43    0.33 
   0  -1 -10    2.38    0.29 
   0  -1  10    2.57    0.28 
   0  -1  10    2.63    0.34 
   0  -1 -10    2.82    0.30 
   0  -1 -10    2.79    0.31 
   0  -1  10    2.11    0.35 
   0  -1 -10    3.17    0.44 
   0  -1  10    2.91    0.33 
   0   1  10    2.72    0.37 
   0   1 -10    2.84    0.22 
   0   1  10    2.30    0.39 
   0   1  10    2.48    0.31 
   0   1  10    2.87    0.31 
   0   1 -10    3.50    0.31 
   0   1 -10    2.23    0.28 
   0   1 -10    2.03    0.33 
   0   1  10    2.77    0.27 
   0   1 -10    2.64    0.28 
   0   1 -10    2.78    0.31 
  -1  -1 -10    5.01    0.31 
  -1  -1 -10    5.63    0.32 
   1  -1  10    4.41    0.40 
  -1  -1 -10    4.90    0.34 
   1  -1  10    5.61    0.39 
   1  -1  10    5.21    0.40 
  -1  -1 -10    4.81    0.44 
   1  -1  10    6.35    0.37 
   1  -1  10    6.05    0.38 
  -1   1 -10    5.74    0.32 
   1   1  10    5.48    0.43 
   1   1  10    4.95    0.33 
   1   1  10    5.54    0.43 
   1   1  10    5.25    0.38 
  -1   1 -10    5.22    0.30 
  -1   1 -10    6.05    0.43 
  -1   1 -10    5.32    0.29 
   1   1  10    5.53    0.38 
  -4  -2  10    4.69    0.35 
   4  -2 -10    4.88    0.34 
   4  -2 -10    4.57    0.31 
  -4  -2  10    4.82    0.27 
   4  -2 -10    4.61    0.39 
  -4  -2  10    4.89    0.36 
  -4  -2  10    4.77    0.31 
  -4   2  10    5.16    0.35 
   4   2 -10    4.92    0.37 
  -4   2  10    4.30    0.36 
   4   2 -10    5.15    0.35 
   4   2 -10    4.38    0.29 
  -4   2  10    5.14    0.33 
   4   2 -10    4.61    0.33 
  -3  -2  10    1.62    0.30 
  -3  -2  10    2.32    0.20 
  -3  -2  10    2.05    0.33 
  -3  -2  10    1.99    0.38 
  -3  -2  10    2.33    0.24 
   3  -2 -10    2.04    0.27 
  -3  -2  10    2.47    0.24 
  -3  -2  10    2.50    0.22 
   3  -2 -10    2.42    0.37 
   3  -2 -10    2.36    0.29 
   3  -2 -10    2.38    0.35 
  -3  -2  10    2.31    0.18 
   3  -2 -10    1.59    0.31 
  -3   2  10    2.55    0.35 
  -3   2  10    2.30    0.31 
  -3   2  10    2.20    0.35 
   3   2 -10    2.18    0.34 
   3   2 -10    2.34    0.29 
   3   2 -10    2.31    0.31 
   2  -2 -10    1.01    0.28 
  -2  -2  10    1.93    0.29 
  -2  -2  10    1.65    0.31 
   2  -2 -10    1.46    0.39 
   2  -2 -10    1.68    0.38 
   2  -2 -10    1.33    0.25 
  -2  -2  10    1.49    0.25 
  -2  -2  10    1.49    0.26 
   2  -2 -10    1.26    0.32 
  -2   2  10    1.19    0.26 
  -2   2  10    1.72    0.18 
   2   2 -10    1.37    0.31 
   2   2 -10    1.50    0.35 
   2   2 -10    1.22    0.35 
   2   2 -10    1.66    0.30 
  -2   2  10    1.06    0.21 
   2   2 -10    1.44    0.30 
  -2   2  10    1.33    0.13 
   2   2 -10    1.74    0.30 
  -2   2  10    1.52    0.43 
  -2   2  10    1.39    0.26 
   1  -2 -10    2.20    0.37 
   1  -2 -10    1.79    0.38 
  -1  -2  10    1.75    0.34 
   1  -2 -10    1.54    0.28 
   1  -2 -10    1.61    0.28 
   1  -2 -10    1.22    0.29 
  -1  -2  10    1.80    0.21 
   1  -2 -10    1.53    0.27 
  -1  -2  10    2.17    0.34 
  -1  -2  10    0.97    0.23 
   1   2 -10    1.46    0.22 
   1   2 -10    1.29    0.30 
  -1   2  10    1.79    0.30 
  -1   2  10    1.97    0.31 
   1   2 -10    0.88    0.22 
   1   2 -10    1.77    0.34 
  -1   2  10    1.42    0.30 
  -1   2  10    1.53    0.35 
  -1   2  10    1.13    0.22 
   1   2 -10    1.61    0.25 
  -1   2  10    1.88    0.30 
   0  -2  10   17.49    0.94 
   0  -2  10   18.23    0.94 
   0  -2 -10   17.86    0.96 
   0  -2 -10   17.28    0.98 
   0  -2 -10   18.37    0.90 
   0  -2  10   18.06    0.97 
   0  -2  10   18.88    0.92 
   0  -2 -10   18.73    0.94 
   0  -2 -10   17.55    1.03 
   0  -2  10   17.48    0.95 
   0   2  10   18.63    0.98 
   0   2 -10   18.49    0.92 
   0   2  10   18.60    0.91 
   0   2 -10   15.06    0.94 
   0   2  10   17.23    0.92 
   0   2 -10   19.34    0.93 
   0   2  10   20.38    0.99 
   0   2 -10   17.81    0.88 
   0   2 -10   20.99    1.01 
   0   2 -10   17.62    0.93 
   1  -2  10    1.48    0.30 
  -1  -2 -10    1.73    0.18 
  -1  -2 -10    1.89    0.17 
   1  -2  10    1.66    0.26 
   1  -2  10    2.12    0.26 
   1  -2  10    1.59    0.23 
  -1  -2 -10    2.02    0.21 
   1  -2  10    1.83    0.24 
  -1  -2 -10    2.19    0.40 
   1   2  10    2.00    0.23 
   1   2  10    1.75    0.26 
   1   2  10    1.94    0.25 
   1   2  10    1.30    0.24 
  -1   2 -10    1.93    0.15 
  -1   2 -10    1.91    0.20 
   1   2  10    2.00    0.30 
  -1   2 -10    1.89    0.29 
   4  -3 -10    2.79    0.26 
  -4  -3  10    2.36    0.21 
   4  -3 -10    2.24    0.21 
  -4  -3  10    1.32    0.31 
  -4  -3  10    2.26    0.18 
  -4  -3  10    3.06    0.42 
  -4  -3  10    2.57    0.27 
  -4  -3  10    2.29    0.25 
   4   3 -10    2.36    0.27 
  -4   3  10    3.27    0.28 
  -4   3  10    3.20    0.26 
  -4   3  10    2.53    0.26 
   4   3 -10    2.70    0.27 
   4   3 -10    2.55    0.26 
   3  -3 -10    0.28    0.17 
  -3  -3  10    0.28    0.11 
  -3  -3  10    0.27    0.08 
  -3  -3  10    0.34    0.20 
   3  -3 -10    0.81    0.23 
   3  -3 -10    0.49    0.19 
  -3  -3  10    0.29    0.27 
  -3  -3  10    0.09    0.13 
  -3  -3  10    0.26    0.25 
  -3  -3  10    0.38    0.10 
   3  -3 -10    0.28    0.17 
   3  -3 -10    0.30    0.18 
  -3  -3  10    0.37    0.12 
   3   3 -10    0.52    0.16 
   3   3 -10    0.24    0.15 
  -3   3  10    0.59    0.20 
  -3   3  10    0.37    0.23 
   3   3 -10    0.31    0.15 
  -3   3  10    0.26    0.20 
   2  -3 -10   10.81    0.65 
  -2  -3  10    9.33    0.56 
  -2  -3  10    9.38    0.53 
   2  -3 -10   10.58    0.64 
   2  -3 -10   10.00    0.57 
   2  -3 -10    8.92    0.62 
  -2  -3  10    8.48    0.53 
  -2  -3  10    8.99    0.54 
   2  -3 -10    8.77    0.57 
   2  -3 -10    9.26    0.54 
  -2   3  10    8.17    0.63 
  -2   3  10    9.20    0.54 
   2   3 -10    8.77    0.53 
   2   3 -10    8.91    0.55 
   2   3 -10    9.91    0.61 
   2   3 -10    9.17    0.55 
  -2   3  10    8.55    0.62 
  -2   3  10    9.74    0.52 
   2   3 -10   10.12    0.68 
  -2   3  10    9.03    0.50 
   1  -3 -10    0.30    0.16 
   1  -3 -10    0.20    0.17 
   1  -3 -10    0.08    0.19 
   1  -3 -10    0.51    0.22 
  -1  -3  10    0.26    0.17 
  -1  -3  10    0.01    0.20 
  -1  -3  10    0.27    0.19 
   1  -3 -10    0.22    0.15 
  -1  -3  10    0.35    0.12 
  -1   3  10    0.55    0.25 
  -1   3  10    0.28    0.09 
  -1   3  10    0.41    0.14 
   1   3 -10    0.25    0.18 
   1   3 -10    0.31    0.18 
   1   3 -10    0.62    0.17 
  -1   3  10    0.43    0.18 
   1   3 -10    0.41    0.18 
   1   3 -10    0.60    0.32 
  -1   3  10    0.36    0.16 
  -1   3  10    0.34    0.16 
   0  -3  10    2.92    0.37 
   0  -3  10    3.99    0.54 
   0  -3  10    2.81    0.29 
   0  -3 -10    3.23    0.30 
   0  -3  10    2.96    0.31 
   0  -3 -10    2.57    0.31 
   0  -3 -10    2.90    0.35 
   0  -3 -10    3.41    0.32 
   0  -3  10    2.82    0.26 
   0  -3 -10    3.14    0.35 
   0  -3 -10    2.52    0.22 
   0   3 -10    2.79    0.26 
   0   3  10    2.66    0.32 
   0   3  10    2.71    0.34 
   0   3 -10    3.03    0.20 
   0   3  10    3.56    0.40 
   0   3  10    3.01    0.33 
   0   3 -10    2.77    0.25 
   0   3  10    2.72    0.36 
   0   3  10    3.05    0.23 
   0   3 -10    3.11    0.29 
   1  -3  10    0.21    0.15 
  -1  -3 -10    0.36    0.12 
   1  -3  10    0.36    0.16 
   1   3  10    0.61    0.19 
   1   3  10    0.19    0.18 
  -1   3 -10    0.08    0.18 
  -3  -4  10   -0.16    0.21 
  -3  -4  10    0.17    0.10 
  -3  -4  10    0.30    0.21 
  -3  -4  10    0.14    0.23 
   3  -4 -10    0.25    0.15 
  -3  -4  10    0.03    0.09 
   3  -4 -10    0.03    0.15 
   3  -4 -10    0.11    0.11 
  -3  -4  10    0.16    0.06 
  -3  -4  10    0.12    0.12 
   3  -4 -10    0.04    0.15 
  -3   4  10    0.38    0.18 
  -3   4  10    0.01    0.16 
   3   4 -10    0.07    0.18 
   3   4 -10    0.19    0.14 
   3   4 -10    0.00    0.13 
   3   4 -10    0.17    0.14 
  -3   4  10    0.33    0.19 
   3   4 -10    0.14    0.19 
  -2  -4  10    3.03    0.30 
   2  -4 -10    3.27    0.38 
  -2  -4  10    3.06    0.32 
  -2  -4  10    3.13    0.27 
   2  -4 -10    2.88    0.28 
  -2  -4  10    3.10    0.27 
   2  -4 -10    3.00    0.38 
   2  -4 -10    3.20    0.31 
   2  -4 -10    2.64    0.33 
   2  -4 -10    3.48    0.34 
  -2   4  10    3.23    0.41 
   2   4 -10    3.50    0.36 
   2   4 -10    3.27    0.28 
   2   4 -10    3.35    0.29 
   2   4 -10    3.34    0.30 
  -2   4  10    3.34    0.24 
  -2   4  10    3.14    0.27 
  -2   4  10    3.27    0.24 
  -2   4  10    3.47    0.42 
  -2   4  10    3.31    0.36 
  -1  -4  10    1.84    0.29 
   1  -4 -10    1.95    0.24 
  -1  -4  10    1.76    0.29 
   1  -4 -10    1.30    0.25 
   1  -4 -10    1.60    0.24 
   1  -4 -10    1.91    0.32 
  -1  -4  10    1.64    0.31 
  -1  -4  10    2.02    0.19 
  -1   4  10    1.61    0.38 
   1   4 -10    1.90    0.28 
   1   4 -10    2.02    0.28 
   1   4 -10    1.79    0.27 
  -1   4  10    1.74    0.17 
  -1   4  10    1.28    0.21 
  -1   4  10    1.50    0.36 
  -1   4  10    1.98    0.29 
  -1   4  10    1.67    0.24 
   1   4 -10    1.69    0.22 
   0  -4 -10    2.38    0.32 
   0  -4 -10    2.55    0.27 
   0  -4 -10    2.21    0.28 
   0  -4  10    2.79    0.27 
   0  -4 -10    2.43    0.19 
   0  -4  10    2.23    0.32 
   0  -4  10    2.47    0.24 
   0  -4  10    2.57    0.27 
   0  -4 -10    2.22    0.26 
   0  -4 -10    2.03    0.27 
   0   4 -10    2.53    0.22 
   0   4  10    3.01    0.34 
   0   4 -10    2.74    0.26 
   0   4  10    2.71    0.29 
   0   4  10    2.03    0.28 
   0   4  10    2.47    0.28 
   0   4 -10    2.37    0.22 
  -3  -5  10    8.63    0.51 
   3  -5 -10    7.12    0.45 
  -3  -5  10    6.57    0.39 
   3  -5 -10    7.83    0.43 
  -3  -5  10    6.96    0.38 
   3  -5 -10    6.45    0.45 
  -3  -5  10    6.93    0.37 
  -3  -5  10    6.39    0.49 
  -3   5  10    7.23    0.40 
  -3   5  10    7.43    0.44 
   3   5 -10    7.29    0.42 
  -3   5  10    7.86    0.44 
   3   5 -10    7.22    0.42 
   3   5 -10    6.61    0.41 
  -2  -5  10    0.66    0.21 
  -2  -5  10    0.84    0.20 
   2  -5 -10    0.94    0.29 
   2  -5 -10    0.38    0.17 
   2  -5 -10    0.34    0.16 
   2  -5 -10    0.87    0.24 
  -2  -5  10    0.24    0.12 
   2  -5 -10    0.53    0.14 
   2  -5 -10    0.30    0.17 
  -2  -5  10    0.59    0.15 
  -2  -5  10    0.40    0.15 
  -2   5  10    0.68    0.22 
   2   5 -10    0.66    0.16 
   2   5 -10    0.42    0.12 
   2   5 -10    0.35    0.11 
   2   5 -10    0.36    0.16 
  -2   5  10    0.56    0.23 
  -2   5  10    0.36    0.11 
  -2   5  10    0.56    0.20 
  -2   5  10    0.55    0.19 
   1  -5 -10    6.10    0.36 
  -1  -5  10    6.61    0.40 
  -1  -5  10    4.66    0.41 
   1  -5 -10    5.20    0.35 
   1  -5 -10    5.34    0.37 
   1  -5 -10    5.35    0.42 
  -1  -5  10    5.24    0.41 
   1  -5 -10    5.92    0.44 
   1   5 -10    6.27    0.38 
   1   5 -10    6.28    0.38 
  -1   5  10    5.17    0.35 
  -1   5  10    6.50    0.44 
  -1   5  10    5.66    0.36 
   1   5 -10    5.56    0.35 
   1   5 -10    5.63    0.31 
   1   5 -10    6.19    0.37 
  -1   5  10    5.44    0.46 
   0  -5  10    0.63    0.17 
   0  -5  10    0.89    0.25 
   0  -5 -10    0.77    0.15 
   0  -5  10    0.76    0.15 
   0   5  10    0.63    0.14 
   0   5  10    1.32    0.27 
   0   5 -10    0.49    0.10 
   0   5 -10    0.62    0.13 
   0   5 -10    0.50    0.12 
   0   5  10    0.76    0.22 
   0   5  10    0.81    0.27 
   0   0   0    0.00    0.00 
;
_shelx_hkl_checksum              33088
loop_
_space_group_symop_operation_xyz
'x, y, z'
'-x, y+1/2, -z'
loop_
_atom_site_label
_atom_site_type_symbol
_atom_site_fract_x
_atom_site_fract_y
_atom_site_fract_z
_atom_site_U_iso_or_equiv
_atom_site_adp_type
_atom_site_occupancy
_atom_site_site_symmetry_order
_atom_site_calc_flag
_atom_site_refinement_flags_posn
_atom_site_refinement_flags_adp
C1 C 0.2090(3) 0.43617(14) 0.6321(2) 0.0167(4) Uani 1 1 d . .
C2 C 0.3957(3) 0.48519(15) 0.5721(2) 0.0198(4) Uani 1 1 d . .
C3 C 0.1238(4) 0.45344(18) 0.3605(2) 0.0293(5) Uani 1 1 d . .
C4 C 0.0210(3) 0.42799(16) 0.4889(2) 0.0208(4) Uani 1 1 d . .
H4A H -0.0436 0.3518 0.4785 0.025 Uiso 1 1 calc R U
H4B H -0.0966 0.4828 0.4929 0.025 Uiso 1 1 calc R U
C5 C 0.2844(3) 0.31940(15) 0.7018(2) 0.0193(4) Uani 1 1 d . .
H5 H 0.4219 0.3311 0.7821 0.023 Uiso 1 1 calc R U
C6 C 0.1002(3) 0.29193(15) 0.7800(2) 0.0216(4) Uani 1 1 d . .
H6A H 0.1445 0.2309 0.8544 0.026 Uiso 1 1 calc R U
H6B H -0.0354 0.2693 0.7060 0.026 Uiso 1 1 calc R U
C7 C 0.0649(3) 0.40148(16) 0.8581(2) 0.0217(4) Uani 1 1 d . .
H7A H 0.1592 0.4037 0.9616 0.026 Uiso 1 1 calc R U
H7B H -0.0909 0.4086 0.8641 0.026 Uiso 1 1 calc R U
C8 C 0.1282(3) 0.49826(15) 0.76073(19) 0.0168(4) Uani 1 1 d . .
H8 H -0.0130 0.5362 0.7112 0.020 Uiso 1 1 calc R U
C9 C 0.3340(3) 0.22994(17) 0.5946(2) 0.0265(4) Uani 1 1 d . .
H9A H 0.3805 0.1607 0.6508 0.040 Uiso 1 1 calc R U
H9B H 0.4520 0.2563 0.5486 0.040 Uiso 1 1 calc R U
H9C H 0.2011 0.2154 0.5154 0.040 Uiso 1 1 calc R U
C10 C 0.2761(3) 0.58983(15) 0.8531(2) 0.0191(4) Uani 1 1 d . .
C11 C 0.4914(3) 0.54751(17) 0.9573(2) 0.0263(4) Uani 1 1 d . .
H11A H 0.5820 0.5109 0.8967 0.039 Uiso 1 1 calc R U
H11B H 0.4568 0.4936 1.0297 0.039 Uiso 1 1 calc R U
H11C H 0.5724 0.6110 1.0119 0.039 Uiso 1 1 calc R U
C12 C 0.1390(4) 0.64857(18) 0.9532(2) 0.0282(4) Uani 1 1 d . .
H12A H 0.2281 0.7074 1.0134 0.042 Uiso 1 1 calc R U
H12B H 0.0958 0.5933 1.0206 0.042 Uiso 1 1 calc R U
H12C H 0.0067 0.6820 0.8888 0.042 Uiso 1 1 calc R U
C13 C 0.3167(3) 0.68162(16) 0.7453(2) 0.0204(4) Uani 1 1 d . .
C14 C 0.4842(4) 0.77106(18) 0.8034(3) 0.0333(5) Uani 1 1 d . .
H14A H 0.6305 0.7448 0.7969 0.050 Uiso 1 1 calc R U
H14B H 0.4847 0.7877 0.9088 0.050 Uiso 1 1 calc R U
H14C H 0.4468 0.8391 0.7425 0.050 Uiso 1 1 calc R U
O1 O 0.3389(2) 0.48900(13) 0.41556(15) 0.0281(3) Uani 1 1 d . .
O2 O 0.5770(2) 0.51081(11) 0.63656(16) 0.0271(3) Uani 1 1 d . .
O3 O 0.0493(3) 0.44696(19) 0.22849(18) 0.0520(5) Uani 1 1 d . .
O4 O 0.2122(2) 0.68437(11) 0.61503(14) 0.0231(3) Uani 1 1 d . .
loop_
_atom_site_aniso_label
_atom_site_aniso_U_11
_atom_site_aniso_U_22
_atom_site_aniso_U_33
_atom_site_aniso_U_23
_atom_site_aniso_U_13
_atom_site_aniso_U_12
C1 0.0167(9) 0.0147(8) 0.0189(9) -0.0004(6) 0.0046(7) 0.0000(6)
C2 0.0206(10) 0.0156(8) 0.0260(9) -0.0015(7) 0.0114(7) 0.0022(7)
C3 0.0368(12) 0.0277(10) 0.0238(10) -0.0011(8) 0.0077(8) -0.0041(8)
C4 0.0218(9) 0.0201(9) 0.0194(9) -0.0003(7) 0.0023(7) -0.0006(7)
C5 0.0187(9) 0.0179(9) 0.0216(9) 0.0012(7) 0.0053(7) 0.0018(7)
C6 0.0231(10) 0.0196(9) 0.0231(9) 0.0045(7) 0.0072(7) -0.0003(7)
C7 0.0208(9) 0.0235(9) 0.0226(9) 0.0033(8) 0.0090(7) 0.0000(7)
C8 0.0140(8) 0.0186(8) 0.0186(8) -0.0004(7) 0.0051(6) 0.0020(7)
C9 0.0290(11) 0.0208(9) 0.0320(11) -0.0024(8) 0.0116(8) 0.0042(8)
C10 0.0201(9) 0.0189(9) 0.0181(9) -0.0026(7) 0.0041(7) 0.0013(7)
C11 0.0264(10) 0.0248(9) 0.0240(9) -0.0013(8) -0.0020(7) -0.0011(8)
C12 0.0339(11) 0.0260(10) 0.0267(10) -0.0054(8) 0.0113(8) 0.0037(8)
C13 0.0201(9) 0.0181(8) 0.0231(9) -0.0033(7) 0.0051(7) 0.0032(7)
C14 0.0386(13) 0.0260(11) 0.0321(11) -0.0008(9) 0.0018(9) -0.0097(9)
O1 0.0347(8) 0.0297(7) 0.0245(7) -0.0021(6) 0.0162(6) -0.0072(6)
O2 0.0186(7) 0.0274(8) 0.0371(8) -0.0015(6) 0.0101(6) -0.0017(5)
O3 0.0636(12) 0.0727(13) 0.0180(8) 0.0001(8) 0.0060(7) -0.0185(10)
O4 0.0246(7) 0.0199(6) 0.0234(7) 0.0025(5) 0.0028(5) 0.0024(5)
loop_
_atom_type_symbol
_atom_type_description
_atom_type_scat_dispersion_real
_atom_type_scat_dispersion_imag
_atom_type_scat_source
C C 0.0181 0.0091 'International Tables Vol C Tables 4.2.6.8 and 6.1.1.4'
H H 0.0000 0.0000 'International Tables Vol C Tables 4.2.6.8 and 6.1.1.4'
O O 0.0492 0.0322 'International Tables Vol C Tables 4.2.6.8 and 6.1.1.4'
loop_
_geom_angle_atom_site_label_1
_geom_angle_atom_site_label_2
_geom_angle_atom_site_label_3
_geom_angle
C2 C1 C4 102.50(15)
C2 C1 C5 107.91(14)
C4 C1 C5 112.78(14)
C2 C1 C8 119.75(15)
C4 C1 C8 110.48(14)
C5 C1 C8 103.70(14)
O2 C2 O1 119.15(16)
O2 C2 C1 130.13(17)
O1 C2 C1 110.45(15)
O3 C3 O1 120.3(2)
O3 C3 C4 130.1(2)
O1 C3 C4 109.58(16)
C3 C4 C1 105.68(16)
C3 C4 H4A 110.6
C1 C4 H4A 110.6
C3 C4 H4B 110.6
C1 C4 H4B 110.6
H4A C4 H4B 108.7
C6 C5 C9 115.89(16)
C6 C5 C1 101.18(14)
C9 C5 C1 116.80(15)
C6 C5 H5 107.5
C9 C5 H5 107.5
C1 C5 H5 107.5
C5 C6 C7 103.90(15)
C5 C6 H6A 111.0
C7 C6 H6A 111.0
C5 C6 H6B 111.0
C7 C6 H6B 111.0
H6A C6 H6B 109.0
C6 C7 C8 106.55(14)
C6 C7 H7A 110.4
C8 C7 H7A 110.4
C6 C7 H7B 110.4
C8 C7 H7B 110.4
H7A C7 H7B 108.6
C10 C8 C7 114.21(14)
C10 C8 C1 119.12(14)
C7 C8 C1 104.10(14)
C10 C8 H8 106.2
C7 C8 H8 106.2
C1 C8 H8 106.2
C5 C9 H9A 109.5
C5 C9 H9B 109.5
H9A C9 H9B 109.5
C5 C9 H9C 109.5
H9A C9 H9C 109.5
H9B C9 H9C 109.5
C13 C10 C11 112.34(15)
C13 C10 C8 108.77(14)
C11 C10 C8 115.43(15)
C13 C10 C12 104.47(15)
C11 C10 C12 107.82(15)
C8 C10 C12 107.31(15)
C10 C11 H11A 109.5
C10 C11 H11B 109.5
H11A C11 H11B 109.5
C10 C11 H11C 109.5
H11A C11 H11C 109.5
H11B C11 H11C 109.5
C10 C12 H12A 109.5
C10 C12 H12B 109.5
H12A C12 H12B 109.5
C10 C12 H12C 109.5
H12A C12 H12C 109.5
H12B C12 H12C 109.5
O4 C13 C14 119.82(18)
O4 C13 C10 121.02(17)
C14 C13 C10 119.14(16)
C13 C14 H14A 109.5
C13 C14 H14B 109.5
H14A C14 H14B 109.5
C13 C14 H14C 109.5
H14A C14 H14C 109.5
H14B C14 H14C 109.5
C3 O1 C2 110.90(14)
loop_
_geom_bond_atom_site_label_1
_geom_bond_atom_site_label_2
_geom_bond_distance
C1 C2 1.515(2)
C1 C4 1.543(3)
C1 C5 1.558(2)
C1 C8 1.566(2)
C2 O2 1.187(2)
C2 O1 1.389(2)
C3 O3 1.188(3)
C3 O1 1.386(3)
C3 C4 1.490(3)
C4 H4A 0.9900
C4 H4B 0.9900
C5 C6 1.522(3)
C5 C9 1.526(3)
C5 H5 1.0000
C6 C7 1.528(3)
C6 H6A 0.9900
C6 H6B 0.9900
C7 C8 1.562(2)
C7 H7A 0.9900
C7 H7B 0.9900
C8 C10 1.547(2)
C8 H8 1.0000
C9 H9A 0.9800
C9 H9B 0.9800
C9 H9C 0.9800
C10 C13 1.531(3)
C10 C11 1.539(3)
C10 C12 1.555(3)
C11 H11A 0.9800
C11 H11B 0.9800
C11 H11C 0.9800
C12 H12A 0.9800
C12 H12B 0.9800
C12 H12C 0.9800
C13 O4 1.216(2)
C13 C14 1.501(3)
C14 H14A 0.9800
C14 H14B 0.9800
C14 H14C 0.9800
