#------------------------------------------------------------------------------
#$Date: 2019-11-03 13:26:01 +0200 (Sun, 03 Nov 2019) $
#$Revision: 221517 $
#$URL: file:///home/coder/svn-repositories/cod/cif/4/12/83/4128396.cif $
#------------------------------------------------------------------------------
#
# This file is available in the Crystallography Open Database (COD),
# http://www.crystallography.net/
#
# All data on this site have been placed in the public domain by the
# contributors.
#
data_4128396
loop_
_publ_author_name
'Ozols, Kristers'
'Jang, Yun-Suk'
'Cramer, Nicolai'
_publ_section_title
;
 Chiral Cyclopentadienyl Cobalt(III) Complexes Enable Highly
 Enantioselective 3d-Metal-Catalyzed C-H Functionalizations.
;
_journal_issue                   14
_journal_name_full               'Journal of the American Chemical Society'
_journal_page_first              5675
_journal_page_last               5680
_journal_paper_doi               10.1021/jacs.9b02569
_journal_volume                  141
_journal_year                    2019
_chemical_formula_moiety         'C11 H15 Co I2 O'
_chemical_formula_sum            'C11 H15 Co I2 O'
_chemical_formula_weight         475.96
_space_group_crystal_system      monoclinic
_space_group_IT_number           11
_space_group_name_Hall           '-P 2yb'
_space_group_name_H-M_alt        'P 1 21/m 1'
_atom_sites_solution_hydrogens   mixed
_atom_sites_solution_primary     dual
_atom_sites_solution_secondary   difmap
_audit_creation_date             2019-01-29
_audit_creation_method
;
Olex2 1.2
(compiled 2018.05.29 svn.r3508 for OlexSys, GUI svn.r5506)
;
_cell_angle_alpha                90
_cell_angle_beta                 112.29(2)
_cell_angle_gamma                90
_cell_formula_units_Z            2
_cell_length_a                   7.0976(12)
_cell_length_b                   12.673(3)
_cell_length_c                   8.5700(15)
_cell_measurement_reflns_used    1695
_cell_measurement_temperature    140.00(10)
_cell_measurement_theta_max      72.3140
_cell_measurement_theta_min      5.5360
_cell_volume                     713.3(3)
_computing_cell_refinement       'CrysAlisPro 1.171.40.20a (Rigaku OD, 2018)'
_computing_data_collection       'CrysAlisPro 1.171.40.20a (Rigaku OD, 2018)'
_computing_data_reduction        'CrysAlisPro 1.171.40.20a (Rigaku OD, 2018)'
_computing_molecular_graphics    'Olex2 (Dolomanov et al., 2009)'
_computing_publication_material  'Olex2 (Dolomanov et al., 2009)'
_computing_structure_refinement  'ShelXL (Sheldrick, 2015)'
_computing_structure_solution    'ShelXT (Sheldrick, 2015)'
_diffrn_ambient_environment      N~2~
_diffrn_ambient_temperature      140.00(10)
_diffrn_detector                 'CCD plate'
_diffrn_detector_area_resol_mean 10.2665
_diffrn_detector_type            Atlas
_diffrn_measured_fraction_theta_full 0.996
_diffrn_measured_fraction_theta_max 0.996
_diffrn_measurement_details
;
List of Runs (angles in degrees, time in seconds):

  # Type    Start    End  Width  t~exp~   \w     \q     \k     \f   Frames
--------------------------------------------------------------------------
  1  \w   -120.00 -89.00   1.00    2.50    --  -42.76 -99.00-180.00   31
  2  \w   -121.00 -87.00   1.00    2.50    --  -42.76 -99.00 120.00   34
  3  \w   -114.00 -17.00   1.00    2.50    --  -42.76 -57.00  30.00   97
  4  \w    -66.00  23.00   1.00    2.50    --  -42.76  57.00-180.00   89
  5  \w     30.00  80.00   1.00    2.50    --   42.76-125.00 -30.00   50
  6  \w     63.00 134.00   1.00   10.00    --  105.68 -30.00  30.00   71
  7  \w     25.00 106.00   1.00   10.00    --  105.68 -94.00 -90.00   81
  8  \w     86.00 113.00   1.00   10.00    --  105.68-125.00-120.00   27
  9  \w     71.00 109.00   1.00   10.00    --  105.68 -94.00   0.00   38
 10  \w     38.00  69.00   1.00   10.00    --  105.68 -94.00   0.00   31
 11  \w     43.00  81.00   1.00   10.00    --  105.68-125.00-150.00   38
 12  \w     78.00 109.00   1.00   10.00    --  105.68-127.00 179.00   31
 13  \w     84.00 164.00   1.00   10.00    --  105.68  30.00  90.00   80
 14  \w    105.00 164.00   1.00   10.00    --  105.68 125.00 -30.00   59
 15  \w     86.00 176.00   1.00   10.00    --  105.68  30.00  30.00   90
 16  \w     38.00 130.00   1.00   10.00    --  105.68 -61.00   0.00   92
 17  \w     57.00 126.00   1.00   10.00    --  105.68 -30.00-150.00   69
;
_diffrn_measurement_device       'four-circle diffractometer'
_diffrn_measurement_device_type  'SuperNova, Dual, Cu at home/near, Atlas'
_diffrn_measurement_method       '\w scans'
_diffrn_orient_matrix_type
'CrysAlisPro convention (1999,Acta A55,543-557)'
_diffrn_orient_matrix_UB_11      -0.0373011000
_diffrn_orient_matrix_UB_12      -0.0967448000
_diffrn_orient_matrix_UB_13      -0.1169672000
_diffrn_orient_matrix_UB_21      0.0696966000
_diffrn_orient_matrix_UB_22      -0.0732102000
_diffrn_orient_matrix_UB_23      0.1547627000
_diffrn_orient_matrix_UB_31      -0.2208102000
_diffrn_orient_matrix_UB_32      -0.0067092000
_diffrn_orient_matrix_UB_33      -0.0091528000
_diffrn_radiation_monochromator  mirror
_diffrn_radiation_probe          x-ray
_diffrn_radiation_type           CuK\a
_diffrn_radiation_wavelength     1.54184
_diffrn_reflns_av_R_equivalents  0.0510
_diffrn_reflns_av_unetI/netI     0.0447
_diffrn_reflns_Laue_measured_fraction_full 0.996
_diffrn_reflns_Laue_measured_fraction_max 0.996
_diffrn_reflns_limit_h_max       5
_diffrn_reflns_limit_h_min       -8
_diffrn_reflns_limit_k_max       15
_diffrn_reflns_limit_k_min       -14
_diffrn_reflns_limit_l_max       10
_diffrn_reflns_limit_l_min       -9
_diffrn_reflns_number            3909
_diffrn_reflns_point_group_measured_fraction_full 0.996
_diffrn_reflns_point_group_measured_fraction_max 0.996
_diffrn_reflns_theta_full        66.581
_diffrn_reflns_theta_max         66.581
_diffrn_reflns_theta_min         5.579
_diffrn_source                   'micro-focus sealed X-ray tube'
_diffrn_source_type              'SuperNova (Cu) X-ray Source'
_exptl_absorpt_coefficient_mu    43.211
_exptl_absorpt_correction_T_max  0.438
_exptl_absorpt_correction_T_min  0.007
_exptl_absorpt_correction_type   gaussian
_exptl_absorpt_process_details
;
CrysAlisPro 1.171.40.20a (Rigaku Oxford Diffraction, 2018).
 Numerical absorption correction based on Gaussian integration over
 a multifaceted crystal model/Empirical absorption correction using
 spherical harmonics as implemented in SCALE3 ABSPACK scaling algorithm.
;
_exptl_crystal_colour            black
_exptl_crystal_density_diffrn    2.216
_exptl_crystal_description       needle
_exptl_crystal_F_000             444
_exptl_crystal_size_max          0.529
_exptl_crystal_size_mid          0.067
_exptl_crystal_size_min          0.048
_refine_diff_density_max         1.970
_refine_diff_density_min         -1.813
_refine_diff_density_rms         0.187
_refine_ls_extinction_method     none
_refine_ls_goodness_of_fit_ref   1.057
_refine_ls_hydrogen_treatment    mixed
_refine_ls_matrix_type           full
_refine_ls_number_parameters     83
_refine_ls_number_reflns         1321
_refine_ls_number_restraints     6
_refine_ls_restrained_S_all      1.057
_refine_ls_R_factor_all          0.0824
_refine_ls_R_factor_gt           0.0758
_refine_ls_shift/su_max          0.000
_refine_ls_shift/su_mean         0.000
_refine_ls_structure_factor_coef Fsqd
_refine_ls_weighting_details
'w=1/[\s^2^(Fo^2^)+(0.0638P)^2^+12.0436P] where P=(Fo^2^+2Fc^2^)/3'
_refine_ls_weighting_scheme      calc
_refine_ls_wR_factor_gt          0.1814
_refine_ls_wR_factor_ref         0.1863
_reflns_Friedel_coverage         0.000
_reflns_number_gt                1144
_reflns_number_total             1321
_reflns_threshold_expression     'I > 2\s(I)'
_iucr_refine_instructions_details
;
TITL koz-01-025ne_a.res in P2(1)/m
    koz-01-025.res
    created by SHELXL-2018/3 at 11:00:01 on 29-Jan-2019
CELL 1.54184 7.097601 12.67322 8.570039 90 112.2927 90
ZERR 2 0.001169 0.002559 0.001541 0 0.0208 0
LATT 1
SYMM -X,0.5+Y,-Z
SFAC C H Co I O
UNIT 22 30 2 4 2
EQIV $1 +X,0.5-Y,+Z
DFIX 1.15 O1 C7
DFIX 1.9 Co1 C7
DFIX 1.568 H4b H4a H4a H4a_$1
DFIX 0.98 C4 H4b C4 H4a
EADP I2 O1
EADP I2 C7

L.S. 20
PLAN  10
TEMP -133.15
BOND $H
CONF
fmap 2
acta
SHEL 999 0.84
REM <olex2.extras>
REM <HklSrc "%.\\KOZ-01-025.hkl">
REM </olex2.extras>

WGHT    0.063800   12.043600
FVAR       5.00229
I1    4    0.261589    0.250000    0.504997    10.50000    0.03433    0.10235 =
         0.06597    0.00000    0.02176    0.00000
PART 1
I2    4    0.191305    0.122749    0.090320    10.50000    0.03964    0.08232 =
         0.07163   -0.01806    0.01040   -0.00734
PART 0
CO1   3    0.442109    0.250000    0.294753    10.50000    0.02598    0.06592 =
         0.05001    0.00000    0.00814    0.00000
PART 2
O1    5    0.195309    0.072776    0.095797    10.50000    0.03964    0.08232 =
         0.07163   -0.01806    0.01040   -0.00734
PART 0
C1    1    0.673708    0.250000    0.202100    10.50000    0.03111    0.10613 =
         0.05565    0.00000    0.02034    0.00000
C2    1    0.695788    0.339475    0.306880    11.00000    0.02597    0.07025 =
         0.08066    0.00234    0.01405   -0.00607
C3    1    0.722602    0.306752    0.470899    11.00000    0.02001    0.10146 =
         0.06003   -0.01016    0.01258   -0.00403
C4    1    0.645295    0.250000    0.021106    10.50000    0.05140    0.17631 =
         0.07608    0.00000    0.02820    0.00000
C5    1    0.711988    0.452321    0.261183    11.00000    0.04872    0.07708 =
         0.16289    0.01208    0.03281   -0.00529
AFIX 137
H5A   2    0.649031    0.460571    0.138448    11.00000   -1.50000
H5B   2    0.855795    0.472607    0.300617    11.00000   -1.50000
H5C   2    0.641732    0.497577    0.314604    11.00000   -1.50000
AFIX   0
C6    1    0.763408    0.375245    0.622118    11.00000    0.05169    0.16553 =
         0.07815   -0.06589    0.01640   -0.03154
AFIX 137
H6A   2    0.908499    0.372073    0.694026    11.00000   -1.50000
H6B   2    0.682751    0.350369    0.685677    11.00000   -1.50000
H6C   2    0.725740    0.448221    0.585841    11.00000   -1.50000
AFIX   0
PART 2
C7    1    0.267405    0.142618    0.176036    10.50000    0.03964    0.08232 =
         0.07163   -0.01806    0.01040   -0.00734
PART 0
H4A   2    0.574436    0.188180   -0.043023    11.00000   -1.50000
H4B   2    0.781460    0.250000    0.017458    10.50000   -1.50000
HKLF 4




REM  koz-01-025ne_a.res in P2(1)/m
REM wR2 = 0.1863, GooF = S = 1.057, Restrained GooF = 1.057 for all data
REM R1 = 0.0758 for 1144 Fo > 4sig(Fo) and 0.0824 for all 1321 data
REM 83 parameters refined using 6 restraints

END  
     
WGHT      0.0638     12.0435 

REM Highest difference peak  1.970,  deepest hole -1.813,  1-sigma level  0.187
Q1    1   0.2803  0.2500  0.6139  10.50000  0.05    1.97
Q2    1   0.2592  0.2500  0.3988  10.50000  0.05    1.57
Q3    1   0.1537  0.1180  0.1896  11.00000  0.05    1.54
Q4    1   0.2442  0.1840  0.4934  11.00000  0.05    1.37
Q5    1   0.3651  0.2500  0.5180  10.50000  0.05    1.10
Q6    1   0.3197  0.2500  0.3033  10.50000  0.05    1.00
Q7    1   0.1950  0.1942  0.0807  11.00000  0.05    0.97
Q8    1   0.4392  0.2500  0.3995  10.50000  0.05    0.89
Q9    1  -0.0147  0.2500  0.3347  10.50000  0.05    0.75
Q10   1   0.4295  0.2500  0.1852  10.50000  0.05    0.73

  REM The information below was added by Olex2.
  REM
  REM R1 = 0.0758 for 1144 Fo > 4sig(Fo) and 0.0824 for all 4182 data
  REM n/a parameters refined using n/a restraints
  REM Highest difference peak 1.97, deepest hole -1.81
  REM Mean Shift 0, Max Shift 0.000.

  REM +++ Tabular Listing of Refinement Information +++
  REM R1_all = 0.0824
  REM R1_gt = 0.0758
  REM wR_ref = 0.1863
  REM GOOF = 1.057
  REM Shift_max = 0.000
  REM Shift_mean = 0
  REM Reflections_all = 4182
  REM Reflections_gt = 1144
  REM Parameters = n/a
  REM Hole = -1.81
  REM Peak = 1.97
  REM Flack = n/a

  
;
_cod_data_source_file            ja9b02569_si_006.cif
_cod_data_source_block           koz-01-025
_cod_depositor_comments
;
The following automatic conversions were performed:

data item '_exptl_absorpt_correction_type' value 'Gaussian' was
changed to 'gaussian' in accordance with the
/home/data/users/saulius/crontab/automatic-downloads/current/ACS/lib/dictionaries/cif_core.dic
dictionary named 'cif_core.dic' version 2.4.2 last updated on
2011-04-26.

Automatic conversion script
Id: cif_fix_values 6909 2019-04-08 15:41:33Z antanas 
;
_cod_original_cell_volume        713.3(2)
_cod_database_code               4128396
_shelx_shelxl_version_number     2018/3
_audit_contact_author            'Farzaneh Fadaei Tirani'
_chemical_oxdiff_formula         'C11 H15 O1 Co I2'
_shelx_space_group_comment
;
The symmetry employed for this shelxl refinement is uniquely defined
by the following loop, which should always be used as a source of
symmetry information in preference to the above space-group names.
They are only intended as comments.
;
_reflns_odcompleteness_completeness 99.55
_reflns_odcompleteness_iscentric 1
_reflns_odcompleteness_theta     66.97
_olex2_refinement_description
;
1. Fixed Uiso
 At 1.5 times of:
  All C(H,H) groups, All C(H,H,H) groups
2. Restrained distances
 O1-C7
 1.15 with sigma of 0.02
 Co1-C7
 1.9 with sigma of 0.02
 H4B-H4A = H4A-H4A_$1
 1.568 with sigma of 0.02
 C4-H4B = C4-H4A
 0.98 with sigma of 0.02
3. Uiso/Uaniso restraints and constraints
Uanis(I2) = Uanis(O1)
Uanis(I2) = Uanis(C7)
4. Others
 Fixed Sof: I2(0.5) O1(0.5) C7(0.5)
5.a Idealised Me refined as rotating group:
 C5(H5A,H5B,H5C), C6(H6A,H6B,H6C)
;
_olex2_submission_special_instructions 'No special instructions were received'
_oxdiff_exptl_absorpt_empirical_details
;
Empirical correction (ABSPACK) includes:
- Absorption correction using spherical harmonics
- Frame scaling
- Detector area scaling
- B-factor correction
;
_oxdiff_exptl_absorpt_empirical_full_max 2.987
_oxdiff_exptl_absorpt_empirical_full_min 0.426
loop_
_space_group_symop_operation_xyz
'x, y, z'
'-x, y+1/2, -z'
'-x, -y, -z'
'x, -y-1/2, z'
loop_
_atom_site_label
_atom_site_type_symbol
_atom_site_fract_x
_atom_site_fract_y
_atom_site_fract_z
_atom_site_U_iso_or_equiv
_atom_site_adp_type
_atom_site_occupancy
_atom_site_site_symmetry_order
_atom_site_calc_flag
_atom_site_refinement_flags_posn
_atom_site_refinement_flags_adp
_atom_site_refinement_flags_occupancy
_atom_site_disorder_assembly
_atom_site_disorder_group
I1 I 0.26159(16) 0.250000 0.50500(16) 0.0667(5) Uani 1 2 d S T P A .
I2 I 0.1913(3) 0.12275(18) 0.0903(3) 0.0677(6) Uani 0.5 1 d . . . A 1
Co1 Co 0.4421(3) 0.250000 0.2948(3) 0.0492(7) Uani 1 2 d DS T P A .
O1 O 0.195(4) 0.0728(18) 0.096(3) 0.0677(6) Uani 0.5 1 d D . . A 2
C1 C 0.674(3) 0.250000 0.202(2) 0.063(5) Uani 1 2 d S T P A .
C2 C 0.6958(17) 0.3395(12) 0.3069(18) 0.061(3) Uani 1 1 d . . . . .
C3 C 0.7226(15) 0.3068(12) 0.4709(16) 0.061(4) Uani 1 1 d . . . . .
C4 C 0.645(4) 0.250000 0.021(3) 0.100(10) Uani 1 2 d DS T P . .
C5 C 0.712(2) 0.4523(14) 0.261(3) 0.098(6) Uani 1 1 d . . . . .
H5A H 0.649031 0.460571 0.138448 0.148 Uiso 1 1 calc GR . . . .
H5B H 0.855795 0.472607 0.300617 0.148 Uiso 1 1 calc GR . . . .
H5C H 0.641732 0.497577 0.314604 0.148 Uiso 1 1 calc GR . . . .
C6 C 0.763(2) 0.3752(18) 0.622(2) 0.101(7) Uani 1 1 d . . . . .
H6A H 0.908499 0.372073 0.694026 0.151 Uiso 1 1 calc GR . . . .
H6B H 0.682751 0.350369 0.685677 0.151 Uiso 1 1 calc GR . . . .
H6C H 0.725740 0.448221 0.585841 0.151 Uiso 1 1 calc GR . . . .
C7 C 0.267(4) 0.143(2) 0.176(4) 0.0677(6) Uani 0.5 1 d D . . A 2
H4A H 0.574(11) 0.1882(8) -0.043(10) 0.102 Uiso 1 1 d DR . . . .
H4B H 0.781(12) 0.250000 0.02(3) 0.102 Uiso 1 2 d DRS T P . .
loop_
_atom_site_aniso_label
_atom_site_aniso_U_11
_atom_site_aniso_U_22
_atom_site_aniso_U_33
_atom_site_aniso_U_23
_atom_site_aniso_U_13
_atom_site_aniso_U_12
I1 0.0343(6) 0.1024(11) 0.0660(8) 0.000 0.0218(5) 0.000
I2 0.0396(8) 0.0823(14) 0.0716(11) -0.0181(12) 0.0104(7) -0.0073(11)
Co1 0.0260(12) 0.0659(18) 0.0500(15) 0.000 0.0081(10) 0.000
O1 0.0396(8) 0.0823(14) 0.0716(11) -0.0181(12) 0.0104(7) -0.0073(11)
C1 0.031(8) 0.106(17) 0.056(10) 0.000 0.020(7) 0.000
C2 0.026(5) 0.070(9) 0.081(9) 0.002(7) 0.014(5) -0.006(6)
C3 0.020(5) 0.101(10) 0.060(7) -0.010(7) 0.013(5) -0.004(6)
C4 0.051(12) 0.18(3) 0.076(15) 0.000 0.028(11) 0.000
C5 0.049(8) 0.077(12) 0.163(19) 0.012(12) 0.033(10) -0.005(8)
C6 0.052(8) 0.17(2) 0.078(10) -0.066(12) 0.016(7) -0.032(10)
C7 0.0396(8) 0.0823(14) 0.0716(11) -0.0181(12) 0.0104(7) -0.0073(11)
loop_
_atom_type_symbol
_atom_type_description
_atom_type_scat_dispersion_real
_atom_type_scat_dispersion_imag
_atom_type_scat_source
C C 0.0181 0.0091 'International Tables Vol C Tables 4.2.6.8 and 6.1.1.4'
H H 0.0000 0.0000 'International Tables Vol C Tables 4.2.6.8 and 6.1.1.4'
Co Co -2.3653 3.6143 'International Tables Vol C Tables 4.2.6.8 and 6.1.1.4'
I I -0.3257 6.8362 'International Tables Vol C Tables 4.2.6.8 and 6.1.1.4'
O O 0.0492 0.0322 'International Tables Vol C Tables 4.2.6.8 and 6.1.1.4'
loop_
_exptl_crystal_face_index_h
_exptl_crystal_face_index_k
_exptl_crystal_face_index_l
_exptl_crystal_face_perp_dist
0 1 -2 0.0164
0 -1 0 0.0426
2 0 -1 0.3131
-2 0 1 0.2127
0 -1 -1 0.0427
0 1 1 0.0181
0 -1 2 0.0328
0 1 -1 0.0066
0 1 0 0.0131
loop_
_geom_angle_atom_site_label_1
_geom_angle_atom_site_label_2
_geom_angle_atom_site_label_3
_geom_angle
_geom_angle_site_symmetry_1
_geom_angle_site_symmetry_3
I2 Co1 I1 94.47(9) . .
I2 Co1 I1 94.47(9) 4_565 .
I2 Co1 I2 78.67(12) . 4_565
C1 Co1 I1 160.4(5) . .
C1 Co1 I2 100.7(4) . 4_565
C1 Co1 I2 100.7(4) . .
C1 Co1 C2 39.7(5) . .
C1 Co1 C2 39.7(5) . 4_565
C1 Co1 C3 66.8(6) . .
C1 Co1 C3 66.8(6) . 4_565
C2 Co1 I1 127.6(4) . .
C2 Co1 I1 127.6(4) 4_565 .
C2 Co1 I2 137.8(4) 4_565 4_565
C2 Co1 I2 93.1(4) 4_565 .
C2 Co1 I2 137.8(4) . .
C2 Co1 I2 93.1(4) . 4_565
C2 Co1 C2 65.5(8) . 4_565
C2 Co1 C3 65.8(5) 4_565 .
C2 Co1 C3 39.0(5) 4_565 4_565
C2 Co1 C3 39.0(5) . .
C2 Co1 C3 65.8(5) . 4_565
C3 Co1 I1 94.8(3) . .
C3 Co1 I1 94.8(3) 4_565 .
C3 Co1 I2 119.9(4) 4_565 .
C3 Co1 I2 119.9(4) . 4_565
C3 Co1 I2 158.4(4) . .
C3 Co1 I2 158.4(4) 4_565 4_565
C3 Co1 C3 39.7(8) . 4_565
C7 Co1 I1 88.7(10) 4_565 .
C7 Co1 I1 88.7(10) . .
C7 Co1 C1 104.5(10) . .
C7 Co1 C1 104.5(10) 4_565 .
C7 Co1 C2 90.8(10) 4_565 .
C7 Co1 C2 143.5(11) . .
C7 Co1 C3 152.8(11) . .
C7 Co1 C3 113.1(11) 4_565 .
C7 Co1 C7 94(2) 4_565 .
C2 C1 Co1 70.8(8) . .
C2 C1 Co1 70.8(8) 4_565 .
C2 C1 C2 106.2(17) 4_565 .
C2 C1 C4 126.8(8) 4_565 .
C2 C1 C4 126.8(8) . .
C4 C1 Co1 125.8(14) . .
C1 C2 Co1 69.5(8) . .
C1 C2 C5 126.8(16) . .
C3 C2 Co1 71.2(7) . .
C3 C2 C1 109.7(14) . .
C3 C2 C5 123.2(16) . .
C5 C2 Co1 130.7(10) . .
C2 C3 Co1 69.7(7) . .
C2 C3 C3 107.1(9) . 4_565
C2 C3 C6 127.1(16) . .
C3 C3 Co1 70.1(4) 4_565 .
C3 C3 C6 125.5(11) 4_565 .
C6 C3 Co1 129.5(9) . .
C1 C4 H4A 115(6) . .
C1 C4 H4A 115(6) . 4_565
C1 C4 H4B 107(10) . .
H4A C4 H4A 106(4) . 4_565
H4A C4 H4B 107(3) . .
H4B C4 H4A 107(3) . 4_565
C2 C5 H5A 109.5 . .
C2 C5 H5B 109.5 . .
C2 C5 H5C 109.5 . .
H5A C5 H5B 109.5 . .
H5A C5 H5C 109.5 . .
H5B C5 H5C 109.5 . .
C3 C6 H6A 109.5 . .
C3 C6 H6B 109.5 . .
C3 C6 H6C 109.5 . .
H6A C6 H6B 109.5 . .
H6A C6 H6C 109.5 . .
H6B C6 H6C 109.5 . .
O1 C7 Co1 166(3) . .
loop_
_geom_bond_atom_site_label_1
_geom_bond_atom_site_label_2
_geom_bond_distance
_geom_bond_site_symmetry_2
I1 Co1 2.577(3) .
I2 Co1 2.544(3) .
Co1 C1 2.079(17) .
Co1 C2 2.097(12) 4_565
Co1 C2 2.097(12) .
Co1 C3 2.116(11) .
Co1 C3 2.116(11) 4_565
Co1 C7 1.862(16) 4_565
Co1 C7 1.862(16) .
O1 C7 1.119(17) .
C1 C2 1.418(18) 4_565
C1 C2 1.418(18) .
C1 C4 1.49(3) .
C2 C3 1.408(19) .
C2 C5 1.50(2) .
C3 C3 1.44(3) 4_565
C3 C6 1.494(19) .
C4 H4A 0.98(2) .
C4 H4A 0.98(2) 4_565
C4 H4B 0.98(2) .
C5 H5A 0.9800 .
C5 H5B 0.9800 .
C5 H5C 0.9800 .
C6 H6A 0.9800 .
C6 H6B 0.9800 .
C6 H6C 0.9800 .
loop_
_geom_torsion_atom_site_label_1
_geom_torsion_atom_site_label_2
_geom_torsion_atom_site_label_3
_geom_torsion_atom_site_label_4
_geom_torsion
_geom_torsion_site_symmetry_1
_geom_torsion_site_symmetry_4
I1 Co1 C7 O1 -152(13) . .
Co1 C1 C2 C3 60.1(9) . .
Co1 C1 C2 C5 -126.2(14) . .
Co1 C2 C3 C3 60.5(4) . 4_565
Co1 C2 C3 C6 -124.9(12) . .
C1 Co1 C7 O1 13(13) . .
C1 C2 C3 Co1 -59.0(10) . .
C1 C2 C3 C3 1.5(11) . 4_565
C1 C2 C3 C6 176.1(13) . .
C2 Co1 C7 O1 23(14) . .
C2 Co1 C7 O1 -24(13) 4_565 .
C2 C1 C2 Co1 -62.4(11) 4_565 .
C2 C1 C2 C3 -2.3(18) 4_565 .
C2 C1 C2 C5 171.4(9) 4_565 .
C3 Co1 C7 O1 -57(13) 4_565 .
C3 Co1 C7 O1 -54(14) . .
C4 C1 C2 Co1 120.9(19) . .
C4 C1 C2 C3 -179.1(17) . .
C4 C1 C2 C5 -5(3) . .
C5 C2 C3 Co1 127.0(13) . .
C5 C2 C3 C3 -172.6(11) . 4_565
C5 C2 C3 C6 2(2) . .
C7 Co1 C7 O1 119(12) 4_565 .
loop_
_refln_index_h
_refln_index_k
_refln_index_l
_refln_F_squared_meas
_refln_F_squared_sigma
_refln_scale_group_code
0 0 1 57779.8 2122.64 4
0 0 2 133496 4356.88 4
0 0 3 45301.4 2814.14 4
0 0 4 26622.4 2288.35 4
0 0 -5 339654 12747.9 1
0 0 -6 2102.52 457.86 17
0 0 6 2021.05 382.804 6
0 0 -6 2127.86 1083.69 1
0 0 -6 2590.66 475.821 13
0 0 -7 19817.2 3121.85 1
0 0 7 19831.5 1088.84 6
0 0 -7 22170.6 1297.48 17
0 0 -7 21193.4 1187.79 13
0 0 -8 1194.28 298.509 17
0 0 8 1224.21 240.006 6
0 0 -8 1233.13 297.374 13
0 0 -9 3267.96 326.574 17
0 1 1 298244 4486.58 3
0 -1 1 302303 4027.4 4
0 1 2 84067.6 3447.55 4
0 -1 2 79404.1 3157.11 4
0 -1 3 4122.43 933.497 4
0 1 3 4361.24 962.72 4
0 1 4 84311.5 4230.4 4
0 -1 4 64452.2 3667.89 4
0 1 -5 4578.92 1449.23 1
0 1 5 4785.96 1049.74 4
0 1 -6 8272.22 817.894 17
0 -1 -6 10293.6 2447.02 1
0 1 6 7694.8 714.385 6
0 -1 -6 8252.08 775.979 13
0 -1 -6 7441.34 766.92 17
0 1 -6 7856.14 755.793 13
0 1 -6 6437.33 1727.37 1
0 1 7 826.505 270.249 6
0 -1 7 823.339 266.369 6
0 1 -7 1031.78 314.093 13
0 -1 -7 894.458 304.853 17
0 -1 -7 460.677 810.709 1
0 -1 -7 946.176 357.396 13
0 1 -7 782.291 302.524 17
0 1 8 731.532 185.121 6
0 1 -8 807.088 257.723 17
0 -1 8 585.303 183.331 6
0 -1 -8 758.682 237.631 17
0 1 -8 634.744 244.66 13
0 -1 -9 5698.45 425.968 17
0 1 -9 5107.54 397.214 17
0 2 0 664801 7238.78 3
0 2 -1 312517 5125.3 3
0 2 1 302999 5611.49 3
0 -2 -1 315406 2300.6 5
0 -2 2 104320 3571.27 4
0 2 2 107611 3886.63 3
0 -2 3 34045.5 2548.02 4
0 2 3 40605.9 2955.68 4
0 2 -4 182831 8293.09 1
0 -2 4 164005 6111.29 4
0 2 4 169973 6617.58 4
0 2 5 84536.3 4730.29 4
0 2 -5 84710 5556.38 1
0 2 -6 37554.4 1598.01 13
0 -2 -6 38237.4 1704.86 13
0 -2 -6 38605.6 1694.31 17
0 2 6 36708 1515.31 6
0 2 -6 35699.8 3665.45 1
0 2 -7 5095.7 662.362 17
0 -2 7 4781.01 557.825 6
0 2 7 4825.11 514.256 6
0 -2 -7 5875.58 686.519 13
0 2 -7 4195.04 569.522 13
0 -2 -7 5327.86 631.083 17
0 2 8 1299.05 236.155 6
0 2 -8 1106.4 289.205 13
0 2 -8 1805.72 356.44 17
0 -2 -8 1379.48 308.81 17
0 -2 -9 4987.81 397.002 17
0 2 -9 4968.2 398.199 13
0 3 0 2718.5 669.531 3
0 3 -1 2457.69 605.532 3
0 3 1 2382.59 604.922 3
0 -3 -2 158840 2674.74 5
0 3 -2 166425 4782.8 3
0 3 2 171614 5266.07 3
0 3 3 98582.9 4532.13 4
0 3 -3 79793.5 4527.35 1
0 3 -4 1793.5 792.667 1
0 3 4 1503.72 727.794 4
0 3 5 2211.67 990.563 4
0 3 -5 1105.66 679.373 1
0 3 6 1008.75 288.604 6
0 -3 -6 424.948 268.278 17
0 -3 -6 529.265 253.955 13
0 -3 -6 482.664 897.982 1
0 3 -6 507.321 239.05 13
0 3 -6 -441.001 588.992 2
0 3 -7 6249.67 719.567 17
0 3 -7 5509.66 613.781 13
0 -3 -8 7832.11 665.321 17
0 3 8 6709.34 518.917 6
0 3 -8 8247.67 652.607 13
0 3 -9 324.841 129.041 13
0 -3 -9 73.1019 82.5246 17
0 4 0 18409.4 1647.72 3
0 4 -1 453947 8329.64 3
0 4 1 459969 8764.46 3
0 4 -2 6894.4 1115.23 3
0 4 2 7205.93 1241.33 3
0 4 3 20903.8 2292.86 3
0 4 -3 20677 2018.14 1
0 4 -3 21776.7 2195.4 3
0 4 -4 205943 7503.46 3
0 4 -4 218678 7831.31 1
0 4 4 229451 8312.89 4
0 4 -5 5470.09 704.617 13
0 4 5 6613.44 1612.57 4
0 4 -5 4403.05 623.798 15
0 4 5 6406.67 686.693 6
0 -4 -5 5605.53 759.493 17
0 4 6 60608.9 1944.49 6
0 -4 -6 57604.4 2137.22 17
0 4 -6 57531.8 1998.19 13
0 4 7 421.75 188.307 6
0 -4 -7 289.948 229.347 17
0 4 -7 341.18 201.301 13
0 -4 -8 2740.76 426.252 17
0 4 -8 3166.87 436.281 17
0 4 8 2537.53 298.729 6
0 4 -8 3440.15 428.285 13
0 -4 -9 2830 286.984 17
0 4 -9 3682.61 326.843 13
0 5 0 1704.45 553.846 2
0 5 0 2199.94 722.41 3
0 5 -1 8010.31 1260.96 3
0 5 1 8592.95 1361.99 3
0 5 -2 31940.9 2555.7 3
0 5 2 35063.5 2840.36 3
0 5 -3 62361 3777.01 3
0 5 -4 1130.67 724.591 3
0 5 4 227.31 460.261 4
0 5 -5 2048.68 536.547 13
0 5 5 4075.96 1290.52 4
0 5 -5 4860.69 666.949 15
0 5 -6 603.234 785.727 2
0 -5 -6 83.774 858.483 1
0 -5 -6 162.44 255.667 17
0 5 -6 584.282 310.061 13
0 5 6 458.831 246.408 6
0 5 7 208.52 150.614 6
0 5 -7 -2.33593 189.458 13
0 -5 -7 122.171 181.095 17
0 5 8 4098.92 359.247 6
0 -5 -8 3638.38 444.938 17
0 5 -9 295.497 121.013 13
0 -5 -9 -69.2784 75.8311 17
0 6 0 186421 6141.1 3
0 6 0 137506 5039.85 2
0 6 -1 45878.8 3167.85 3
0 6 1 43711.8 3211.24 3
0 6 -2 14813.8 1877.83 3
0 6 2 18842.7 2289.83 3
0 6 3 30701.5 3155.5 3
0 6 -3 21693.6 2376.96 3
0 -6 -4 26478.9 1775.53 17
0 6 4 23435.3 1333.07 6
0 6 4 21689.7 2902.99 4
0 6 -4 20434.2 1356.73 15
0 6 -5 29464.7 3699.91 2
0 6 -5 25060 1549.07 15
0 6 -5 31281.2 1598.15 13
0 -6 -5 30536.2 1888.35 17
0 6 5 32468.5 1639.16 6
0 6 5 27155.3 3742.9 4
0 -6 -6 5275 717.336 17
0 6 6 5505.87 649.64 6
0 6 -6 4757.37 652.579 13
0 6 -7 1177.39 318.699 13
0 6 7 362.373 172.808 6
0 -6 -7 639.595 281.525 17
0 6 8 1537.34 204.68 6
0 -6 -8 1081.81 253.643 17
0 6 -9 429.405 114.006 13
0 7 0 -211.922 356.455 2
0 7 0 -72.5031 436.912 3
0 7 -1 31884.9 3214.37 2
0 7 1 38442.7 3309.75 3
0 7 -2 20805.5 2986.95 2
0 7 2 26329.7 2854.72 3
0 7 -2 25763.7 2601.37 3
0 7 3 3298.91 1130.08 3
0 7 -3 2420.5 978.405 3
0 7 4 18768.9 2874.05 4
0 -7 -4 28390 1967.11 17
0 7 -4 13583.5 2781.46 2
0 7 4 23709 1357.84 6
0 7 -5 379.886 297.292 13
0 7 5 1346.3 1297.77 4
0 7 -5 712.214 438.555 15
0 -7 -5 -1169.14 910.54 1
0 -7 -5 173.651 365.823 17
0 7 -5 -330.2 917.412 2
0 7 5 252.652 224.346 6
0 -7 -6 873.874 376.47 17
0 7 6 1162.53 319.735 6
0 7 -7 1222.4 291.628 13
0 -7 -7 865.212 281.418 17
0 7 7 1002.16 223.558 6
0 -7 -8 90.5741 96.4035 17
0 7 -8 427.923 165.584 13
0 8 0 235875 8248.43 3
0 8 1 2865.65 1105.15 3
0 8 -1 2650.74 916.12 3
0 8 -1 2189.72 1000.8 2
0 8 2 18897.2 1071.48 6
0 8 2 22570 1259.8 15
0 8 -2 19230.4 2432.71 3
0 8 -3 4464.9 1282.63 3
0 8 3 6983.96 1815.9 3
0 8 -3 6965.84 2168.17 2
0 8 4 1722.29 426.575 6
0 8 -4 1825.03 748.227 2
0 -8 -4 1284.57 500.549 17
0 8 4 1854.56 1022.58 4
0 8 -4 620.45 315.759 13
0 8 -4 1195.42 490.908 15
0 -8 -5 36284.5 2267.36 17
0 8 5 32382 1626.04 6
0 8 -5 31059.4 1674.82 13
0 8 -5 37094.2 2136.67 15
0 8 6 77.041 160.839 6
0 8 -6 58.733 203.095 13
0 -8 -6 62.5176 239.828 17
0 -8 -7 2632.89 420.499 17
0 8 -7 2523.67 381.642 13
0 8 7 2762.49 316.312 6
0 8 8 -28.4048 50.9019 15
0 8 -8 46.4461 80.9702 13
0 9 0 -804.402 642.469 3
0 9 0 266.286 255.026 15
0 9 -1 19830.1 2574.94 2
0 9 2 2314.21 528.354 15
0 9 2 4270.18 1456.12 3
0 9 -2 2259.4 1064.18 2
0 9 -2 2130.98 467.545 15
0 9 -2 2410.44 955.224 3
0 9 3 -883.748 1007.03 3
0 9 -3 94.945 259.489 15
0 9 -3 -247.562 233.471 13
0 9 3 142.892 194.488 6
0 9 3 484.439 271.582 15
0 9 -3 -642.618 1044.95 2
0 9 -4 3383.8 783.488 2
0 9 4 8041.76 1962.84 4
0 -9 -5 -117.742 355.494 17
0 9 -5 -169.695 302.229 15
0 9 -5 293.138 256.764 13
0 9 5 375.464 250.304 6
0 9 -6 177.666 166.019 13
0 -9 -6 54.3904 211.129 17
0 9 6 80.4732 164.023 15
0 9 6 25.5582 139.316 6
0 9 -7 93.3081 121.718 13
0 9 7 -152.402 112.78 15
0 9 -8 127.394 65.5212 13
0 10 0 30158.6 1643.41 15
0 10 0 37565.6 3839.31 3
0 10 1 15119.4 1184.3 15
0 10 1 15199.1 2535.68 3
0 10 -1 16436.9 2529.4 3
0 10 2 959.327 952.231 3
0 10 -2 20.72 234.429 15
0 10 2 390.226 312.294 15
0 10 -3 23.1738 217.099 15
0 10 3 -137.187 240.96 15
0 10 -3 67.1929 488.73 2
0 10 3 480.057 690.261 3
0 10 -3 -16.2466 220.859 13
0 10 -4 8615.73 963.655 15
0 10 4 8952.52 896.67 15
0 10 -4 9637.88 876.949 13
0 10 -5 3159.77 633.071 15
0 10 -5 2365.55 471.047 13
0 10 5 3326.32 537.277 15
0 10 6 1518.2 290.297 15
0 10 -6 2120.06 331.509 13
0 10 -7 212.18 102.777 13
0 10 7 134.728 80.1909 15
0 11 0 1866.91 1023.89 3
0 11 0 2558.82 512.797 15
0 11 1 69.3516 276.374 15
0 11 -1 -1215.3 1227.34 3
0 11 1 -257.537 606.184 3
0 11 -1 -79.326 260.748 15
0 11 -2 6937.99 755.341 15
0 11 -4 47.9197 177.219 13
0 11 4 128.775 248.571 15
0 11 -4 75.8741 214.67 15
0 11 5 426.059 223.989 15
0 11 -5 406.074 248.489 15
0 11 -5 -20.3372 142.462 13
0 11 -6 2.65033 100.84 13
0 11 6 125.388 119.496 15
0 11 -7 270.76 81.0281 13
0 12 0 982.854 352.697 15
0 12 1 17762 1240.54 15
0 12 -1 17199.3 1193.46 15
0 12 2 647.376 316.703 15
0 12 -2 592.957 309.883 15
0 12 -2 267.534 246.172 13
0 12 -3 249.329 251.216 15
0 12 3 63.673 236.808 15
0 12 -3 154.552 211.72 13
0 12 -4 2803.84 445.999 15
0 12 4 4171.14 559.476 15
0 12 5 273.385 155.586 15
0 12 -5 81.7687 115.311 15
0 12 -5 85.0977 118.202 13
0 12 6 1301.31 177.78 15
0 12 -6 1318.48 172.057 13
0 13 0 1141.28 328.999 15
0 13 1 416.517 253.606 15
0 13 -1 -10.1284 204.257 15
0 13 -2 2005.02 388.229 13
0 13 -2 1153.39 315.229 15
0 13 2 1431.89 334.298 15
0 13 -3 891.315 314.392 13
0 13 -3 1516.52 363.328 15
0 13 -4 -95.0766 159.516 15
0 13 -4 -21.3407 106.33 13
0 13 4 -97.1811 155.777 15
0 13 -5 22.7717 62.7804 13
0 13 5 72.9262 76.2868 14
0 14 0 5416.29 532.736 15
0 14 1 827.405 263.146 15
0 14 -1 1042.14 236.184 13
0 14 -1 1009.64 247.221 15
0 14 2 99.403 142.465 15
0 14 -2 -64.1045 134.671 13
0 14 -2 21.5344 152.862 15
0 14 -3 167.406 112.129 13
0 14 3 378.504 177.85 15
0 14 -3 179.068 135.351 15
0 14 4 173.074 93.1145 15
0 14 -4 113.982 67.5044 13
0 14 -4 124.071 87.6795 15
0 15 0 14.098 74.354 14
0 15 0 8.66005 98.8102 15
0 15 0 6.07075 76.7235 13
0 15 -1 1330.6 244.855 15
0 15 1 1454.04 241.1 15
0 15 -1 1841.54 220.094 13
0 15 2 271.322 110.65 15
0 15 -2 216.756 93.9812 15
0 15 3 59.8268 58.5784 14
-1 0 9 1798.59 249.396 6
-1 0 8 644.498 205.747 6
1 0 -8 509.902 244.715 13
-1 0 7 42066.6 1673.12 6
-1 0 7 46801.4 1776.29 16
1 0 -7 44939.1 1773.13 13
1 0 -6 7264.19 713.342 13
-1 0 6 7312.31 1398.65 4
-1 0 5 2116.67 747.879 4
-1 0 4 6591.4 1271.61 4
-1 0 3 71629.2 3991.02 4
-1 0 2 365667 8227.05 4
-1 0 1 170789 4165.09 4
-1 0 0 35382.6 1008.55 4
-1 0 -1 1112.71 395.54 2
-1 0 -1 1126.55 531.547 1
1 0 2 36102.7 1770.17 4
-1 0 -2 33968.9 3729.79 1
-1 0 -2 34210.7 3666.85 2
1 0 3 185822 4662.09 4
-1 0 -3 183774 9915.43 2
-1 0 -3 181351 9933.52 1
-1 0 -4 189227 10323.2 1
-1 0 -4 178786 9424.73 2
-1 0 -5 3601.05 576.977 17
-1 0 -5 3306.32 1501.72 1
-1 0 -5 3090.38 524.32 13
-1 0 -6 4788.33 603.018 13
-1 0 -6 2788.94 1253.55 1
-1 0 -6 4830.82 673.928 17
-1 0 -7 1899.52 385.649 13
-1 0 -7 2380.32 458.524 17
-1 0 -8 1892.98 308.546 17
-1 0 -9 6311.22 363.226 17
-1 -1 9 5508.33 422.8 6
1 1 -9 6136.99 487.345 13
-1 1 8 14620.6 865.129 6
1 -1 -8 14811.3 928.403 13
-1 -1 8 15234.9 917.29 6
1 1 -8 15104.8 944.065 13
1 1 -7 10780 2309.61 1
1 -1 -7 12677.2 948.948 13
1 -1 -7 12155.1 2691 1
-1 -1 7 12626.3 894.435 16
1 -1 -7 14309.1 1074.08 17
-1 1 7 11246.5 865.21 6
1 1 -7 11848.8 932.058 13
1 -1 -6 707.043 267.258 13
-1 -1 6 247.435 317.497 4
-1 -1 6 596.925 250.272 16
1 1 -6 754.953 286.5 13
-1 1 6 760.756 279.952 16
-1 1 6 10.2142 372.078 4
-1 1 6 514.143 222.01 6
-1 1 5 181457 7312.73 4
-1 -1 5 169454 6772.96 4
-1 -1 4 45746.7 3402.23 4
-1 1 4 44948.6 3575.87 4
-1 1 3 440122 10325.2 4
-1 -1 3 417794 9719.61 4
-1 1 2 71861.2 3709.9 4
-1 -1 2 68213.9 3208.41 4
-1 1 1 10057.6 1136.19 4
-1 -1 1 9399.58 909.093 4
-1 1 1 11439.4 789.484 5
-1 -1 0 315188 4416.89 5
1 1 0 312145 4115.15 3
-1 1 0 308794 5198.87 2
-1 1 -1 68763.7 3176.83 1
1 1 1 62658.2 2086.65 3
-1 1 -1 77765.6 4656.81 2
-1 -1 -1 83438.1 4720.5 1
-1 -1 -2 375287 7700.33 2
-1 1 -2 376375 18201.7 2
1 1 2 383353 6324.33 4
-1 1 -2 391763 10531.5 1
-1 1 -3 18836.1 2865.79 1
1 1 3 20464.6 1667.2 4
-1 -1 -3 17957 2260.89 2
-1 -1 -3 23469.6 3799.45 1
-1 1 -4 4704.14 1521.26 2
-1 1 -4 4503.24 1518.11 1
-1 -1 -4 5006.39 1891.73 1
-1 -1 -5 101240 2796.34 13
-1 -1 -5 104122 2933.36 17
-1 1 -5 98425.7 2700.61 13
-1 1 -6 8861.37 865.817 17
-1 1 -6 9039.26 822.856 13
-1 -1 -6 8610.14 866.44 17
-1 -1 -6 8889.57 2301.26 1
-1 1 -6 7398.61 1826.62 1
-1 -1 -6 8533.32 848.352 13
-1 -1 -7 29563.6 1414.51 17
-1 1 -7 27882.7 1326.1 13
-1 -1 -7 27259.4 1326.09 13
-1 1 -7 29012 1395.25 17
-1 1 -8 366.02 185.929 17
-1 -1 -8 200.97 132.767 17
-1 1 -8 262.619 171.064 13
-1 1 -9 1446.63 180.144 17
-1 -1 -9 1175.14 164.714 17
1 2 -9 369.667 170.297 13
-1 2 9 101.754 90.5642 6
-1 -2 9 388.877 141.895 6
1 -2 -8 3773.85 512.306 17
1 2 -8 4518.25 529.356 13
-1 -2 8 4149.64 478.583 6
-1 2 7 6311.72 643.111 6
1 -2 -7 8807.05 857.614 17
1 2 -7 5885.37 679.458 13
1 -2 -7 7967.06 772.576 13
-1 2 6 252.737 224.745 6
-1 -2 6 96.3002 194.651 16
1 2 -6 25.365 179.602 13
1 -2 -6 310.042 228.251 17
1 -2 -6 174.56 219.457 13
1 2 -6 389.1 448.632 1
-1 2 6 21.6235 184.648 16
-1 -2 6 -73.134 478.897 4
-1 2 6 -317.098 412.144 4
-1 2 5 3735.45 1139.23 4
-1 -2 5 5558.71 1277.16 4
-1 -2 4 2106.35 816.586 4
-1 2 4 1286.82 804.577 4
-1 -2 3 59236.1 3623.82 4
-1 2 3 60099.5 3984.3 4
-1 2 2 7510.89 1212.15 4
-1 -2 2 8218.56 1122.79 4
-1 -2 1 8157.12 950.233 4
-1 2 1 8750.3 661.98 5
-1 2 1 7928.7 1126.28 3
-1 2 0 90992.1 3513.84 2
-1 2 0 93355.1 3188.04 3
-1 -2 0 90429.1 2482.82 5
1 2 0 86197.7 2712.18 3
-1 -2 0 88430.8 2704.25 1
-1 2 -1 737.667 296.754 3
1 2 1 566.734 259.878 3
-1 2 -1 500.028 750.819 2
-1 -2 -1 580.235 709.641 1
-1 -2 -1 683.181 289.857 5
-1 -2 -2 21281.4 5362.56 1
-1 2 -2 14167.9 1081.46 3
1 2 2 11848.1 1237.26 3
-1 2 -2 23106.5 5944.09 2
-1 2 -2 15098.3 1849.39 1
1 2 3 6381.93 1107.31 4
-1 2 -3 5471.99 2216.43 2
-1 2 -3 4769.67 1399.9 1
-1 -2 -3 3522.53 1646.94 1
-1 2 -4 21684.4 3069.1 2
-1 -2 -4 25730.1 4167.63 1
-1 2 -4 29794.5 3669.76 1
-1 2 -5 12492.1 2318.57 1
-1 2 -5 11739.9 941.311 13
-1 -2 -5 11905.7 950.149 13
-1 -2 -5 14973.2 2994.65 1
-1 -2 -5 14154.9 1045.21 17
-1 2 -5 9882.11 1953 2
-1 -2 -6 3693.24 1641.33 1
-1 -2 -6 2080.49 450.79 17
-1 2 -6 1409.88 374.265 13
-1 -2 -6 2290.78 477.893 13
-1 2 -6 1751.34 931.327 1
-1 -2 -7 912.739 362.614 17
-1 2 -7 1422.2 334.552 13
-1 2 -7 1369.31 359.907 17
-1 2 -8 698.197 199.715 13
-1 -2 -8 662.374 215.723 17
-1 2 -8 627.257 205.15 17
-1 2 -9 1019.04 161.313 17
-1 -2 -9 1559.3 181.509 17
1 3 -9 16051.7 767.088 13
-1 -3 9 14512.9 684.44 6
1 -3 -8 7932.81 771.195 17
1 3 -8 7891.94 678.723 13
-1 -3 8 7991.84 676.906 6
-1 3 8 7845.42 612.954 6
1 3 -7 1684.89 405.734 13
-1 -3 7 1595.65 325.717 16
1 -3 -7 2212.74 470.353 17
-1 3 7 1668.27 355.435 6
-1 3 6 23215.8 1272.1 6
-1 3 6 20863 2807.69 4
1 -3 -6 21016.8 1276.2 13
-1 -3 6 22505.1 1266.28 16
1 3 -6 23105.2 1271.04 13
1 -3 -6 23846.7 1502.71 17
1 3 -5 4063.38 1228.05 1
-1 -3 5 5533.31 1430.54 4
-1 3 5 6588.72 1597.94 4
-1 -3 4 301232 9572.11 4
-1 3 4 303994 10001.1 4
-1 3 3 26154.3 2610.99 4
-1 -3 3 23271.1 2396.25 4
-1 3 2 32711.2 2683.87 3
-1 -3 2 30380.5 2190.7 4
-1 3 1 287144 7311.57 3
-1 3 1 288019 3685.37 5
1 3 -1 293230 6160.95 3
-1 3 0 29803.8 2440.11 2
-1 3 0 33645.3 2329.6 3
-1 -3 0 31570.7 1685.98 1
1 3 0 31148.8 1888.94 3
-1 -3 -1 889820 8419.9 5
-1 -3 -1 963116 23697.1 1
1 3 1 882381 10414.8 3
-1 3 -1 935605 19542.3 2
-1 3 -1 887464 10740.9 3
1 3 2 8392.04 1154.58 3
-1 3 -2 11387.8 4052.79 2
-1 -3 -2 9270.36 1121.69 5
-1 3 -2 7798.73 1045.78 3
-1 -3 -3 13614.3 3355.63 1
1 3 3 15007.5 1728.97 4
-1 -3 -3 12603.5 1686.51 5
-1 3 -3 12927 3100.15 2
-1 3 -3 16755.1 2200.03 1
-1 3 -4 31851 3988.65 2
-1 -3 -4 35678.3 4787.54 1
-1 3 -4 36561.1 3926.55 1
-1 -3 -5 8443.84 864.362 13
-1 -3 -5 10787.7 2500.68 1
-1 -3 -5 8595.48 818.461 17
-1 3 -5 6620.19 1582.58 2
-1 3 -5 7784.42 823.409 13
-1 3 -6 63926.8 2153.48 13
-1 -3 -6 60351.5 2181.63 17
-1 -3 -6 68865.9 6696.55 1
-1 -3 -7 1177.51 322.929 17
-1 3 -7 765.517 276.773 13
-1 3 -7 944.76 322.41 17
-1 3 -8 2728.45 369.125 17
-1 -3 -8 2088.13 326.054 17
-1 3 -8 2556 346.538 13
-1 -4 9 933.001 188.172 6
1 4 -9 912.576 214.444 13
-1 4 8 10276.9 694.201 6
1 4 -8 10579.1 789.074 13
1 -4 -8 11051.5 821.348 17
1 4 -7 1568.56 390.629 13
-1 4 7 1256.09 347.993 6
1 -4 -7 987.686 327.529 17
-1 4 6 848.445 257.108 6
1 4 -6 616.394 284.982 13
-1 -4 6 867.85 279.526 16
1 -4 -6 1069.9 405.799 17
-1 4 6 1275.44 610.924 4
-1 4 5 2712.08 1111.76 4
1 4 -5 3442.08 1018.08 3
1 4 -4 4182.7 1065.69 3
-1 4 4 7580.7 1693.27 4
-1 4 3 156157 6571.29 4
1 4 -3 151155 5824.27 3
1 4 -2 61149.8 3469.64 3
-1 4 2 63209 4050.5 3
-1 4 1 93743.4 1996.24 5
-1 4 1 107966 5006.54 3
1 4 -1 105751 4083.68 3
-1 4 0 137858 5397.82 2
1 4 0 146194 4646.17 3
-1 4 0 144604 5484.02 3
-1 4 -1 29914.1 2298.68 3
-1 -4 -1 23811.9 2841.03 1
-1 4 -1 30680.3 3482.55 2
1 4 1 29400.7 2112.95 3
-1 -4 -2 93894.3 3053.99 5
-1 -4 -2 50825.6 5854.94 1
-1 4 -2 91315.2 4267.44 3
-1 4 -2 138559 11168.3 2
1 4 2 97057 4291.45 3
-1 -4 -3 53005.1 5676.54 1
1 4 3 67884.7 4154.3 3
-1 4 -3 58465.8 6028.96 2
-1 -4 -4 1883.21 1195.7 1
-1 4 -4 3354.99 1433.09 2
-1 -4 -5 31092.3 1620.66 17
-1 4 -5 27088.3 1549.77 13
-1 -4 -5 27542 3938.85 1
-1 4 -6 793.904 301.226 13
-1 -4 -6 431.44 280.366 17
-1 4 -7 2924.82 472.474 17
-1 4 -7 2961.08 456.93 13
-1 -4 -7 1923.42 418.536 17
-1 4 -8 2381.39 321.763 13
-1 4 -8 2599.19 360.911 17
-1 -4 -8 2701.5 345.552 17
1 5 -9 5409.71 461.461 13
-1 5 9 4495.37 321.425 6
-1 -5 9 4445.12 371.953 6
-1 5 8 6248.6 517.716 6
1 5 -8 7858.99 684.719 13
1 -5 -8 6396.29 637.846 17
-1 5 7 233.342 193.673 6
1 -5 -7 293.392 237.027 17
1 5 -7 860.713 331.992 13
1 -5 -6 22180.8 1609.41 17
-1 5 6 18924 2883.14 4
-1 5 6 22458.8 1271.6 6
-1 5 5 10859.9 2203.1 4
-1 5 5 8747.67 816.117 6
1 5 -5 9598.89 937.784 13
1 5 -5 7354.7 1566.23 3
1 -5 -5 7900 994.683 17
-1 5 4 114594 6444.18 4
1 5 -4 107579 5843.7 3
1 5 -3 24481.9 2525.95 3
-1 5 3 27694.9 3117.21 3
1 5 -2 43760.5 3103.78 3
-1 5 2 40841.7 3524.54 3
1 5 -1 154582 5404.21 3
-1 5 1 146036 6347.2 3
1 5 0 25986.6 2123.43 3
-1 5 0 24622.5 2346.33 2
-1 5 0 25519 2477.89 3
-1 5 -1 483852 13489.2 2
-1 5 -1 450624 9985.76 3
1 5 1 458717 9024.49 3
1 5 2 22015.4 2295.42 3
-1 5 -2 22264.8 2365.38 3
-1 5 -2 19955.1 3576.19 2
1 5 3 9987.15 1804.31 3
-1 -5 -3 8399.84 2430.65 1
-1 5 -3 8102.68 2373.58 2
-1 5 -4 6997.96 787.078 15
-1 -5 -4 7471.43 2054.46 1
-1 5 -4 8959.25 2294.73 2
1 5 4 8263.63 1767.89 4
-1 5 -4 9441.89 936.338 13
-1 -5 -4 8155.72 985.297 17
-1 -5 -5 15377 2870.31 1
-1 5 -5 16486.2 2887.59 2
-1 -5 -5 17039 1276.83 17
-1 5 -5 19228.1 1292.76 13
-1 5 -6 35572.2 1603.7 13
-1 -5 -6 35297.6 1698.26 17
-1 -5 -7 209.334 260.024 17
-1 5 -7 785.911 248.456 13
-1 5 -8 1656.89 254.193 13
-1 5 -8 1256.62 252.389 17
-1 6 9 -23.1626 54.6572 6
-1 -6 9 14.0297 79.0983 6
1 6 -8 692.593 243.222 13
1 -6 -8 1456.56 308.718 17
-1 6 8 1550.42 273.582 6
1 6 -7 2300.78 460.096 13
1 -6 -7 1539.39 401.086 17
-1 6 7 1908.15 396.663 6
1 -6 -6 2038.15 518.507 17
-1 6 6 2239.27 1142.92 4
1 6 -5 -1048.69 857.476 3
1 6 -5 759.118 369.573 13
-1 6 5 383.236 221.246 6
1 -6 -5 262.942 327.211 17
-1 6 5 -688.683 976.594 4
1 6 -5 426.596 298.919 15
-1 6 4 583.503 471.796 4
1 6 -4 616.076 613.736 3
-1 6 3 4113.74 1478.23 3
1 6 -3 4552.45 1228.23 3
1 6 -2 4070.35 1082.56 3
-1 6 2 2489.77 1089.64 3
1 6 -1 16407.9 1967.44 3
-1 6 0 17580.6 2232.02 3
1 6 0 15466.6 1831.32 3
1 6 1 3653.06 1026.02 3
-1 6 -1 4417.56 1138.95 3
-1 6 -1 3832.77 1281.68 2
1 6 2 5723.24 1247.58 3
-1 6 -2 4171.76 1048.93 3
-1 -6 -2 2316.26 1120.56 1
-1 6 -2 4421.48 1732.48 2
-1 6 -3 6063.05 2145.25 2
1 6 3 4345.05 1339.78 3
-1 -6 -3 3027.54 1698.8 1
-1 -6 -4 7982.99 2398.76 1
-1 6 -4 10894.6 1079.35 13
-1 6 -4 9254.35 2323.08 2
-1 -6 -4 12726.6 1238.34 17
1 6 4 11367.4 993.154 6
1 6 4 10676.3 2181.99 4
-1 6 -4 9352.89 977.282 15
-1 -6 -5 5621.3 777.352 17
-1 6 -5 2516.15 1425.95 2
-1 -6 -5 3328.5 1107.49 1
1 6 5 5758.02 685.356 6
-1 6 -6 1590.43 367.846 13
-1 -6 -6 958.987 322.519 17
-1 -6 -7 120.281 180.565 17
-1 6 -7 30.9195 163.463 13
-1 6 -8 206.636 137.566 17
-1 6 -8 201.786 106.865 13
-1 -6 -8 330.909 134.093 17
1 7 -9 254.673 119.96 13
1 7 -8 5140.23 547.748 13
-1 7 8 2751.96 302.086 6
1 7 -7 1299.27 414.926 13
-1 7 7 1648.32 343.547 6
1 -7 -7 1032.26 343.61 17
1 7 -6 135.849 318.333 13
1 -7 -6 -220.902 334.798 17
-1 7 6 -28.3603 187.471 6
1 7 -5 52701.9 2442.21 15
1 7 -5 62642.2 2490.51 13
1 -7 -5 58409.4 2925.33 17
-1 7 5 57214.6 2148.84 6
1 7 -4 8866.81 1740.42 3
1 7 -4 12527.4 1167.94 15
-1 7 4 10760.2 2182.33 4
-1 7 4 14239.1 1015.94 6
1 7 -3 65519.8 4472.65 3
-1 7 3 75167.5 5559.65 3
-1 7 1 4875.88 1379.43 3
1 7 -1 6456.62 1367.58 3
-1 7 0 259213 9172.87 3
1 7 0 247998 7584.21 3
-1 7 -1 25828.8 3018.06 3
1 7 1 25150.4 2540.71 3
-1 7 -1 22536.4 2975.16 2
1 7 2 72217.3 4643.75 3
-1 7 -2 69609 5975.87 2
-1 7 -3 4411.29 1918 2
-1 -7 -3 3313.93 639.574 17
-1 7 -3 3127.54 573.755 15
-1 7 -3 5211.17 718.455 13
1 7 3 5252.74 1491.63 3
-1 7 -4 2051.03 538.096 15
-1 7 -4 777.667 623.357 2
-1 -7 -4 2778.93 632.605 17
1 7 4 2594 523.287 6
1 7 4 1365.27 714.001 4
-1 7 -4 1642.01 477.339 13
-1 7 -5 43834.6 1875.32 13
1 7 5 41364.4 1706.32 6
-1 7 -5 39285.8 1893.09 15
-1 -7 -5 45721.7 2198.81 17
-1 -7 -6 981.541 359.385 17
-1 7 -6 820.654 297.238 13
-1 -7 -7 4290.59 539.015 17
-1 7 -7 5692.55 497.899 13
-1 7 -8 3.24798 64.2843 13
-1 -7 -8 -68.847 85.4411 17
-1 8 8 131.699 87.5269 6
1 8 -8 77.6122 128.689 13
-1 8 7 4736.25 476.293 6
-1 8 6 1429.29 417.102 6
1 -8 -6 997.642 458.337 17
-1 8 5 1322.84 405.491 6
1 8 -5 1739.98 536.375 13
-1 8 5 2250.06 1076.19 4
1 8 -5 1805.87 577.072 15
1 -8 -5 911.406 416.581 17
1 8 -4 4128.57 755.31 15
1 8 -4 4174.56 1397.63 3
-1 8 4 2175.61 1327.21 4
1 8 -4 2176.49 677.939 13
1 8 -3 1424.11 765.466 3
-1 8 3 2425.48 426.201 6
1 8 -3 1834.97 447.8 15
-1 8 3 1193.12 375.157 15
1 8 -2 36109.6 3330.17 3
-1 8 1 53781.3 4429.09 3
1 8 -1 57286.5 4105.67 3
-1 8 0 742.747 494.233 3
-1 8 0 1499.76 765.488 2
1 8 0 867.489 614.539 3
-1 8 -1 9763.17 1992.91 2
-1 -8 -2 1074.98 359.655 17
-1 8 -2 1222.48 356.239 13
-1 8 -2 1098.1 396.889 15
1 8 2 924.367 603.865 3
-1 8 -2 846.091 623.304 2
-1 8 -3 18522.5 3474.95 2
-1 8 -3 16920.1 1273.85 13
-1 -8 -3 16280.3 1428.64 17
1 8 4 25852.5 1459.4 6
-1 -8 -4 31438.8 2132.58 17
-1 8 -5 192.341 305.313 15
-1 -8 -5 512.531 370.042 17
1 8 5 295.418 193.721 6
-1 8 -5 -65.8373 193.897 13
-1 8 -6 200.799 185.08 13
-1 -8 -6 419.164 260.552 17
-1 -8 -7 -77.9578 130.206 17
-1 8 -7 34.7244 106.152 13
1 9 -8 477.587 151.419 13
-1 9 7 1263.05 224.194 15
-1 9 7 1797.25 272.302 6
1 9 -7 1256.75 317.79 13
-1 9 6 368.334 215.525 6
1 9 -6 79.837 286.928 13
-1 9 6 41.479 173.688 15
-1 9 5 14503 1081.01 6
-1 9 5 12531.8 1078.12 15
1 9 -4 8978.65 1047.82 15
1 9 -4 9851.12 992.599 13
-1 9 4 10506.2 871.931 6
-1 9 4 5455.08 1673.97 4
1 9 -4 7244.72 2080.17 2
1 9 -4 7827.7 1722.99 3
1 9 -3 26266.7 1584.01 15
-1 9 3 25934.8 3520.07 3
1 9 -3 21501 3432.8 2
1 9 -3 20766.7 2808.58 3
1 9 -2 11613.1 1997.05 3
1 9 -2 10629.7 952.558 15
-1 9 2 11135.8 2241.53 3
1 9 -2 6136.99 1723.3 2
1 9 -1 730.941 319.848 15
-1 9 1 1038.73 358.509 15
-1 9 1 1544.28 862.349 3
1 9 -1 1159.51 743.171 3
1 9 0 50600.9 2022.62 15
-1 9 0 60486.5 5035.02 3
1 9 0 55936.6 4250.09 3
-1 9 0 56230.2 2174.92 15
1 9 1 22462.5 2884.04 3
-1 9 -1 22731.3 2947.64 3
-1 9 -1 18509.2 1244.21 15
-1 9 -1 19321.1 2880.07 2
1 9 1 19675.6 1253.59 15
1 9 2 38373.9 3869.24 3
1 9 2 39501.3 1757.36 15
-1 9 -2 37074.3 1787.6 13
-1 9 -2 40006.6 4341.49 2
-1 9 -3 1471.62 421.336 13
-1 9 -3 869.528 408.409 15
1 9 3 1940.81 859.217 3
-1 -9 -3 515.622 372.236 17
-1 9 -4 2099.35 556.13 15
-1 9 -4 2028.96 451.793 13
-1 -9 -4 2768.06 691.952 17
-1 -9 -5 7837.94 978.861 17
-1 9 -5 6152.17 656.408 13
-1 9 -6 1258.88 254.961 13
-1 -9 -6 550.61 268.566 17
-1 9 -7 1188.6 184.258 13
-1 9 -7 1177.84 205.615 17
1 10 -8 101.316 60.6045 13
1 10 -7 216.645 141.434 13
1 10 -6 -33.9067 184.652 13
-1 10 6 78.578 151.6 15
-1 10 6 227.261 184.091 6
-1 10 5 564.18 280.476 6
1 10 -5 558.948 300.217 15
-1 10 5 366.199 253.989 15
1 10 -4 391.929 307.342 15
1 10 -4 424.185 317.632 13
-1 10 4 180.604 274.327 15
-1 10 4 450.724 294.084 6
-1 10 3 2070.2 570.056 15
1 10 -3 1136.35 369.967 15
1 10 -2 907.014 317.855 15
-1 10 2 1123.03 474.199 15
1 10 -2 1048.8 668.878 3
1 10 -1 863.213 341.289 15
-1 10 1 1150.22 444.135 15
-1 10 1 107.158 469.06 3
-1 10 0 8813.3 2073.73 3
1 10 1 1892.37 426.061 15
-1 10 -1 1574.24 439.194 15
1 10 1 1570.65 940.464 3
-1 10 -2 5319.18 1607.31 2
1 10 2 6661.94 1803.01 3
-1 10 -3 242.875 248.065 15
-1 10 -3 163.618 196.533 13
1 10 3 -56.5473 258.475 15
-1 10 -4 740.422 301.229 13
-1 10 -4 729.227 357.032 15
1 10 4 1378.5 421.957 15
-1 10 -5 515.073 270.114 15
1 10 5 691.535 289.408 15
-1 10 -5 429.352 221.859 13
-1 10 -6 186.278 112.575 13
1 10 6 428.881 165.657 15
1 11 -7 41.0091 73.6411 13
-1 11 6 651.115 195.857 15
1 11 -6 815.377 229.459 13
1 11 -5 191.875 182.245 15
-1 11 5 46.5529 202.173 15
1 11 -5 -89.2933 190.457 13
-1 11 4 13925.5 1134.63 15
1 11 -4 15352.3 1091.15 13
-1 11 3 2925.19 586.42 15
1 11 -3 1936.04 441.414 15
-1 11 2 3700.14 654.785 15
1 11 -2 2465.87 537.66 15
1 11 -1 5889.09 715.066 15
1 11 -1 5144.93 1628.62 3
-1 11 1 3785.16 1517.01 3
-1 11 0 354.026 287.433 15
1 11 0 -554.52 924.738 3
1 11 0 568.185 306.443 15
1 11 1 51348.1 2105.2 15
-1 11 -1 50524.5 2039.42 15
1 11 2 2747.11 509.735 15
-1 11 -2 3152.25 503.399 13
-1 11 -2 2362.05 533.286 15
1 11 3 1329.76 372.932 15
-1 11 -3 522.569 282.618 13
-1 11 -3 584.155 328.543 15
-1 11 -4 1371.82 383.621 15
1 11 4 1351.81 377.651 15
-1 11 -4 1639.27 340.347 13
-1 11 -5 -166.681 99.0749 13
1 11 5 -72.7778 156.658 15
-1 11 -6 1847.4 205.551 13
1 11 6 2635.48 267.493 15
-1 12 6 -82.7747 71.4912 15
1 12 -6 -130.585 108.2 13
-1 12 5 346.996 196.347 15
1 12 -5 252.084 158.375 15
1 12 -5 843.125 229.121 13
1 12 -4 377.699 216.142 13
-1 12 4 900.914 325.772 15
1 12 -4 506.557 256.803 15
-1 12 3 8564.53 844.299 15
-1 12 2 1699.21 449.035 15
1 12 -2 668.962 303.618 15
-1 12 1 1211.56 384.013 15
1 12 -1 1167.04 351.851 15
1 12 1 338.184 266.575 15
-1 12 -1 739.712 270.355 13
-1 12 -1 572.576 294.629 15
-1 12 -2 5728.86 628.846 13
-1 12 -3 1223.62 321.963 13
-1 12 -3 2004.5 434.736 15
1 12 3 2596.94 457.949 15
-1 12 -4 195.303 198.338 15
-1 12 -4 206.988 138.461 13
1 12 4 153.534 187.465 15
1 12 5 1766.96 269.261 15
-1 12 -5 406.925 117.188 13
1 13 -5 -6.006 91.2264 13
-1 13 5 55.2277 77.3535 14
1 13 -4 2617.21 377.167 15
-1 13 4 2463.79 388.542 15
1 13 -4 2698.83 373.307 13
1 13 -3 961.692 261.433 15
-1 13 3 1538.19 359.915 15
1 13 -3 730.351 263.845 13
1 13 -2 148.016 194.493 15
-1 13 2 370.117 227.301 15
1 13 -1 1302.78 327.413 15
-1 13 1 1529.19 377.885 15
-1 13 0 685.574 300.471 15
1 13 0 620.713 284.948 15
-1 13 -1 10029.9 809.697 15
-1 13 -1 9433.46 714.453 13
1 13 1 11072 826.254 15
-1 13 -2 452.002 242.99 15
-1 13 -2 838.974 228.063 13
1 13 2 801.343 272.815 15
-1 13 -3 479.692 157.545 13
1 13 3 596.813 243.011 15
-1 13 -3 672.426 228.143 15
-1 13 -4 221.935 82.662 13
1 13 4 211.422 149.782 15
-1 13 -4 1.51254 102.609 15
-1 14 4 -56.2801 89.4929 15
1 14 -4 230.779 97.8906 13
-1 14 4 179.065 101.392 14
-1 14 3 82.5574 122.12 15
1 14 -3 295.478 159.878 15
1 14 -3 -44.2962 107.685 13
-1 14 2 934.536 254.975 15
1 14 -2 586.794 196.707 15
-1 14 1 597.794 228.344 15
1 14 -1 323.432 182.048 15
-1 14 0 650.284 228.687 15
1 14 0 531.18 224.557 15
-1 14 0 630.228 183.756 14
-1 14 -1 163.954 169.294 15
1 14 1 -88.0086 166.574 15
-1 14 -2 -67.6245 139.341 15
1 14 2 220.684 158.928 15
1 14 3 293.813 135.581 15
-1 14 -3 374.822 143.786 15
-1 15 3 1166.76 181.01 14
-1 15 2 103.071 94.0563 14
1 15 -2 24.8045 79.6113 13
1 15 -2 -69.0897 110.22 15
1 15 -1 311.615 131.843 15
-1 15 1 224.877 108.598 15
1 15 -1 -26.6449 84.5527 13
-1 15 1 -154.764 102.645 14
-1 15 0 1989.82 272.452 15
1 15 0 1977.77 257.385 15
-1 15 -1 104.318 104.41 15
1 15 1 62.843 87.8252 15
1 15 2 1204.56 188.902 15
-1 15 -2 1128 175.935 15
-2 0 10 5203.05 327.395 6
-2 0 9 938.389 238.361 6
-2 0 8 45864.5 1637.4 16
2 0 -8 42005.9 1547.68 13
-2 0 8 40561.4 1562.58 6
2 0 -7 38002.2 1574.45 13
-2 0 7 41347.2 1730.26 16
-2 0 7 37486.5 1611.26 6
-2 0 6 3234.73 553.21 16
-2 0 6 2142.49 896.684 4
-2 0 5 170415 7608.85 4
-2 0 4 2561.6 881.669 4
-2 0 3 617379 13177.6 4
-2 0 2 77759.5 4038.21 4
-2 0 1 197597 4745.68 4
2 0 0 999999 7024.81 3
-2 0 -1 942.199 604.304 5
-2 0 -2 654856 18973.3 1
-2 0 -3 14751.1 3028.2 1
-2 0 -3 13484.2 2373.57 2
-2 0 -4 15606.7 3246.43 1
-2 0 -5 28876.9 1533.77 17
-2 0 -5 30502.1 1651.02 13
-2 0 -6 2210.43 447.025 13
-2 0 -6 2033.92 428.32 17
-2 0 -7 38485 1443.8 17
-2 0 -8 -56.812 94.0759 17
-2 1 10 56.7437 66.2413 6
-2 -1 10 82.199 76.7364 6
-2 -1 9 58.5939 131.156 6
-2 1 9 84.3746 126.3 6
2 1 -9 313.253 122.571 13
2 1 -8 4677.55 551.518 13
-2 -1 8 4620.49 541.785 16
2 -1 -8 4695.38 524.573 13
-2 1 8 4968.75 542.234 6
-2 -1 8 4873.75 545.852 6
-2 -1 7 14260.9 1044.13 16
-2 1 7 14992.1 1038.07 16
2 1 -7 13062.5 944.451 13
-2 1 7 12988.7 961.802 6
-2 1 7 15271.1 2374.8 4
-2 -1 7 16123.1 2408.31 4
-2 1 6 2487.27 477.26 16
-2 -1 6 2349.04 507.211 16
-2 1 6 2952.23 1143.27 4
-2 1 6 2719.96 475.746 6
-2 -1 6 2429.49 1019.73 4
-2 1 5 1485.46 836.416 4
-2 -1 5 1233.39 554.45 4
-2 -1 4 5645.11 1392.65 4
-2 1 4 5013.23 1401.21 4
-2 -1 3 21916.9 2472.47 4
-2 1 3 24796.2 2730.81 4
-2 1 2 212777 7552.96 4
-2 -1 2 218427 6211.91 4
-2 1 1 128121 4619.23 4
-2 1 1 130812 3752.05 5
-2 -1 1 129011 3872.31 4
2 1 0 24973.3 1394.95 3
-2 -1 0 27108.8 1954.61 5
-2 1 0 25771.3 1128.49 4
-2 1 0 28125.3 2066.2 5
-2 1 -1 51329.6 3864.17 2
-2 -1 -1 48146.1 3034.29 5
2 1 1 47147.6 1810.62 3
-2 -1 -2 30095.8 4704.75 1
-2 1 -2 23401.5 3521.17 2
-2 -1 -2 27021.4 2954.7 5
-2 1 -3 35041.9 4826.71 2
-2 -1 -3 25880.8 4445.57 1
-2 1 -4 16504.3 3097.46 2
-2 -1 -4 15592.3 1113.32 17
-2 -1 -4 16070.4 3066.6 5
-2 -1 -4 13768.9 3263.02 1
-2 -1 -5 1771.45 1100.43 5
-2 1 -5 1713.59 465.551 13
-2 -1 -5 1493.53 1217.53 1
-2 -1 -5 1902.21 456.577 13
-2 -1 -5 2003.2 482.819 17
-2 1 -6 9392.42 849.474 17
-2 -1 -6 9363.86 855.097 13
-2 1 -6 9218.63 829.744 13
-2 -1 -6 9684.44 886.764 17
-2 1 -7 306.512 202.356 13
-2 -1 -7 219.393 169.109 17
-2 1 -7 32.9829 164.217 17
-2 1 -8 1154.3 206.253 17
-2 -1 -8 1123.05 198.472 17
-2 -2 10 983.749 158.602 6
-2 2 10 1203.78 157.414 6
2 2 -9 6938.62 550.323 13
-2 -2 9 7189.7 557.319 6
-2 2 9 6529.51 505.425 6
-2 -2 8 16518 979.88 16
2 2 -8 16356.1 1036.08 13
-2 2 8 16177.5 967.872 6
-2 -2 8 17301.4 1023.39 6
-2 2 7 38535.9 3906.04 4
-2 2 7 36378.2 1593.38 6
-2 -2 7 38309 1689.28 16
2 2 -7 37867.2 1610.56 13
-2 -2 7 38773.7 3679.1 4
-2 2 7 39229.4 1679.35 16
-2 2 6 19645.5 2919.28 4
-2 -2 6 17199.8 1249.3 16
-2 -2 6 16735.4 2460.23 4
-2 2 6 16074.5 1083.05 6
2 2 -6 17076.7 1079.97 13
-2 2 6 15989.9 1098.86 16
-2 2 5 28911.4 3309.19 4
-2 -2 5 27318.2 3060.28 4
-2 -2 4 147044 6754.25 4
-2 2 4 151398 7306.38 4
-2 2 3 254459 9036.55 4
-2 -2 3 246771 7726.02 4
-2 2 2 252151 8832.07 4
-2 -2 2 251449 6577.51 4
2 2 -1 94989.2 3504.03 3
-2 -2 1 94498.1 3509.48 4
-2 2 1 93364.3 3195.63 5
-2 -2 0 83514 3388.84 5
-2 2 0 83339.9 3843.18 5
-2 2 0 79171 3475.15 4
2 2 0 81506.3 2909.64 3
2 2 1 228051 4962.11 3
-2 -2 -1 217757 6234.97 5
-2 -2 -1 231476 9110.47 1
-2 -2 -2 206612 7276.37 5
-2 -2 -2 220485 14857.5 1
-2 2 -2 203134 13080.4 2
2 2 2 183060 5083.87 3
-2 -2 -3 67091.9 5243.99 5
-2 2 -3 75798.3 9062.27 2
-2 -2 -4 16502 3462.74 1
-2 -2 -4 17546.9 3012.21 5
-2 -2 -4 15173.4 1179.41 13
-2 2 -4 15558 1159.76 13
-2 2 -4 15366.7 3157.69 2
-2 -2 -4 14947.5 1130.33 17
-2 2 -5 6105.41 749.741 13
-2 -2 -5 7133.77 781.621 13
-2 -2 -5 5443.61 1845.17 1
-2 -2 -5 6357.63 735.547 17
-2 2 -6 30151.3 1495.29 13
-2 -2 -6 28399 1464.07 17
-2 2 -6 29175.5 1451.41 17
-2 2 -7 11545.8 807.482 13
-2 2 -7 10066.6 759.741 17
-2 -2 -7 10922.4 785.331 17
-2 -2 -8 1594.64 238.809 17
-2 2 -8 2004.65 251.387 17
-2 3 10 -50.4942 63.209 6
-2 -3 10 92.3835 64.1361 6
2 3 -9 2032.86 304.633 13
-2 3 9 1368.59 244.648 6
-2 -3 9 2151.37 315.31 6
2 3 -8 2257.73 404.215 13
-2 3 8 1532.09 327.732 6
-2 -3 8 1748.25 359.392 16
-2 -3 7 1275.1 365.596 16
2 3 -7 769.262 283.731 13
-2 3 7 612.004 451.779 4
-2 -3 7 618.869 571.343 4
-2 3 7 896.171 282.916 6
2 3 -6 31334.3 1503.35 13
-2 -3 6 32008.1 3468.03 4
-2 3 6 28761.8 1474.11 16
-2 3 6 31302.7 1516.89 6
-2 -3 6 30570.1 1625.84 16
-2 3 6 34251.4 3819.12 4
-2 3 5 24102.3 3137.05 4
-2 -3 5 23411.5 3005.03 4
-2 3 4 19995.5 2764.71 4
-2 -3 4 18625.2 2508.19 4
-2 -3 3 5439.45 1239.2 4
-2 3 3 5233.72 1516.06 4
-2 3 2 20247.6 2683.39 4
-2 -3 2 18433.3 1940.89 4
-2 3 1 116753 3690.37 5
2 3 -1 120583 4303.03 3
-2 3 1 115869 6161.07 4
-2 3 0 118415 4833.56 5
2 3 0 114244 3887.24 3
-2 -3 0 122497 4193.34 5
-2 3 -1 37233.8 4365.36 2
-2 -3 -1 39480.8 2571.64 5
-2 -3 -1 39079.3 4098.67 1
2 3 1 29788.6 2082.22 3
2 3 2 12036.6 1400.82 3
-2 3 -2 21614.1 5961.15 2
-2 -3 -2 19645.3 5915.91 1
-2 -3 -2 17167.2 2021.2 5
-2 -3 -3 4481.39 1311.38 5
-2 -3 -3 8756.59 5890.4 1
-2 3 -3 4634.75 3416.71 2
-2 3 -4 26904.1 1475.49 13
-2 3 -4 25862.2 4057.12 2
-2 -3 -4 31297.1 5194.27 1
-2 -3 -4 26987.9 1587.49 17
-2 -3 -5 31738.2 1690.75 17
-2 -3 -5 35173.1 5092.36 1
-2 3 -5 33788.7 1672.89 13
-2 -3 -6 2362.41 466.185 17
-2 3 -6 1808.42 400.19 13
-2 -3 -7 148.754 161.155 17
-2 3 -7 -29.6336 157.734 17
-2 3 -7 -50.1149 204.104 13
-2 3 -8 378.257 127.78 17
-2 -3 -8 261.291 107.408 17
-2 -4 10 67.4661 57.4976 6
-2 4 10 48.0996 44.217 6
2 4 -9 8225.26 598.053 13
-2 4 9 9306.95 561.191 6
-2 -4 8 5617.56 562.425 16
2 4 -8 6790.08 684.555 13
-2 4 8 6745.61 616.936 6
-2 -4 7 16477.2 1121.27 16
-2 4 7 15097.3 2561.02 4
2 4 -7 14954.1 1099.22 13
-2 4 7 16661.1 1063.83 6
-2 4 6 22757.5 3204.91 4
2 4 -6 19352.4 1287.89 13
-2 4 6 23162.3 1320.46 6
-2 -4 6 17198.2 1265.96 16
2 4 -6 16672.9 2355.77 3
-2 4 5 917.408 686.509 4
-2 -4 5 1166.3 772.456 4
-2 4 4 338176 12046.4 4
-2 -4 4 326700 10561.1 4
2 4 -3 46333.3 3477.34 3
-2 4 3 48553.1 4446.53 4
-2 4 2 188576 8541.52 4
2 4 -2 193589 6708.6 3
2 4 -1 71865.8 3525.36 3
-2 4 1 67416.8 2803.83 5
-2 4 0 7364.39 1247.73 5
-2 4 0 4915.61 1461.39 3
-2 4 0 7326.96 1669.48 2
2 4 0 7657.76 1102.23 3
2 4 1 425269 8617.09 3
-2 4 -1 399186 15613.8 2
-2 -4 -1 407202 8202.57 5
2 4 2 26074.4 2382.96 3
-2 4 -2 26904.7 7309.08 2
-2 -4 -2 25814.6 2303.71 5
-2 -4 -2 15808.4 3521.35 1
-2 -4 -3 82032.8 10128.7 1
-2 4 -3 133599 13446.7 2
-2 4 -4 4694.69 1570.9 2
-2 4 -4 7545.64 874.075 7
-2 -4 -4 9209.71 2560.23 1
-2 4 -4 8321.81 829.594 13
-2 -4 -4 8418.68 914.142 17
-2 4 -5 353.424 270.214 13
-2 -4 -5 182.013 192.089 17
-2 -4 -6 42022.1 1784.77 17
-2 4 -6 47049.1 1840.25 13
-2 -4 -7 346.451 185.826 17
-2 4 -7 588.279 225.103 17
-2 4 -7 787.516 243.378 13
-2 4 -8 4632.1 367.911 17
-2 -4 -8 4649.13 349.866 17
2 5 -9 1895.55 292.662 13
-2 5 9 1857.17 245.969 6
-2 -5 9 2287.79 326.046 6
-2 -5 8 825.574 269.517 16
2 5 -8 1055.76 329.317 13
2 5 -7 475.05 262.401 13
-2 -5 7 556.008 286.739 16
-2 5 7 155.959 195.099 6
-2 5 6 13985 1057.59 6
-2 5 6 10835.6 2249.71 4
-2 -5 5 9245.4 931.128 16
-2 5 5 6188.79 1748.29 4
2 5 -5 7647.61 826.766 13
2 5 -5 6071.12 1527.72 3
-2 5 4 15497.3 2739.66 4
2 5 -4 15315.7 2336.85 3
2 5 -2 2853.22 948.74 3
2 5 -1 22920.5 2173.03 3
-2 5 1 19846.9 1493.3 5
2 5 0 43988.7 2865.72 3
-2 5 0 47991.7 3100.14 5
-2 5 0 48233.8 4197.89 2
-2 5 0 37905.6 5296.65 3
2 5 1 17392.7 1864.2 3
-2 5 -1 19871.5 3385.57 2
-2 5 -2 2671.41 2530.03 2
2 5 2 983.071 525.674 3
-2 -5 -2 1500.48 1277.42 1
-2 5 -3 1193.31 1296.7 2
-2 5 -3 2619.01 547.949 15
2 5 3 884.632 539.601 3
-2 -5 -3 2355.45 522.232 17
-2 -5 -3 626.366 1101.36 1
-2 5 -4 5027.19 1900.52 2
-2 -5 -4 8094.77 940.175 17
-2 5 -4 7568.8 859.722 15
-2 5 -4 7495.45 835.264 13
-2 -5 -4 6958.04 2331.46 1
-2 -5 -5 29339.2 1604.82 17
-2 5 -5 26709.1 1479.15 13
-2 5 -6 1220.15 337.255 13
-2 -5 -6 978.386 319.963 17
-2 5 -7 332.023 160.658 13
-2 5 -7 250.855 181.614 17
-2 -5 -7 317.622 162.887 17
-2 5 -8 187.274 88.3503 17
-2 -5 -8 50.4669 64.315 17
-2 6 9 1242.78 191.102 6
-2 -6 9 919.981 237.012 6
2 6 -9 1118.94 245.299 13
2 6 -8 14212.6 921.794 13
-2 6 8 10679.2 699.203 6
-2 -6 7 4754.88 624.768 16
-2 6 7 5569.33 685.129 6
2 6 -7 5611.16 720.853 13
2 6 -6 342.766 549.434 3
2 6 -6 1156.96 487.343 13
-2 6 6 2935.37 1363 4
-2 -6 6 1424.65 452.426 16
-2 6 6 1941.64 452.986 6
2 -6 -6 2434.14 837.203 17
2 -6 -5 1518.17 454.365 17
2 6 -5 2255.26 1042.07 3
-2 6 5 3374.81 1551.69 4
2 6 -4 29056.7 3253.71 3
-2 6 4 31513.3 4018.94 4
2 6 -3 118163 5962.88 3
-2 6 3 131398 7869.79 4
2 6 -2 39607.1 3320.29 3
-2 6 2 34875.5 4258.86 3
-2 6 1 7002.2 1969.09 3
2 6 -1 8781.93 1497.04 3
-2 6 0 21855.7 2885.56 2
2 6 0 22503.2 2203.52 3
2 6 1 37011 2896.73 3
-2 6 -1 39135.6 4537.6 2
2 6 2 125107 6226.28 3
-2 -6 -2 91753.1 7436.16 1
-2 6 -3 29783.4 4828.28 2
-2 6 -3 29433.7 1773.96 15
-2 -6 -3 33345.6 1846.57 17
-2 6 -3 30880.6 1714.23 13
2 6 3 35686.1 3805.52 3
-2 -6 -4 -219.009 286.431 17
-2 6 -4 -42.1154 1079.75 2
-2 6 -4 358.95 337.16 15
-2 6 -4 -92.8931 216.961 13
-2 -6 -4 -1017.08 1898.89 1
-2 6 -5 4264.81 623.76 7
-2 6 -5 4917.32 634.244 13
-2 -6 -5 3098.92 628.694 17
-2 6 -6 4225.98 531.247 13
-2 -6 -6 4240.14 578.156 17
-2 6 -7 5812.47 535.354 17
-2 6 -7 6050.66 454.262 13
-2 -6 -7 5004.1 502.489 17
2 7 -9 -29.8127 93.9039 13
-2 -7 9 47.324 108.614 6
-2 7 9 80.5614 65.7477 6
2 7 -8 1068.97 295.666 13
-2 7 8 507.266 180.256 6
2 7 -7 8127.6 924.814 13
-2 -7 6 1668.4 493.371 16
2 7 -6 1165.11 490.014 13
-2 7 6 573.513 331.262 6
-2 -7 5 3.9362 309.316 16
2 7 -5 -8.49639 278.22 13
-2 7 5 -656.673 710.865 4
2 7 -5 -417.431 652.447 3
-2 7 5 178.029 212.629 6
-2 7 4 1994.87 1332.4 4
2 7 -4 3504.1 1241.9 3
-2 7 3 3495.79 1407.51 4
2 7 -3 4032.03 1206.5 3
2 7 -2 72642.6 4770.52 3
-2 7 1 11329.1 2668.24 3
-2 7 0 -1367.99 1647.31 3
2 7 0 -345.789 444.673 3
-2 7 -1 48129.5 5009.03 2
-2 7 -2 12069.6 1143.38 15
2 7 2 14449.6 2157.53 3
-2 7 -2 15075 3364.74 2
-2 -7 -2 13188.5 1097.67 17
2 7 3 22118 3173.07 3
-2 7 -3 20584.6 1447.34 13
-2 7 -3 22954.9 4145.2 2
-2 -7 -3 18248.2 1492.73 17
-2 7 -4 8480.7 2380.57 2
-2 7 -4 6625.57 892.221 15
-2 7 -4 7148.38 856.186 13
-2 -7 -4 8636.3 1049.28 17
-2 7 -5 278.76 228.504 7
-2 7 -5 492.489 262.332 13
-2 -7 -6 3455.14 525.845 17
-2 7 -6 2428.78 374.228 13
-2 -7 -7 243.865 138.239 17
-2 7 -7 93.6461 81.4 13
-2 7 -7 153.241 123.642 17
2 8 -8 5335.61 541.841 13
-2 8 8 4125.76 366.11 6
2 8 -7 4282.57 673.211 13
-2 8 7 6382.43 614.784 6
2 8 -6 -275.557 383.816 13
-2 8 6 279.708 251.255 6
-2 -8 5 10920.8 1089.04 16
2 8 -5 12309.5 1311.66 13
-2 8 5 11527 932.436 6
-2 8 5 6528.17 2175.88 4
2 8 -5 5384.13 1454.72 3
-2 8 4 -164.01 291.695 15
-2 8 4 77.679 170.698 6
-2 -8 4 209.058 279.368 16
-2 8 3 70071.8 2582.77 15
2 8 -3 73004.2 5057.48 3
-2 8 3 75654.7 2092.81 6
-2 8 2 10331.7 2319.28 3
-2 8 2 14713.6 924.644 6
-2 8 1 3207.22 1484.59 3
2 8 -1 3251.18 1054.47 3
-2 8 0 44400.6 2027.83 15
2 8 0 42492.2 3457.55 3
2 8 1 181.95 429.356 3
-2 8 -1 550.515 1021.41 2
-2 8 -1 128.757 221.98 15
-2 -8 -1 53.2467 234.889 17
-2 8 -2 101113 3092.15 15
-2 -8 -2 96585.9 3107.77 17
2 8 2 98425.7 5916.21 3
-2 8 -3 2770.64 1713.97 2
-2 8 -3 1513.14 554.019 15
-2 -8 -3 1544.45 568.342 17
-2 8 -3 2966.51 584.472 13
2 8 3 -3.42703 846.229 3
-2 8 -4 557.628 370.787 15
-2 8 -4 549.51 245.41 13
-2 -8 -4 656.849 396.376 17
-2 -8 -5 2496.31 535.33 17
-2 8 -5 2524.1 461.173 7
-2 8 -5 3020.99 445.169 13
-2 8 -6 309.628 161.909 13
-2 -8 -6 107.559 169.831 17
2 8 7 4668.48 299.055 15
-2 8 -7 3701.89 317.605 17
2 9 -8 112.256 115.353 13
-2 9 8 70.2981 75.079 6
2 9 -7 1078.65 372.922 13
2 9 -6 -215.067 344.398 13
-2 9 6 433.479 265.612 6
-2 9 5 -207.735 321.112 15
2 9 -5 539.427 353.813 13
-2 9 5 328.731 243.672 6
-2 -9 4 1250.22 408.454 16
-2 9 4 1061.64 399.489 15
-2 9 4 -47.6545 514.793 4
-2 9 4 856.791 294.023 6
2 9 -4 1967.78 971.787 3
-2 -9 3 1884.05 458.067 16
2 9 -3 1083.09 401.349 15
-2 9 3 608.016 304.305 15
-2 9 3 201.047 539.187 4
-2 9 3 1217.1 299.597 6
2 9 -3 2072.9 1029.99 3
2 9 -2 10899.6 937.769 15
-2 9 1 7186.84 2329.05 3
2 9 -1 5822.84 1509.58 3
2 9 0 -41.8836 243.135 15
-2 9 0 436.732 306.662 15
2 9 0 -445.494 573.04 3
-2 9 -1 15547 1180.14 15
-2 9 -2 1776.32 1113.95 2
2 9 2 1211.95 743.683 3
-2 9 -2 1340.15 456.289 15
-2 -9 -2 1229.14 413.961 17
-2 9 -3 1473.01 464.377 15
-2 9 -3 1896.78 412.542 13
-2 -9 -3 1273.33 502.154 17
-2 9 -4 1711.92 469.004 15
-2 9 -4 1441.35 367.682 13
-2 -9 -4 2737.15 630.934 17
-2 9 -5 -58.5694 155.308 7
-2 9 -5 24.7906 129.507 13
-2 -9 -5 68.8385 196.1 17
2 9 6 3029.53 317.618 15
-2 9 -6 996.818 176.933 13
2 10 -8 191.826 81.7629 13
2 10 -7 2188.12 345.917 13
-2 10 6 153.03 123.205 14
2 10 -6 332.447 277.927 13
-2 10 6 344.76 201.34 6
-2 10 5 76.6622 213.558 15
-2 10 5 279.5 222.723 6
2 10 -5 296.9 302.866 13
-2 10 4 5661.03 798.936 15
-2 10 3 6450.2 847.064 15
-2 -10 3 5153.59 653.793 16
-2 10 3 3402.68 1460.6 4
2 10 -3 4662.03 1383.76 3
2 10 -2 5392.42 689.784 15
2 10 -2 6667.57 1622.74 3
-2 10 1 2690.25 592.807 15
2 10 -1 2432.64 467.008 15
2 10 -1 2370.5 1092.86 3
-2 10 0 1939.91 510.049 15
2 10 0 2671.88 1000.22 3
2 10 0 1877.27 473.059 15
-2 10 -1 13467.9 1103.64 15
2 10 1 13105.4 2288.58 3
2 10 1 12534.6 1068.95 15
-2 10 -2 6227.43 827.856 15
2 10 2 5829.74 771.471 15
-2 10 -3 2946.64 555.571 15
2 10 3 2323.04 500.853 15
-2 10 -3 2429.73 427.739 13
-2 10 -4 1120.89 346.175 15
2 10 4 746.196 308.032 15
-2 10 -4 1673.87 301.622 13
2 10 5 76.3876 153.099 15
-2 10 -5 -22.7676 93.8797 13
-2 10 -5 141.265 124.091 7
2 10 6 1396.86 186.618 15
2 11 -7 169.313 100.893 13
-2 11 7 77.087 69.9602 11
-2 11 6 822.532 200.449 14
2 11 -6 1248.35 290.366 13
2 11 -5 1701.74 389.969 13
-2 11 5 2126.56 369.941 14
-2 11 4 636.327 276.643 15
2 11 -4 619.423 322.878 13
2 11 -3 487.008 278.4 15
-2 -11 3 205.398 192.577 16
-2 -11 2 1441.88 364.72 16
2 11 -2 591.835 288.523 15
-2 11 2 1371.88 441.927 15
-2 11 1 4469.32 702.431 15
2 11 -1 3443.33 585.908 15
-2 11 0 8864.53 839.155 14
-2 11 -1 1074.22 374.514 15
2 11 1 1212.82 376.946 15
-2 11 -2 1370.9 467.109 15
2 11 2 1754.83 438.282 15
-2 11 -3 1709.56 415.692 15
2 11 3 1657.89 402.134 15
2 11 4 952.473 288.779 15
-2 11 -4 1286.77 310.57 15
2 11 5 2546.22 305.72 15
-2 11 -5 818.867 178.193 7
-2 12 6 89.434 80.8717 14
2 12 -6 164.506 123.886 13
-2 12 5 190.863 146.662 15
-2 12 5 311.336 165.397 14
2 12 -5 221.91 176.453 13
-2 12 4 5664.9 657.704 15
2 12 -4 5956.03 615.769 13
2 12 -3 747.357 235.622 15
-2 12 3 1613.84 413.159 15
2 12 -2 3167.87 518.968 15
-2 12 1 3256.04 551.063 15
2 12 -1 2196.64 453.416 15
-2 12 0 707.854 294.74 15
2 12 0 535.63 303.317 15
-2 12 0 313.356 205.23 14
2 12 1 15874.9 1096.45 15
-2 12 -1 16769.4 1095.73 15
-2 12 -2 389.286 271.671 15
2 12 2 438.81 239.995 15
-2 12 -3 4870.95 569.638 15
2 12 3 5230.18 563.557 15
2 12 4 49.8097 131.995 15
-2 12 -4 134.832 126.341 7
2 12 5 83.9862 67.5524 15
2 13 -6 89.4757 60.8444 13
-2 13 5 404.21 137.046 14
2 13 -5 328.769 141.018 13
-2 13 4 348.408 187.498 15
2 13 -4 531.168 222.296 13
-2 13 4 586.352 201.969 14
2 13 -3 235.48 153.289 15
-2 13 3 197.844 231.554 14
2 13 -3 30.4202 177.934 13
2 13 -2 323.861 165.242 15
-2 13 2 152.056 171.53 15
-2 13 2 478.358 289.237 14
-2 13 1 1714.79 372.421 15
2 13 -1 924.842 278.336 15
-2 13 1 860.396 268.911 14
-2 -13 1 961.686 251.483 16
2 13 0 2589.88 405.994 15
-2 13 0 3001.47 443.373 15
-2 13 -1 332.904 215.61 15
2 13 1 551.958 224.155 15
-2 13 -2 455.652 208.18 15
2 13 2 436.718 218.28 15
-2 13 -3 265.361 152.733 15
2 13 3 -70.822 124.147 15
2 13 4 64.0721 70.6064 15
-2 13 -4 122.447 77.0582 7
-2 14 4 322.806 129.003 14
2 14 -4 228.786 130.558 13
-2 14 3 1814.85 290.973 15
-2 14 3 2219.17 323.803 14
2 14 -3 1781.01 291.909 13
2 14 -2 251.094 126.169 15
-2 14 2 394.065 188.371 14
2 14 -2 327.528 177.614 13
-2 14 2 686.647 205.546 15
-2 14 1 210.01 157.707 15
2 14 -1 -24.3048 104.819 15
-2 14 1 72.3916 132.802 14
-2 14 0 1013.17 245.681 15
2 14 0 657.757 208.943 15
-2 -14 0 290.062 156.254 16
-2 -14 -1 475.643 173.126 16
-2 14 -1 534.042 191.981 15
2 14 1 421.934 174.656 15
-2 14 -2 1781.21 275.93 15
2 14 2 1827.08 259.512 15
-2 14 -3 496.788 121.936 7
-2 15 3 -11.2548 66.0197 14
-2 15 2 324.276 119.933 14
2 15 -2 405.278 126.074 13
-2 15 1 443.782 131.715 15
2 15 -1 583.87 149.246 13
-2 15 0 149.765 98.3808 15
-3 0 10 856.808 148.441 6
-3 0 9 231.875 180.627 6
-3 0 8 5836.11 628.781 16
-3 0 8 5679.97 613.364 6
-3 0 7 16993.9 1147.4 16
-3 0 7 20016.4 3003.57 4
-3 0 7 16893.3 1121 6
-3 0 6 4385.38 613.945 16
-3 0 6 6450.71 1664.63 4
-3 0 5 62645.1 5141.2 4
-3 0 4 58507.1 4798.24 4
-3 0 3 98427.5 5706.58 4
-3 0 2 89072.7 4501.95 4
-3 0 1 76916.3 3765.79 5
-3 0 1 77886 3209.13 4
-3 0 0 28799.4 2645.81 5
-3 0 -1 158055 7816.67 5
-3 0 -2 33014.7 4627.86 5
-3 0 -3 17878.9 3928.65 5
-3 0 -4 28123.9 4727.45 5
-3 0 -4 25976.6 1531.27 17
-3 0 -4 28735.3 1793.8 13
-3 0 -5 6546.73 746.984 17
-3 0 -5 7167.12 796.791 13
-3 0 -6 30434.7 1376.88 17
-3 0 -7 1535.21 254.151 17
-3 1 10 4753.25 342.159 6
-3 -1 10 4784.63 359.429 6
-3 1 9 401.518 180.473 6
-3 -1 9 372.408 209.836 16
-3 -1 9 683.012 239.233 6
-3 -1 8 25774.6 1286.41 16
-3 1 8 23969.9 1232.26 6
-3 1 8 25851.9 1274.62 16
-3 -1 8 25771 1292.39 6
-3 1 7 22234.9 1289.29 16
-3 1 7 26717.7 3517.08 4
-3 -1 7 22579.1 1324.04 16
-3 -1 7 26519.6 3430.36 4
-3 1 7 21517.7 1302.61 6
-3 -1 6 37661.8 1817.16 16
-3 1 6 41623.9 4325.69 4
-3 -1 6 39535 4113.19 4
-3 1 5 54769.1 4821.85 4
-3 -1 5 58050.5 4953.94 4
-3 1 4 360.072 606.136 4
-3 -1 4 1135.1 994.092 4
-3 -1 3 350286 10161.9 4
-3 1 3 335754 11570.5 4
-3 -1 2 105537 4662.83 4
-3 1 2 108692 5545.71 4
-3 1 2 114039 4667.98 5
-3 -1 1 49741.9 3126.31 5
-3 1 1 50203.8 3057.95 5
-3 1 1 46556.9 2633.07 4
-3 -1 1 49820.2 2600.23 4
3 1 -1 41765.3 2388.9 3
3 1 0 52443.9 2507.87 3
-3 -1 0 48345.9 3293.95 5
-3 1 0 51039.1 3709.78 5
-3 -1 -1 1045.59 696.687 5
-3 1 -1 960.946 811.339 5
-3 1 -2 290612 15381.2 5
-3 -1 -2 287552 12136.1 5
-3 1 -3 25774.9 5054.87 5
-3 -1 -3 17156.4 3528.12 5
-3 1 -3 24325.1 1451.28 7
-3 -1 -3 23893 1468.24 17
-3 1 -4 50718.8 7267.16 5
-3 -1 -4 47220 5845.67 5
-3 1 -4 41289.9 2142.2 13
-3 -1 -4 37633.3 1847.35 17
-3 1 -5 4396.25 606.556 13
-3 -1 -5 4052.78 594.424 17
-3 1 -5 4191.14 605.722 17
-3 -1 -6 507.519 251.25 17
-3 1 -6 808.837 312.737 17
-3 -1 -7 17176.9 786.957 17
-3 1 -7 16925.3 784.806 17
-3 2 10 368.783 116.493 6
-3 -2 10 243.676 104.877 6
-3 -2 9 17.081 148.413 16
-3 -2 9 117.661 161.144 6
-3 2 9 -72.5948 155.743 6
-3 2 8 1271.38 322.567 6
-3 -2 8 1329.93 338.19 16
-3 2 8 1114.75 331.705 16
-3 -2 7 2408.44 503.007 16
-3 2 7 1663.54 380.073 6
-3 2 7 1298.73 1109.41 4
-3 -2 7 1200.07 946.064 4
-3 2 7 1356.91 353.85 16
-3 2 6 5239.89 690.842 16
-3 -2 6 5907.45 779.709 16
-3 2 6 5498.41 680.256 6
-3 2 6 6118.37 1725.35 4
-3 -2 6 5084.38 1324.12 4
-3 2 5 4442.33 1382.75 4
-3 -2 5 3211.21 1155.8 4
-3 2 4 6654.79 1751.51 4
-3 -2 4 5752.68 1441.35 4
-3 2 3 18767.8 2981.56 4
-3 -2 3 17774.6 2236.09 4
-3 2 2 3508.49 864.429 5
-3 2 2 4606.48 1444.37 4
-3 -2 2 3435.84 870.308 4
-3 2 1 12318.8 1631.86 4
-3 2 1 12289.6 1566.36 5
3 2 -1 11582.9 1360.69 3
-3 -2 1 11727.6 1616.01 5
-3 -2 0 5562.93 1184.71 5
-3 2 0 5795.86 1265.27 5
3 2 0 6219.17 930.236 3
-3 -2 -1 26123.5 2687.57 5
-3 2 -1 29713.8 3988.67 5
-3 -2 -2 33114.6 3640.46 5
-3 2 -2 30375.2 5701.26 5
-3 -2 -3 8694.62 2216.17 5
-3 2 -3 7205.47 3859.64 5
-3 2 -3 8108.07 855.058 7
-3 -2 -3 8595.49 908.615 17
-3 2 -4 3837.47 1981.49 5
-3 -2 -4 3324.56 594.955 17
-3 2 -4 3469.49 525.516 7
-3 2 -4 4078.33 688.587 13
-3 -2 -5 1623.03 436.253 17
-3 2 -5 1676.93 381.997 17
-3 2 -5 1276.82 334.103 13
-3 -2 -6 8426.14 731.277 17
-3 2 -6 8432.28 696.25 13
-3 2 -6 8067.71 710.826 17
-3 -2 -7 1797.98 267.455 17
-3 2 -7 1736.19 260.053 17
-3 3 10 351.588 99.2223 6
-3 -3 10 375.391 117.903 6
-3 -3 9 6840.9 601.274 16
-3 3 9 6652.8 521.897 6
-3 -3 9 8183.38 628.986 6
-3 -3 8 2210.34 449.756 16
-3 3 8 2827.64 427.283 6
-3 -3 7 43065.7 1899.73 16
-3 3 7 44108.8 4549.36 4
-3 -3 7 40759.1 4212.68 4
-3 3 7 39463.1 1688.04 16
-3 3 7 40283.9 1706.38 6
-3 -3 6 40584 1989.63 16
-3 3 6 41726.2 4488.05 4
-3 3 6 38835.3 1757.64 16
-3 -3 6 44858.2 4536.47 4
-3 3 6 41276.4 1862.5 6
-3 3 5 123.041 777.221 4
-3 -3 5 311.231 688.371 4
-3 3 4 100559 7243.82 4
-3 -3 4 92180.3 5761.56 4
-3 3 3 5962.38 1903.19 4
-3 -3 3 3851.36 1068.26 4
3 3 -2 382192 9455.8 3
-3 3 2 378447 8272.94 5
-3 3 1 106444 4619.28 5
3 3 -1 108041 4350.22 3
-3 3 1 107046 6405.97 4
-3 -3 0 9038.42 1521.5 5
3 3 0 8821.92 1204.47 3
-3 3 0 8828.16 1708.24 5
-3 -3 -1 148665 6348.55 5
-3 3 -1 167042 10001.2 5
-3 3 -2 1361.2 1308.05 5
-3 -3 -2 2880.27 1131.97 5
-3 -3 -3 138252 7914.6 5
-3 -3 -3 130523 3523.3 17
-3 3 -4 9888.91 2826.01 5
-3 -3 -4 10139.8 982.713 17
-3 3 -4 10018.7 959.31 13
-3 3 -4 8991.4 862.355 7
-3 -3 -5 709.785 325.606 17
-3 3 -5 371.251 233.928 13
-3 3 -6 7434.55 714.53 17
-3 3 -6 7847 651.874 13
-3 -3 -6 7023.17 653.026 17
-3 -3 -7 1137.39 208.219 17
-3 3 -7 828.747 197.331 17
-3 -4 10 33.6843 73.1734 6
-3 4 10 197.205 75.9333 6
-3 -4 9 31.2192 140.559 16
-3 -4 9 392.042 185.583 6
-3 4 9 24.8723 122.326 6
-3 -4 8 190.225 243.102 16
3 4 -8 269.934 214.235 13
-3 4 8 357.883 213.673 6
3 4 -7 10702.8 2030.84 3
-3 4 7 11722.1 2392.86 4
3 4 -7 11010.4 934.501 13
-3 4 7 11880.2 964.036 6
-3 -4 7 12021.8 1051.93 16
-3 4 6 25518.5 1482.8 16
-3 -4 6 27322.5 1660.83 16
-3 4 6 25755.9 3667.92 4
-3 -4 6 26992 3531.9 4
-3 4 6 26561 1477.82 6
-3 -4 5 3368.24 594.106 16
-3 4 5 2500.5 462.284 6
-3 4 5 1504.16 1140.29 4
-3 -4 5 3208.26 1254.19 4
-3 -4 5 3479.48 654.044 9
3 4 -4 167.667 591.133 3
-3 4 4 -205.161 952.917 4
-3 -4 4 1162.51 778.435 4
3 4 -3 5033.14 1277.37 3
-3 4 3 3114.31 1901.92 4
-3 4 2 49347.2 6307.24 4
3 4 -2 61079.3 3978.41 3
-3 4 2 55153.1 2978.58 5
-3 4 1 160129 5712.33 5
3 4 -1 163666 5755.02 3
-3 4 0 80099.9 5235.01 5
3 4 0 79083.3 3782.78 3
-3 4 -1 501.778 757.745 5
3 4 1 -14.4023 429.506 3
-3 -4 -1 1063.25 590.076 5
-3 -4 -2 27302.6 3023.93 5
-3 4 -2 33731.6 8167.68 5
-3 4 -3 23033.6 1603.24 7
-3 -4 -3 24526.4 1576.34 17
-3 4 -4 13318.1 3445.33 5
-3 4 -4 15999 1220.37 7
-3 4 -4 14909.8 1121.19 13
-3 -4 -4 16127 1244.15 17
-3 4 -5 9573.75 821.345 13
-3 -4 -5 10111.7 920.324 17
-3 -4 -6 174.04 164.897 17
-3 4 -6 343.744 212.698 17
-3 4 -6 462.569 193.228 13
-3 4 -7 2431.13 292.147 17
-3 -4 -7 3013.76 306.684 17
-3 -5 10 91.0842 81.9297 6
-3 5 10 87.3969 55.7338 6
-3 -5 9 1509.96 273.333 16
-3 5 9 2636.31 313.588 6
-3 -5 9 2174.64 348.506 6
-3 -5 8 3761.17 558.883 16
3 5 -8 2848.57 447.718 13
-3 5 8 2709.14 415.622 6
3 5 -7 21790.4 1350.78 13
-3 5 7 21375.2 1310.03 6
-3 -5 7 22582.1 1536.47 16
-3 -5 6 43860 2181.43 16
3 5 -6 40565.4 1939.88 13
-3 5 6 42561.6 1832.72 6
-3 -5 5 1217 469.117 9
-3 -5 5 513.733 274.852 16
3 5 -5 -101.328 574.382 3
-3 5 5 -443.869 877.921 4
-3 5 5 235.42 164.07 6
-3 5 4 38985 5296.57 4
3 5 -4 33875 3555.06 3
-3 5 3 12722 3368.36 4
3 5 -3 13444 2095.22 3
3 5 -2 253763 8406.84 3
-3 5 2 223120 14744.5 4
-3 5 1 73293.6 3770.07 5
3 5 -1 81830.2 4406.59 3
-3 5 0 6267.73 1460.39 5
3 5 0 6323.45 1180.83 3
3 5 1 80225.3 4468.41 3
-3 5 -1 71554.2 6285.78 5
-3 -5 -2 7317.73 936.045 7
-3 5 -2 10211.3 3845.75 5
-3 5 -3 78049.4 2829.43 15
-3 -5 -3 72364.7 2736.65 17
-3 5 -3 70958.8 2941.69 7
-3 5 -4 4028.51 657.27 7
-3 5 -4 3821.31 589.3 13
-3 5 -5 2477.41 429.88 7
-3 5 -5 3648.39 512.465 13
-3 -5 -5 2728.97 514.272 17
-3 5 -6 1720.23 333.95 17
-3 5 -6 1476.25 272.204 13
-3 -5 -6 2021.58 365.495 17
-3 5 -7 756.808 159.236 17
-3 -5 -7 352.584 120.802 17
-3 -6 9 117.33 101.759 16
-3 6 9 32.2805 93.2713 6
-3 -6 9 163.891 132.739 6
-3 -6 8 891.676 291.793 16
3 6 -8 1007.67 250.134 13
-3 6 8 550.006 215.629 6
-3 -6 7 -236.193 324.487 16
3 6 -7 -1.20718 218.647 13
-3 6 7 -22.348 213.955 6
-3 -6 6 1083.92 489.914 16
3 6 -6 150.449 254.208 13
-3 6 6 628.104 643.314 4
-3 6 6 1304.86 378.63 6
-3 -6 5 4448.77 751.203 16
-3 6 5 2592.14 610.108 14
3 6 -5 3245.6 608.384 13
3 6 -5 3097.31 1169.19 3
-3 6 5 5346.88 658.271 6
-3 6 5 4784.45 1852.34 4
3 6 -4 4929.57 1466.15 3
-3 6 4 1597.68 1450.44 4
3 6 -3 11181.8 1984.17 3
-3 6 3 11225.4 3136.89 4
-3 6 2 -304.708 1763.1 4
3 6 -2 1614.69 762.807 3
-3 6 1 -944.344 2831.8 4
3 6 -1 4011.83 1056.93 3
-3 6 0 2647.62 995.539 5
3 6 0 4265.6 972.801 3
3 6 1 8866.56 1602.27 3
-3 6 -1 11430.7 1115.22 15
-3 6 -1 7144.33 1830.24 5
-3 -6 -1 10421.6 1350.1 7
-3 6 -2 17498 4114.09 5
-3 6 -2 18414 1556.5 15
-3 -6 -2 16577.2 1529.38 7
-3 -6 -2 15390.1 1213.31 17
-3 -6 -3 1265.69 456.986 17
-3 6 -3 1280.81 637.896 5
-3 6 -3 1816.9 585.338 15
-3 6 -4 13.3899 237.777 7
-3 -6 -4 256.197 295.76 17
-3 6 -5 806.201 265.314 7
-3 6 -5 1133.83 291.979 13
-3 -6 -5 1065.38 342.024 17
-3 6 -6 537.248 210.128 17
-3 -6 -6 591.595 223.563 17
-3 -6 -7 1420.37 180.165 17
-3 6 -7 903.024 141.839 17
-3 7 9 -0.16715 63.8505 6
-3 7 9 -20.0343 79.1939 11
-3 -7 9 36.0526 103.841 6
-3 -7 8 5691.94 556.878 16
-3 7 8 5628.88 494.683 6
-3 -7 7 4587.37 680.683 16
3 7 -7 3764.07 589.084 13
-3 -7 6 15659.4 1453.72 16
3 7 -6 12448.9 1242.72 13
-3 7 6 12534 1020.14 6
3 7 -5 16511.5 1404.88 13
-3 7 5 13850.5 3231.14 4
-3 -7 5 20487.7 1557.91 16
-3 7 5 19532.3 1198.96 6
3 7 -5 11072.2 2185.71 3
-3 7 5 10749.1 1205.79 14
-3 -7 4 167.042 263.318 16
-3 7 4 31.1328 432.161 14
-3 7 4 930.634 1020.86 4
3 7 -4 -347.664 625.998 3
-3 7 4 162.306 189.062 6
-3 -7 3 78062.5 2630.13 16
-3 7 3 72229.8 2015.55 6
3 7 -3 71374.7 5048.54 3
-3 7 2 21267.7 4704.14 4
3 7 -2 31222.7 3276.5 3
3 7 -1 56874.4 4113.97 3
-3 7 1 54862.5 2692.72 14
-3 7 1 44520.3 11457 4
-3 7 0 36453.8 1989.42 15
3 7 0 33907.2 2987.88 3
-3 7 0 32740.3 1839.92 14
-3 -7 -1 831.814 323.325 17
-3 7 -1 1663.27 758.701 5
-3 7 -1 1743.58 522.819 15
3 7 1 1484.51 807.339 3
-3 7 -2 58816.7 6376.56 5
-3 -7 -2 63778.9 2548.67 17
-3 7 -3 8642.34 1023.31 15
-3 -7 -3 6654.25 963.519 17
-3 7 -4 11482.2 1096.62 7
-3 -7 -4 11589.2 1164.47 17
-3 7 -5 1914.8 361.461 7
-3 -7 -5 2477.55 495.683 17
-3 7 -6 119.868 107.416 17
-3 -7 -6 233.522 150.782 17
-3 8 9 -5.32138 50.6719 6
-3 8 9 -14.6114 62.4224 11
-3 -8 9 96.7161 87.9168 6
3 8 -8 1390.34 255.377 13
-3 8 8 1294.52 225.671 6
-3 -8 7 801.742 321.352 16
3 8 -7 895.16 301.198 13
-3 -8 6 2060.77 556.987 16
-3 8 6 1265.34 360.285 14
3 8 -6 1739.31 511.391 13
-3 8 6 879.382 323.839 6
-3 8 5 2368.07 521.607 14
3 8 -5 3562.48 732.911 13
-3 -8 5 3898.78 742.835 16
-3 8 4 3532.82 2007.55 4
3 8 -4 3305.7 1243.23 3
3 8 -3 9836.14 1914.31 3
-3 -8 3 11186.5 1000.25 16
-3 8 3 12148.2 859.071 6
-3 8 3 7137.77 2444.42 4
-3 8 2 2808.73 1081.98 14
-3 8 2 2269.68 1788.67 4
3 8 -1 9889.85 1851.26 3
-3 8 1 11928.3 1334.46 14
-3 -8 1 12144.5 922.759 10
-3 8 0 17790.3 1395.96 15
3 8 0 15427.6 1059.49 15
3 8 0 18919.7 2383.88 3
-3 8 0 16270.7 1335.82 14
-3 -8 0 15453.5 1124.4 10
-3 -8 -1 17546.9 1246.24 17
-3 8 -1 19078.4 1499.3 15
-3 -8 -2 4096.62 696.679 17
-3 8 -2 5122.9 863.903 15
-3 8 -3 2725.49 627.423 15
-3 -8 -3 2282.76 610.712 17
-3 8 -4 1251.39 394.185 7
-3 -8 -4 1700.88 484.388 17
-3 8 -5 1819.1 327.402 7
-3 -8 -5 2842.91 434.229 17
3 8 6 3757.27 287.691 15
-3 -8 -6 5066.07 451.522 10
-3 9 8 1059.74 178.482 6
3 9 -8 629.953 142.008 13
-3 9 8 599.958 154.494 11
-3 -9 7 2772.4 387.259 16
3 9 -7 2652.21 394.895 13
-3 -9 6 2814.37 529.413 16
-3 9 6 2051.97 371.268 14
3 9 -6 2909.79 580.747 13
-3 9 6 1641.13 385.655 6
-3 -9 5 4138.43 647.075 16
-3 9 5 2374.46 506.376 14
3 9 -5 4670.57 750.816 13
-3 -9 4 207.91 264.722 16
-3 9 4 34.7574 151.274 6
-3 -9 3 31545.5 1682.96 16
3 9 -3 31165.2 3476.65 3
-3 9 3 31300 2399.49 14
-3 9 2 22862.5 1592.83 15
3 9 -2 19939.6 2876.76 3
-3 9 2 15748.2 1795.16 14
-3 9 1 12388.2 1154.71 15
3 9 -1 12961 2144.76 3
-3 9 1 13287.7 1363.42 14
-3 9 0 7556.67 915.785 15
3 9 0 5556.07 717.251 15
-3 9 0 5079.29 761.185 14
-3 -9 0 7003.45 766.382 10
3 9 0 6541.97 1581.77 3
-3 9 -1 1137.94 415.281 15
3 9 1 830.61 332.01 15
-3 -9 -1 940.594 343.982 10
3 9 1 929.168 642.79 3
-3 9 -2 31901.2 1936.44 15
3 9 2 28542.7 1538.39 15
-3 -9 -2 34379.5 1877.33 10
-3 9 -3 4295.61 671.414 15
-3 -9 -3 2278.01 538.579 17
-3 9 -4 5576.35 656.8 7
-3 -9 -4 7340.68 787.847 17
3 9 5 82.708 126.544 15
-3 9 -5 16.7043 92.2981 7
-3 -9 -5 58.0827 158.802 10
-3 10 8 251.638 80.3814 11
3 10 -7 -126.823 133.524 13
-3 -10 6 425.062 201.032 16
-3 10 6 393.799 178.106 14
3 10 -6 746.49 311.283 13
-3 10 6 1018.88 261.636 6
-3 -10 5 339.553 236.803 16
3 10 -5 447.319 311.475 13
-3 10 5 271.379 229.274 14
-3 -10 4 1518.71 382.019 16
-3 10 4 1354.5 469.461 14
-3 10 3 5789.69 911.525 14
-3 -10 3 3542.62 597.417 16
-3 -10 2 -162.67 258.158 16
-3 10 2 68.9959 366.929 15
-3 10 2 406.078 441.099 14
3 10 -1 3379.24 533.936 15
-3 10 1 2679.16 662.377 14
-3 10 0 2225.24 501.385 15
3 10 0 1231.36 422.657 15
-3 10 0 2441.47 514.194 14
-3 10 -1 3681.38 634.442 15
3 10 1 3536.29 546.499 15
-3 -10 -1 4652.3 613.903 10
-3 10 -2 1022.2 420.333 15
3 10 2 681.436 267.672 15
-3 -10 -2 978.527 375.012 10
-3 10 -3 271.694 210.07 15
3 10 3 436.55 250.606 15
-3 -10 -3 876.122 364.03 10
3 10 4 339.414 187.207 15
-3 -10 -4 136.518 169.997 10
3 10 5 -159.346 87.2922 15
-3 10 -5 -69.6001 81.8988 7
-3 -10 -5 -40.279 80.1211 10
3 11 -7 1229.81 177.474 13
3 11 -6 1068.42 263.268 13
-3 11 6 719.912 195.529 14
-3 -11 5 -118.803 144.511 16
-3 11 5 33.8764 172.174 14
3 11 -5 78.3663 182.84 13
-3 -11 4 3491.48 494.525 16
-3 11 4 4766.24 705.147 14
3 11 -4 4189 587.204 13
-3 -11 3 846.601 304.725 16
-3 11 3 1098.56 435.598 14
-3 11 2 22233.9 1447.95 15
-3 -11 2 20952.3 1304.75 16
-3 11 1 4359.07 637.424 15
3 11 -1 3646.67 530.382 15
-3 11 1 1712.9 504.081 14
-3 -11 1 2205.85 567.629 16
-3 11 0 188.869 224.474 15
3 11 0 217.934 219.331 15
-3 11 0 493.799 237.586 14
-3 11 -1 11948.2 1037.99 15
3 11 1 11992.3 929.706 15
-3 11 -2 446.114 249.131 15
3 11 2 231.695 212.464 15
-3 11 -3 8732.38 699.893 15
3 11 3 8939.27 732.389 15
-3 11 -3 7270.43 727.235 7
3 11 4 257.455 132.055 15
-3 11 -4 556.456 167.942 7
-3 12 6 392.763 115.843 14
3 12 -6 393.932 118.529 13
-3 12 5 831.105 206.18 14
3 12 -5 445.155 197.562 13
-3 -12 4 -167.375 200.208 16
-3 12 4 137.227 203.062 14
3 12 -4 50.3701 153.864 13
-3 -12 3 1384.59 297.526 16
-3 12 3 2118.57 464.844 14
-3 -12 2 1189.1 329.795 16
-3 12 2 1871.32 394.634 15
-3 12 2 2207.38 519.463 14
3 12 -1 4764.22 543.998 15
-3 12 1 4320.51 589.076 14
-3 12 0 3942.42 457.858 14
-3 12 -1 58.8971 161.685 15
3 12 1 53.8848 144.474 15
-3 12 -2 2390.71 378.265 15
3 12 2 2887.08 424.569 15
3 12 3 401.736 179.448 15
-3 12 -3 615.983 177.747 7
-3 13 5 -51.8679 85.761 14
3 13 -5 -92.8704 95.0534 13
-3 13 4 739.275 211.426 14
3 13 -4 621.966 196.077 13
-3 -13 3 70.8782 119.86 16
-3 13 3 592.114 231.042 14
3 13 -3 473.159 202.652 13
-3 13 2 3877.73 475.402 15
-3 -13 2 4071.69 475.993 16
-3 13 1 627.399 214.147 14
-3 -13 1 319.61 193.048 16
-3 -13 0 2.4409 136.455 16
-3 13 0 -110.944 146.458 15
3 13 0 119.724 140.366 15
-3 -13 -1 664.205 238.151 16
-3 13 -1 1233.8 271.452 15
3 13 1 785.779 199.716 15
-3 -13 -2 274.067 167.646 16
-3 13 -2 362.804 152.427 15
3 13 2 41.6182 107.358 15
-3 13 -2 178.718 133.351 7
-3 -13 -3 2413.48 270.222 16
-3 13 -3 1692.86 207.546 7
3 14 -4 225.664 96.8923 13
-3 14 4 613.282 141.42 14
-3 14 3 605.141 176.952 14
3 14 -3 249.002 124.233 13
-3 14 2 202.632 126.966 14
3 14 -2 94.9775 110.957 13
-3 -14 1 45.7262 100.682 16
-3 14 1 -132.972 112.266 14
-3 -14 0 -74.0348 108.683 16
-3 14 0 92.4713 106.626 15
-3 14 0 94.188 96.8792 7
-3 -14 -1 514.504 158.936 16
-3 14 -1 279.773 126.793 7
-4 0 10 10755 517.921 6
-4 0 9 254.178 175.138 16
-4 0 9 23.1392 144.423 6
-4 0 8 27566.6 1374.33 16
-4 0 7 12816.8 1022.14 16
-4 0 7 16234.4 2892.28 4
-4 0 7 13880.1 1317.01 11
-4 0 6 89654.7 6763.53 4
-4 0 6 83911.7 2784.47 16
-4 0 6 83761.8 2839.12 6
-4 0 6 78231 3283.25 11
-4 0 5 141980 8879.2 4
-4 0 5 127980 3564.64 9
-4 0 4 2629.74 1206.81 4
-4 0 3 208783 9006.74 4
-4 0 2 20738.8 2247.07 4
-4 0 1 548570 12923.5 5
-4 0 0 160357 7928.81 5
-4 0 -1 4228.2 1742.92 5
-4 0 -2 98864.8 3222.88 7
-4 0 -2 101160 3214.11 17
-4 0 -3 904.329 310.294 17
-4 0 -3 1700.34 795.185 5
-4 0 -3 1086.1 340.786 7
-4 0 -4 74222.8 2315.96 7
-4 0 -4 75892.7 2628.2 17
-4 0 -5 3024.08 478.411 17
-4 0 -6 90.7412 140.202 17
-4 1 10 1613.41 196.153 6
-4 -1 10 1698.83 214.191 6
-4 -1 9 28.417 154.009 16
-4 1 9 -43.4044 162.205 6
-4 -1 9 177.115 145.335 6
-4 -1 8 4741.74 600.632 16
-4 1 8 4268.09 550.113 16
-4 1 8 4513.5 551.248 6
-4 -1 8 4887.3 597.251 6
-4 1 8 5511.87 705.441 11
-4 -1 7 832.807 326.155 16
-4 1 7 645.921 331.377 16
-4 1 7 1256.03 661.473 4
-4 -1 7 123.96 749.387 4
-4 1 7 1104.36 514.043 11
-4 1 7 683.949 307.445 6
-4 1 6 18775.4 1300.76 16
-4 1 6 19347.5 3156.78 4
-4 -1 6 19578.4 3161.78 4
-4 1 6 20253.9 1405.81 6
-4 -1 6 16488.1 1335.31 11
-4 1 6 15653.4 1756 11
-4 -1 6 18940 1398.94 16
-4 -1 5 33757.3 1875.76 16
-4 1 5 35876.7 4503.69 4
-4 -1 5 34925.1 4245.98 4
-4 1 5 38765.7 2533.55 11
-4 -1 5 32659.2 1823.65 9
-4 1 4 -184.699 862.898 4
-4 -1 4 1023.67 723.307 4
-4 1 3 15409.3 2686.65 4
-4 -1 3 13545.1 2186.24 4
-4 1 2 9796.24 1677.13 4
-4 -1 2 9021.82 1458.44 4
-4 1 2 9221.77 1557.83 5
-4 -1 1 47047.2 3775.29 5
-4 1 1 46687.8 3786.84 5
-4 -1 0 105109 6136.11 5
-4 1 0 114239 7107.88 5
-4 1 -1 25278.7 4378.37 5
-4 -1 -1 24703.5 3649.06 5
-4 -1 -2 10450.9 2747.82 5
-4 1 -2 11474.4 3576.2 5
-4 -1 -2 10382 1044.2 7
-4 1 -2 10143.3 1072.95 7
-4 -1 -3 10074 1022.17 17
-4 -1 -3 10683.5 2998.91 5
-4 1 -3 11988.7 3759.58 5
-4 -1 -3 10057.9 971.605 7
-4 1 -3 9508.85 954.013 7
-4 1 -3 9931.73 1030.68 17
-4 -1 -4 4712.6 618.671 7
-4 1 -4 4655.6 604.294 7
-4 -1 -4 5599.27 753.049 17
-4 1 -4 4607.69 680.835 17
-4 -1 -5 9956.04 820.463 17
-4 1 -5 9721.62 818.658 17
-4 -1 -6 2597.63 324.144 17
-4 1 -6 2717.51 353.993 17
-4 2 10 4373.6 320.721 6
-4 -2 10 5136.5 371.715 6
-4 -2 9 3556.16 456.633 16
-4 -2 9 3898.11 457.817 6
-4 2 9 3155.13 402.388 11
-4 2 8 4246.08 532.189 6
-4 -2 8 5569.53 633.814 6
-4 2 8 5624.41 748.202 11
-4 2 7 35609.3 1636.46 16
-4 -2 7 35569.2 1739.87 16
-4 2 7 40247.1 4447.08 4
-4 2 7 35079 1685.51 6
-4 2 6 57246.2 2231.81 16
-4 2 6 65781.2 6123.54 4
-4 -2 6 62656.1 5779.58 4
-4 2 6 60914.1 2439.64 6
-4 -2 6 56502.8 2434.52 16
-4 2 5 77637.4 7039.41 4
-4 -2 5 71472.8 6072.74 4
-4 -2 5 73623.6 2706.39 16
-4 -2 5 74514.3 2669.4 9
-4 2 4 25317.3 4236.29 4
-4 -2 4 25262 3274.05 4
-4 2 3 40781.3 4852.58 4
-4 -2 3 39117.1 3616.01 4
-4 2 2 159100 7613.6 4
4 2 -2 160707 6575.57 3
-4 2 2 144171 6162.24 5
-4 2 1 205800 8145.77 5
-4 -2 1 211699 8266.53 5
-4 -2 0 73317.9 5023.51 5
-4 2 0 80228.2 6179.06 5
-4 -2 -1 21907.6 3120.77 5
-4 -2 -1 24188.3 1670.23 8
-4 -2 -1 22533.1 1608.03 7
-4 2 -1 25866.9 1896.6 7
-4 2 -1 29453.7 5029.8 5
-4 2 -2 13724.3 4669.56 5
-4 -2 -2 11966.9 1119.98 7
-4 2 -2 12026.4 1255.04 7
-4 -2 -2 12675.9 2798.68 5
-4 -2 -3 39423 5182.17 5
-4 -2 -3 39909.3 1883.26 7
-4 2 -3 39130.4 1957.3 7
-4 -2 -3 38569.9 1967.14 17
-4 2 -4 27604.4 1485.03 7
-4 2 -4 26756.3 1536.21 17
-4 -2 -4 27681.2 1565.43 17
-4 -2 -5 5823.28 614.871 17
-4 2 -5 6097.83 658.308 17
-4 2 -6 1558.61 261.317 17
-4 -2 -6 1575.04 257.597 17
-4 -2 -6 838.712 219.045 10
-4 -3 10 172.133 99.351 6
-4 3 10 120.228 73.0091 6
-4 -3 9 392.78 212.069 16
-4 -3 9 1023.7 255.267 6
-4 3 9 686.403 224.152 11
-4 3 9 740.842 200.73 6
-4 -3 8 572.621 276.655 16
-4 3 8 319.356 190.577 6
-4 3 7 8031.13 807.728 16
-4 -3 7 10595.4 1002.33 16
-4 3 7 9874.9 905.848 6
-4 3 6 6768.54 806.28 16
-4 -3 6 7023.01 890.063 16
-4 3 6 8129.48 890.679 6
-4 3 6 7491.39 2184.8 4
-4 -3 6 7087.83 2017.17 4
-4 -3 5 7368.05 864.934 16
-4 3 5 4745.14 1972.55 4
-4 -3 5 4224.96 1526.73 4
-4 -3 5 7692.5 943.318 9
-4 -3 4 8507.34 1897.43 4
-4 3 4 9216.48 2771.61 4
-4 3 3 18561.6 3874.07 4
4 3 -3 20493.5 2722.91 3
-4 3 2 66635.3 5582.8 4
4 3 -2 76124.5 4642.99 3
-4 3 2 64981.5 4163.85 5
-4 3 1 18922.6 2555.32 5
4 3 -1 18678.8 1976.51 3
-4 3 0 21091 3276.39 5
-4 -3 0 21099.5 2796.41 5
-4 -3 -1 8124.08 1877.68 5
-4 3 -1 11175.7 3219.47 5
-4 -3 -1 10118 1119.37 7
-4 3 -1 13134.5 1515.76 7
-4 3 -2 18314.1 6407.97 5
-4 -3 -2 15802.6 1308.37 7
-4 3 -2 17237.6 1530.29 7
-4 -3 -2 17531.1 3026.98 5
-4 -3 -3 15284.4 1178.92 7
-4 3 -3 13578.4 1193.52 7
-4 -3 -3 15213.6 1253.93 17
-4 -3 -4 4648.17 686.591 17
-4 3 -4 4967.95 663.636 7
-4 -3 -5 4479.4 561.603 17
-4 3 -5 4702.15 596.921 17
-4 -3 -6 1100.59 213.3 17
-4 3 -6 1300.43 246.498 17
-4 -3 -6 818.32 216.979 10
-4 -4 10 760.639 148.842 6
-4 4 10 442.513 98.6113 6
-4 -4 9 6599.85 598.314 16
-4 4 9 7056.37 517.508 6
-4 4 9 6255.01 535.361 11
-4 -4 8 62.4078 246.783 16
-4 4 8 -71.4347 167.283 6
-4 -4 7 34350.2 1847.73 16
-4 4 7 35097.4 1665.83 6
-4 4 6 26069.9 1555.34 16
-4 -4 6 27421.9 1794.6 16
-4 4 6 24427.7 4086.22 4
-4 4 6 28543.2 1613.87 6
4 4 -6 22919.1 3478.17 3
-4 -4 5 27229.7 1765.22 9
-4 -4 5 24702.4 1633.51 16
-4 4 5 25928 4583.16 4
-4 4 5 23969.2 1321.7 6
-4 4 5 28257.1 1963.43 14
4 4 -5 23760.7 3439.56 3
-4 -4 4 99215.5 3055.59 9
-4 4 4 107392 10309 4
-4 4 4 115888 4842.1 14
-4 4 4 103797 3907.37 11
4 4 -4 93518.7 6290.17 3
-4 -4 4 99308.4 3122 16
4 4 -3 3568.52 1273.89 3
-4 4 3 4111.37 2209.31 4
4 4 -2 211374 8011.95 3
-4 4 2 209157 12126.9 4
-4 4 2 194998 6886.23 5
-4 4 1 59116.3 4415.93 5
4 4 -1 59250.6 3751.41 3
-4 4 0 28980.9 3846.27 5
-4 -4 0 35229.6 2044.69 7
-4 4 0 30946.2 2718.72 7
-4 -4 0 32440.3 1894.51 10
-4 4 -1 53497.5 7122.39 5
-4 -4 -1 50834.3 2558.65 7
-4 4 -1 64721.1 3629.29 7
-4 -4 -1 51643.7 4618.7 5
-4 -4 -2 2306.67 504.342 7
-4 4 -2 2491.17 637.716 7
-4 4 -3 91700 3054.42 7
-4 -4 -3 96391.5 2986.37 7
-4 -4 -3 93857.6 3064.41 17
-4 -4 -4 3322.95 586.535 17
-4 4 -4 3417.31 554.244 7
-4 -4 -5 8872.78 740.318 17
-4 4 -5 8823.25 779.987 17
-4 4 -6 1854.82 263.982 17
-4 -4 -6 1638.95 241.289 17
-4 -4 -6 1425.33 255.878 10
-4 -5 10 90.9472 63.8995 6
-4 5 9 183.996 113.261 6
-4 -5 9 250.895 195.208 16
-4 5 9 40.9094 106.11 11
-4 -5 9 38.007 124.779 6
-4 -5 8 145.829 260.818 16
-4 5 8 436.198 195.685 6
-4 -5 7 3734.53 712.037 16
-4 5 7 4301.98 608.538 6
-4 -5 6 1870.47 593.377 16
4 5 -6 3397.8 1538.07 3
-4 5 6 3556.77 611.116 6
-4 5 6 2207.01 1265.64 4
-4 -5 5 2071.78 559.927 9
-4 5 5 2433.2 654.142 14
4 5 -5 3096.14 1305.53 3
-4 -5 5 2492.64 533.846 16
-4 5 5 387.963 1077.9 4
-4 5 5 1728.42 374.652 6
-4 -5 4 3152.74 584.444 9
-4 5 4 4332.23 1283.01 14
4 5 -4 3443.32 1182.95 3
-4 5 4 1347.08 1421.06 4
-4 5 4 5548.91 926.07 11
4 5 -3 4148.72 1301.84 3
-4 5 3 954.947 1330.3 4
4 5 -2 48715.2 4026.6 3
-4 -5 2 50548.8 2471.22 7
-4 -5 2 54552 2418.49 16
-4 -5 2 51427.6 2017.85 10
-4 5 1 3181.62 1010.82 5
-4 5 1 2808.69 599.899 14
-4 -5 1 1934.97 576.131 7
4 5 -1 3468.14 1023.95 3
-4 -5 1 2326.01 483.333 10
-4 5 0 5348.15 1578.52 5
-4 -5 0 8514.87 1073.5 7
-4 5 0 7872.56 863.079 14
-4 5 0 6933.54 1620.21 7
-4 -5 0 7576.87 927.015 10
-4 5 -1 3472.19 1713.87 5
-4 -5 -1 3978.44 810.797 7
-4 5 -1 4762.22 1085.16 7
-4 -5 -2 21301.5 1624.52 7
-4 5 -2 19733.5 1640.2 7
-4 -5 -3 5431.61 743.655 7
-4 5 -3 5399.41 775.28 7
-4 -5 -3 5984.28 802.029 17
-4 -5 -4 152.88 182.047 17
-4 5 -4 218.411 219.218 7
-4 5 -5 3040.66 449.287 17
-4 -5 -5 3471.62 488.698 17
-4 5 -6 325.595 109.451 17
-4 -5 -6 686.208 167.86 10
-4 -5 -6 594.501 142.583 17
-4 -6 9 291.608 156.186 16
-4 6 9 860.017 163.634 6
-4 6 9 614.667 150.807 11
-4 -6 9 509.813 160.801 6
-4 6 8 1805.83 335.035 6
-4 6 8 1505.52 347.152 11
-4 -6 7 3566.11 728.117 16
-4 6 7 3980.78 577.616 6
-4 -6 6 19508.4 1564 16
-4 6 6 16434.3 1183.76 6
4 6 -5 12501.6 2412.96 3
-4 -6 5 17269.8 1410.28 16
-4 6 5 14982.5 1598.17 14
-4 6 5 16323 1106.92 6
-4 6 5 12829.1 3370.99 4
-4 -6 5 13353 1189.36 9
-4 -6 4 5976.85 757.648 9
-4 6 4 7736.99 1767.83 14
4 6 -4 7610.52 1755.09 3
-4 6 4 7782.1 3199.58 4
-4 6 4 9486.83 1122.81 11
-4 -6 3 10978.5 934.223 9
4 6 -3 10361.3 2071.64 3
-4 6 3 10446.6 4989.67 4
-4 6 3 12804 1064.66 11
4 6 -2 18527.3 2604.81 3
-4 6 2 20152.2 2073.84 14
-4 -6 2 17643.2 1212.75 10
4 6 -1 62154.3 4312.38 3
-4 -6 1 65007.7 3158.68 7
-4 6 1 60653.1 2736.29 14
-4 -6 1 66422.1 2394.82 10
-4 6 0 22974.5 3063.7 5
-4 -6 0 29206.5 2201.54 7
-4 6 0 24305.2 1615.11 14
-4 -6 0 24752.4 1648.69 10
-4 6 -1 2475.27 1180.45 5
-4 6 -1 2364.26 566.826 15
-4 -6 -1 2711.73 742.738 7
-4 6 -1 2032.43 710.021 7
-4 -6 -1 2527.56 703.073 10
-4 -6 -2 16025.1 1444.45 7
-4 6 -2 15068 1416.37 7
-4 6 -3 12507.9 1158.21 7
-4 -6 -3 12874.7 1160.59 17
-4 6 -4 6718.32 745.75 7
-4 -6 -4 6166.77 757.306 17
-4 6 -5 3177.16 366.445 7
-4 -6 -5 3641.8 450.696 17
-4 -6 -5 4279.71 544.448 10
-4 6 -5 4095.78 471.712 17
-4 6 -6 -1.66309 58.8842 17
-4 -6 -6 50.9927 82.067 10
-4 -7 9 83.185 80.4704 16
-4 7 9 40.8402 58.4581 6
-4 7 9 16.3709 69.0946 11
-4 -7 9 -74.4328 94.2741 6
-4 7 8 172.12 133 6
-4 7 8 -117.142 175.781 11
-4 -7 7 224.754 336.401 16
-4 7 7 61.9076 177.313 6
-4 -7 6 4797.6 848.398 16
-4 7 6 3649.02 621.892 14
-4 7 6 2958.21 531.685 6
-4 -7 5 8116.99 1021.56 16
-4 7 5 5386.82 935.046 14
-4 7 5 8062.22 742.015 6
-4 7 5 7935.22 1153.36 11
-4 -7 5 6113.91 782.101 9
-4 -7 4 5458.42 700.273 9
-4 7 4 5448.72 1635.39 14
4 7 -4 2255.37 1053.36 3
-4 7 4 3200.93 701.979 11
-4 -7 4 3131.47 693.365 16
-4 -7 3 2032.13 529.515 16
-4 -7 3 1935.5 441.527 9
-4 7 3 3594.09 2914.76 14
-4 7 3 1634.91 3457.92 4
4 7 -3 2174.5 1113.54 3
-4 7 3 1941.36 419.966 11
-4 -7 2 3924.03 727.547 16
-4 7 2 4221.55 1024.55 14
4 7 -2 3497.44 1215.61 3
-4 -7 1 17245.9 1250.6 10
4 7 -1 14831.5 2222.42 3
-4 7 1 15751.2 1468.56 14
-4 7 0 12869.2 1203.47 14
-4 -7 0 13044.4 1168.16 10
-4 7 -1 16887.2 1429.33 15
-4 7 -1 15412.5 1748.96 7
-4 -7 -1 18974.8 1600.97 10
-4 7 -2 3904.97 762.192 7
-4 -7 -2 5008.04 1008.32 10
-4 7 -3 1586.83 474.587 7
-4 -7 -3 1584.56 480.936 17
-4 7 -4 5237.26 608.085 7
-4 -7 -4 4359.79 599.594 17
-4 7 -5 1295.19 204.778 7
-4 -7 -5 1102.66 252.599 10
-4 7 -5 1282.92 255.3 17
-4 -7 -5 1092.18 231.444 17
-4 8 9 -37.1155 49.6747 11
-4 -8 9 -58.2412 67.6137 6
-4 -8 8 1095.38 219.752 16
-4 8 8 1138.39 227.936 11
-4 -8 7 639.784 339.384 16
-4 8 7 938.67 284.544 6
-4 8 7 400.109 235.846 11
-4 8 6 6269.28 701.007 14
4 8 -6 5809.82 686.933 13
-4 8 6 5748.3 639.398 6
-4 8 6 4989.29 785.982 11
-4 -8 5 9195.01 1033.22 16
-4 8 5 5819.36 915.407 14
4 8 -5 6710.59 783.141 13
-4 8 5 14053.3 949.481 6
-4 8 5 11415.7 1175.68 11
-4 -8 4 731.154 293.077 9
-4 -8 4 544.423 331.041 16
-4 8 4 -14.5043 620.118 14
-4 8 4 1036.47 385.742 11
-4 -8 3 22599.7 1528.97 16
-4 -8 3 20176.3 1273.15 9
4 8 -3 17006.8 2742.8 3
-4 8 3 21595.4 3165.37 14
-4 -8 2 562.215 455.222 16
-4 8 2 1000.96 637.709 14
4 8 -2 1228.06 780.422 3
4 8 -1 40751 3820.43 3
-4 8 1 43673.5 2386.4 14
-4 -8 1 50542 2063.22 10
-4 8 -1 38.8345 250.383 15
-4 8 -1 179.76 423.153 7
-4 -8 -1 558.074 369.881 10
-4 8 -2 18453.5 1570.61 7
-4 -8 -2 21229 1731.32 10
-4 -8 -3 973.486 323.561 17
-4 8 -3 539.336 312.506 7
-4 -8 -3 1055.17 462.563 10
-4 8 -4 10299.8 759.669 7
-4 -8 -4 10059.9 761.867 17
-4 8 -5 387.57 129.229 17
4 8 5 177.146 78.0766 15
-4 -8 -5 379.088 149.723 10
-4 -9 8 198.059 87.6271 16
-4 9 8 216.872 93.86 11
-4 -9 7 152.862 160.361 16
-4 9 7 222.943 130.384 6
-4 9 7 37.0032 154.351 11
-4 -9 6 904.306 368.116 16
-4 9 6 568.868 222.073 14
4 9 -6 800.954 283.252 13
-4 9 6 791.821 234.71 6
-4 9 6 568.579 321.258 11
-4 -9 5 2038.27 491.253 16
-4 9 5 1146.65 379.572 14
-4 9 5 2685.84 396.812 6
4 9 -5 1565.18 385.281 13
-4 9 5 1542.65 398.124 11
-4 -9 4 710.03 332.244 16
-4 9 4 837.063 481.754 14
-4 -9 3 2814.67 603.589 16
-4 9 3 3211.37 968.3 14
-4 -9 2 6295.39 704.395 9
-4 9 2 6051.27 983.693 14
-4 9 1 5167.94 798.107 14
-4 -9 1 5442.84 699.515 10
-4 9 0 5808.8 866.241 15
-4 9 0 4550.2 662.614 14
-4 -9 0 5980.65 743.278 10
-4 -9 -1 7332.33 852.006 10
4 9 2 1259.29 317.568 15
-4 9 -2 1424.66 462.692 7
-4 -9 -2 1475.05 434.825 10
4 9 3 4227.09 514.611 15
-4 9 -3 3603.4 545.989 7
4 9 4 719.52 186.9 15
-4 9 -4 234.713 146.085 7
-4 -9 -4 1024.8 261.939 10
-4 -10 7 1394.57 243.366 16
-4 10 7 492.053 155.069 11
-4 10 6 1256.63 262.785 14
4 10 -6 1236.31 263.091 13
-4 10 6 965.518 259.214 11
-4 -10 5 2092.39 442.895 16
-4 10 5 2286.46 464.675 14
4 10 -5 2115.04 384.894 13
-4 -10 4 525.816 289.881 16
-4 10 4 558.317 426.602 14
4 10 -4 324.705 229.176 13
-4 10 3 -257.898 346.554 14
-4 -10 3 -170.956 267.008 16
-4 10 2 8916.54 1116.08 14
-4 -10 1 12718 1181.09 16
-4 10 1 12361.4 1098.86 14
-4 10 1 14240.4 1616.41 7
-4 10 0 3276.07 607.238 15
-4 10 0 2751.14 467.397 14
-4 10 0 3576.3 826.79 7
-4 -10 0 3664.22 548.831 10
-4 -10 -1 699.389 285.854 10
-4 10 -1 1174.8 375.646 15
-4 10 -1 984.298 455.027 7
4 10 2 -192.368 196.979 15
-4 -10 -2 79.8842 184.984 10
-4 10 -2 290.549 220.013 7
4 10 3 2576.52 355.878 15
-4 10 -3 3203.59 435.566 7
-4 -10 -3 2978.25 450.745 10
-4 10 -4 2282.48 255.749 7
-4 -10 -4 2847.06 297.195 10
-4 -11 6 38.3653 138.275 16
-4 11 6 184.598 115.156 14
4 11 -6 127.918 99.4882 13
-4 -11 5 639.999 233.02 16
-4 11 5 500.894 220.085 14
4 11 -5 216.697 136.031 13
-4 -11 4 503.876 251.035 16
-4 11 4 905.751 387.52 14
4 11 -4 283.724 157.562 13
-4 11 3 5477.3 804.979 14
-4 -11 2 4583.19 642.332 16
-4 11 2 6871.78 872.998 14
-4 -11 1 719.822 331.988 16
-4 11 1 437.358 247.341 14
-4 11 1 1213.08 389.917 7
-4 -11 0 888.004 337.5 16
-4 11 0 1129.59 334.914 15
-4 11 0 1056.9 236.099 14
-4 11 0 1053.28 427.077 7
-4 11 -1 1099.38 285.579 15
-4 11 -1 1311.2 409.625 7
-4 -11 -1 915.206 235.94 10
-4 -11 -2 4829.98 509.339 10
-4 11 -3 1931.28 267.94 7
-4 -12 5 456.735 190.473 16
-4 12 5 565.353 177.422 14
4 12 -5 203.635 89.6879 13
-4 -12 4 232.163 178.825 16
-4 12 4 811.739 274.684 14
4 12 -4 364.802 167.633 13
-4 -12 3 545.336 237.512 16
-4 12 3 778.185 301.251 14
-4 12 2 9905.42 836.011 14
-4 -12 1 1187.76 335.27 16
-4 12 1 569.75 217.792 14
-4 12 1 1597.75 323.134 7
-4 -12 0 1314.06 331.787 16
-4 12 0 1598.81 373.162 7
-4 -12 -1 1280.87 311.211 16
-4 12 -1 1522.94 331.213 7
-4 -12 -2 592.701 195.061 16
-4 12 -2 459.142 144.682 7
-4 13 5 74.6751 76.918 14
-4 -13 4 4.55621 90.8077 16
-4 13 4 199.797 134.986 14
4 13 -4 110.653 103.596 13
-4 -13 3 1122.39 214.721 16
4 13 -3 792.835 187.8 13
-4 -13 2 1395.55 257.597 16
-4 13 2 1736.29 295.457 14
-4 -13 1 143.456 140.075 16
-4 13 1 119.371 98.7864 14
-4 -13 0 308.716 157.938 16
-4 13 0 249.012 131.941 7
-4 -13 -1 586.914 175.422 16
-4 13 -1 269.063 115.698 7
-5 0 10 689.037 121.726 6
-5 0 9 89.0436 148.841 16
-5 0 9 178.717 134.879 6
-5 0 8 1751.01 375.148 16
-5 0 8 1756.37 360.133 11
-5 0 8 1732.77 339.338 6
-5 0 7 -14.2881 233.317 16
-5 0 7 -77.533 243.775 6
-5 0 7 15.8713 270.775 11
-5 0 6 34032.8 1838.79 16
-5 0 6 33397.1 4731.07 4
-5 0 6 30540.4 2169.33 11
-5 0 5 13675.1 1245.97 16
-5 0 5 13397.8 1380.21 11
-5 0 5 11981 2808.6 4
-5 0 5 12395.9 1209.74 9
-5 0 4 22475.4 1453.68 9
-5 0 4 22843.4 1712.99 14
-5 0 4 24764.6 3819.69 4
-5 0 4 22437.6 1536.72 11
-5 0 3 1388.54 341.547 9
-5 0 3 1054.16 612.458 14
-5 0 3 1731.35 431.684 11
-5 0 2 4251.87 601.542 9
-5 0 2 4700.27 688.679 7
-5 0 2 4938.85 801.626 14
-5 0 2 5707.58 759.977 12
-5 0 1 152044 4111.61 8
-5 0 1 144641 4255.73 7
-5 0 1 148197 3621.09 12
-5 0 1 143545 3650.03 10
-5 0 0 6814.27 860.334 8
-5 0 0 7201 2170.25 5
-5 0 0 6085.89 972.68 7
-5 0 0 5337.15 767.878 12
-5 0 0 5871.69 800.043 10
-5 0 -1 32991.8 5638.32 5
-5 0 -1 25133.2 1654.61 8
-5 0 -1 31861.7 2125.02 7
-5 0 -2 9461.98 1078.76 7
-5 0 -3 16100.4 1274.32 17
-5 0 -3 14953.6 1146.06 7
-5 0 -4 18409.8 1015.26 7
-5 0 -4 18928.1 1091.38 17
-5 0 -5 983.568 192.694 17
-5 1 10 8651.25 410.301 6
-5 -1 10 9319.84 436.136 6
-5 1 9 3610.38 396.312 16
-5 -1 9 3533.19 414.669 16
-5 1 9 3337.66 360.021 6
-5 -1 9 3606.41 386.447 6
-5 1 9 2977.14 326.989 11
-5 -1 8 11386.2 899.988 16
-5 1 8 10936.2 826.913 6
-5 -1 8 11315 854.242 6
-5 1 8 13693.1 1083.65 11
-5 1 7 211.078 242.22 16
-5 -1 7 250.758 228.127 16
-5 -1 7 493.539 274.188 11
-5 1 7 898.333 486.205 11
-5 1 7 -8.28777 247.847 6
-5 -1 7 643.045 305.141 6
-5 1 6 46660.5 2081.39 16
-5 -1 6 48201.3 2280.23 16
-5 1 6 54886.6 6357.67 4
-5 -1 6 50940.7 5926.28 4
-5 -1 6 42799.3 2280.53 11
-5 1 6 48261.8 3131.12 11
-5 -1 5 65647.8 2787.04 16
-5 1 5 66074.7 2706.88 14
-5 1 5 63573.2 7240.92 4
-5 -1 5 66232.5 6751.71 4
-5 -1 5 62847.5 2696.52 11
-5 1 5 68287.8 3381.35 11
-5 1 5 62714.2 2824.81 9
-5 -1 5 63689.1 2647.51 9
-5 -1 4 21726.5 1425.2 9
-5 1 4 20751.4 1881.27 14
-5 1 4 25362.3 4229.29 4
-5 -1 4 23428.6 3532.33 4
-5 -1 4 22669.9 1488.17 11
-5 1 4 23835.9 1615.59 11
-5 1 4 21176.2 1523.17 9
-5 1 3 80637.4 2646.53 9
-5 -1 3 81401.1 2626.66 9
-5 1 3 77881.6 3597.19 14
-5 -1 3 82811.6 5685.48 4
-5 -1 3 74341.9 2554.31 11
-5 1 3 82564.4 2648.12 11
-5 -1 2 711.544 416.983 8
-5 1 2 810.085 479.279 14
-5 -1 2 1191.84 451.34 7
-5 1 2 765.696 276.214 7
-5 1 2 830.6 368.13 12
-5 -1 2 631.502 314.843 12
-5 1 2 1240.81 405.458 11
-5 1 1 96176 6986.8 5
-5 -1 1 93348 3376.12 8
-5 -1 1 88056.4 3257.01 7
-5 1 1 84387.6 3423.75 7
-5 1 1 89230.5 3369.5 14
-5 1 1 87315.3 2706.47 12
-5 -1 1 88590.6 2839.15 12
-5 -1 1 87640.1 2970.84 10
-5 -1 1 94093.1 6593.08 5
-5 -1 0 59235.6 2579.76 8
-5 1 0 58460.4 2471.76 8
-5 -1 0 65795.6 6240.23 5
-5 -1 0 57686.1 2845.28 7
-5 1 0 57896.5 3093.51 7
-5 -1 0 57039.5 2634.19 10
-5 -1 -1 20516.9 4118.42 5
-5 1 -1 21976 4855.19 5
-5 -1 -1 17306.7 1468.84 8
-5 1 -1 16710.5 1275.53 8
-5 -1 -1 20759.2 1692.13 7
-5 1 -1 20840.3 1816.56 7
-5 -1 -1 18635 1878.85 10
-5 -1 -2 24863.5 1724.44 7
-5 1 -2 25206.3 1817.09 7
-5 1 -3 1969.9 424.981 17
-5 -1 -3 1785.93 404.798 7
-5 1 -3 1658.99 424.793 7
-5 -1 -3 1024.77 423.762 10
-5 -1 -4 34162.9 1338.17 7
-5 -1 -4 35426 1519.81 17
-5 1 -4 32492.7 1408.37 17
-5 -1 -5 2703.43 301.69 17
-5 1 -5 2947.78 318.62 17
-5 2 10 87.2456 51.8167 6
-5 -2 10 111.973 56.4311 6
-5 -2 9 694.628 215.407 16
-5 2 9 445.307 164.791 11
-5 2 9 535.406 149.379 6
-5 -2 9 647.99 181.881 6
-5 2 8 270.913 178.123 16
-5 -2 8 668.763 315.261 16
-5 2 8 359.755 264.347 11
-5 2 8 369.406 208.696 6
-5 -2 8 381.102 189.189 6
-5 2 7 2728.88 485.964 16
-5 -2 7 2666.88 567.794 16
-5 2 7 2943 538.83 6
-5 2 7 1897.64 636.575 11
-5 -2 7 2399.47 501.311 6
-5 2 6 4687.29 679.009 16
-5 -2 6 5203.96 826.892 16
-5 2 6 5870.61 1360.35 11
-5 -2 6 5401.13 1847.44 4
-5 -2 6 4036.58 752.675 9
-5 -2 5 2711.35 598.064 9
-5 -2 5 2941.83 643.801 16
-5 2 5 2898.2 658.648 14
-5 2 5 4919.15 2035.07 4
-5 -2 5 2322.71 537.964 11
-5 2 5 3371.51 853.936 11
-5 -2 5 1556.79 819.778 4
-5 -2 4 2696.9 557.723 9
-5 -2 4 2127.48 566.195 16
-5 -2 4 2872.45 688.137 8
-5 2 4 2058.11 719.01 14
5 2 -4 1928.23 1028.16 3
-5 -2 4 1725.72 489.748 11
-5 2 4 4299.99 1813.7 4
-5 2 4 1859.96 548.283 11
-5 2 4 1678.73 533.028 9
-5 -2 4 2300.11 1003.77 4
-5 -2 3 1219.86 379.272 9
-5 -2 3 2103.92 629.895 8
-5 2 3 972.034 446.344 14
-5 -2 3 1508.2 421.597 7
-5 2 3 1146.06 405.872 11
-5 -2 2 17789.7 1529.16 8
-5 -2 2 20077.4 1466.48 7
-5 2 2 18371.8 1456.87 7
-5 2 2 21318.6 1857.54 14
-5 2 2 17310.4 1172.63 12
-5 -2 2 19746.5 1371.54 12
-5 2 2 20352.1 1314.09 11
-5 -2 2 18108.4 1374.02 10
-5 2 1 31229.4 4079.35 5
-5 -2 1 33050.7 2149.95 8
-5 -2 1 31937.2 2015.03 7
-5 2 1 33646.6 2068.68 14
-5 2 1 28197.7 2142.24 7
-5 2 1 28437.1 1519.5 12
-5 -2 1 31279.2 1701.12 12
-5 -2 1 30636.2 1851.04 10
-5 -2 0 6894.26 1007.56 8
-5 -2 0 6928.45 1915.78 5
-5 2 0 7587.06 2393.98 5
-5 -2 0 6065.69 957.723 7
-5 2 0 6465.71 819.874 14
-5 2 0 7338.22 1190.11 7
-5 -2 0 6329.05 1031.09 10
-5 -2 -1 2890.82 876.115 10
-5 -2 -1 2206.7 1663.53 5
-5 2 -1 2245.59 543.164 8
-5 -2 -1 2361.89 641.463 7
-5 2 -1 3206.82 782.597 7
-5 -2 -2 2542.22 564.29 7
-5 2 -2 2886.4 689.852 7
-5 -2 -3 15763.8 1182.77 7
-5 2 -3 15396.4 1158.23 7
-5 -2 -3 11848.5 1474.62 10
-5 2 -3 14370.5 1141.03 17
-5 2 -4 3956.98 502.678 7
-5 -2 -4 4874.44 663.004 10
-5 2 -4 5290.35 575.971 17
-5 2 -5 975.317 185.095 17
-5 -2 -5 885.362 179.614 17
-5 -3 10 3861.14 268.403 6
-5 -3 9 11479.8 716.938 16
-5 3 9 9276.4 550.562 6
-5 -3 9 12168.4 711.536 6
-5 3 9 9000.24 612.163 11
-5 -3 8 350.049 258.38 16
-5 3 8 197.617 236.366 11
-5 3 8 58.362 142.778 6
-5 -3 8 434.135 221.619 6
-5 3 7 16833.8 1118.02 16
-5 -3 7 20000.3 1398.22 16
-5 3 7 17800 1233.52 6
-5 -3 6 11437.9 1213.6 16
5 3 -6 10303.8 2556.94 3
-5 -3 6 11536.6 2718.98 4
-5 3 6 17759.9 2927.99 11
-5 3 6 11990.9 3120.27 4
-5 -3 6 10165.3 1219.84 9
-5 -3 5 40613.4 2094.5 9
-5 -3 5 42153 2298.28 16
-5 3 5 46099.1 2635.12 14
-5 3 5 42138.4 6853.69 4
-5 3 5 45191.1 3028.35 11
5 3 -5 44367.5 5234.97 3
-5 -3 4 65509.5 2559.67 9
-5 -3 4 70211 2893.13 16
-5 -3 4 70195 3150.48 8
-5 3 4 73263.1 3949.17 14
-5 3 4 64640.6 8327.73 4
-5 3 4 70519.4 2941.54 11
5 3 -4 75899.5 6447.51 3
-5 -3 3 1257.88 434.971 9
-5 -3 3 895.868 401.602 16
-5 -3 3 704.321 437.534 8
-5 3 3 2004.51 785.433 14
-5 -3 3 827.133 406.733 7
5 3 -3 266.636 514.156 3
-5 3 3 1300.21 372.013 12
-5 -3 3 1259.72 511.769 12
-5 3 3 1268.05 445.129 11
-5 -3 2 89446.1 3711.87 8
-5 -3 2 82341.8 3197.51 7
-5 3 2 88317.8 3450.73 7
-5 3 2 98174.6 4315.13 14
-5 3 2 81703 2471.8 12
-5 -3 2 92805.1 2899.1 12
-5 3 2 85745 2642.15 11
-5 -3 2 90456.9 3092.48 10
-5 3 2 82393 5782.98 5
-5 3 1 23494 3532.95 5
-5 -3 1 22816.2 1950.05 8
-5 -3 1 20070.8 1590.72 7
-5 3 1 19455.9 1556.82 14
-5 3 1 21250.7 2075.46 7
-5 3 1 19056.8 1218.6 12
-5 -3 1 21006.4 1372.79 12
-5 -3 1 21416.7 1647.99 10
-5 3 0 112574 9312.08 5
-5 -3 0 103326 4134.79 8
-5 -3 0 103692 3835.72 7
-5 3 0 97083.5 3111.97 14
-5 3 0 98328.2 4579.61 7
-5 -3 0 100130 4120.2 10
-5 3 -1 43415 7800.71 5
-5 -3 -1 37659.4 2258.47 7
-5 3 -1 43180.5 2845.07 7
-5 -3 -1 35268 3380 10
-5 -3 -1 42119.1 5066.19 5
-5 -3 -2 2387.19 544.922 7
-5 3 -2 2465.64 624.444 7
-5 -3 -2 2584.68 2223.46 10
-5 -3 -3 25665.6 1468.14 7
-5 3 -3 23933.9 1458.89 7
-5 -3 -3 23512.2 2520.19 10
-5 3 -3 21821.3 1367.47 17
-5 3 -4 1667.55 322.681 7
-5 3 -4 1818.32 351.925 17
-5 -3 -4 1671.93 437.053 10
-5 3 -5 8341.15 512.584 17
-5 -3 -5 7583.16 515.282 10
-5 -4 10 625.625 122.395 16
-5 -4 9 707.251 207.7 16
-5 4 9 1248.35 206.242 6
-5 4 9 1132.57 221.095 11
-5 -4 9 1360.74 247.152 6
-5 -4 8 531.048 288.497 16
-5 4 8 290.506 144.194 6
-5 4 8 -48.5243 184.372 11
-5 -4 8 600.043 277.337 6
-5 -4 7 8632.92 967.5 16
-5 4 7 9733.45 908.451 6
-5 4 7 6652.46 1628.2 11
-5 -4 6 393.387 348.868 9
-5 -4 6 683.368 369.532 16
-5 4 6 1892.75 1534.87 11
-5 -4 5 22318.9 1646.97 9
-5 -4 5 21931.7 1674.18 16
-5 4 5 24925.1 2151.91 14
-5 4 5 25172.7 2393.62 11
-5 4 5 15419.5 4529.4 4
5 4 -5 17743.1 3361.79 3
-5 -4 4 18050.7 1520.82 16
-5 4 4 20333.3 2313.47 14
-5 -4 4 20623.8 1475.35 9
-5 4 4 19572.4 1663.99 11
5 4 -4 17669.1 3057.89 3
-5 -4 3 7109.77 868.435 9
-5 -4 3 6989.8 1220.47 8
-5 4 3 9632.5 1739.48 14
-5 -4 3 7880.74 919.303 12
-5 4 3 7384.39 916.682 11
-5 -4 2 18931.8 1581.51 16
-5 -4 2 19548.3 1966.38 8
-5 -4 2 15427.4 1544.28 7
-5 4 2 22929.4 2217.26 14
-5 4 2 17571.6 1673.19 7
-5 4 2 18151.8 1152.44 12
-5 -4 2 19964.1 1328.98 12
-5 4 2 17315.8 1258.92 11
-5 -4 2 18479.1 1481.45 10
-5 -4 1 1837.08 632.168 8
-5 -4 1 3427.37 848.347 16
-5 4 1 1126.68 833.357 5
-5 4 1 2180.4 546.419 14
-5 -4 1 2095.26 605.806 7
-5 4 1 1969.65 708.682 7
-5 4 1 2339.03 476.638 12
-5 -4 1 2597.82 514.657 12
-5 -4 1 2258.47 584.708 10
-5 4 0 44452.6 5632.19 5
-5 -4 0 45386.8 2542.33 7
-5 4 0 41317.8 2076.44 14
-5 4 0 41879.6 3282.54 7
-5 -4 0 41487 2575 10
-5 4 -1 28947.8 6173.42 5
-5 -4 -1 27524.4 1937.28 7
-5 4 -1 32844.8 2639.06 7
-5 -4 -1 22430.3 2252.52 10
-5 -4 -2 19787.4 1446.89 7
-5 4 -2 18276.4 1499.11 7
-5 -4 -2 16576 2321.02 10
-5 -4 -3 6862.01 776.524 7
-5 4 -3 5924.08 746.462 7
-5 -4 -3 6410.74 1230.79 10
-5 4 -3 4898.87 621.418 17
-5 4 -4 885.592 263.134 17
-5 4 -4 778.506 248.948 7
-5 -4 -4 618.13 290.66 10
-5 -4 -5 2451.88 286.959 10
-5 4 -5 2366.27 259.674 17
-5 -5 9 3909.27 398.51 16
-5 5 9 4299.5 324.59 6
-5 -5 9 4823.48 420.688 6
-5 5 9 3405.26 328.15 11
-5 -5 8 455.658 215.297 16
-5 5 8 391.03 173.221 6
-5 5 8 287.664 216.734 11
-5 -5 7 10887 1059.96 16
-5 5 7 11164.5 923.945 6
-5 -5 6 14188.3 1347.58 16
-5 5 6 13921.7 1232.67 14
-5 -5 6 12937.3 1270.56 9
5 5 -5 16460.6 3036.82 3
-5 -5 5 17269.7 1437.08 9
-5 -5 5 19719.5 1610.95 16
-5 5 5 21656.5 2094.27 14
-5 5 5 19419.6 5253.84 4
-5 5 5 23471 2179.83 11
-5 -5 4 36941.9 1894.94 9
-5 -5 4 39095.2 2232.14 16
-5 5 4 39459.2 3517.4 14
-5 5 4 40244.3 2285.39 11
-5 -5 3 879.788 371.362 9
-5 -5 3 599.975 394.52 16
-5 5 3 788.973 687.075 14
5 5 -3 -303.709 802.244 3
-5 -5 3 498.025 287.732 12
-5 5 3 587.058 371.988 11
-5 -5 2 50813.1 2779.1 16
-5 -5 2 54353.7 2811.26 7
-5 5 2 55206 3233.26 14
-5 5 2 52794.3 3095.07 7
-5 -5 2 55299 2125.31 12
-5 5 2 53885.3 2001.89 11
-5 -5 2 55863.8 2461.65 10
-5 5 1 14200.6 2513.81 5
-5 -5 1 17535 1798.78 16
-5 -5 1 17139.5 1666.4 7
-5 5 1 15399.9 1375.91 14
-5 5 1 18468.9 2383.45 7
-5 -5 1 17377.3 1464.84 10
-5 5 0 67464 6314.7 5
-5 -5 0 71440.4 3409.34 7
-5 5 0 67629.7 2631.83 14
-5 5 0 81448.5 5217.5 7
-5 -5 0 68605.8 3190.92 10
-5 -5 -1 18566.1 1617.81 7
-5 5 -1 19283.9 1943.5 7
-5 -5 -1 15602 1747.66 10
-5 -5 -2 782.236 385.028 7
-5 5 -2 539.244 370.338 7
-5 -5 -2 348.487 430.587 10
-5 -5 -3 10374.5 911.116 7
-5 5 -3 10323.7 938.306 7
-5 -5 -3 12071.3 1467.97 10
-5 5 -4 1534.82 310.022 7
-5 -5 -4 1532.61 347.567 10
-5 5 -4 1765.68 326.519 17
-5 -5 -5 7539.98 453.23 10
-5 -6 9 32.3594 94.4917 16
-5 6 9 -0.73861 46.5274 6
-5 6 9 -69.3979 82.2995 11
-5 -6 9 17.2472 87.4219 6
-5 -6 8 233.6 214.851 16
-5 6 8 212.929 118.514 6
-5 6 8 19.037 148.015 11
-5 6 7 1153.69 267.356 6
-5 6 7 739.319 449.204 11
-5 -6 6 3076.99 753.557 16
-5 6 6 3392.47 675.856 14
-5 6 6 1997.89 896.619 11
-5 -6 6 2935.39 624.407 9
-5 -6 5 -151.361 314.122 9
-5 -6 5 -244.836 324.727 16
-5 6 5 193.591 400.525 14
-5 6 5 -179.19 403.056 11
-5 -6 4 549.141 311.851 9
-5 -6 4 915.293 455.537 16
-5 6 4 1001.84 1045.31 14
5 6 -4 -829.665 1135.18 3
-5 6 4 1364.81 468.932 11
-5 -6 3 875.18 383.65 9
-5 -6 3 766.759 437.817 16
-5 6 3 960.873 341.938 11
-5 6 2 9288.43 1277.01 14
-5 6 2 6233.8 1170.17 7
-5 -6 2 8558.87 978.439 10
-5 -6 1 11836.6 1621.28 16
-5 -6 1 13435.4 1529.23 7
-5 6 1 10525.2 1139.67 14
-5 6 1 10772.7 2258.74 7
-5 -6 1 12412.7 1234.01 10
-5 6 0 1168.41 418.184 14
-5 -6 0 1187.44 649.739 7
-5 6 0 2438.25 1233.81 7
-5 -6 0 1551.66 613.932 10
-5 -6 -1 442.279 374.696 7
-5 6 -1 363.128 398.886 7
-5 -6 -1 212.14 373.2 10
-5 -6 -2 1227 390.732 7
-5 6 -2 1118.98 408.198 7
-5 -6 -2 1506.32 539.138 10
-5 6 -3 1673.12 383.592 7
-5 -6 -3 2122.36 574.063 10
-5 6 -4 2912.2 376.552 7
-5 -6 -4 3127.39 420.442 10
-5 6 -4 2730.77 349.407 17
-5 -7 9 242.782 87.0847 16
-5 7 9 180.215 74.2362 11
-5 7 8 1943.73 242.194 6
-5 7 8 1355.85 253.746 11
-5 -7 7 197.717 303.798 16
-5 7 7 185.515 162.054 6
-5 7 7 20.9497 247.5 11
-5 7 6 15895.5 1190.59 14
-5 7 6 12842 1406.9 11
-5 -7 5 19508.4 1568.38 16
-5 7 5 12912.9 1584.74 14
-5 7 5 22457.3 1654.81 11
-5 -7 5 12594.8 1094.83 9
-5 -7 4 4900.22 679.59 9
-5 -7 4 4703.17 848.77 16
-5 7 4 5158.25 682.32 11
-5 -7 3 16190.7 1231.49 9
-5 7 3 18823.8 2760.11 14
-5 7 3 16787.8 1071.83 11
-5 -7 2 278.063 406.935 16
-5 7 2 670.165 352.945 14
-5 7 2 -37.3553 372.986 7
-5 -7 1 50926.1 2812.6 16
-5 7 1 48685.7 2386.05 14
-5 -7 1 55938.5 2460.96 10
-5 7 0 21213.2 1414.02 14
-5 -7 0 23561.8 1809.26 10
-5 7 -1 1400.9 527.593 7
-5 -7 -1 1311.88 536.893 10
-5 7 -2 7064.12 860.496 7
-5 -7 -2 6629.03 1025.96 10
-5 7 -3 175.166 165.718 7
-5 -7 -3 92.7438 224.085 10
-5 7 -4 9274.88 561.052 7
-5 -7 -4 10456.6 668.569 10
-5 -8 8 -165.59 117.819 16
-5 8 8 98.1543 88.402 11
-5 -8 7 123.867 197.613 16
-5 8 7 -0.91805 165.375 11
-5 8 6 3824.75 579.662 14
-5 8 6 3306.81 615.614 11
-5 -8 5 784.102 314.604 9
-5 -8 5 1878.53 565.454 16
-5 8 5 1326.34 542.601 14
-5 8 5 2558.93 514.791 11
-5 -8 4 3892.27 565.462 9
-5 -8 4 2174.29 561.065 16
-5 8 4 4494.63 1959.84 14
-5 8 4 2092.69 428.354 11
-5 -8 3 374.04 268.189 9
-5 -8 3 700.172 355.64 16
-5 8 3 -142.688 583.658 14
-5 8 2 6677.72 1010.76 14
-5 -8 1 18069.8 1610.18 16
-5 8 1 17687.9 1385.03 14
-5 -8 1 19469.9 1375.56 10
-5 8 0 5951.19 696.818 14
-5 8 0 7536.49 1552.65 7
-5 -8 0 7725.61 953.152 10
-5 8 -1 2403.81 621.842 7
-5 -8 -1 3806.73 658.744 10
-5 8 -2 1835.79 438.45 7
-5 -8 -2 1875.34 494.021 10
-5 -8 -3 5708.21 661.801 10
-5 -8 -4 1566.1 227.142 10
-5 -9 7 188.689 143.358 16
-5 9 7 163.548 140.203 11
-5 -9 6 3816.6 551.482 16
-5 9 6 2913.94 419.815 14
-5 9 5 6014.31 809.582 14
-5 9 5 4779.1 550.272 11
-5 -9 4 3617.4 516.544 9
-5 -9 4 3225.09 619.157 16
-5 9 4 5096.18 1156.21 14
-5 -9 3 7340.85 756.99 9
-5 -9 3 6368.56 861.952 16
-5 9 3 8641.59 1272.54 14
-5 -9 2 60.0204 209.041 9
-5 -9 2 86.5798 301.845 16
-5 9 2 211.742 360.089 14
-5 -9 1 14295.3 1293.29 16
-5 9 1 14162.7 1104.34 14
-5 -9 0 8793.17 1056.37 16
-5 9 0 7604 687.347 14
-5 -9 0 9742.84 915.118 10
-5 -9 -1 4709.82 739.798 16
-5 9 -1 4884.43 734.433 7
-5 -9 -1 5801.83 748.007 10
-5 -9 -2 1315.53 336.727 16
-5 9 -2 1450.59 340.382 7
-5 -9 -2 1452.89 392.286 10
-5 9 -3 101.445 95.9189 7
-5 -9 -3 291.42 151.552 10
-5 -10 7 151.587 117.358 16
-5 -10 6 530.527 223.393 16
-5 10 6 436.306 155.811 14
-5 -10 5 563.228 229.297 16
-5 10 5 1134.57 309.846 14
-5 -10 4 201.261 239.447 16
-5 10 4 59.5668 306.158 14
-5 -10 3 363.925 268.641 16
-5 10 3 174.312 327.703 14
-5 -10 2 1630.37 338.988 9
-5 -10 2 1264.85 373.609 16
-5 10 2 1430.83 417.561 14
-5 -10 1 2681.56 423.079 9
-5 -10 1 2866.75 528.581 16
-5 10 1 2352.01 410.458 14
-5 10 1 1638.38 512.336 7
-5 -10 0 1175.47 370.261 16
-5 10 0 1305.27 391.418 7
-5 -10 -1 617.204 284.068 16
-5 10 -1 889.223 306.484 7
-5 -10 -1 393.142 214.992 10
-5 -10 -2 13.0048 120.3 16
-5 -10 -2 -153.295 143.363 10
-5 -11 6 278.453 131.629 16
-5 11 6 -142.775 95.0577 14
-5 -11 5 2676.35 397.756 16
-5 11 5 3285.85 397.579 14
-5 -11 4 2715.03 418.32 16
-5 11 4 2956.86 475.117 14
-5 -11 3 40.0414 154.082 16
-5 11 3 -83.1929 221.659 14
-5 -11 2 3204.98 475.017 16
-5 11 2 3516.25 503.701 14
-5 -11 1 610.68 274.204 16
-5 11 1 38.7688 134.882 14
-5 11 1 425.868 194.018 7
-5 -11 0 8625.29 639.201 9
-5 -11 0 7872.91 731.939 16
-5 11 0 6202.29 641.25 7
-5 11 -1 5016.81 504.148 7
-5 11 -2 416.991 117.233 7
-5 -12 5 815.61 178.922 16
-5 12 5 1048.09 175.467 14
-5 -12 4 877.392 206.84 16
-5 12 4 1032.28 229.164 14
-5 -12 3 526.077 187.971 16
-5 12 3 1398.8 298.941 14
-5 -12 2 281.078 149.538 16
-5 12 2 636.471 186.025 14
-5 -12 1 1089.51 252.598 16
-5 -12 0 2222.17 320.997 16
-6 0 9 7777.3 509.928 16
-6 0 8 38443.8 1399.04 16
-6 0 8 44227.6 1654.66 11
-6 0 7 126.773 209.831 16
-6 0 7 -90.1531 297.101 11
-6 0 6 38646.1 1914.49 16
-6 0 6 40409.4 2488.42 11
-6 0 5 32399.6 2305.82 11
-6 0 5 30232 2078.1 9
-6 0 4 33394.3 2081.19 9
-6 0 4 31247.7 1907.03 11
-6 0 3 108751 3584.08 9
-6 0 3 108100 3424.23 7
-6 0 2 555.36 329.094 9
-6 0 2 888.683 568.833 8
-6 0 2 519.798 421.876 7
-6 0 2 813.96 407.616 12
-6 0 1 133625 4039.28 9
-6 0 1 123792 4239.82 8
-6 0 1 131976 4825.95 7
-6 0 1 120545 3713.83 12
-6 0 0 10188.7 1203.8 8
-6 0 0 10967.9 1451.79 7
-6 0 -1 41527.5 2532.76 7
-6 0 -2 26381.8 1662.45 7
-6 0 -3 1638.55 327.883 7
-6 -1 9 1681.48 247.274 16
-6 1 8 361.81 174.828 16
-6 -1 8 513.345 212.619 16
-6 1 8 410.28 212.392 11
-6 1 7 -183.026 210.332 16
-6 -1 7 259.566 268.217 16
-6 -1 7 -19.7094 233.416 11
-6 1 7 -146.69 356.537 11
-6 -1 6 18671.8 1400.25 16
-6 -1 6 16502.6 1472.21 11
-6 1 6 19691.4 2035.99 11
-6 1 5 556.254 363.437 9
-6 -1 5 432.05 347.155 9
-6 -1 5 389.636 364.324 8
-6 1 5 196.101 305.339 14
-6 -1 5 299.47 402.832 11
-6 1 5 709.158 487.412 11
-6 -1 4 15800.2 1400.35 9
-6 -1 4 15513.7 1766.45 8
-6 1 4 14772.2 1780.03 14
-6 1 4 18239.6 1650.16 12
-6 -1 4 19765.5 1799.37 12
-6 1 4 16771.3 1429.78 11
-6 1 4 15012.7 1466.68 9
-6 1 3 8391.38 1013.98 9
-6 -1 3 7242.83 978.229 9
-6 -1 3 8741.25 1402.79 8
-6 -1 3 7576.93 925.246 7
-6 1 3 8096.92 979.836 7
-6 1 3 8813.02 1400.32 14
-6 1 3 8196.77 1029.65 12
-6 -1 3 8126.91 1062.88 12
-6 -1 2 3481.39 698.885 9
-6 -1 2 3206.68 795.363 8
-6 -1 2 3624.06 745.902 7
-6 1 2 3172.39 726.224 7
-6 1 2 2882.67 637.804 12
-6 -1 2 3036.61 695.968 12
-6 -1 1 15873.7 1595.09 8
-6 1 1 15438.4 1484.32 8
-6 -1 1 15809.3 1592.35 7
-6 1 1 15279 1737.39 7
-6 1 1 15164.1 1289.44 12
-6 -1 1 17130.6 1429.08 12
-6 -1 0 469.381 393.079 8
-6 1 0 950.168 471.859 8
-6 -1 0 540.989 482.55 7
-6 1 0 452.869 464.988 7
-6 -1 0 220.862 350.774 10
-6 1 -1 16927.1 1362.1 8
-6 -1 -1 22288 1776.56 7
-6 1 -1 23594.6 1978.37 7
-6 -1 -1 14895.2 1544.74 10
-6 -1 -2 7803.44 929.467 7
-6 1 -2 6957.14 849.011 7
-6 -1 -3 2734.82 406.085 7
-6 1 -3 3485.06 475.651 7
-6 -2 9 9319.5 568.557 16
-6 2 9 8332.58 498.205 11
-6 -2 8 13677.1 905.802 16
-6 2 8 14321.2 1093.31 11
-6 -2 7 9238.57 907.709 16
-6 2 7 6979.37 1198.08 11
-6 -2 6 9280.05 1049.77 16
-6 -2 6 8469.26 1131.13 9
-6 -2 5 33918.7 2140.73 16
-6 -2 5 42657.6 2428.14 8
-6 2 5 43965.2 2690.91 14
-6 2 5 42980.9 2652.05 11
-6 -2 5 42285.6 2339.94 9
-6 -2 4 61641 2725.53 9
-6 -2 4 56822.1 3219.31 8
-6 2 4 60888.5 3693.54 14
-6 2 4 62784.2 2754.34 12
-6 -2 4 66350.3 3157.84 12
-6 2 4 60416 2662.44 11
-6 -2 3 43744 2268.23 9
-6 -2 3 46271.8 3019.34 8
-6 -2 3 37256.5 2166.45 7
-6 2 3 45122.1 3305.77 14
-6 2 3 41520.2 2091.65 12
-6 -2 3 46959.3 2492.69 12
-6 -2 2 19078.7 1567.4 9
-6 -2 2 21616 2054.18 8
-6 -2 2 16493 1565.87 7
-6 2 2 22202.2 1969.11 7
-6 2 2 21749.4 2058.48 14
-6 2 2 18995.8 1433.18 12
-6 -2 2 22276.2 1686.99 12
-6 -2 1 16172.7 1792.88 8
-6 2 1 16599.8 1498.39 8
-6 -2 1 15905.9 1610.66 7
-6 2 1 16316.8 1888.81 7
-6 -2 1 15263.2 1572.1 10
-6 2 0 30156.9 1887.03 8
-6 -2 0 30861 2246.7 7
-6 2 0 32567.3 2720.91 7
-6 -2 0 34321.9 2758.76 10
-6 -2 -1 42689.9 2404.08 7
-6 2 -1 47988 2876.97 7
-6 -2 -1 45854.3 3720.53 10
-6 -2 -2 8460.37 918.919 7
-6 2 -2 6927.6 820.658 7
-6 -2 -2 5720.02 864.949 10
-6 -2 -3 2241.5 358.604 7
-6 2 -3 2798.28 409.986 7
-6 -3 9 160 124.802 16
-6 3 9 262.534 112.652 11
-6 -3 8 24.3478 165.621 16
-6 3 8 175.418 210.166 11
-6 -3 7 -196.619 280.542 16
-6 3 7 494.51 656.434 11
-6 -3 6 579.194 457.676 9
-6 -3 6 510.992 314.38 16
-6 3 6 338.427 235.061 14
-6 3 6 1057.31 840.171 11
-6 -3 5 28615 1947.56 9
-6 -3 5 27519.4 1919.14 16
-6 3 5 34910.7 2644.98 14
-6 3 5 32312.5 2385.15 11
-6 -3 4 2835.32 653.469 9
-6 -3 4 2327.77 694.32 16
-6 -3 4 2293.62 728.77 8
-6 3 4 3420.51 1057.31 14
-6 3 4 2349.29 565.592 12
-6 -3 4 2558.8 596.417 12
-6 3 4 2610.58 661.983 11
-6 -3 3 3536.76 757.517 9
-6 -3 3 3428.5 1082.81 8
-6 -3 3 3937.74 748.734 7
-6 3 3 5299.45 1324.91 14
-6 3 3 3456.23 618.077 12
-6 -3 3 5565.73 870.062 12
-6 -3 2 1112.92 643.582 8
-6 3 2 887.066 594.098 14
-6 -3 2 418.695 364.536 7
-6 3 2 602.906 379.873 7
-6 3 2 263.494 290.724 12
-6 -3 2 265.227 330.989 12
-6 -3 1 4877.58 1086.99 8
-6 -3 1 5214.27 947.498 7
-6 3 1 5238.16 797.704 14
-6 3 1 3787.92 1048.87 7
-6 -3 1 4433.7 968.421 10
-6 3 0 43736.3 2220.44 8
-6 -3 0 45948.9 2680.84 7
-6 3 0 49919.4 3451.99 7
-6 -3 0 44800.8 3419.89 10
-6 -3 -1 6000.61 951.596 7
-6 3 -1 7814.21 1218.91 7
-6 -3 -2 2019.82 504.7 7
-6 3 -2 1393.46 397.956 7
-6 -3 -2 712.542 400.844 10
-6 -3 -3 349.885 168.701 7
-6 3 -3 497.208 201.646 7
-6 -3 -3 634.165 242.138 10
-6 4 9 3652.8 271.252 12
-6 4 9 5516.01 369.755 11
-6 -4 8 1333.56 319.226 16
-6 4 8 814.139 285.425 11
-6 -4 7 12978.3 1111.85 16
-6 4 7 18227.4 3365.81 11
-6 -4 6 -51.4489 331.801 9
-6 -4 6 129.564 300.188 16
-6 4 6 86.867 278.985 14
-6 4 6 251.564 1124.82 11
-6 -4 5 44314.9 2355.89 9
-6 -4 5 40312.8 2340.43 16
-6 4 5 40430.6 2048.85 12
-6 -4 5 41424 2249.94 12
-6 4 5 47659.1 2975.31 11
-6 -4 4 72756.4 2977.98 9
-6 -4 4 66773.4 3163.47 16
-6 -4 4 63764.8 3713.12 8
-6 4 4 62499.3 4397.98 14
-6 4 4 65832.1 2370.42 12
-6 -4 4 70032.9 2744.12 12
-6 4 4 75064 3105.07 11
-6 -4 3 2683.03 641.117 9
-6 -4 3 1975.87 647.805 16
-6 -4 3 1911.04 847.439 8
-6 4 3 3471.99 1144.62 14
-6 -4 3 1835.65 604.589 7
-6 4 3 2059.34 455.496 12
-6 -4 3 3179.57 630.304 12
-6 4 3 2221.56 525.926 11
-6 -4 2 42439.9 2514.73 7
-6 4 2 47526.9 3217.33 7
-6 4 2 42950.4 2697.03 14
-6 4 2 43617.4 1964.65 12
-6 -4 2 46540.4 2219.21 12
-6 4 1 1724.55 500.452 14
-6 -4 1 1830.43 597.607 7
-6 4 1 1017.54 733.691 7
-6 -4 1 1370.44 716.183 10
-6 4 0 48254.1 2198.55 8
-6 -4 0 54525 2926.55 7
-6 4 0 58298.7 4093.17 7
-6 -4 0 52602.9 3605.92 10
-6 -4 -1 26208.6 1872.15 7
-6 4 -1 25743.9 1999.09 7
-6 -4 -1 21497.1 2881.73 10
-6 -4 -2 1767.39 441.393 7
-6 4 -2 1446.66 392.972 7
-6 -4 -2 2111.95 801.316 10
-6 4 -3 10307.6 726.371 7
-6 -4 -3 8273.77 714.044 10
-6 -5 9 70.3355 85.056 16
-6 5 9 114.481 71.5246 11
-6 -5 8 73.0429 149.716 16
-6 -5 8 131.719 168.003 12
-6 5 8 123.997 171.297 11
-6 -5 7 10.1109 259.457 16
-6 5 7 -10.775 210.297 12
-6 -5 7 -217.843 251.152 12
-6 5 7 -253.747 623.121 11
-6 -5 6 1785.44 518.129 9
-6 -5 6 1396.44 502.559 16
-6 5 6 2102.55 522.275 14
-6 5 6 773.322 354.734 12
-6 -5 6 879.325 375.632 12
-6 5 6 1846.31 840.518 11
-6 -5 5 16890.4 1409.81 9
-6 -5 5 18179.6 1601.01 16
-6 5 5 22580.3 2288.78 14
-6 5 5 13214 1032.08 12
-6 -5 5 16213.7 1275.24 12
-6 5 5 20264.4 1804.74 11
-6 -5 4 2011.45 529.208 9
-6 -5 4 1333.13 558.11 16
-6 5 4 2233.14 1297.3 14
-6 5 4 1375.16 386.737 12
-6 -5 4 1677.5 433.017 12
-6 5 4 2231.68 606.256 11
-6 -5 3 1191.31 480.081 9
-6 -5 3 927.623 441.25 16
-6 5 3 1133.63 341.121 12
-6 -5 3 1314.99 386.334 12
-6 -5 2 2153.46 741.411 16
-6 5 2 2513.35 683.604 14
-6 -5 2 2624.4 752.508 7
-6 5 2 2079.22 695.529 7
-6 -5 1 7119.32 1085.7 7
-6 5 1 6636.16 864.521 14
-6 5 1 6498.29 1636.64 7
-6 -5 1 6103.03 1059.46 10
-6 5 0 20428.8 1335.75 8
-6 -5 0 24933.8 2022.5 7
-6 -5 0 20294.8 1965.85 10
-6 -5 -1 1661.35 515.181 7
-6 5 -1 1381.6 478.311 7
-6 -5 -1 1784.23 650.657 10
-6 -5 -2 2761.11 505.059 7
-6 5 -2 2177.57 421.012 7
-6 -5 -2 2894.07 734.188 10
-6 5 -3 566.136 182.353 7
-6 -5 -3 127.926 123.407 10
-6 -6 8 3234 395.092 16
-6 6 8 1665.92 261.883 11
-6 -6 7 -44.1904 215.432 16
-6 6 7 71.8489 257.327 11
-6 -6 6 2469.61 503.545 9
-6 -6 6 2898.96 655.72 16
-6 6 6 2000.2 448.543 14
-6 6 6 2464.59 687.848 11
-6 -6 5 8333.53 928.55 9
-6 -6 5 10288.9 1198.83 16
-6 6 5 10234.4 1470.78 14
-6 6 5 12466.8 1244.14 11
-6 -6 4 23633.9 1569.36 9
-6 -6 4 22404.8 1811.43 16
-6 6 4 27620.3 1556.32 11
-6 -6 3 10603.7 1089.24 9
-6 6 3 11489.6 1799.21 14
-6 -6 2 576.886 335.708 9
-6 -6 2 309.612 400.34 16
-6 6 2 862.787 460.749 14
-6 6 2 9.50453 462.204 7
-6 -6 1 5490.71 1492.24 16
-6 6 1 4830.37 714.055 14
-6 -6 1 6781.11 1020.27 10
-6 -6 0 15388.7 1601.41 7
-6 6 0 11712.7 916.757 14
-6 -6 0 13840.5 1430.14 10
-6 6 -1 13669 1292.37 7
-6 -6 -1 12438.7 1311.8 10
-6 6 -2 8068.66 739.132 7
-6 -6 -2 8355.24 912.55 10
-6 6 -3 86.6917 96.4382 7
-6 -6 -3 -2.0981 84.3407 10
-6 -7 8 251.438 115.717 16
-6 7 8 309.55 112.356 11
-6 -7 7 -71.0335 172.462 16
-6 7 7 178.34 170.807 11
-6 -7 6 4420.03 709.842 16
-6 7 6 3539.84 538.11 14
-6 7 6 2866.74 566.261 11
-6 -7 5 204.182 210.08 9
-6 -7 5 471.903 397.403 16
-6 7 5 902.964 554.867 14
-6 7 5 -316.925 299.48 11
-6 -7 4 8036.66 839.876 9
-6 7 4 5423.3 644.527 11
-6 -7 3 3818.09 622.611 9
-6 -7 3 3850.43 806.779 16
-6 7 3 4311.73 1071.32 14
-6 -7 2 3071.61 627.4 9
-6 -7 2 2255.56 720.092 16
-6 7 2 2646.39 569.791 14
-6 7 2 700.778 384.31 7
-6 7 1 9521.71 918.545 14
-6 7 1 14826.4 3064.36 7
-6 -7 0 2392.02 915.889 16
-6 7 0 1870.39 353.846 14
-6 7 0 1640.59 761.93 7
-6 -7 0 1817.74 523.519 10
-6 7 -1 9147.19 945.307 7
-6 -7 -1 8509.79 987.335 10
-6 7 -2 2157.48 350.22 7
-6 -7 -2 1889.42 384.146 10
-6 -8 8 2051.62 217.831 16
-6 -8 7 54.7737 141.907 16
-6 8 7 33.9834 105.682 11
-6 -8 6 3213.74 502.69 16
-6 8 6 2181.27 354.795 14
-6 -8 5 740.182 293.076 9
-6 -8 5 1871.49 489.257 16
-6 8 5 1857 533.846 14
-6 8 5 1666.37 364.695 11
-6 -8 4 5672.94 654.693 9
-6 8 4 6824.66 1848.22 14
-6 -8 3 12431.2 999.54 9
-6 8 3 11231.2 1374.33 14
-6 -8 2 1652.62 424.5 9
-6 -8 2 343.087 298.777 16
-6 8 2 1153.93 392.191 14
-6 -8 1 12190 1126.18 9
-6 8 1 8644.56 785.98 14
-6 8 1 13815.8 1911.92 7
-6 -8 0 776.917 377.395 16
-6 8 0 2178.86 629.094 7
-6 8 -1 11024 904.416 7
-6 -8 -1 9969.87 899.348 10
-6 8 -2 5191.8 453.516 7
-6 -9 7 96.2699 102.659 16
-6 9 6 902.021 203.772 14
-6 9 6 329.475 150.545 11
-6 -9 5 249.203 127.665 9
-6 -9 5 199.437 197.01 16
-6 9 5 290.578 221.25 14
-6 -9 4 1658.26 427.329 16
-6 9 4 2551.65 591.98 14
-6 -9 4 1899.12 357.18 9
-6 -9 3 129.063 162.069 9
-6 -9 3 -143.856 257.575 16
-6 -9 2 1984.08 414.306 9
-6 -9 2 1332.25 396.441 16
-6 9 2 2339.85 438.049 14
-6 -9 1 3697.51 531.427 9
-6 -9 1 1770.89 420.148 16
-6 9 1 3054.51 394.781 14
-6 9 1 2091.69 461.796 7
-6 -9 0 1199.84 312.797 16
-6 9 0 1434.04 359.11 7
-6 -9 -1 4696.03 559.749 9
-6 9 -1 3400.37 412.224 7
-6 -10 6 -60.6897 95.6205 16
-6 -10 5 1874.78 337.304 16
-6 10 5 2196.07 338.954 14
-6 -10 4 1563.23 336.277 16
-6 10 4 1993.5 386.287 14
-6 -10 3 788.762 217.585 9
-6 -10 3 446.401 224.316 16
-6 10 3 1178.3 332.073 14
-6 -10 2 969.014 236.832 9
-6 -10 2 335.134 219.201 16
-6 10 2 667.561 220.533 14
-6 -10 1 357.996 176.702 9
-6 -10 1 238.157 175.535 16
-6 10 1 364.66 135.679 14
-6 -10 0 1441.86 267.98 16
-6 -10 0 1345.98 276.345 9
-6 10 0 1425.54 258.882 7
-6 -11 5 1288.96 215.984 16
-6 -11 4 155.272 128.612 16
-6 11 4 -0.15197 120.615 14
-6 -11 3 777.305 211.959 16
-6 11 3 1265.44 242.444 14
-6 -11 2 -16.4545 116.714 16
-6 11 2 -77.3077 92.6099 14
-7 0 9 3903.66 329.257 12
-7 0 8 404.039 366.653 12
-7 0 7 -380.476 1446.92 12
-7 0 6 1485.95 460.525 8
-7 0 6 2409.44 1035.2 12
-7 0 5 154.32 378.305 9
-7 0 5 566.106 468.574 8
-7 0 5 78.7994 476.193 12
-7 0 4 74209 4383.58 8
-7 0 4 70182.4 3389.02 12
-7 0 4 63008.3 3198.84 9
-7 0 3 3458.28 858.652 9
-7 0 3 4197.17 1209.24 8
-7 0 3 3255.28 694.011 7
-7 0 3 3856.92 887.802 12
-7 0 2 5059.18 1038.53 8
-7 0 2 4599.19 942.652 7
-7 0 1 9599.83 1213.3 8
-7 0 1 10741.9 1459.47 7
-7 0 0 5907.78 992.833 7
-7 0 -1 42333.3 2173.42 7
-7 0 -2 4552.7 464.565 7
-7 1 9 2405.98 237.873 12
-7 -1 9 2776.5 293.465 12
-7 1 8 12340 1092.03 12
-7 -1 8 15745.4 1394.35 12
-7 1 7 5464.28 1435.3 12
-7 -1 7 4881.82 1370.91 12
-7 1 6 20526.6 1741.95 8
-7 1 6 21521 2187.43 12
-7 -1 6 20276.9 2193.33 12
-7 -1 5 2849.74 733.089 9
-7 -1 5 4172.76 968.016 8
-7 1 5 3591.8 1050.84 8
-7 1 5 3809.57 894.679 12
-7 -1 5 4045.82 878.929 12
-7 -1 4 30994.8 2157.23 9
-7 -1 4 34444.6 2875.97 8
-7 1 4 33804.6 2162.54 12
-7 -1 4 35232.1 2304.66 12
-7 1 4 30046 2244.84 9
-7 -1 3 62229.3 3030.99 9
-7 -1 3 61894.2 2841.72 7
-7 1 3 66440.8 2986.51 7
-7 1 3 65059.1 2938.91 12
-7 -1 3 68814.6 3176.17 12
-7 -1 2 1534.26 630.346 9
-7 -1 2 1355.31 780.018 8
-7 1 2 635.303 450.48 8
-7 -1 2 808.002 431.07 7
-7 1 2 2290.8 751.616 7
-7 -1 1 18578.6 1713.75 9
-7 -1 1 14556.4 1515 8
-7 1 1 16000.3 1468.3 8
-7 -1 1 16420.6 1746.47 7
-7 1 1 16934.3 1906.26 7
-7 -1 0 853.495 522.592 7
-7 1 0 857.758 471.946 7
-7 -1 -1 33723.9 1882.38 7
-7 1 -1 29374.4 1764.58 7
-7 -1 -2 11736.8 736.222 7
-7 1 -2 11187.2 710.204 7
-7 -2 8 261.819 111.473 16
-7 2 8 415.025 234.406 12
-7 -2 8 533.451 227.287 12
-7 -2 7 -121.897 146.146 16
-7 2 7 574.811 477.583 12
-7 -2 7 -29.1969 410.68 12
-7 2 6 215.972 361.848 8
-7 2 6 -249.603 401.543 12
-7 -2 6 -89.3773 399.534 12
-7 -2 5 9356.6 1329.26 8
-7 2 5 8707.77 1139.66 12
-7 -2 5 8601.87 1126.29 12
-7 -2 5 8095.95 1123.18 9
-7 -2 4 8557.14 1131.78 9
-7 -2 4 8462.17 1578.55 8
-7 2 4 12228.9 2052.16 8
-7 2 4 8052.63 1021.68 12
-7 -2 4 8942.86 1147.76 12
-7 -2 3 3007.87 734.557 9
-7 -2 3 3979.14 1138.35 8
-7 2 3 4262.3 1030.96 8
-7 -2 3 3218.88 745.984 7
-7 2 3 2812.88 633.784 12
-7 -2 3 3880.07 810.846 12
-7 -2 2 116.513 433.828 9
-7 -2 2 816.157 821.483 8
-7 2 2 414.356 389.355 8
-7 -2 2 306.253 315.298 7
-7 2 2 -55.2279 400.986 7
-7 -2 1 5956.33 1163.66 9
-7 2 1 4090.86 751.447 8
-7 -2 1 5315.15 1001.85 7
-7 2 1 4409.03 1061.85 7
-7 -2 0 10921.8 1350.43 9
-7 2 0 9352.3 1005.96 8
-7 -2 0 13831.4 1445.52 7
-7 2 0 15501.9 1771.5 7
-7 -2 -1 8902.71 961.28 7
-7 2 -1 6894.53 812.421 7
-7 -2 -2 1862.74 308.182 7
-7 2 -2 1982.85 301.825 7
-7 -3 8 2645.23 304.13 16
-7 3 8 2295.65 326.063 12
-7 -3 7 17381.4 979.431 16
-7 3 7 18298.6 1093.29 8
-7 3 7 15041 1211.8 12
-7 -3 7 17411.9 1455.89 12
-7 -3 6 388.904 197.452 16
-7 3 6 488.476 387.749 12
-7 -3 6 422.296 383.261 12
-7 3 6 897.613 808.003 11
-7 3 5 12227.4 1204.07 12
-7 -3 5 13757.2 1317.5 12
-7 -3 5 12840.8 1366.72 9
-7 -3 4 18889 1665.1 9
-7 -3 4 16315.1 2085.7 8
-7 3 4 17405.6 1336.41 12
-7 -3 4 18956.9 1496.2 12
-7 -3 3 17318.1 1679.93 9
-7 3 3 18655.8 1875.12 8
-7 -3 3 14272.4 1476.06 7
-7 3 3 14658.9 1189.63 12
-7 -3 3 15998.6 1375.09 12
-7 -3 2 42222.8 2718.12 9
-7 3 2 38211.7 2228.14 8
-7 -3 2 37946.3 2459.51 7
-7 -3 1 1226.12 757.03 9
-7 3 1 261.569 352.706 8
-7 -3 1 -241.981 441.218 7
-7 3 1 25.6911 436.41 7
-7 -3 0 25817.4 1909.55 7
-7 3 0 32238.7 2687.86 7
-7 -3 -1 5378.81 752.708 9
-7 -3 -1 7154.06 833.232 7
-7 3 -1 5680.95 691.988 7
-7 -3 -2 6217.49 510.983 7
-7 3 -2 5348.91 466.602 7
-7 -4 8 2282.03 280.972 16
-7 -4 8 1616.63 265.156 12
-7 -4 7 263.672 176.959 16
-7 4 7 272.415 206.242 12
-7 -4 7 -71.7721 232.025 12
-7 4 7 -172.317 784.608 11
-7 -4 6 451.475 312.29 16
-7 4 6 689.807 285.644 12
-7 -4 6 440.372 313.714 12
-7 4 6 -8.91852 883.612 11
-7 -4 5 15791.1 1423.43 16
-7 4 5 25018.1 2286.8 14
-7 4 5 17556.7 1266.28 12
-7 -4 5 18421.7 1374.13 12
-7 -4 5 22604 1761.99 9
-7 -4 4 -12.3345 410.811 9
-7 4 4 -694.559 772.793 14
-7 4 4 191.414 233.618 12
-7 -4 4 127.578 249.159 12
-7 -4 3 15853 1548.65 9
-7 4 3 18268.9 2255 14
-7 -4 2 5018.92 1108.44 9
-7 4 2 3692.43 724.464 8
-7 -4 2 4168.78 834.882 7
-7 4 2 4669.74 1019.83 7
-7 -4 1 3375.92 1159.68 9
-7 4 1 2097.66 469.302 8
-7 -4 1 3005.93 778.416 7
-7 4 1 1432.86 837.646 7
-7 -4 0 21569.1 1757.22 7
-7 4 0 31128.7 2802.06 7
-7 -4 -1 -52.1923 301.246 9
-7 -4 -1 321.996 277.816 7
-7 4 -1 193.976 149.142 7
-7 4 -2 9022.91 569.523 7
-7 -5 8 2501.54 278.989 16
-7 -5 7 8949.29 702.504 16
-7 5 7 9062.01 995.883 11
-7 -5 6 253.151 178.055 16
-7 5 6 -46.0755 176.872 12
-7 -5 6 21.8608 198.582 12
-7 5 6 -136.212 403.251 11
-7 -5 5 3172.7 647.012 9
-7 -5 5 2973.39 651.521 16
-7 5 5 2542.33 424.347 12
-7 -5 5 3020.55 486.36 12
-7 -5 4 11646.7 1223.41 9
-7 5 4 9335.87 802.556 12
-7 -5 4 10557.8 925.504 12
-7 -5 3 17949.7 1597.92 9
-7 5 3 18339.7 1848.22 14
-7 -5 2 24561.8 1869.96 9
-7 5 2 23212.1 1569.7 8
-7 5 2 24009.2 2153.5 7
-7 -5 1 266.637 304.136 9
-7 5 1 -17.2494 224.179 8
-7 5 1 802.541 906.543 7
-7 -5 0 12127.9 1457.94 9
-7 5 0 14481.4 1597.36 7
-7 -5 -1 2972.28 523.035 9
-7 5 -1 2660.57 409.546 7
-7 -6 7 120.99 119.314 16
-7 -6 6 -29.548 181.324 16
-7 6 6 -65.4955 165.89 14
-7 -6 5 1842.31 468.248 9
-7 -6 5 1698.66 467.055 16
-7 6 5 1850.26 542.55 14
-7 -6 4 6320.64 793.288 9
-7 -6 4 3645.95 792.767 16
-7 -6 3 555.557 361.07 9
-7 6 3 257.94 300.714 14
-7 -6 2 642.941 362.654 9
-7 6 2 -18.7473 265.798 8
-7 6 2 -61.2889 218.456 14
-7 -6 1 1313.27 486.454 9
-7 6 1 1005.33 270.277 8
-7 6 1 1244.73 1092.83 7
-7 -6 0 2555.01 541.084 9
-7 6 0 1503.5 508.557 7
-7 -6 -1 5130.7 598.346 9
-7 6 -1 3597.91 416.701 7
-7 -7 7 545.859 160.562 16
-7 -7 6 3760.73 494.875 16
-7 7 6 2800.14 357.519 14
-7 -7 5 88.9498 177.924 9
-7 -7 5 336.578 245.296 16
-7 -7 4 6577.86 719.649 9
-7 -7 4 4631.9 759.846 16
-7 -7 3 12561.2 1084.53 9
-7 7 3 13045.6 1201.45 14
-7 -7 2 982.439 378.283 9
-7 7 2 447.241 199.167 8
-7 -7 1 7877.87 848.682 9
-7 7 1 7848.73 1032.98 7
-7 -7 0 263.116 191.723 9
-7 7 0 140.244 181.836 7
-7 -8 6 100.689 120.36 16
-7 -8 5 427.888 194.489 9
-7 -8 5 -144.99 169.971 16
-7 8 5 279.498 223.582 14
-7 8 4 7733.06 862.454 14
-7 -8 4 7285.25 651.791 9
-7 -8 3 340.984 173.921 9
-7 8 3 583.941 276.327 14
-7 -8 2 2257.33 400.972 9
-7 8 2 672.379 182.391 8
-7 -8 1 272.595 218.647 9
-7 -8 0 630.912 194.853 9
-7 9 5 142.217 103.924 14
-7 -9 4 2034.39 326.516 16
-7 9 4 3081.38 397.857 14
-7 -9 4 3264.41 344.262 9
-7 9 3 4800.24 489.562 14
-7 -9 3 4469.36 437.57 9
-7 -9 2 98.9692 119.332 9
-8 0 7 10204.8 2413.47 12
-8 0 6 47354.4 2299.63 8
-8 0 6 50599.3 3524.87 12
-8 0 5 631.875 506.148 8
-8 0 5 446.633 501.555 12
-8 0 4 14461.1 2078.34 8
-8 0 3 44134.2 3605.63 8
-8 0 2 20097.1 1905.29 7
-8 0 1 40854.2 2499.05 7
-8 0 0 3543.12 572.29 7
-8 1 7 641.02 352.473 12
-8 -1 7 1176.21 546.616 12
-8 1 6 302.987 317.95 8
-8 1 6 471.676 471.708 12
-8 -1 6 -61.1022 457.152 12
-8 1 5 703.386 524.272 8
-8 1 5 878.541 446.707 12
-8 -1 5 647.988 407.462 12
-8 -1 4 19513.9 2444.47 8
-8 -1 4 15834 1591.96 9
-8 1 3 1865.78 734.425 8
-8 -1 3 975.993 435.425 7
-8 1 2 5655.92 827.583 8
-8 -1 2 7046.82 1091.51 7
-8 1 2 6133.26 1088.99 7
-8 -1 1 2767.16 665.101 7
-8 1 1 2713.34 696.991 7
-8 -1 0 313.533 232.624 7
-8 1 0 350.347 213.808 7
-8 2 7 5644.12 582.715 12
-8 -2 7 7600.88 762.316 12
-8 2 6 12883.1 1174.53 8
-8 2 6 11584.2 1211.18 12
-8 -2 6 10089.2 1135.09 12
-8 2 5 5301.55 1128.98 8
-8 2 5 4160.7 740.918 12
-8 -2 5 4048.77 685.224 12
-8 2 4 13082.3 2134.46 8
-8 -2 4 5026.48 891.58 9
-8 2 3 19098.3 1649.97 8
-8 -2 3 22140.7 2114.64 9
-8 -2 2 31003.6 2215.38 7
-8 2 2 30125.1 2338.94 7
-8 -2 2 25963.3 2122.09 9
-8 -2 1 7697.74 1008.21 7
-8 2 1 6782.96 1228.23 7
-8 -2 0 1506.51 379.359 7
-8 2 0 1352.87 288.087 7
-8 3 6 -83.1603 241.651 8
-8 3 6 151.596 167.306 12
-8 -3 6 -30.0427 197.857 12
-8 3 5 2249.21 826.311 8
-8 -3 5 1065.66 338.638 12
-8 -3 4 425.56 363.733 9
-8 3 4 1119.4 591.418 8
-8 3 3 18424.7 1452.44 8
-8 -3 3 19654 1871.57 9
-8 -3 2 770.303 885.695 9
-8 3 2 281.01 258.582 8
-8 3 2 245.411 318.872 7
-8 3 1 -780.571 745.389 7
-8 4 6 684.711 241.006 8
-8 4 5 18335 2594.27 8
-8 -4 5 9018.71 1014.28 9
-8 -4 4 1148.11 487.981 9
-8 4 4 1975.38 643.818 8
-8 -4 3 6128.55 1057.16 9
-8 4 3 5642 749.586 8
-8 -4 2 30550.9 2879.7 9
-8 4 2 21184.2 1241.91 8
-8 5 6 54.0992 109.445 8
-8 5 5 2854.21 2609.3 8
-8 -5 4 153.173 189.307 9
-8 5 4 360.22 310.391 8
-8 -5 3 8681.8 914.068 9
-8 5 3 7847.42 771.427 8
-8 -5 2 220.632 235.9 9
-8 5 2 317.724 180.244 8
-8 6 5 234.241 195.12 8
-8 -6 4 1013.97 272.817 9
-8 6 4 1380.14 377.281 8
-8 -6 3 1904.02 352.693 9
-8 6 3 2648.54 406.094 8
-8 -6 2 3142.44 425.171 9
loop_
_exptl_oxdiff_crystal_face_indexfrac_h
_exptl_oxdiff_crystal_face_indexfrac_k
_exptl_oxdiff_crystal_face_indexfrac_l
_exptl_oxdiff_crystal_face_x
_exptl_oxdiff_crystal_face_y
_exptl_oxdiff_crystal_face_z
-0.0000 0.9999 -2.0000 0.1372 -0.3827 0.0116
0.0000 -1.0000 -0.0000 0.0967 0.0732 0.0067
2.0000 -0.0001 -1.0000 0.0424 -0.0154 -0.4325
-2.0000 0.0001 1.0000 -0.0424 0.0154 0.4325
-0.0000 -1.0000 -1.0000 0.2137 -0.0816 0.0159
0.0000 1.0000 1.0000 -0.2137 0.0816 -0.0159
0.0000 -0.9999 2.0000 -0.1372 0.3827 -0.0116
0.0027 1.0048 -0.9993 0.0196 -0.2280 0.0018
0.0002 1.0029 0.0019 -0.0973 -0.0731 -0.0068
