#------------------------------------------------------------------------------
#$Date: 2019-11-03 13:50:43 +0200 (Sun, 03 Nov 2019) $
#$Revision: 221578 $
#$URL: file:///home/coder/svn-repositories/cod/cif/4/12/84/4128474.cif $
#------------------------------------------------------------------------------
#
# This file is available in the Crystallography Open Database (COD),
# http://www.crystallography.net/
#
# All data on this site have been placed in the public domain by the
# contributors.
#
data_4128474
loop_
_publ_author_name
'Arz, Marius I.'
'Annibale, Vincent T.'
'Kelly, Nicole L.'
'Hanna, John V.'
'Manners, Ian'
_publ_section_title
;
 Ring-Opening Polymerization of Cyclic Phosphonates: Access to Inorganic
 Polymers with a P<sup>V</sup>-O Main Chain.
;
_journal_issue                   7
_journal_name_full               'Journal of the American Chemical Society'
_journal_page_first              2894
_journal_page_last               2899
_journal_paper_doi               10.1021/jacs.8b13435
_journal_volume                  141
_journal_year                    2019
_chemical_formula_moiety         'C9 H11 Cl2 O P'
_chemical_formula_sum            'C9 H11 Cl2 O P'
_chemical_formula_weight         237.05
_space_group_crystal_system      monoclinic
_space_group_IT_number           11
_space_group_name_Hall           '-P 2yb'
_space_group_name_H-M_alt        'P 1 21/m 1'
_atom_sites_solution_hydrogens   geom
_atom_sites_solution_primary     dual
_audit_creation_date             2018-04-05
_audit_creation_method
;
Olex2 1.2
(compiled 2017.08.10 svn.r3458 for OlexSys, GUI svn.r5381)
;
_cell_angle_alpha                90
_cell_angle_beta                 109.579(8)
_cell_angle_gamma                90
_cell_formula_units_Z            2
_cell_length_a                   8.0851(9)
_cell_length_b                   6.8766(7)
_cell_length_c                   10.0457(11)
_cell_measurement_reflns_used    2937
_cell_measurement_temperature    100(2)
_cell_measurement_theta_max      27.87
_cell_measurement_theta_min      2.67
_cell_volume                     526.23(10)
_computing_cell_refinement       'SAINT v8.37A (Bruker, 2015)'
_computing_data_collection       'Bruker Apex suite'
_computing_data_reduction        'SAINT v8.37A (Bruker, 2015)'
_computing_molecular_graphics    'Olex2 (Dolomanov et al., 2009)'
_computing_publication_material  'Olex2 (Dolomanov et al., 2009)'
_computing_structure_refinement  'ShelXL (Sheldrick, 2015)'
_computing_structure_solution    'ShelXT (Sheldrick, 2015)'
_diffrn_ambient_temperature      100(2)
_diffrn_detector                 'Bruker area detector'
_diffrn_detector_type            'CCD area detector'
_diffrn_measured_fraction_theta_full 1.000
_diffrn_measured_fraction_theta_max 1.000
_diffrn_measurement_device       'Bruker Apex II kappa CCD area detector'
_diffrn_measurement_device_type  'Bruker APEX-II CCD'
_diffrn_measurement_method       '\f and \w scans'
_diffrn_radiation_monochromator  graphite
_diffrn_radiation_type           MoK\a
_diffrn_radiation_wavelength     0.71073
_diffrn_reflns_av_R_equivalents  0.0388
_diffrn_reflns_av_unetI/netI     0.0243
_diffrn_reflns_Laue_measured_fraction_full 1.000
_diffrn_reflns_Laue_measured_fraction_max 1.000
_diffrn_reflns_limit_h_max       10
_diffrn_reflns_limit_h_min       -10
_diffrn_reflns_limit_k_max       9
_diffrn_reflns_limit_k_min       -9
_diffrn_reflns_limit_l_max       13
_diffrn_reflns_limit_l_min       -13
_diffrn_reflns_number            8511
_diffrn_reflns_point_group_measured_fraction_full 1.000
_diffrn_reflns_point_group_measured_fraction_max 1.000
_diffrn_reflns_theta_full        25.242
_diffrn_reflns_theta_max         27.884
_diffrn_reflns_theta_min         2.152
_diffrn_source                   'fine-focus sealed tube'
_diffrn_standards_number         0
_exptl_absorpt_coefficient_mu    0.725
_exptl_absorpt_correction_T_max  0.7456
_exptl_absorpt_correction_T_min  0.5261
_exptl_absorpt_correction_type   multi-scan
_exptl_absorpt_process_details
'SADABS-2014/5 (Bruker,2014/5) was used for absorption correction. wR2(int) was 0.0673 before and 0.0395 after correction. The Ratio of minimum to maximum transmission is 0.7056. The \l/2 correction factor is Not present.'
_exptl_crystal_colour            colourless
_exptl_crystal_colour_primary    colourless
_exptl_crystal_density_diffrn    1.496
_exptl_crystal_description       block
_exptl_crystal_F_000             244
_exptl_crystal_size_max          0.288
_exptl_crystal_size_mid          0.252
_exptl_crystal_size_min          0.193
_refine_diff_density_max         0.452
_refine_diff_density_min         -0.299
_refine_diff_density_rms         0.060
_refine_ls_extinction_method     none
_refine_ls_goodness_of_fit_ref   1.067
_refine_ls_hydrogen_treatment    constr
_refine_ls_matrix_type           full
_refine_ls_number_parameters     79
_refine_ls_number_reflns         1353
_refine_ls_number_restraints     0
_refine_ls_restrained_S_all      1.067
_refine_ls_R_factor_all          0.0361
_refine_ls_R_factor_gt           0.0281
_refine_ls_shift/su_max          0.000
_refine_ls_shift/su_mean         0.000
_refine_ls_structure_factor_coef Fsqd
_refine_ls_weighting_details
'w=1/[\s^2^(Fo^2^)+(0.0359P)^2^+0.1973P] where P=(Fo^2^+2Fc^2^)/3'
_refine_ls_weighting_scheme      calc
_refine_ls_wR_factor_gt          0.0675
_refine_ls_wR_factor_ref         0.0705
_reflns_Friedel_coverage         0.000
_reflns_number_gt                1168
_reflns_number_total             1353
_reflns_threshold_expression     'I > 2\s(I)'
_cod_data_source_file            ja8b13435_si_002.cif
_cod_data_source_block           MesPOCl2
_cod_database_code               4128474
_shelx_shelxl_version_number     2017/1
_shelx_space_group_comment
;
The symmetry employed for this shelxl refinement is uniquely defined
by the following loop, which should always be used as a source of
symmetry information in preference to the above space-group names.
They are only intended as comments.
;
_shelx_estimated_absorpt_t_max   0.873
_shelx_estimated_absorpt_t_min   0.818
_olex2_refinement_description
;
1. Fixed Uiso
 At 1.2 times of:
  All C(H) groups
 At 1.5 times of:
  All C(H,H,H) groups
2. Others
 Fixed Sof: H7A(0.5) H7B(0.5) H7C(0.5) H8A(0.5) H8B(0.5) H8C(0.5) H9A(0.5)
 H9B(0.5) H9C(0.5)
3.a Aromatic/amide H refined with riding coordinates:
 C3(H3), C5(H5)
3.b Idealised Me refined as rotating group:
 C7(H7A,H7B,H7C), C8(H8A,H8B,H8C), C9(H9A,H9B,H9C)
;
_shelx_res_file
;
TITL MesPOCl2_a.res in P2(1)/m
    MesPOCl2.res
    created by SHELXL-2017/1 at 13:04:42 on 05-Apr-2018
REM Old TITL MesPOCl2 in P2(1)/m
REM SHELXT solution in P2(1)/m
REM R1 0.072, Rweak 0.005, Alpha 0.017, Orientation as input
REM Formula found by SHELXT: C9 O P Cl2
CELL 0.71073 8.0851 6.8766 10.0457 90 109.579 90
ZERR 2 0.0009 0.0007 0.0011 0 0.008 0
LATT 1
SYMM -X,0.5+Y,-Z
SFAC C H Cl O P
UNIT 18 22 4 2 2

L.S. 4
PLAN  5
SIZE 0.193 0.252 0.288
TEMP -173.15
BOND $H
list 4
fmap 2
ACTA
REM <olex2.extras>
REM <HklSrc "%.\\MesPOCl2.hkl">
REM </olex2.extras>

WGHT    0.035900    0.197300
FVAR       1.07775
CL1   3    0.327240    0.521966    0.080357    11.00000    0.02234    0.02108 =
         0.02105   -0.00462    0.00751    0.00096
P1    5    0.434447    0.750000    0.207315    10.50000    0.01049    0.01951 =
         0.01649    0.00000    0.00597    0.00000
O1    4    0.625138    0.750000    0.243716    10.50000    0.01179    0.03835 =
         0.02410    0.00000    0.00807    0.00000
C1    1    0.345083    0.750000    0.348324    10.50000    0.01117    0.01417 =
         0.01693    0.00000    0.00663    0.00000
C2    1    0.462673    0.750000    0.489785    10.50000    0.01053    0.01074 =
         0.01834    0.00000    0.00353    0.00000
C3    1    0.392401    0.750000    0.598406    10.50000    0.01367    0.01402 =
         0.01452    0.00000    0.00326    0.00000
AFIX  43
H3    2    0.470590    0.750000    0.693167    10.50000   -1.20000
AFIX   0
C4    1    0.212729    0.750000    0.574764    10.50000    0.01638    0.01484 =
         0.01807    0.00000    0.00826    0.00000
C5    1    0.099824    0.750000    0.435295    10.50000    0.01066    0.01939 =
         0.02039    0.00000    0.00645    0.00000
AFIX  43
H5    2   -0.023226    0.750000    0.417489    10.50000   -1.20000
AFIX   0
C6    1    0.160470    0.750000    0.321226    10.50000    0.01081    0.01847 =
         0.01840    0.00000    0.00516    0.00000
C7    1    0.661131    0.750000    0.533826    10.50000    0.00976    0.01664 =
         0.02073    0.00000    0.00314    0.00000
PART -1
AFIX 137
H7A   2    0.699481    0.859157    0.488601    10.50000   -1.50000
H7B   2    0.700785    0.627573    0.504655    10.50000   -1.50000
H7C   2    0.711521    0.763270    0.636715    10.50000   -1.50000
AFIX   0
PART 0
C8    1    0.145730    0.750000    0.697317    10.50000    0.01858    0.03293 =
         0.02107    0.00000    0.01046    0.00000
PART -1
AFIX 137
H8A   2    0.028298    0.691903    0.668049    10.50000   -1.50000
H8B   2    0.139872    0.883969    0.728708    10.50000   -1.50000
H8C   2    0.225304    0.674127    0.775155    10.50000   -1.50000
AFIX   0
PART 0
C9    1    0.022766    0.750000    0.175275    10.50000    0.00869    0.05617 =
         0.01809    0.00000    0.00176    0.00000
PART -1
AFIX 137
H9A   2    0.052458    0.651306    0.116607    10.50000   -1.50000
H9B   2    0.019052    0.878306    0.131907    10.50000   -1.50000
H9C   2   -0.092288    0.720388    0.182900    10.50000   -1.50000
AFIX   0
HKLF 4




REM  MesPOCl2_a.res in P2(1)/m
REM R1 =  0.0281 for    1168 Fo > 4sig(Fo)  and  0.0361 for all    1353 data
REM     79 parameters refined using      0 restraints

END

WGHT      0.0359      0.1973

REM Highest difference peak  0.452,  deepest hole -0.299,  1-sigma level  0.060
Q1    1   0.3588  0.6175  0.1454  11.00000  0.05    0.45
Q2    1   0.3865  0.7500  0.2874  10.50000  0.05    0.41
Q3    1   0.4182  0.7500  0.5392  10.50000  0.05    0.33
Q4    1   0.0971  0.7500  0.2496  10.50000  0.05    0.31
Q5    1   0.2959  0.6000  0.0062  11.00000  0.05    0.30
;
_shelx_res_checksum              17024
_shelx_hkl_file
;
   1   0   0 4233.78   87.29
   1   0   0 4252.57   88.89
  -1   0   0 4258.77   87.39
   2   0   0  244.78    8.70
   2   0   0  260.27   11.70
  -2   0   0  240.58    8.90
   3   0   0 2980.00   69.29
   3   0   0 2981.60   65.09
  -3   0   0 2937.31   65.29
  -4   0   0 1465.45   37.70
   4   0   0 1520.05   37.30
   4   0   0 1529.65   42.40
   5   0   0   34.40   10.40
   5   0   0   20.60    6.20
  -5   0   0   13.50    6.70
  -6   0   0  673.53   24.90
   6   0   0  675.83   24.00
   6   0   0  680.03   30.20
  -7   0   0   -2.60    7.00
   7   0   0    5.10    6.70
   7   0   0   11.10   11.40
  -8   0   0  419.36   22.50
   8   0   0  371.76   20.30
   8   0   0  396.46   27.90
   8   0   0  368.16   19.80
  -9   0   0  669.83   30.50
   9   0   0  678.23   28.60
   9   0   0  678.03   27.30
   9   0   0  672.73   37.40
  10   0   0   96.49   20.80
  10   0   0   64.29   13.60
 -10   0   0   89.49   15.60
  10   0   0   85.29   13.60
   0  -1   0    1.50    0.90
   0  -1   0    1.00    1.00
   0  -1   0    3.60    1.00
   0  -1   0    4.30    1.00
   0   1   0    3.20    1.10
   1  -1   0 2879.51   59.39
   1  -1   0 2875.21   59.59
   1  -1   0 2869.01   59.29
  -1  -1   0 2868.71   59.49
   1  -1   0 2820.92   59.69
  -1  -1   0 2777.22   59.29
   1   1   0 2762.92   61.29
   1   1   0 2914.71   59.99
   1   1   0 2829.02   59.39
   2  -1   0  116.49    5.90
   2  -1   0  122.59    8.20
   2  -1   0  129.09    6.20
  -2  -1   0  121.19    5.50
  -2  -1   0  119.39    7.00
   2  -1   0  119.89    6.00
   2   1   0  126.09    7.00
  -2   1   0  119.09    6.30
   2   1   0  129.39    6.90
   2   1   0  141.09   11.10
   3  -1   0 1122.09   27.90
   3  -1   0 1165.78   28.20
   3  -1   0 1144.29   28.20
  -3  -1   0 1151.18   29.20
   3  -1   0 1142.79   31.90
   3   1   0 1179.98   29.10
   3   1   0 1167.08   33.90
  -3   1   0 1176.28   28.70
   3   1   0 1201.48   29.80
   4  -1   0  860.81   23.80
   4  -1   0  850.11   23.60
   4  -1   0  864.11   23.90
   4  -1   0  863.21   28.60
  -4  -1   0  895.11   25.40
   4   1   0  901.71   25.70
  -4   1   0  889.61   24.70
   4   1   0  846.62   24.70
   4   1   0  864.51   30.60
   5  -1   0  228.58   17.60
   5  -1   0  263.07   12.80
   5  -1   0  249.58   13.00
  -5  -1   0  216.08   14.20
   5  -1   0  234.78   12.70
   5   1   0  258.97   13.80
   5   1   0  220.48   19.50
  -5   1   0  238.58   13.80
   6  -1   0  179.48   13.00
   6  -1   0  175.98   13.10
  -6  -1   0  162.18   13.70
   6  -1   0  156.38   12.20
   6  -1   0  174.28   18.40
   6   1   0  189.08   14.20
  -6   1   0  172.88   13.80
   6   1   0  152.98   18.10
   7  -1   0  114.29   11.50
  -7  -1   0  115.89   12.90
   7  -1   0  129.39   11.60
   7  -1   0  131.29   17.80
   7  -1   0  132.09   12.10
   7   1   0  125.49   18.20
  -7   1   0  124.89   12.90
   7   1   0  114.89   12.40
  -8  -1   0   -1.20    8.60
   8  -1   0    4.90    8.10
   8  -1   0    6.10   11.90
   8  -1   0   -2.60    7.10
   8  -1   0   -1.00    6.80
   8   1   0   -0.90   12.60
   8   1   0    8.00    8.10
  -8   1   0  -10.50    8.00
  -9  -1   0   23.00   10.40
   9  -1   0    1.40    8.30
   9  -1   0   -0.60    7.60
   9  -1   0    6.20    8.60
   9  -1   0   -3.80   12.70
  -9   1   0   17.90   10.30
   9   1   0    5.00   15.00
   9   1   0    0.60    8.80
   0  -2   0 5567.94  117.19
   0  -2   0 5688.43  116.89
   0  -2   0 5671.13  116.99
   0  -2   0 5668.73  117.19
   0   2   0 5611.44  117.19
   1  -2   0    3.20    2.10
  -1  -2   0    6.50    2.30
   1  -2   0    5.90    2.60
  -1  -2   0    3.00    2.40
   1  -2   0    6.80    2.60
   1  -2   0    7.30    2.40
   1  -2   0    6.60    2.30
   1   2   0    5.40    2.70
   1   2   0    3.20    4.50
  -2  -2   0 1867.41   42.30
  -2  -2   0 1837.92   42.20
   2  -2   0 1883.31   42.50
   2  -2   0 1920.81   42.00
   2  -2   0 1844.02   42.70
   2  -2   0 1919.51   42.30
   2   2   0 1846.42   46.50
   2   2   0 1843.32   42.20
   2   2   0 1977.30   43.60
  -3  -2   0 1733.73   40.30
  -3  -2   0 1727.33   41.60
   3  -2   0 1737.13   40.80
   3  -2   0 1751.12   41.50
   3   2   0 1811.32   41.60
   3   2   0 1705.63   47.30
   3   2   0 1823.62   42.70
  -4  -2   0   77.99    6.40
   4  -2   0   81.29   10.70
  -4  -2   0   78.69    8.40
   4  -2   0   81.29    7.90
   4  -2   0   72.29    6.60
   4  -2   0   87.79    7.50
   4   2   0   86.39   14.00
   4   2   0   73.09    7.70
  -4   2   0   68.79    6.90
   4   2   0   77.89    8.40
  -5  -2   0 1168.48   33.90
   5  -2   0 1142.59   37.70
  -5  -2   0 1163.18   30.20
   5  -2   0 1172.98   31.40
   5  -2   0 1212.38   33.00
   5  -2   0 1185.78   31.90
  -5   2   0 1123.49   32.20
   5   2   0 1177.18   34.40
   5   2   0 1129.79   33.00
   5   2   0 1184.08   41.90
   6  -2   0  663.53   29.40
  -6  -2   0  628.14   20.50
   6  -2   0  635.94   22.30
   6  -2   0  682.43   23.10
  -6  -2   0  685.33   25.30
   6  -2   0  683.93   24.00
   6   2   0  634.74   24.30
  -6   2   0  655.83   24.00
   6   2   0  648.14   33.00
   7  -2   0  145.69   12.10
   7  -2   0  158.68   18.70
   7  -2   0  164.18   14.00
  -7  -2   0  163.68   14.10
   7  -2   0  164.58   12.80
  -7  -2   0  149.19   14.60
  -7   2   0  136.69   13.20
   7   2   0  159.58   14.20
   7   2   0  141.29   20.60
  -8  -2   0   62.99   11.70
   8  -2   0   48.30   10.10
   8  -2   0   38.90    9.00
   8  -2   0   64.09   14.90
  -8   2   0   49.70   10.80
   8   2   0   82.29   19.00
   8   2   0   66.69   11.90
   9  -2   0   14.50    8.70
   9  -2   0    6.70    8.50
  -9  -2   0   24.40   11.10
  -9   2   0    4.80    9.50
   9   2   0    8.30   10.10
   9   2   0    8.20   16.30
   0  -3   0   -1.20    2.00
   0  -3   0   -0.40    2.70
   0  -3   0    0.10    2.70
   0  -3   0   -0.70    2.40
   0   3   0    0.70    3.10
   0   3   0    4.60    2.90
   1  -3   0  146.89    7.10
   1  -3   0  131.19    7.50
   1  -3   0  136.59    7.80
  -1  -3   0  131.89    7.60
  -1  -3   0  134.79    7.10
  -1  -3   0  135.59    7.50
   1  -3   0  134.29    7.50
   1   3   0  148.59    7.80
   1   3   0  131.89    9.00
   2  -3   0  347.47   13.20
  -2  -3   0  354.56   12.60
   2  -3   0  368.16   12.80
   2  -3   0  363.56   12.60
   2  -3   0  379.16   12.90
   2  -3   0  387.06   13.40
  -2  -3   0  356.46   13.20
   2   3   0  382.86   13.60
   2   3   0  371.56   17.30
  -3  -3   0  620.44   19.10
  -3  -3   0  627.14   19.20
   3  -3   0  643.34   19.20
  -3  -3   0  618.64   19.20
   3  -3   0  639.94   20.00
   3   3   0  628.84   19.20
   3   3   0  633.64   26.30
   3   3   0  640.54   20.70
  -4  -3   0 1472.05   38.60
  -4  -3   0 1492.05   37.50
   4  -3   0 1447.86   38.80
   4  -3   0 1457.75   37.70
   4   3   0 1503.35   38.40
   4   3   0 1533.45   40.40
   4   3   0 1521.25   47.80
   5  -3   0  575.74   20.60
  -5  -3   0  580.74   21.90
   5  -3   0  585.14   22.00
  -5  -3   0  579.44   19.80
   5   3   0  568.44   21.70
   5   3   0  608.24   23.30
  -5   3   0  541.35   19.90
   5   3   0  633.34   32.70
   6  -3   0   85.59    9.20
   6  -3   0  108.49   11.50
  -6  -3   0   80.79    8.30
  -6  -3   0   86.59   10.70
  -6   3   0   85.89   10.20
   6   3   0   86.79   11.00
   6   3   0  111.59   12.40
   6   3   0   97.19   19.70
  -7  -3   0    8.60    7.90
  -7  -3   0   -0.70    5.40
   7  -3   0    5.30    6.20
   7  -3   0    6.30    7.70
  -7   3   0   -1.70    7.10
   7   3   0  -11.60    7.40
   7   3   0   -1.40   14.80
   8  -3   0   60.49   10.70
  -8  -3   0   56.49   11.90
   8  -3   0   55.09   11.10
  -8   3   0   55.99   11.00
   8   3   0   62.19   19.40
   8   3   0   47.40   11.10
  -9  -3   0   12.70   10.80
   9  -3   0   -0.90    8.60
   9  -3   0    1.80    9.00
   9   3   0  -24.80   16.20
   9   3   0   -3.50   10.20
  -9   3   0    2.90    9.40
   0  -4   0 9999.00  204.08
   0  -4   0 9613.24  204.28
   0  -4   0 9717.63  204.38
   0   4   0 9717.73  204.38
   0   4   0 9853.31  203.88
   1  -4   0 1197.78   31.70
   1  -4   0 1156.58   31.20
  -1  -4   0 1207.98   31.70
   1  -4   0 1170.08   30.70
  -1  -4   0 1216.58   31.40
  -1  -4   0 1208.88   30.70
   1  -4   0 1193.88   31.10
   1   4   0 1202.28   31.30
   1   4   0 1170.48   32.30
   2  -4   0   25.30    5.10
   2  -4   0   25.00    5.10
  -2  -4   0   30.20    5.40
   2  -4   0   32.10    6.20
   2  -4   0   29.90    4.90
  -2  -4   0   20.00    5.10
   2  -4   0   18.20    4.50
   2   4   0   24.00    9.60
   2   4   0   24.30    5.40
   3  -4   0  521.25   18.20
   3  -4   0  505.75   18.90
  -3  -4   0  531.35   18.50
  -3  -4   0  509.15   19.10
   3  -4   0  506.15   18.10
   3  -4   0  505.75   18.10
   3  -4   0  510.95   19.30
   3   4   0  532.35   27.00
   3   4   0  535.85   19.90
   4  -4   0  499.75   19.20
  -4  -4   0  554.94   20.30
  -4  -4   0  524.85   19.40
  -4  -4   0  538.35   19.70
   4  -4   0  538.85   21.00
   4   4   0  587.34   31.70
   4   4   0  542.25   19.90
   4   4   0  527.95   21.30
   5  -4   0    3.40    5.20
  -5  -4   0    5.30    6.30
   5  -4   0   14.30    6.80
  -5  -4   0    3.80    5.00
  -5  -4   0   13.20    6.00
   5   4   0    5.60   16.10
   5   4   0    2.80    6.30
   5   4   0   12.00    7.40
   6  -4   0  236.48   14.90
   6  -4   0  262.97   16.80
  -6  -4   0  240.88   15.60
  -6  -4   0  280.57   16.60
  -6  -4   0  264.47   15.20
   6   4   0  234.88   16.90
   6   4   0  257.47   28.30
   6   4   0  263.27   17.60
   7  -4   0   12.80    8.30
  -7  -4   0    4.80    6.30
  -7  -4   0    4.80    7.60
   7  -4   0   -1.40    5.90
   7   4   0  -33.60   15.30
   7   4   0    9.10    8.20
   7   4   0    3.90    8.70
   8  -4   0  208.88   17.80
   8  -4   0  210.68   17.20
  -8  -4   0  172.08   26.20
   8   4   0  220.68   18.70
  -8   4   0  172.68   15.10
   8   4   0  221.88   28.30
   0  -5   0    2.50    4.10
   0  -5   0    0.30    4.30
   0  -5   0   -2.40    3.40
   0   5   0   -2.40    6.10
   0   5   0   -4.50    4.20
   1  -5   0 1153.18   32.80
   1  -5   0 1131.49   32.30
  -1  -5   0 1134.69   32.40
   1  -5   0 1161.08   32.30
  -1  -5   0 1166.98   31.80
   1  -5   0 1158.08   31.60
  -1  -5   0 1138.99   32.70
   1   5   0 1164.98   34.20
  -1   5   0 1121.69   32.60
   1   5   0 1156.18   32.20
   2  -5   0  207.78   11.80
   2  -5   0  206.28   12.80
  -2  -5   0  212.08   13.70
   2  -5   0  211.88   13.50
  -2  -5   0  195.38   11.80
   2  -5   0  203.68   12.70
   2   5   0  222.68   13.20
   2   5   0  243.58   19.50
   3  -5   0  227.38   13.00
   3  -5   0  224.78   13.70
   3  -5   0  251.97   14.30
   3  -5   0  235.68   14.60
   3  -5   0  227.98   13.20
  -3  -5   0  271.87   15.20
  -3  -5   0  242.98   13.40
   3   5   0  248.58   23.90
   3   5   0  254.47   15.30
  -4  -5   0   25.00    7.20
  -4  -5   0   20.90    6.30
   4  -5   0   37.20    7.50
   4  -5   0   44.60    8.80
   4  -5   0   18.80    5.90
   4   5   0   42.50   16.60
   4   5   0   44.70    8.40
   5  -5   0   -9.80    4.70
   5  -5   0    3.70    6.70
  -5  -5   0    9.30    7.00
  -5  -5   0   -1.70    5.10
   5  -5   0    9.80    5.60
   5   5   0    0.60    7.50
   5   5   0   10.70   17.60
   5   5   0   -7.30    6.50
   6  -5   0  110.29   11.80
   6  -5   0  136.29   14.00
   6  -5   0  128.79   12.50
  -6  -5   0  129.39   13.10
  -6  -5   0  109.49   12.20
   6   5   0  113.59   13.90
   6   5   0  122.29   13.20
   6   5   0  145.29   25.00
  -7  -5   0  220.28   17.40
   7  -5   0  190.88   15.60
  -7  -5   0  164.78   14.90
   7  -5   0  233.18   18.30
   7   5   0  198.68   16.90
   7   5   0  214.38   28.90
   7   5   0  173.58   17.40
   8  -5   0   19.60   10.00
   8  -5   0   31.60    9.60
  -8  -5   0    3.70    8.40
   8   5   0   21.30   12.20
   8   5   0   -3.40   20.50
   0  -6   0  621.04   23.10
   0  -6   0  616.94   23.10
   0   6   0  615.74   22.60
   0   6   0  610.54   23.90
  -1  -6   0   34.20    7.10
   1  -6   0   58.09    8.40
  -1  -6   0   59.39    9.30
  -1  -6   0   38.10    6.90
   1  -6   0   56.39    8.70
   1  -6   0   52.29    8.80
   1  -6   0   40.40    7.40
   1   6   0   61.09   11.70
  -1   6   0   45.00    7.60
   1   6   0   40.70    7.70
  -1   6   0   61.89   10.10
  -2  -6   0  287.87   14.60
  -2  -6   0  257.37   16.30
   2  -6   0  265.17   14.20
   2  -6   0  268.57   15.50
   2  -6   0  227.28   15.20
   2  -6   0  277.97   15.80
  -2   6   0  271.77   16.20
   2   6   0  268.47   15.50
   2   6   0  289.07   21.90
   3  -6   0  323.07   17.50
  -3  -6   0  326.17   16.10
   3  -6   0  309.27   17.70
   3  -6   0  311.57   17.20
  -3  -6   0  310.37   18.30
   3  -6   0  320.17   16.20
   3   6   0  308.07   17.70
   3   6   0  340.87   26.60
   4  -6   0   47.00    8.90
   4  -6   0   33.70    7.70
   4  -6   0   30.60    7.30
  -4  -6   0   31.40    8.40
   4  -6   0   29.20    7.40
  -4  -6   0   41.90    8.40
   4   6   0   48.50   18.80
   4   6   0   41.80    9.40
   5  -6   0  273.47   18.60
   5  -6   0  261.37   17.20
   5  -6   0  232.28   16.40
  -5  -6   0  289.77   18.80
  -5  -6   0  259.07   16.70
   5   6   0  267.67   18.90
   6  -6   0  169.68   17.10
   6  -6   0  135.99   13.50
  -6  -6   0  111.89   13.10
   6  -6   0  114.49   13.40
  -6  -6   0  121.39   13.60
   6   6   0  162.18   27.30
   6   6   0  156.08   16.30
   6   6   0  128.89   14.40
   7  -6   0   44.10   10.10
   7  -6   0   37.70    9.90
  -7  -6   0   23.10    9.70
   7  -6   0   30.70   10.70
  -7  -6   0   37.10   10.50
   7   6   0   35.40   11.80
   7   6   0   15.20   31.50
   7   6   0   22.50   10.40
   0  -7   0   -3.60    6.10
   0  -7   0   -8.80    5.20
   0  -7   0   -3.10    4.70
   0   7   0    6.00    5.90
   1  -7   0    4.50    6.10
  -1  -7   0    6.20    5.90
   1  -7   0   10.60    6.00
  -1  -7   0   10.10    6.70
   1  -7   0   13.80    7.20
  -1   7   0    4.90    6.20
   1   7   0    4.10    6.30
   2  -7   0  151.98   14.10
   2  -7   0  149.79   14.40
  -2  -7   0  128.79   13.10
   2  -7   0  157.48   14.30
   2  -7   0  141.49   13.50
  -2  -7   0  155.68   14.30
  -2   7   0  143.89   12.80
   2   7   0  150.48   13.80
  -3  -7   0  204.58   18.00
   3  -7   0  182.58   16.00
   3  -7   0  215.08   15.00
  -3  -7   0  196.58   14.50
   3  -7   0  212.08   16.60
   3  -7   0  203.58   16.40
   3   7   0  212.88   16.80
  -4  -7   0  804.42   31.30
   4  -7   0  683.03   29.10
   4  -7   0  740.23   28.50
  -4  -7   0  722.53   27.90
   4  -7   0  752.52   28.80
   4  -7   0  749.82   30.40
   4   7   0  774.52   30.90
   5  -7   0  310.47   20.60
  -5  -7   0  314.37   19.80
  -5  -7   0  344.47   22.20
   5  -7   0  314.27   21.90
   5   7   0  332.87   21.90
  -6  -7   0    8.20    9.60
   6  -7   0   20.00    8.80
   6  -7   0    6.70    9.50
  -6  -7   0    8.70    8.90
   6  -7   0   21.80    9.20
   6   7   0    5.60    9.60
   0  -8   0 1102.89   38.60
   0  -8   0 1167.18   39.20
   0  -8   0 1157.58   37.20
   0   8   0 1125.89   37.10
   1  -8   0  193.58   16.60
   1  -8   0  169.98   16.60
   1  -8   0  189.58   15.40
  -1  -8   0  170.48   16.50
  -1  -8   0  158.78   14.60
  -1   8   0  184.08   18.40
   1   8   0  171.68   16.10
   2  -8   0    4.30    7.00
   2  -8   0   -1.50    7.20
  -2  -8   0   -4.70    6.10
  -2  -8   0   -6.00    8.20
   2  -8   0    0.10    7.60
   2   8   0   -1.00    6.80
   3  -8   0   19.10    8.00
   3  -8   0   13.90    8.70
   3  -8   0   22.30    9.30
   3  -8   0   11.30    8.70
  -3  -8   0   14.30    7.70
  -3  -8   0   24.80   10.60
   3   8   0   30.50    9.80
   4  -8   0   78.89   13.20
  -4  -8   0   74.89   11.60
   4  -8   0   76.99   13.10
   4  -8   0   83.79   14.10
  -4  -8   0   74.69   13.80
   4   8   0   79.29   13.40
   0  -9   0    1.80    9.90
   0  -9   0   -2.20    9.70
   0  -9   0   10.50    7.50
   1  -9   0  383.56   24.80
  10   0  -1  228.48   28.30
  10   0  -1  249.68   20.20
 -10   0   1  294.77   22.40
  10   0  -1  244.08   19.80
  10   0  -1  279.07   20.90
  -9   0   1   38.70   10.00
   9   0  -1   16.40   14.00
   9   0  -1   -8.80    8.30
   9   0  -1   21.60    9.40
   8   0  -1  410.26   27.40
   8   0  -1  432.46   21.30
  -8   0   1  396.46   21.50
   7   0  -1  733.53   33.10
  -7   0   1  709.53   26.80
   7   0  -1  747.23   26.50
   6   0  -1   11.00    6.70
   6   0  -1    8.20   10.50
  -6   0   1    4.40    6.40
   5   0  -1  110.49   14.20
  -5   0   1   78.39    8.40
   5   0  -1  103.89    9.30
  -4   0   1  148.09    9.00
   4   0  -1  137.99    9.00
   4   0  -1  127.69   13.20
   3   0  -1 3719.13   80.69
   3   0  -1 3829.32   85.79
  -3   0   1 3742.23   80.79
  -2   0   1 2375.76   50.89
   2   0  -1 2337.87   50.79
   2   0  -1 2372.16   54.49
   1   0  -1  275.37    7.20
   1   0  -1  273.47    8.40
  -1   0   1  287.67    7.20
   0   0   1    2.80    0.70
   0   0  -1    3.20    0.80
   1   0   1 1880.91   42.20
   1   0   1 2015.10   42.00
  -1   0  -1 2060.69   42.20
   1   0   1 1964.60   43.50
   2   0   1  258.87   11.70
   2   0   1  258.07    9.10
  -2   0  -1  262.27    9.60
   2   0   1  263.37    9.60
   3   0   1 1043.30   30.00
   3   0   1 1035.00   26.30
  -3   0  -1 1050.89   27.00
  -4   0  -1  130.19   10.10
   4   0   1  145.49   13.40
   4   0   1  128.79    9.00
   5   0   1  296.37   14.80
   5   0   1  307.57   20.50
  -5   0  -1  308.87   16.30
   6   0   1 1035.90   31.80
   6   0   1 1057.19   30.10
   6   0   1 1047.10   39.10
  -6   0  -1 1066.39   33.80
   7   0   1  366.86   17.60
   7   0   1  360.86   25.40
   7   0   1  389.16   19.40
  -7   0  -1  375.36   21.20
   8   0   1   65.69   12.60
   8   0   1   87.79   12.00
  -8   0  -1   69.19   12.60
   8   0   1   60.99   16.40
  -9   0  -1  218.68   19.90
   9   0   1  226.18   17.70
   9   0   1  265.67   20.20
   9   0   1  282.87   27.70
  10  -1  -1  201.08   18.20
  10  -1  -1  248.48   28.10
 -10  -1   1  261.57   21.70
  10  -1  -1  199.18   17.50
  10   1  -1  267.07   29.50
 -10   1   1  234.68   20.50
  10   1  -1  220.88   19.40
  -9  -1   1   99.69   14.00
   9  -1  -1   90.89   12.50
   9  -1  -1  115.09   13.20
   9  -1  -1   76.69   11.40
   9  -1  -1  132.79   20.80
   9   1  -1   87.09   19.10
   9   1  -1   90.59   13.30
  -9   1   1   84.79   13.00
   8  -1  -1  134.79   19.30
   8  -1  -1  123.19   12.90
  -8  -1   1  140.49   14.50
   8  -1  -1  117.09   11.60
   8  -1  -1  157.08   14.30
  -8   1   1  144.59   14.20
   8   1  -1  152.78   14.90
   8   1  -1  171.18   22.10
   7  -1  -1   -2.30    6.70
  -7  -1   1   -0.20    6.90
   7  -1  -1    8.30   10.20
   7  -1  -1    2.30    5.60
   7  -1  -1   -0.30    5.90
  -7   1   1  -11.60    6.20
   7   1  -1    5.50    7.30
   7   1  -1   -4.70   10.70
   6  -1  -1   27.00   11.00
   6  -1  -1    9.20    5.80
   6  -1  -1   26.90    7.70
  -6  -1   1   11.40    7.00
   6  -1  -1   11.80    6.60
  -6   1   1   10.80    6.80
   6   1  -1   20.40   12.50
   6   1  -1   11.20    7.40
  -5  -1   1   88.49    9.20
   5  -1  -1  133.59   10.10
   5  -1  -1  108.09    8.70
   5  -1  -1  108.29    9.50
   5  -1  -1  140.89   15.10
  -5   1   1   98.09    9.10
   5   1  -1  108.19    9.70
   5   1  -1  117.39   16.10
   4  -1  -1  836.92   22.60
   4  -1  -1  829.52   27.10
   4  -1  -1  836.02   23.00
  -4  -1   1  827.22   23.60
   4  -1  -1  835.82   23.30
   4   1  -1  834.02   30.20
   4   1  -1  788.62   23.40
  -4   1   1  819.72   23.10
   3  -1  -1  712.33   18.20
   3  -1  -1  676.23   18.30
   3  -1  -1  674.33   21.60
  -3  -1   1  690.53   19.10
   3  -1  -1  669.43   18.80
   3   1  -1  667.53   24.10
  -3   1   1  687.73   18.50
   3   1  -1  675.53   19.00
   2  -1  -1 2185.88   49.70
   2  -1  -1 2123.49   48.80
   2  -1  -1 2222.58   47.40
   2  -1  -1 2202.88   47.30
  -2  -1   1 2178.18   48.00
   2  -1  -1 2177.98   48.10
  -2   1   1 2174.98   47.30
   2   1  -1 2280.77   48.50
   2   1  -1 2282.87   51.99
   2   1  -1 2166.88   48.00
  -1  -1   1  112.09    4.00
   1  -1  -1  117.19    4.30
   1  -1  -1  114.99    4.10
  -1  -1   1  105.59    4.40
   1  -1  -1  104.59    6.10
   1  -1  -1  103.89    4.50
  -1  -1   1  101.19    4.30
   1   1  -1  108.89    5.80
   1   1  -1  107.29    4.30
   1   1  -1   99.99    4.20
   0  -1  -1 2994.40   60.09
   0  -1  -1 2885.31   60.29
   0  -1   1 3004.90   60.09
   0  -1  -1 2770.92   59.69
   0  -1  -1 2774.62   61.89
   0  -1   1 2873.91   59.99
   0  -1   1 2833.22   59.69
   0  -1   1 3003.30   60.39
  -1  -1  -1 1058.09   26.40
   1  -1   1 1122.39   25.20
   1  -1   1 1112.09   25.10
   1  -1   1 1123.09   24.70
  -1  -1  -1 1162.58   25.40
   1   1   1 1179.28   26.30
   1   1   1 1106.99   27.10
   1   1   1 1123.89   25.30
  -1   1  -1 1160.08   24.90
  -2  -1  -1   14.90    3.80
   2  -1   1   25.40    3.50
   2  -1   1   27.50    3.40
   2  -1   1   22.80    3.30
  -2   1  -1   22.50    3.70
   2   1   1   33.20    7.00
   2   1   1   27.60    4.00
   2   1   1   23.50    3.90
   3  -1   1   30.90    4.20
   3  -1   1   28.40    4.10
  -3  -1  -1   29.40    5.20
   3  -1   1   33.30    4.40
   3  -1   1   30.00    6.90
  -3   1  -1   31.60    4.90
   3   1   1   28.50    4.90
   3   1   1   42.50    8.50
   3   1   1   30.40    4.80
  -4  -1  -1   22.40    6.10
   4  -1   1   23.40    4.60
   4  -1   1   17.70    4.50
   4  -1   1   25.70    8.30
   4  -1   1   29.00    5.10
  -4   1  -1   24.00    5.80
   4   1   1   25.60    9.30
   4   1   1   24.60    5.60
   4   1   1   26.40    5.80
   5  -1   1   87.89    8.50
   5  -1   1   89.69   14.10
   5  -1   1   74.09    8.50
  -5  -1  -1   67.69    9.60
   5  -1   1   91.49    8.50
   5   1   1   81.39   14.30
  -5   1  -1   79.59    9.80
   5   1   1   87.39    9.50
  -6  -1  -1   22.50    8.90
   6  -1   1   15.90    6.80
   6  -1   1   19.00    7.00
   6  -1   1   29.70   11.90
   6  -1   1   16.70    6.50
  -6   1  -1   25.90    8.50
   6   1   1   28.60    8.00
   6   1   1   19.40   12.60
  -7  -1  -1  247.48   18.60
   7  -1   1  202.78   20.60
   7  -1   1  244.58   15.30
   7  -1   1  243.88   15.50
   7  -1   1  237.08   15.50
   7   1   1  214.88   22.70
  -7   1  -1  241.68   17.80
   7   1   1  233.88   16.70
   8  -1   1   27.80    8.70
  -8  -1  -1   33.50   10.80
   8  -1   1   30.60   13.40
   8  -1   1   25.00    8.80
   8  -1   1   25.60    8.80
   8   1   1   10.00    8.70
   8   1   1   17.30   14.30
  -8   1  -1   30.60   10.40
   9  -1   1   63.29   16.80
  -9  -1  -1   58.49   13.00
   9  -1   1   27.80   10.00
   9  -1   1   36.10   11.00
  -9   1  -1   58.39   13.10
   9   1   1   31.90   11.10
   9   1   1   48.70   17.70
 -10  -2   1   50.09   12.50
  10  -2  -1   22.10    9.80
  10  -2  -1   36.30   15.80
  10   2  -1   19.20   11.60
  10   2  -1   18.60   18.10
 -10   2   1   36.20   11.80
   9  -2  -1  315.77   20.50
   9  -2  -1  277.47   19.10
  -9  -2   1  324.37   21.40
   9  -2  -1  305.07   25.50
   9   2  -1  298.77   21.10
   9   2  -1  278.07   28.80
  -9   2   1  294.67   20.30
   8  -2  -1  273.87   18.20
   8  -2  -1  257.97   16.80
   8  -2  -1  284.47   23.50
  -8  -2   1  304.17   19.60
   8   2  -1  238.98   26.30
  -8   2   1  265.67   18.20
   8   2  -1  284.67   19.20
  -7  -2   1  198.38   12.40
   7  -2  -1  221.28   20.30
   7  -2  -1  203.78   15.30
  -7  -2   1  226.98   16.20
   7  -2  -1  212.58   14.20
   7  -2  -1  223.58   14.20
   7   2  -1  199.58   23.30
  -7   2   1  204.78   15.30
   7   2  -1  211.18   16.10
   6  -2  -1 1443.76   38.60
  -6  -2   1 1416.96   37.00
   6  -2  -1 1444.76   39.90
   6  -2  -1 1424.06   45.70
  -6  -2   1 1474.75   40.50
   6  -2  -1 1447.76   38.70
   6   2  -1 1399.16   40.00
  -6   2   1 1406.46   39.20
   6   2  -1 1461.05   50.19
  -5  -2   1 2233.78   53.09
  -5  -2   1 2299.97   55.59
   5  -2  -1 2317.77   60.49
   5  -2  -1 2282.87   53.89
   5  -2  -1 2265.47   55.19
   5  -2  -1 2278.87   54.09
  -5   2   1 2235.98   54.19
   5   2  -1 2270.17   55.39
   5   2  -1 2342.57   65.39
   4  -2  -1    2.00    3.60
  -4  -2   1    3.80    3.40
   4  -2  -1    4.70    6.50
   4  -2  -1    7.80    3.70
   4  -2  -1   -0.20    3.90
  -4  -2   1    0.80    4.50
   4   2  -1    2.70    4.00
   4   2  -1    9.40   10.30
   4   2  -1    3.20    4.50
  -4   2   1    3.80    4.00
   3  -2  -1  329.67   14.10
  -3  -2   1  360.66   12.60
   3  -2  -1  338.47   11.90
   3  -2  -1  314.87   12.30
  -3  -2   1  345.37   12.00
   3   2  -1  338.77   12.40
   3   2  -1  366.36   13.20
   3   2  -1  327.97   17.80
  -2  -2   1 2225.08   49.90
   2  -2  -1 2265.07   49.80
  -2  -2   1 2225.78   49.30
  -2  -2   1 2232.78   49.30
   2  -2  -1 2258.07   50.39
   2  -2  -1 2329.37   49.60
   2   2  -1 2139.09   49.20
   2   2  -1 2352.06   50.29
   2   2  -1 2223.38   53.59
  -1  -2   1   83.99    5.40
   1  -2  -1   88.49    5.10
   1  -2  -1   79.59    7.90
   1  -2  -1   94.49    5.90
  -1  -2   1   83.59    4.80
   1  -2  -1   90.19    5.20
   1  -2  -1   87.69    5.50
   1  -2  -1   83.69    5.00
   1   2  -1   77.49    5.00
   1   2  -1   77.59    7.40
   0  -2  -1 8735.83  177.88
   0  -2  -1 8390.46  180.78
   0  -2  -1 8519.65  178.28
   0  -2   1 8569.04  177.58
   0  -2   1 8930.31  178.08
   0  -2   1 8728.23  178.38
   0  -2  -1 8693.83  177.78
   0  -2   1 8740.83  178.08
   1  -2   1 2217.48   48.20
   1  -2   1 2237.48   47.40
  -1  -2  -1 2169.98   47.20
  -1  -2  -1 2171.38   47.80
  -1  -2  -1 2204.58   46.80
   1  -2   1 2196.58   47.50
   1  -2   1 2149.39   48.10
  -1  -2  -1 2082.39   49.70
   1  -2   1 2173.78   47.60
  -1  -2  -1 2081.79   47.70
   1   2   1 2284.07   48.90
  -2  -2  -1  329.27   10.90
   2  -2   1  334.07   10.30
   2  -2   1  327.07   10.90
   2  -2   1  329.27   11.30
  -2  -2  -1  345.57   11.60
   2   2   1  352.26   12.50
   2   2   1  316.67   15.60
   2   2   1  335.17   11.30
  -3  -2  -1 2122.39   49.30
   3  -2   1 2081.09   48.20
  -3  -2  -1 2143.09   47.50
   3  -2   1 2099.99   48.50
   3  -2   1 2025.60   47.00
   3   2   1 2127.79   54.19
   3   2   1 2154.18   48.80
  -3   2  -1 2109.49   47.60
   3   2   1 2110.89   50.09
  -4  -2  -1 1755.72   41.20
   4  -2   1 1724.63   41.90
   4  -2   1 1728.73   42.90
   4  -2   1 1770.92   42.60
  -4  -2  -1 1724.03   44.30
   4   2   1 1828.52   50.89
   4   2   1 1816.32   45.40
  -4   2  -1 1739.53   42.90
   4   2   1 1791.92   43.70
  -5  -2  -1   27.50    8.10
   5  -2   1   29.80    6.30
   5  -2   1   21.20    6.60
  -5  -2  -1   25.60    4.90
   5  -2   1   24.90    5.90
   5   2   1   29.10    7.50
   5   2   1   27.00   12.80
  -5   2  -1   18.10    7.30
   5   2   1   27.20    7.30
  -6  -2  -1  253.57   17.20
   6  -2   1  280.97   15.30
   6  -2   1  242.88   14.40
   6  -2   1  253.77   14.60
   6   2   1  228.98   16.20
   6   2   1  244.98   23.10
  -6   2  -1  259.27   16.30
   6   2   1  290.77   16.90
   7  -2   1  112.59   11.00
  -7  -2  -1  103.09   13.40
   7  -2   1  111.29   11.60
   7  -2   1  126.69   12.10
   7   2   1  111.99   12.60
   7   2   1  127.69   19.40
  -7   2  -1  117.09   13.30
   8  -2   1    5.10    7.40
   8  -2   1    9.90    7.70
  -8  -2  -1   26.20   10.20
   8   2   1    2.80   14.20
   8   2   1   12.30    9.60
  -8   2  -1   11.90    9.10
  -9  -2  -1  151.38   17.30
   9  -2   1  142.59   14.70
   9   2   1  133.09   16.30
  -9   2  -1  155.68   16.80
   9   2   1  159.08   25.10
   9  -3  -1    9.70    9.20
  -9  -3   1   19.00    9.60
   9  -3  -1   20.80    9.10
  -9   3   1   27.00    9.50
   9   3  -1   12.80   10.50
   9   3  -1    5.70   17.00
   8  -3  -1  188.68   15.10
   8  -3  -1  171.78   15.80
  -8  -3   1  198.88   16.70
  -8   3   1  175.98   15.20
   8   3  -1  153.58   24.50
   8   3  -1  219.58   17.60
   7  -3  -1  149.69   12.70
  -7  -3   1  153.58   13.80
  -7  -3   1  161.78   12.20
   7  -3  -1  171.08   15.10
   7   3  -1  140.09   22.50
  -7   3   1  172.78   14.20
   7   3  -1  150.78   14.30
   6  -3  -1  171.48   14.10
   6  -3  -1  139.99   11.50
  -6  -3   1  140.29   12.50
  -6  -3   1  127.29   10.90
   6   3  -1  142.59   13.00
  -6   3   1  139.89   11.50
   6   3  -1  157.48   14.00
   6   3  -1  132.59   21.50
   5  -3  -1    0.50    5.70
  -5  -3   1   10.00    6.40
   5  -3  -1   -3.10    4.50
  -5  -3   1    6.10    4.80
  -5   3   1    5.40    5.80
   5   3  -1    2.50   14.90
   5   3  -1    1.60    6.50
   5   3  -1   13.60    6.60
  -4  -3   1   -0.20    5.00
   4  -3  -1    2.90    5.20
  -4  -3   1   -1.70    3.90
   4  -3  -1    1.10    3.70
   4   3  -1   -0.50    4.80
   4   3  -1    4.30    5.50
   4   3  -1    2.90   12.60
  -3  -3   1    5.40    3.50
  -3  -3   1    4.80    3.80
   3  -3  -1    1.80    3.10
   3  -3  -1    6.20    3.30
   3  -3  -1   -0.20    3.90
  -3  -3   1    0.00    2.90
   3   3  -1    4.50    3.90
   3   3  -1    7.00    9.30
   3   3  -1    6.00    4.00
  -2  -3   1  310.67   11.40
   2  -3  -1  326.57   11.90
  -2  -3   1  310.87   11.90
   2  -3  -1  305.57   11.40
   2  -3  -1  299.17   12.10
   2  -3  -1  295.37   11.20
   2  -3  -1  318.67   12.00
   2   3  -1  317.17   11.90
   2   3  -1  301.67   15.30
   1  -3  -1  272.77   10.80
   1  -3  -1  296.57   10.60
   1  -3  -1  279.47   11.00
  -1  -3   1  298.97   10.30
  -1  -3   1  297.47   11.30
   1  -3  -1  279.27   10.60
  -1  -3   1  289.27   11.10
   1   3  -1  295.17   10.30
   1   3  -1  290.47   12.70
   0  -3  -1  636.84   18.30
   0  -3  -1  630.04   17.80
   0  -3   1  642.54   17.60
   0  -3   1  623.84   17.90
   0  -3  -1  633.34   17.80
   0  -3   1  657.93   18.20
   0  -3   1  644.84   18.30
   0   3   1  651.43   18.50
   0   3  -1  628.04   16.80
   0   3  -1  638.44   19.30
  -1  -3  -1 1585.54   37.60
   1  -3   1 1605.04   37.30
   1  -3   1 1595.74   37.30
   1  -3   1 1596.34   38.20
  -1  -3  -1 1612.14   37.30
   1  -3   1 1578.64   37.20
  -1  -3  -1 1512.15   37.70
   1  -3   1 1624.64   38.00
   1   3   1 1663.43   38.90
   2  -3   1  599.54   17.20
   2  -3   1  589.04   18.40
  -2  -3  -1  571.14   17.90
   2  -3   1  612.54   18.50
   2  -3   1  593.64   17.70
  -2  -3  -1  601.44   18.00
   2  -3   1  595.44   17.60
   2   3   1  613.74   22.70
   2   3   1  609.04   19.30
  -3  -3  -1   19.60    4.80
  -3  -3  -1   23.20    5.60
   3  -3   1   19.90    5.30
   3  -3   1   22.70    4.70
   3  -3   1   27.90    4.40
  -3  -3  -1   25.70    5.00
   3   3   1   19.40    5.40
   3   3   1   30.00   11.60
   3   3   1   16.00    5.20
  -4  -3  -1   70.39    9.00
   4  -3   1   92.69    8.50
   4  -3   1   79.19    8.90
  -4  -3  -1   66.19    7.10
   4   3   1   79.19    8.90
   4   3   1   81.59    9.50
   4   3   1   86.49   16.00
   5  -3   1  414.76   18.10
  -5  -3  -1  387.76   16.00
   5  -3   1  394.16   16.90
  -5  -3  -1  415.46   19.30
   5  -3   1  404.96   18.20
  -5   3  -1  367.96   16.40
   5   3   1  428.46   27.60
   5   3   1  393.46   19.10
   5   3   1  378.56   18.30
  -6  -3  -1   41.90    6.80
   6  -3   1   51.79    8.00
  -6  -3  -1   55.69   10.10
   6  -3   1   59.59    9.10
   6   3   1   54.39   16.40
   6   3   1   50.49    9.30
  -6   3  -1   58.99    9.20
   6   3   1   57.99   10.00
   7  -3   1   40.60    9.10
  -7  -3  -1   41.20   10.00
   7  -3   1   27.90    8.20
   7   3   1   33.10   16.30
   7   3   1   27.60    9.40
  -7   3  -1   29.30    8.70
   8  -3   1   22.20    8.80
   8  -3   1   -5.00    7.50
  -8  -3  -1   23.50    9.90
   8   3   1   14.30    9.80
   8   3   1   -5.70   15.60
  -8   3  -1    2.10    8.20
   9  -3   1   29.50   10.90
  -9  -3  -1   18.20   11.20
   9  -3   1   16.70    9.70
   9   3   1   32.20   12.40
  -9   3  -1   24.20   10.70
   9   3   1   27.00   18.40
   9  -4  -1    5.60    9.10
   9  -4  -1   16.40    8.70
   9   4  -1   -8.20   10.40
  -9   4   1    8.90    9.20
   9   4  -1   10.90   20.70
   8  -4  -1  224.88   16.70
  -8  -4   1  267.87   19.20
   8  -4  -1  228.58   18.10
  -8   4   1  193.08   15.90
   8   4  -1  212.48   18.50
   8   4  -1  216.28   29.90
   7  -4  -1  396.66   20.00
  -7  -4   1  449.86   19.90
   7  -4  -1  500.05   23.00
  -7  -4   1  474.15   21.50
  -7   4   1  433.76   19.70
   7   4  -1  447.36   22.70
   7   4  -1  436.26   34.50
  -6  -4   1   -2.60    6.20
   6  -4  -1    4.70    5.30
   6  -4  -1   -2.30    6.60
  -6  -4   1   -0.30    5.30
  -6  -4   1   -4.30    5.20
   6   4  -1  -13.50    6.90
   6   4  -1   -3.20    6.20
   6   4  -1   16.10   17.40
   5  -4  -1   44.70    7.30
  -5  -4   1   43.00    7.50
   5  -4  -1   40.30    8.20
  -5  -4   1   36.60    7.80
  -5  -4   1   48.80    7.50
   5   4  -1   53.19    9.10
   5   4  -1   62.19   19.10
   5   4  -1   34.10    8.30
  -4  -4   1    3.80    5.70
   4  -4  -1    7.50    4.70
  -4  -4   1   11.10    5.30
   4  -4  -1    4.80    4.70
   4  -4  -1   16.90    6.60
  -4  -4   1   17.80    5.70
   4   4  -1   21.60    6.90
   4   4  -1   -1.70   14.70
   4   4  -1   17.30    6.30
   3  -4  -1 1215.18   32.50
  -3  -4   1 1176.38   32.90
   3  -4  -1 1203.98   32.50
   3  -4  -1 1215.48   33.30
  -3  -4   1 1212.78   32.50
   3  -4  -1 1249.07   33.00
   3  -4  -1 1186.98   33.60
   3   4  -1 1262.97   33.80
   3   4  -1 1211.48   40.10
  -2  -4   1  704.33   22.00
   2  -4  -1  710.03   22.30
   2  -4  -1  694.13   21.60
  -2  -4   1  700.23   20.80
   2  -4  -1  671.83   20.80
   2  -4  -1  710.23   21.70
   2  -4  -1  674.43   20.90
   2   4  -1  726.43   25.70
   2   4  -1  703.43   21.20
   1  -4  -1   81.59    7.70
   1  -4  -1   61.19    7.00
  -1  -4   1   70.39    6.60
  -1  -4   1   66.39    7.80
   1  -4  -1   66.39    7.10
   1  -4  -1   61.99    6.30
  -1  -4   1   72.29    7.20
   1   4  -1   59.39    6.20
   1   4  -1   81.89    9.80
   0  -4  -1   18.00    4.10
   0  -4   1   10.80    3.60
   0  -4   1   11.00    4.00
   0  -4   1   13.10    4.20
   0  -4   1   19.50    4.70
   0  -4  -1   32.00    5.40
   0  -4  -1   10.10    4.30
   0   4  -1   12.60    5.70
   0   4  -1   15.50    3.70
   0   4   1   14.10    4.90
  -1  -4  -1  696.33   20.90
   1  -4   1  715.33   20.90
   1  -4   1  718.53   20.60
   1  -4   1  672.93   21.10
  -1  -4  -1  681.93   20.60
   1  -4   1  712.83   21.80
  -1  -4  -1  670.23   21.40
   1   4   1  685.73   21.90
   2  -4   1   52.19    7.40
  -2  -4  -1   54.79    7.00
  -2  -4  -1   55.39    7.10
   2  -4   1   47.80    6.10
   2  -4   1   40.70    6.50
   2  -4   1   44.90    6.20
   2  -4   1   50.09    6.40
   2   4   1   49.60    7.40
   2   4   1   63.89   12.40
   3  -4   1  202.88   11.80
   3  -4   1  210.58   11.70
  -3  -4  -1  225.58   12.30
   3  -4   1  209.78   12.40
  -3  -4  -1  218.18   13.00
   3  -4   1  203.18   12.70
   3  -4   1  215.68   11.80
   3   4   1  241.38   12.70
   3   4   1  214.38   13.90
   3   4   1  204.28   21.90
   4  -4   1    5.20    6.00
  -4  -4  -1    8.80    5.50
  -4  -4  -1    7.40    6.60
   4  -4   1    3.60    5.20
  -4  -4  -1    7.40    5.40
   4   4   1    8.60    6.40
   4   4   1    2.00   14.20
   4   4   1   14.40    7.00
  -5  -4  -1  165.78   12.80
   5  -4   1  172.88   12.70
   5  -4   1  201.68   14.50
  -5  -4  -1  185.98   13.30
  -5  -4  -1  181.28   14.30
   5   4   1  179.58   15.00
   5   4   1  193.78   22.50
   5   4   1  178.58   14.50
   6  -4   1  461.45   20.80
  -6  -4  -1  486.65   20.50
   6  -4   1  532.45   22.80
  -6  -4  -1  511.65   22.60
  -6  -4  -1  483.85   21.80
   6   4   1  475.55   23.60
   6   4   1  484.75   22.60
   6   4   1  462.25   31.50
   7  -4   1  153.78   15.00
  -7  -4  -1  138.49   14.70
   7  -4   1  153.58   14.10
   7   4   1  168.48   23.60
   7   4   1  146.09   15.20
   7   4   1  138.39   15.50
   8  -4   1   41.60   10.50
   8  -4   1   34.40    9.60
   8   4   1   47.90   12.40
  -8   4  -1   57.59   10.80
   8   4   1   23.80   17.70
   8  -5  -1   61.89   11.90
   8  -5  -1   53.39   10.30
  -8  -5   1   40.10   10.10
   8   5  -1   45.10   23.70
   8   5  -1   69.99   13.10
  -7  -5   1   32.40    9.10
   7  -5  -1   44.90    9.20
   7  -5  -1   61.79   12.10
  -7  -5   1   34.50    8.90
   7   5  -1   44.50   10.80
   7   5  -1   44.20   22.40
   7   5  -1   49.00   11.20
  -6  -5   1   15.20    7.20
   6  -5  -1   16.50    6.80
   6  -5  -1   11.80    8.00
   6  -5  -1   11.80    6.60
  -6  -5   1   13.70    7.00
   6   5  -1   19.50    8.80
   6   5  -1   15.70    8.20
   6   5  -1   24.00   20.80
   5  -5  -1   86.89   10.60
  -5  -5   1   82.49   10.20
   5  -5  -1   95.79   11.80
   5  -5  -1   85.29    9.60
  -5  -5   1  100.39   11.50
   5   5  -1   89.89   11.20
   5   5  -1   98.69   11.90
   5   5  -1  128.89   22.80
  -4  -5   1  559.94   22.30
   4  -5  -1  569.14   21.40
  -4  -5   1  594.14   21.50
   4  -5  -1  538.85   22.40
   4  -5  -1  544.45   21.20
   4  -5  -1  581.34   22.20
   4   5  -1  580.44   22.60
   4   5  -1  585.44   33.80
   3  -5  -1  180.18   11.90
   3  -5  -1  183.48   13.20
  -3  -5   1  175.58   13.20
  -3  -5   1  174.98   11.60
   3  -5  -1  175.08   12.30
   3  -5  -1  174.38   11.70
   3  -5  -1  178.48   13.20
   3   5  -1  230.08   22.30
   3   5  -1  171.78   12.50
   2  -5  -1  589.34   21.80
  -2  -5   1  617.44   21.90
   2  -5  -1  611.94   21.50
   2  -5  -1  605.14   20.70
  -2  -5   1  615.14   20.60
   2  -5  -1  616.64   21.70
   2   5  -1  616.64   26.30
   2   5  -1  609.44   21.00
  -1  -5   1  502.35   17.60
  -1  -5   1  479.25   18.60
   1  -5  -1  465.65   17.30
   1  -5  -1  423.36   17.60
  -1  -5   1  441.16   18.30
   1  -5  -1  444.96   18.40
   1  -5  -1  435.46   17.90
   1   5  -1  473.45   21.00
   1   5  -1  465.65   17.00
   0  -5  -1  858.01   26.60
   0  -5   1  880.51   25.80
   0  -5   1  847.42   26.70
   0  -5  -1  881.91   26.00
   0  -5   1  890.01   26.60
   0  -5  -1  833.12   26.00
   0   5   1  893.91   27.00
   0   5  -1  821.72   24.70
   0   5  -1  845.22   27.80
  -1  -5  -1   79.39    9.00
  -1  -5  -1   81.39    8.20
   1  -5   1   66.49    7.60
   1  -5   1   77.39    8.70
   1  -5   1   72.79    8.10
   1  -5   1   89.19    9.10
  -1  -5  -1   68.09    8.20
  -1   5  -1  107.89   12.20
   1   5   1   95.89   10.30
   2  -5   1  126.39   11.50
   2  -5   1  137.29   11.10
   2  -5   1  133.89   10.20
   2  -5   1  139.39   11.30
  -2  -5  -1  136.69   10.30
  -2  -5  -1  111.29   10.40
   2   5   1  137.59   12.20
   3  -5   1   22.70    5.90
   3  -5   1   26.70    6.50
   3  -5   1   24.90    5.90
   3  -5   1   20.20    5.80
  -3  -5  -1   19.90    7.00
   3  -5   1   19.90    7.00
  -3  -5  -1   30.40    6.30
   3   5   1   32.00   15.00
   3   5   1   36.10    8.00
   4  -5   1   78.79    9.40
   4  -5   1   77.89    9.40
  -4  -5  -1   74.59    9.70
  -4  -5  -1   97.39   10.40
   4  -5   1   98.69   11.40
   4   5   1   82.29   18.60
   4   5   1   79.59   10.10
   4   5   1   76.29   10.80
   5  -5   1   54.09   10.20
   5  -5   1   37.30    7.90
  -5  -5  -1   42.30    9.00
  -5  -5  -1   34.00    8.40
   5  -5   1   35.10    7.20
   5   5   1   34.50    9.10
   5   5   1   45.80   10.10
   5   5   1   39.10   17.90
   6  -5   1   -1.40    6.00
  -6  -5  -1    1.90    6.80
   6  -5   1   -2.70    7.30
  -6  -5  -1    2.00    6.60
   6   5   1   -8.40   16.00
   6   5   1   -1.50    7.60
   6   5   1    1.60    8.60
   7  -5   1  257.07   18.60
  -7  -5  -1  248.08   18.90
   7  -5   1  259.07   19.10
   7   5   1  234.78   19.40
   7   5   1  248.38   28.30
   7   5   1  224.78   19.90
  -8  -5  -1   88.79   14.60
   8  -5   1  103.49   13.70
   8  -5   1  112.39   14.60
   8   5   1   85.89   15.10
   8   5   1  108.99   15.40
   8   5   1  104.09   23.70
   7  -6  -1   81.19   12.40
  -7  -6   1   72.19   11.80
   7  -6  -1  103.69   12.90
   7  -6  -1  105.79   15.40
  -7  -6   1   87.59   12.90
   7   6  -1  124.49   28.90
   7   6  -1   82.29   13.30
   7   6  -1   87.39   13.80
  -6  -6   1  377.56   20.50
   6  -6  -1  382.66   22.30
   6  -6  -1  348.37   20.70
   6  -6  -1  392.66   20.60
  -6  -6   1  360.26   21.10
   6   6  -1  383.36   22.50
   6   6  -1  351.06   36.70
   5  -6  -1  469.85   22.20
  -5  -6   1  468.75   21.50
   5  -6  -1  501.85   23.60
   5  -6  -1  482.65   21.80
  -5  -6   1  479.15   22.70
   5   6  -1  469.85   36.10
   5   6  -1  463.15   23.30
   4  -6  -1   12.70    5.80
  -4  -6   1   19.80    7.40
   4  -6  -1   10.20    6.40
   4  -6  -1    6.80    6.80
   4  -6  -1    4.40    5.40
  -4  -6   1   18.30    6.40
   4   6  -1   15.20    7.00
   4   6  -1   18.80   17.70
   3  -6  -1    9.60    5.90
  -3  -6   1   -3.30    5.70
   3  -6  -1    9.30    6.50
  -3  -6   1   11.60    5.20
   3  -6  -1    3.20    5.10
   3  -6  -1    8.30    6.10
   3   6  -1   14.60   13.80
   3   6  -1   10.00    6.20
   2  -6  -1  154.38   13.50
  -2  -6   1  166.78   13.80
   2  -6  -1  156.28   13.00
   2  -6  -1  162.88   11.70
  -2  -6   1  162.88   11.90
   2  -6  -1  160.88   13.00
   2   6  -1  147.59   11.90
   2   6  -1  215.68   20.00
  -1  -6   1   19.90    7.00
   1  -6  -1   16.10    6.20
   1  -6  -1   31.60    6.70
  -1  -6   1   20.40    5.80
  -1  -6   1   15.70    6.50
   1  -6  -1   36.00    7.90
   1   6  -1   41.30   10.70
   1   6  -1    7.30    5.50
   0  -6  -1  801.52   26.40
   0  -6  -1  798.42   27.10
   0  -6   1  796.42   26.90
   0  -6   1  810.12   27.60
   0  -6  -1  791.62   27.30
   0  -6   1  839.22   26.40
   0   6  -1  812.72   29.10
   0   6   1  850.41   28.10
   0   6  -1  815.92   25.90
   1  -6   1   96.89   10.40
   1  -6   1  137.49   11.00
  -1  -6  -1  120.49   11.40
   1  -6   1  142.19   12.00
   1  -6   1  148.29   12.20
  -1  -6  -1  114.39   11.60
  -1  -6  -1  126.49   10.90
  -1   6  -1  122.79   10.40
   1   6   1  138.59   12.30
  -1   6  -1  128.59   13.50
   2  -6   1   85.39   10.00
  -2  -6  -1  102.49   10.30
   2  -6   1   95.19    9.90
  -2  -6  -1   65.59    9.30
   2  -6   1   90.79   10.10
   2  -6   1   81.89   10.60
   2   6   1   84.49   10.70
  -3  -6  -1  491.45   22.20
   3  -6   1  458.55   21.20
   3  -6   1  432.36   19.80
   3  -6   1  442.56   20.50
   3  -6   1  439.46   19.40
  -3  -6  -1  440.56   19.40
   3   6   1  450.85   21.70
   4  -6   1  412.96   19.60
   4  -6   1  418.16   21.60
  -4  -6  -1  412.46   19.80
  -4  -6  -1  479.35   22.40
   4  -6   1  383.36   20.10
   4  -6   1  406.06   19.70
   4   6   1  402.96   22.10
  -5  -6  -1   22.40    8.70
   5  -6   1   11.30    6.80
   5  -6   1   17.90    8.60
  -5  -6  -1    7.10    6.60
   5  -6   1   10.20    6.50
   5   6   1   12.30    8.40
   5   6   1   10.90    8.50
   6  -6   1   40.60   10.90
   6  -6   1   33.30    9.30
  -6  -6  -1   48.40   11.00
  -6  -6  -1   43.10   10.60
   6  -6   1   42.30    9.70
   6   6   1   38.50   11.30
   6   6   1   36.10   10.80
   7  -6   1   31.10    9.00
  -7  -6  -1   24.20    9.70
   7  -6   1   29.60    9.90
   7  -6   1   25.30   10.60
   7   6   1   19.20   10.80
   7   6   1   34.40   11.60
   6  -7  -1   90.69   12.20
  -6  -7   1  106.49   13.50
   6  -7  -1  101.69   13.60
   6  -7  -1  112.99   15.70
  -6  -7   1   85.89   13.80
   6   7  -1  100.69   14.60
  -5  -7   1   -3.90    6.50
   5  -7  -1   11.30    8.10
  -5  -7   1   -5.10    8.50
   5  -7  -1    9.80    8.20
   5   7  -1   -5.70    7.40
  -4  -7   1   72.29   12.00
   4  -7  -1   71.09   11.90
   4  -7  -1   73.89   10.80
   4  -7  -1   70.89   11.10
  -4  -7   1   64.49    9.60
   4   7  -1   59.29   10.30
   3  -7  -1   49.70    9.90
   3  -7  -1   48.30   10.00
   3  -7  -1   53.19   10.50
  -3  -7   1   37.70    7.70
  -3  -7   1   55.69   10.80
   3  -7  -1   52.79    9.40
   3   7  -1   52.59   27.10
   3   7  -1   51.89    9.60
  -2  -7   1   12.50    6.70
   2  -7  -1    4.00    6.90
   2  -7  -1   10.50    5.90
  -2  -7   1   10.60    7.70
   2  -7  -1   11.90    7.50
   2   7  -1   12.60    6.80
  -2   7   1    3.00    6.60
   2   7  -1   24.20   16.50
  -1  -7   1  180.88   13.50
   1  -7  -1  173.48   14.70
   1  -7  -1  179.98   13.10
   1  -7  -1  178.48   15.30
  -1  -7   1  164.38   14.40
   1   7  -1  225.48   20.50
  -1   7   1  168.58   14.10
   1   7  -1  174.58   13.40
   0  -7  -1   39.80    9.90
   0  -7  -1   29.80    7.50
   0  -7  -1   20.20    7.60
   0  -7   1   17.60    6.30
   0  -7   1   16.90    7.10
   0  -7   1   29.70    8.50
   0   7   1   11.90    7.10
   0   7  -1   13.70    6.30
   0   7  -1   36.90   10.30
  -1  -7  -1  494.95   23.10
   1  -7   1  505.75   21.10
  -1  -7  -1  497.65   21.30
   1  -7   1  461.75   21.60
   1  -7   1  460.55   22.00
  -1  -7  -1  469.35   22.00
  -1   7  -1  483.05   22.20
  -1   7  -1  503.75   24.30
   1   7   1  474.35   22.40
   2  -7   1  337.07   19.60
   2  -7   1  345.27   19.40
   2  -7   1  363.96   19.70
  -2  -7  -1  388.16   21.70
   2  -7   1  404.86   19.30
  -2  -7  -1  369.26   18.70
  -2   7  -1  387.56   21.70
   2   7   1  366.16   20.40
  -3  -7  -1   51.19   10.70
   3  -7   1   62.49   10.10
   3  -7   1   51.29   10.20
  -3  -7  -1   56.59    9.60
   3  -7   1   52.59    9.80
   3  -7   1   41.20    9.40
   3   7   1   59.49   11.00
  -4  -7  -1   69.29   12.50
  -4  -7  -1   69.19   10.70
   4  -7   1   60.59   10.40
   4  -7   1   83.19   13.40
   4  -7   1   61.69   10.30
   4   7   1   84.79   12.90
  -5  -7  -1  208.08   17.70
   5  -7   1  211.68   18.10
  -5  -7  -1  215.38   19.00
   5  -7   1  246.78   20.00
   5   7   1  267.67   20.80
  -6  -7  -1   22.20   11.40
  -6  -7  -1   29.50    9.80
   6  -7   1   22.10    9.30
   6  -7   1   47.20   12.20
   6  -7   1   37.20    9.80
   6   7   1   35.30   11.80
   4  -8  -1    9.50    9.00
   4  -8  -1    0.20    7.30
  -4  -8   1   -1.30    9.70
   4  -8  -1   -1.00    8.60
  -4  -8   1   -7.50    6.50
   4   8  -1  -10.00    7.10
   3  -8  -1  144.99   14.90
  -3  -8   1  138.09   16.40
   3  -8  -1  129.89   15.10
   3  -8  -1  133.09   14.70
  -3  -8   1  168.08   16.10
   3  -8  -1  128.79   15.40
   3   8  -1  140.19   15.60
   2  -8  -1   79.69   12.80
  -2  -8   1   99.49   13.60
   2  -8  -1  102.59   14.70
   2  -8  -1   93.49   12.40
  -2   8   1   81.89   11.90
  -1  -8   1   18.30    7.70
   1  -8  -1   19.50    9.30
  -1  -8   1   17.10    8.70
   1  -8  -1   29.40   10.00
   1  -8  -1   31.20    8.00
  -1   8   1   37.30    9.50
   0  -8  -1   40.50   10.80
   0  -8   1   11.00    8.30
   0  -8   1   25.60    9.30
   0  -8   1   20.50    7.20
   1  -8   1   69.49   12.00
   1  -8   1   58.59    9.60
   1  -8   1   60.39   11.00
  -1  -8  -1   88.99   12.70
  -1  -8  -1   55.59   11.90
   1   8   1   75.89   11.80
  -2  -8  -1   22.80    7.90
   2  -8   1   18.80    8.40
   2  -8   1   28.70    9.70
   2  -8   1   24.20    8.90
  -2  -8  -1   34.20   11.60
   2   8   1   15.50    8.70
   3  -8   1   -4.00    7.60
   3  -8   1   -6.40    7.50
  -3  -8  -1    7.90    7.20
   3  -8   1  -15.00    6.60
   3  -8   1   -2.40    6.60
  -3  -8  -1  -17.30    8.90
   3   8   1    4.20    8.30
   4  -8   1  -12.60    7.80
   4  -8   1   11.50    8.90
  -4  -8  -1    6.70    8.00
   4  -8   1   -1.00    8.30
  -4  -8  -1   -1.90   10.00
   4   8   1    6.50    9.60
  -1  -9   1  212.88   19.50
   1  -9  -1  236.58   20.70
   0  -9  -1  236.98   22.20
   0  -9  -1  160.58   18.40
   0  -9   1  190.18   18.90
   0  -9   1  217.98   18.20
   0  -9  -1  196.88   17.80
   0   9   1  182.98   19.60
 -10   0   2  645.44   29.10
  10   0  -2  598.94   36.90
  10   0  -2  631.54   29.20
  10   0  -2  590.34   28.50
  10   0  -2  632.24   28.00
  -9   0   2   15.50    8.70
   9   0  -2   -0.80    8.00
   9   0  -2    1.50   13.10
   8   0  -2   56.09   15.30
   8   0  -2   77.99   11.80
  -8   0   2   69.69   11.20
  -7   0   2   14.00    7.30
   7   0  -2   17.20   11.90
   7   0  -2    3.60    7.40
   6   0  -2  332.87   16.60
   6   0  -2  321.97   22.90
  -6   0   2  326.67   16.30
   5   0  -2 1179.58   38.80
   5   0  -2 1131.49   31.50
  -5   0   2 1161.98   31.40
  -4   0   2  407.76   14.50
   4   0  -2  418.36   20.50
   4   0  -2  435.76   14.90
  -3   0   2 1254.87   30.30
   3   0  -2 1251.07   30.30
   3   0  -2 1280.87   35.40
   2   0  -2 6543.15  137.89
  -2   0   2 6486.65  134.59
   2   0  -2 6545.25  134.79
   1   0  -2 1677.93   35.20
   1   0  -2 1610.84   36.10
  -1   0   2 1594.44   35.00
   0   0   2   31.90    2.50
   0   0  -2   26.40    2.70
   0   0   2   29.10    2.70
   1   0   2 2469.15   55.39
  -1   0  -2 2706.03   55.89
   1   0   2 2645.04   55.59
   2   0   2  145.59    7.60
   2   0   2  158.98    9.90
  -2   0  -2  169.18    8.40
   2   0   2  158.58    7.60
   3   0   2  355.36   16.40
   3   0   2  351.46   12.70
   3   0   2  342.27   13.30
  -3   0  -2  344.17   13.50
   4   0   2   64.59    7.40
  -4   0  -2   50.79    7.80
   4   0   2   66.09    5.90
   4   0   2   61.19   11.20
  -5   0  -2  471.25   20.70
   5   0   2  504.85   17.00
   5   0   2  489.15   25.80
   5   0   2  511.05   19.70
   6   0   2  354.56   15.30
  -6   0  -2  344.07   19.80
   6   0   2  350.86   17.70
   6   0   2  307.57   23.30
   7   0   2 1071.29   42.20
   7   0   2 1102.39   34.60
  -7   0  -2 1007.90   36.40
   8   0   2    2.60    7.70
  -8   0  -2   17.10    9.60
   8   0   2    8.50   12.00
   9   0   2  193.48   17.50
  -9   0  -2  170.88   18.20
   9   0   2  180.28   16.50
  10  -1  -2  193.38   25.60
 -10  -1   2  185.98   17.50
  10  -1  -2  157.98   17.20
  10  -1  -2  170.68   15.60
  10   1  -2  135.19   24.00
 -10   1   2  156.58   16.20
  10   1  -2  163.38   17.70
  -9  -1   2    6.30    8.60
   9  -1  -2    4.80    9.40
   9  -1  -2    2.50   12.30
   9  -1  -2    7.40    8.30
   9  -1  -2   -4.00    6.70
   9   1  -2    2.40   14.10
   9   1  -2   16.60   10.00
  -8  -1   2   15.70    8.60
   8  -1  -2   12.10   11.90
   8  -1  -2   17.70    8.20
   8  -1  -2   12.40    6.90
   8  -1  -2   11.60    8.90
   8   1  -2   29.70    9.90
  -8   1   2   24.80    8.50
   8   1  -2   13.40   13.70
  -7  -1   2  321.77   17.80
   7  -1  -2  318.97   22.60
   7  -1  -2  337.87   16.50
   7  -1  -2  336.87   18.30
   7  -1  -2  324.57   17.70
   7   1  -2  329.27   25.80
   7   1  -2  311.17   18.20
  -7   1   2  322.07   17.50
   6  -1  -2  244.28   14.50
   6  -1  -2  253.57   19.50
  -6  -1   2  236.18   14.50
   6  -1  -2  234.78   13.40
  -6   1   2  239.68   14.20
   6   1  -2  229.18   15.00
   6   1  -2  219.78   22.10
   5  -1  -2  395.36   15.80
  -5  -1   2  401.76   16.00
   5  -1  -2  394.66   15.10
   5  -1  -2  418.56   20.80
   5   1  -2  399.86   23.90
   5   1  -2  385.46   16.20
  -5   1   2  358.66   15.10
   4  -1  -2   37.20    8.70
   4  -1  -2   41.40    5.00
   4  -1  -2   31.60    5.20
  -4  -1   2   32.80    5.50
  -4   1   2   32.90    5.20
   4   1  -2   38.30    5.90
   4   1  -2   40.20   10.50
  -3  -1   2  202.58    9.00
   3  -1  -2  198.98   12.10
   3  -1  -2  188.88    8.10
   3  -1  -2  179.28    8.10
   3  -1  -2  175.48   10.70
  -3   1   2  199.88    8.50
   3   1  -2  211.58   13.90
   3   1  -2  192.68    8.90
   2  -1  -2  165.28   11.40
   2  -1  -2  170.18    9.90
  -2  -1   2  168.68    7.50
   2  -1  -2  171.28    7.00
   2  -1  -2  167.48    6.50
   2   1  -2  161.78   10.60
   2   1  -2  180.48    7.70
  -2   1   2  174.38    7.00
  -1  -1   2   57.29    3.00
   1  -1  -2   59.09    7.20
  -1  -1   2   52.49    4.20
   1  -1  -2   60.69    3.90
   1  -1  -2   46.90    3.10
   1  -1  -2   54.59    3.10
   1  -1  -2   47.50    4.10
   1  -1  -2   56.99    3.40
   1   1  -2   53.49    5.70
  -1   1   2   60.09    3.90
   1   1  -2   58.49    4.10
   0  -1  -2 1323.97   28.70
   0  -1   2 1303.27   28.70
   0  -1   2 1256.27   28.00
   0  -1   2 1313.27   29.10
   0  -1  -2 1246.08   32.70
   0  -1  -2 1389.76   29.10
   0  -1   2 1278.17   28.60
   0  -1   2 1295.97   28.60
   0   1   2 1360.56   29.90
   0   1  -2 1370.36   29.00
   0   1   2 1311.77   28.90
   1  -1   2  335.27    9.70
  -1  -1  -2  356.86   10.80
   1  -1   2  343.57   10.10
  -1  -1  -2  367.66   14.80
   1  -1   2  338.77    9.60
   1   1   2  336.37   10.40
   1   1   2  356.76   11.40
  -1   1  -2  366.66   10.60
   1   1   2  332.67   11.50
  -2  -1  -2   23.30    4.30
   2  -1   2   30.20    3.30
   2  -1   2   37.20    4.10
   2  -1   2   33.90    3.80
  -2   1  -2   34.10    4.50
   2   1   2   41.20    6.50
   2   1   2   25.60    4.00
   2   1   2   29.70    4.50
   3  -1   2   -2.60    3.10
  -3  -1  -2    0.90    4.30
   3  -1   2    2.40    2.90
   3  -1   2    0.70    3.10
   3   1   2   10.50    6.60
  -3   1  -2    2.20    4.10
   3   1   2    4.30    3.90
   3   1   2    2.80    3.80
   4  -1   2  166.58   10.30
   4  -1   2  155.18   10.10
   4  -1   2  168.08    9.40
  -4  -1  -2  167.78   12.60
   4   1   2  170.88   16.10
  -4   1  -2  185.68   11.70
   4   1   2  190.68   11.70
   4   1   2  182.48   11.90
   5  -1   2   32.90    6.40
  -5  -1  -2   40.60    9.20
   5  -1   2   36.10    6.90
   5  -1   2   38.00    7.30
   5   1   2   38.20   12.40
   5   1   2   33.20    7.60
   5   1   2   29.70    7.50
  -5   1  -2   33.50    8.30
   6  -1   2   22.40    6.80
   6  -1   2   29.40    7.20
  -6  -1  -2   17.80    9.00
   6  -1   2   30.20    6.70
  -6   1  -2   12.30    8.00
   6   1   2   28.50    8.10
   6   1   2   23.20   12.60
   7  -1   2    2.40    7.00
   7  -1   2    0.80    7.20
   7  -1   2    5.60    6.50
  -7  -1  -2   26.70   10.10
   7   1   2    8.30   13.30
   7   1   2   11.10    8.20
  -7   1  -2   11.90    8.60
  -8  -1  -2  134.19   15.90
   8  -1   2  154.08   14.90
   8  -1   2  154.18   14.10
   8   1   2  168.18   15.90
  -8   1  -2  119.09   15.10
   8   1   2  160.48   21.90
  -9  -1  -2   22.60   11.50
   9  -1   2   23.00   10.20
  -9   1  -2   35.90   12.10
   9   1   2   18.50   10.20
   9   1   2   39.80   17.00
  10  -2  -2    6.40    9.90
  10  -2  -2   16.70    9.10
  10  -2  -2   23.90   15.40
  10   2  -2   31.70   12.20
  10   2  -2    6.80   18.00
 -10   2   2   26.60   10.50
  -9  -2   2   41.30   10.70
   9  -2  -2   27.00    8.40
   9  -2  -2   37.00   14.10
   9  -2  -2   16.00    9.30
   9   2  -2   28.00   17.60
  -9   2   2   36.00    9.50
   9   2  -2   22.20   10.50
   8  -2  -2  876.81   37.90
   8  -2  -2  865.71   29.90
  -8  -2   2  928.41   32.20
  -8  -2   2  879.11   28.30
   8  -2  -2  912.31   31.90
   8   2  -2  869.01   42.20
   8   2  -2  885.11   32.30
  -8   2   2  916.01   31.30
   7  -2  -2  919.51   30.80
   7  -2  -2  867.01   28.80
   7  -2  -2  926.01   36.50
  -7  -2   2  925.21   30.70
  -7  -2   2  914.61   27.80
   7  -2  -2  939.71   29.70
   7   2  -2  936.21   31.40
  -7   2   2  974.60   30.30
   7   2  -2  884.61   40.80
   6  -2  -2    9.00    9.50
   6  -2  -2    6.00    5.00
   6  -2  -2   -1.00    6.40
  -6  -2   2    6.30    6.70
   6  -2  -2    2.50    6.20
  -6   2   2    5.70    6.10
   6   2  -2   -4.00    6.20
   6   2  -2   12.10   14.70
   5  -2  -2 1041.60   33.30
   5  -2  -2  993.60   27.90
  -5  -2   2  998.90   29.10
   5  -2  -2  989.00   29.40
   5  -2  -2 1006.10   27.90
   5   2  -2 1006.00   39.20
   5   2  -2  992.00   29.20
  -5   2   2  992.70   28.00
   4  -2  -2  781.02   25.40
   4  -2  -2  767.22   23.10
  -4  -2   2  780.32   22.80
   4  -2  -2  769.72   24.50
   4  -2  -2  787.12   21.70
   4  -2  -2  795.82   22.10
  -4   2   2  764.12   21.60
   4   2  -2  778.32   23.00
   4   2  -2  824.62   31.10
   3  -2  -2   92.09    8.30
   3  -2  -2   96.89    7.40
  -3  -2   2   82.49    6.60
  -3  -2   2   92.59    7.40
   3  -2  -2   88.79    6.40
   3  -2  -2   93.79    8.90
   3   2  -2   90.79    7.40
   3   2  -2   97.29    7.30
   3   2  -2  111.09   12.70
   2  -2  -2 1018.60   23.70
   2  -2  -2  975.60   27.80
  -2  -2   2  955.50   24.40
  -2  -2   2  977.90   23.20
   2  -2  -2  956.40   24.50
   2  -2  -2  976.10   23.90
   2  -2  -2  992.30   23.70
  -2  -2   2  933.51   23.60
   2   2  -2  996.10   24.00
   2   2  -2  929.81   27.50
  -1  -2   2  267.77    9.30
   1  -2  -2  262.07    9.80
   1  -2  -2  259.87    9.20
   1  -2  -2  251.07   13.30
  -1  -2   2  272.47    8.30
   1  -2  -2  267.37    8.70
   1  -2  -2  277.67    9.10
  -1  -2   2  249.18    8.40
   1   2  -2  242.58   11.30
   1   2  -2  245.68    7.90
   0  -2  -2 2444.96   52.59
   0  -2  -2 2478.65   53.79
   0  -2  -2 2467.35   53.29
   0  -2  -2 2382.26   57.49
   0  -2   2 2432.66   53.19
   0  -2   2 2470.35   53.99
   0  -2   2 2553.54   53.59
   0  -2   2 2406.86   52.59
   0   2   2 2525.85   54.59
  -1  -2  -2 3075.69   65.49
   1  -2   2 3105.29   65.49
   1  -2   2 3063.69   66.19
  -1  -2  -2 3020.80   65.79
   1  -2   2 3025.40   65.69
  -1  -2  -2 3004.80   65.99
  -1  -2  -2 3030.70   69.29
   1  -2   2 3166.58   65.19
   1   2   2 3150.78   67.59
   1   2   2 3006.60   65.19
  -2  -2  -2  425.46   12.90
  -2  -2  -2  415.06   15.80
   2  -2   2  442.86   13.60
  -2  -2  -2  456.35   14.50
   2  -2   2  438.06   13.30
   2  -2   2  401.76   12.40
   2   2   2  439.06   15.20
   2   2   2  427.86   13.80
   2   2   2  436.76   16.90
  -2   2  -2  436.26   13.10
   3  -2   2  786.42   21.90
  -3  -2  -2  784.52   23.40
   3  -2   2  811.02   22.10
   3  -2   2  757.12   21.00
   3   2   2  799.02   22.80
  -3   2  -2  822.92   22.30
   3   2   2  777.32   24.00
   3   2   2  820.12   27.20
   4  -2   2 2879.91   65.09
   4  -2   2 2854.21   65.19
  -4  -2  -2 2892.11   67.79
   4  -2   2 2822.62   64.69
   4   2   2 2857.61   68.39
  -4   2  -2 2820.12   66.09
   4   2   2 2931.11   71.99
   4   2   2 2865.51   66.69
  -5  -2  -2 1172.08   35.70
   5  -2   2 1156.18   32.30
   5  -2   2 1231.08   32.70
   5  -2   2 1167.48   32.50
   5   2   2 1118.29   35.20
   5   2   2 1182.68   34.50
   5   2   2 1247.28   41.20
  -5   2  -2 1092.79   33.60
  -6  -2  -2  178.88   15.50
   6  -2   2  225.08   13.80
   6  -2   2  202.08   13.70
   6  -2   2  197.18   13.30
   6   2   2  180.08   14.60
   6   2   2  179.88   15.30
   6   2   2  219.28   21.70
  -6   2  -2  193.88   14.90
  -7  -2  -2   22.50   10.00
   7  -2   2   28.20    7.70
   7  -2   2   30.60    8.20
   7   2   2   11.90    8.50
   7   2   2   44.70   16.90
  -7   2  -2   33.40   10.20
   8  -2   2   24.90    9.00
  -8  -2  -2   59.59   12.40
   8   2   2   33.30   10.20
   8   2   2   46.50   17.60
  -9  -2  -2   50.69   12.60
   9  -2   2   25.70   10.30
  -9   2  -2   50.69   12.90
   9   2   2   28.70   11.50
   9   2   2   48.40   19.20
   9  -3  -2   48.20   13.50
   9  -3  -2   29.80   10.60
   9  -3  -2   12.80    8.70
  -9  -3   2   49.50   10.70
  -9   3   2   59.29   10.70
   9   3  -2   30.10   11.70
   9   3  -2   23.80   20.00
  -8  -3   2   35.80    9.00
   8  -3  -2   36.70   12.20
  -8  -3   2   20.10    6.70
   8  -3  -2   19.90    7.60
   8  -3  -2   15.60    8.50
   8   3  -2   12.80   17.40
  -8   3   2   42.80    9.40
   8   3  -2   26.60   10.00
   7  -3  -2  523.15   21.80
  -7  -3   2  553.04   21.30
  -7  -3   2  572.54   23.50
   7  -3  -2  563.64   27.50
   7  -3  -2  574.64   24.20
   7   3  -2  559.74   24.30
   7   3  -2  564.34   36.60
  -7   3   2  540.45   22.10
   6  -3  -2  646.64   22.90
  -6  -3   2  657.83   22.60
   6  -3  -2  639.74   27.50
   6  -3  -2  665.43   24.70
  -6  -3   2  619.84   23.60
  -6   3   2  648.14   22.50
   6   3  -2  643.24   24.60
   6   3  -2  665.53   36.80
   5  -3  -2  289.37   17.50
   5  -3  -2  275.57   13.70
   5  -3  -2  286.27   15.40
  -5  -3   2  311.57   14.50
  -5  -3   2  279.67   14.70
   5   3  -2  278.07   26.10
   5   3  -2  318.07   16.60
   5   3  -2  274.37   15.20
  -4  -3   2   63.29    7.20
   4  -3  -2   57.79    6.50
  -4  -3   2   49.60    7.10
   4  -3  -2   59.09    8.00
   4   3  -2   56.79    7.50
   4   3  -2   53.89   14.70
   4   3  -2   49.60    7.00
   3  -3  -2   61.29    6.40
   3  -3  -2   58.59    7.20
   3  -3  -2   52.09    8.10
  -3  -3   2   53.89    6.10
   3  -3  -2   47.30    5.60
  -3  -3   2   60.89    6.00
   3  -3  -2   54.59    5.80
  -3  -3   2   54.99    6.30
   3   3  -2   59.09    6.60
   3   3  -2   47.30    5.90
   3   3  -2   56.79   11.60
   2  -3  -2   15.70    4.00
  -2  -3   2   17.40    4.00
   2  -3  -2    8.80    4.00
   2  -3  -2   16.60    3.70
  -2  -3   2   17.40    3.60
   2  -3  -2   12.90    3.50
   2  -3  -2   13.60    3.40
   2  -3  -2   13.30    5.90
   2   3  -2   18.30    7.20
   2   3  -2   14.70    3.70
   1  -3  -2   58.19    5.30
   1  -3  -2   65.29    8.60
  -1  -3   2   60.49    5.60
   1  -3  -2   58.59    5.60
   1  -3  -2   75.09    6.00
   1  -3  -2   60.59    5.80
  -1  -3   2   64.69    5.20
   1   3  -2   51.39    4.60
   1   3  -2   64.59    8.10
   0  -3   2    4.40    2.90
   0  -3  -2    6.80    2.70
   0  -3  -2    4.40    3.10
   0  -3  -2    7.30    3.50
   0  -3   2   -1.80    2.60
   0  -3   2    2.60    2.90
   0  -3   2    3.60    2.40
   0  -3  -2    3.10    5.10
   0   3   2   -1.30    3.50
   0   3  -2   -0.20    4.10
   0   3  -2    8.80    2.50
   1  -3   2  251.67    9.90
  -1  -3  -2  251.27    9.80
   1  -3   2  252.47   10.90
  -1  -3  -2  267.87   10.50
   1  -3   2  266.27   10.10
   1  -3   2  264.47   10.20
   1  -3   2  262.17   10.80
  -1  -3  -2  252.77   13.80
  -1  -3  -2  256.37   11.00
   1   3   2  263.37   12.00
   2  -3   2  510.45   15.30
  -2  -3  -2  506.35   16.60
   2  -3   2  508.55   16.10
  -2  -3  -2  514.45   16.10
   2  -3   2  521.35   16.80
  -2  -3  -2  502.45   19.20
   2  -3   2  514.45   16.40
  -2  -3  -2  515.45   16.70
   2   3   2  510.25   18.20
   2   3   2  531.45   16.10
  -3  -3  -2  282.17   12.60
   3  -3   2  293.87   12.80
   3  -3   2  283.67   13.20
  -3  -3  -2  284.47   13.00
  -3  -3  -2  277.07   13.50
   3   3   2  287.67   13.30
   3   3   2  301.87   19.40
   3   3   2  273.47   14.60
  -4  -3  -2   66.49    9.20
  -4  -3  -2   66.19    7.30
   4  -3   2   62.59    6.90
   4  -3   2   83.49    9.00
   4  -3   2   60.89    7.20
   4   3   2   96.49   15.40
   4   3   2   67.69    8.90
  -4   3  -2   72.79    8.10
   4   3   2   64.09    9.00
   5  -3   2  331.37   15.60
   5  -3   2  331.47   16.20
  -5  -3  -2  316.77   14.40
  -5  -3  -2  307.77   17.80
   5   3   2  333.87   24.50
  -5   3  -2  302.97   15.90
   5   3   2  311.97   18.10
   5   3   2  330.97   17.70
   6  -3   2   27.20    7.50
  -6  -3  -2   21.80    9.10
   6  -3   2   24.30    7.10
   6   3   2   30.90    9.00
   6   3   2   20.40   13.90
  -6   3  -2   23.50    8.50
   6   3   2   28.20    9.00
  -7  -3  -2   35.00   10.60
   7  -3   2   32.60    8.60
   7  -3   2   37.10    8.30
   7   3   2   25.90   15.40
   7   3   2   29.10   10.10
   7   3   2   21.00    9.50
  -7   3  -2   27.80    9.00
   8  -3   2    5.10    8.50
  -8  -3  -2   13.90   10.60
   8  -3   2    9.80    9.20
   8   3   2   21.30   18.20
   8   3   2    8.90   10.10
  -8   3  -2    2.80    8.70
   9  -4  -2    2.70    7.20
   9  -4  -2   -8.50    8.90
  -9   4   2   16.80    8.50
   9   4  -2   -4.30   20.30
   9   4  -2    4.40   11.00
   8  -4  -2    8.10    8.60
  -8  -4   2    6.00    7.00
  -8  -4   2   26.60    8.60
   8  -4  -2   19.90    7.30
   8   4  -2    9.60   10.80
   8   4  -2   11.00   19.10
  -8   4   2   17.10    8.00
  -7  -4   2   12.00    7.40
   7  -4  -2   19.30    6.80
   7  -4  -2    9.00    7.70
  -7  -4   2    6.80    6.20
   7   4  -2   -5.10    8.40
   7   4  -2   24.80   20.10
  -6  -4   2  114.69   11.00
   6  -4  -2  136.49   13.60
  -6  -4   2  132.49   11.80
  -6  -4   2  141.79   12.70
   6  -4  -2  110.39   10.50
   6   4  -2  128.59   23.80
   6   4  -2  116.19   12.60
   6   4  -2  107.09   12.30
  -5  -4   2  375.46   17.10
   5  -4  -2  354.16   18.00
  -5  -4   2  350.26   16.20
   5  -4  -2  339.57   16.20
  -5  -4   2  345.67   16.40
   5   4  -2  366.56   30.60
   5   4  -2  386.36   18.50
   5   4  -2  365.26   17.90
   4  -4  -2   60.09    7.70
  -4  -4   2   60.39    7.80
  -4  -4   2   71.39    8.10
   4  -4  -2   50.49    7.30
   4  -4  -2   58.49    7.90
   4  -4  -2   76.69    9.70
  -4  -4   2   61.39    7.70
   4   4  -2   72.79   17.10
   4   4  -2   68.09    8.40
   4   4  -2   64.59    8.70
   3  -4  -2  263.17   14.20
   3  -4  -2  263.87   13.00
  -3  -4   2  266.37   13.40
   3  -4  -2  282.77   13.00
   3  -4  -2  261.57   12.80
  -3  -4   2  248.98   12.00
   3   4  -2  284.87   13.20
   3   4  -2  271.37   21.10
   2  -4  -2 1584.24   40.30
  -2  -4   2 1618.44   40.40
   2  -4  -2 1573.54   40.30
   2  -4  -2 1556.34   39.40
  -2  -4   2 1618.64   39.00
   2  -4  -2 1653.43   39.90
   2   4  -2 1624.24   44.40
   2   4  -2 1555.34   38.90
   1  -4  -2  574.04   18.40
   1  -4  -2  583.54   19.20
  -1  -4   2  575.14   19.30
  -1  -4   2  574.54   17.70
  -1  -4   2  588.34   19.10
   1  -4  -2  564.64   18.60
   1  -4  -2  563.04   18.40
   1   4  -2  565.74   16.80
   1   4  -2  582.24   21.60
   0  -4  -2   -1.10    3.70
   0  -4   2   -0.10    2.90
   0  -4   2    0.80    3.60
   0  -4   2    0.30    3.60
   0  -4   2    5.10    3.90
   0  -4  -2    5.30    3.30
   0  -4  -2    2.20    4.10
   0   4  -2    1.00    2.70
   0   4   2   -0.40    4.10
   0   4  -2    4.70    5.30
   1  -4   2  450.75   16.40
  -1  -4  -2  408.06   15.30
  -1  -4  -2  445.36   16.60
   1  -4   2  419.26   14.90
   1  -4   2  432.86   16.20
  -1  -4  -2  428.36   15.30
   1  -4   2  430.46   15.40
   1   4   2  416.46   17.20
   2  -4   2   76.99    8.50
   2  -4   2   76.39    7.50
  -2  -4  -2   80.69    8.10
   2  -4   2   84.99    7.70
  -2  -4  -2   83.49    8.10
   2  -4   2   89.19    7.70
   2  -4   2   89.59    9.20
   2   4   2   97.69   10.20
  -3  -4  -2  149.19   11.60
   3  -4   2  130.59   10.60
  -3  -4  -2  104.89    9.60
   3  -4   2  116.59    9.60
   3  -4   2  131.49   11.30
   3  -4   2  107.89    9.40
  -3  -4  -2  116.89   10.10
   3   4   2  130.49   10.40
   3   4   2  125.79   11.60
   3   4   2  143.19   16.70
  -4  -4  -2    8.80    6.60
   4  -4   2    2.90    5.10
   4  -4   2   10.40    6.10
  -4  -4  -2    7.20    5.60
  -4  -4  -2   12.60    6.10
   4   4   2   11.40    7.00
   4   4   2    6.80    6.60
   4   4   2   22.80   13.60
  -5  -4  -2  231.88   14.50
  -5  -4  -2  216.38   14.80
  -5  -4  -2  240.28   15.90
   5  -4   2  219.48   14.30
   5  -4   2  240.68   15.50
   5   4   2  228.68   16.00
   5   4   2  228.98   16.60
   5   4   2  216.68   22.90
  -6  -4  -2  194.78   16.20
   6  -4   2  211.08   15.60
  -6  -4  -2  158.78   14.80
   6  -4   2  184.98   14.50
   6   4   2  206.68   23.00
   6   4   2  169.98   16.10
   6   4   2  178.98   15.10
   7  -4   2  615.44   25.40
   7  -4   2  526.25   24.10
   7   4   2  509.75   26.70
  -7   4  -2  529.55   23.20
   7   4   2  568.54   33.10
   8  -4   2    0.60    8.00
   8  -4   2   16.40    9.30
  -8   4  -2    9.60    9.20
   8   4   2   -8.00   16.80
   8   4   2    1.10   10.30
  -8  -5   2    4.00    8.20
  -8  -5   2   -2.00    7.30
   8  -5  -2  -13.10    6.80
   8  -5  -2   21.90    9.90
   8   5  -2    5.50   10.30
   8   5  -2    5.70   22.50
   7  -5  -2   14.60    7.10
  -7  -5   2   15.70    7.70
  -7  -5   2   20.80    8.50
   7  -5  -2   29.50    9.40
   7  -5  -2   22.70    7.90
   7   5  -2   31.70   10.90
   7   5  -2   30.30   22.40
   6  -5  -2    5.90    5.70
   6  -5  -2   -0.50    6.70
   6  -5  -2    0.90    5.40
  -6  -5   2    0.80    6.30
  -6  -5   2   -0.70    6.20
   6   5  -2   -2.30    8.10
   6   5  -2   -1.20    6.70
   6   5  -2    8.70   18.70
   5  -5  -2   95.39   11.60
   5  -5  -2  103.29   10.20
  -5  -5   2   98.69   10.30
  -5  -5   2   99.79   11.00
   5  -5  -2   94.89   10.00
   5   5  -2  101.09   11.30
   5   5  -2   88.89   10.90
   5   5  -2  138.69   23.10
  -4  -5   2  297.97   14.90
   4  -5  -2  310.67   15.90
  -4  -5   2  289.67   15.90
   4  -5  -2  280.27   16.60
   4  -5  -2  271.47   14.70
   4  -5  -2  297.97   15.30
   4   5  -2  327.77   27.90
   4   5  -2  312.17   16.20
  -3  -5   2  416.66   18.30
   3  -5  -2  433.76   18.50
   3  -5  -2  413.76   17.20
   3  -5  -2  397.56   17.80
  -3  -5   2  417.96   16.90
   3  -5  -2  428.36   17.50
   3  -5  -2  422.46   18.90
   3   5  -2  404.46   17.30
   3   5  -2  432.96   26.20
  -2  -5   2   -3.10    4.60
   2  -5  -2    3.00    5.00
   2  -5  -2   -2.00    4.90
   2  -5  -2    3.60    4.10
  -2  -5   2    2.60    4.00
   2  -5  -2    4.60    5.80
   2   5  -2    2.00    9.70
   2   5  -2    0.70    4.10
   1  -5  -2  433.16   18.00
  -1  -5   2  467.55   17.00
   1  -5  -2  425.96   18.20
  -1  -5   2  443.86   18.30
   1  -5  -2  469.65   17.50
  -1  -5   2  435.26   17.80
   1   5  -2  434.46   21.10
   1   5  -2  428.06   15.80
   0  -5   2  646.74   20.50
   0  -5  -2  613.44   21.20
   0  -5   2  621.34   21.50
   0  -5  -2  596.44   21.80
   0  -5   2  629.64   21.40
   0  -5  -2  654.83   21.20
   0  -5   2  636.24   22.10
   0   5  -2  598.54   24.30
   0   5  -2  580.94   18.90
   0   5   2  602.04   22.50
   1  -5   2   89.79    9.60
  -1  -5  -2   74.49    8.80
  -1  -5  -2   73.79    8.20
  -1  -5  -2   79.59    9.00
   1  -5   2   86.19    8.50
   1  -5   2   63.89    8.20
   1  -5   2   71.99    7.70
  -1   5  -2   88.89   11.90
   1   5   2   81.69    9.70
  -2  -5  -2   49.10    7.40
   2  -5   2   71.09    9.50
   2  -5   2   60.09    8.30
  -2  -5  -2   49.90    8.00
   2  -5   2   64.49    7.90
   2  -5   2   53.99    7.60
   2   5   2   45.30    8.80
  -3  -5  -2   23.60    6.10
   3  -5   2   29.60    6.40
   3  -5   2   36.40    7.90
  -3  -5  -2   22.60    7.10
   3  -5   2   39.80    7.60
   3  -5   2   26.40    6.30
   3   5   2   24.90    7.80
  -4  -5  -2  105.99   11.20
   4  -5   2   98.69   10.60
   4  -5   2  104.89    9.70
   4  -5   2  121.89   12.60
   4  -5   2  119.09   11.10
  -4  -5  -2  131.19   12.30
   4   5   2  113.79   13.20
   4   5   2  145.89   20.80
   4   5   2  107.69   11.20
   5  -5   2   18.30    7.20
  -5  -5  -2   18.40    8.10
  -5  -5  -2   21.10    8.10
   5  -5   2   15.90    6.90
   5  -5   2   26.60    8.60
   5   5   2   27.20   17.20
   5   5   2   20.40    8.30
   5   5   2   22.00    9.00
  -6  -5  -2   69.19   12.10
   6  -5   2   64.29   10.30
   6  -5   2   51.39   10.60
   6   5   2   46.70   11.30
   6   5   2   68.19   25.30
   6   5   2   41.50   11.10
   7  -5   2   -0.90    8.30
  -7  -5  -2   11.90    8.90
   7  -5   2    1.80    8.20
   7   5   2   11.80    9.80
   7   5   2   -0.20   10.40
   7  -6  -2  334.77   20.50
  -7  -6   2  397.86   22.20
   7  -6  -2  375.76   23.20
  -7  -6   2  335.97   21.60
   7  -6  -2  373.26   22.00
   7   6  -2  339.07   22.70
   7   6  -2  429.76   42.10
   6  -6  -2   -2.90    5.80
   6  -6  -2   13.50    8.50
  -6  -6   2    1.30    7.60
   6  -6  -2   -3.80    6.30
  -6  -6   2    5.50    6.70
   6   6  -2    7.00   21.40
   6   6  -2   11.30    8.90
   6   6  -2   -0.70    7.40
  -5  -6   2  212.68   17.00
   5  -6  -2  230.78   16.20
   5  -6  -2  170.28   14.60
  -5  -6   2  206.18   14.70
   5  -6  -2  225.38   17.00
   5   6  -2  203.18   15.80
   5   6  -2  243.58   29.10
  -4  -6   2  212.08   13.80
   4  -6  -2  227.28   15.60
   4  -6  -2  244.78   16.50
   4  -6  -2  215.58   14.60
  -4  -6   2  190.98   15.80
   4   6  -2  259.27   28.00
   4   6  -2  205.08   14.80
   3  -6  -2    3.30    5.80
   3  -6  -2    0.80    6.20
   3  -6  -2   -1.20    5.70
  -3  -6   2    2.60    5.70
  -3  -6   2    6.00    4.90
   3  -6  -2    4.40    5.00
   3   6  -2    0.10   12.60
   3   6  -2    4.50    5.40
  -2  -6   2   39.20    6.90
   2  -6  -2   64.69    9.60
  -2  -6   2   67.19    9.40
   2  -6  -2   38.30    7.30
   2  -6  -2   48.80    8.50
   2  -6  -2   47.30    9.00
   2   6  -2   51.19    7.40
   2   6  -2   65.69   13.60
   1  -6  -2    8.90    5.80
   1  -6  -2    3.70    4.70
  -1  -6   2    3.20    4.80
   1  -6  -2    1.80    5.80
  -1  -6   2   15.70    6.10
   1   6  -2   -4.20    4.30
   1   6  -2   14.00    9.10
  -1   6   2    3.10    6.30
   0  -6   2  269.77   14.10
   0  -6  -2  265.07   15.50
   0  -6  -2  246.98   14.10
   0  -6   2  249.58   15.20
   0  -6   2  268.27   15.50
   0  -6  -2  291.07   16.50
   0   6   2  283.77   16.70
   0   6  -2  240.98   12.70
   0   6  -2  278.17   18.20
  -1  -6  -2  414.26   17.90
   1  -6   2  376.76   18.50
   1  -6   2  412.16   18.40
   1  -6   2  361.76   18.20
   1  -6   2  437.36   17.70
  -1  -6  -2  411.86   18.50
  -1  -6  -2  388.06   19.40
  -1   6  -2  353.26   20.60
   1   6   2  384.86   19.30
  -1   6  -2  442.36   22.00
  -2  -6  -2   41.90    7.30
   2  -6   2   37.20    8.10
   2  -6   2   47.90    8.60
   2  -6   2   49.50    8.20
  -2  -6  -2   43.00    9.00
   2  -6   2   65.09    8.80
   2   6   2   48.80    9.90
  -3  -6  -2  117.39   13.00
   3  -6   2  111.99   11.00
   3  -6   2  109.09   12.10
  -3  -6  -2   92.89   10.70
   3  -6   2  116.49   12.80
   3  -6   2  114.69   11.40
   3   6   2  102.39   12.50
   4  -6   2  701.93   27.70
   4  -6   2  651.83   24.50
   4  -6   2  670.03   25.80
  -4  -6  -2  743.93   28.40
   4  -6   2  593.94   25.90
  -4  -6  -2  653.23   26.00
   4   6   2  714.73   29.70
   5  -6   2  363.86   21.10
  -5  -6  -2  314.77   19.70
  -5  -6  -2  328.57   21.00
   5  -6   2  334.67   19.40
   5  -6   2  321.57   19.90
   5   6   2  328.27   22.00
   6  -6   2   26.10    9.00
   6  -6   2   18.30   10.10
   6  -6   2   29.10    9.50
  -6  -6  -2   32.70   10.70
   6   6   2   12.80    9.90
   6   6   2   31.10   11.30
   6  -7  -2  409.96   25.00
  -6  -7   2  434.56   24.50
   6  -7  -2  441.16   23.10
   6  -7  -2  437.66   24.50
  -6  -7   2  415.26   22.40
   6   7  -2  420.06   42.50
   6   7  -2  408.36   24.10
   5  -7  -2   83.79   13.00
  -5  -7   2   77.39   12.30
  -5  -7   2   96.99   12.30
   5  -7  -2   86.29   12.30
   5   7  -2  101.19   25.70
   5   7  -2   87.59   12.40
   4  -7  -2   88.49   11.40
  -4  -7   2   83.09   10.50
  -4  -7   2   76.49   12.00
   4  -7  -2   94.39   12.60
   4  -7  -2   97.59   13.60
   4   7  -2   83.29   11.30
   4   7  -2  126.89   23.10
   3  -7  -2  108.19   12.60
  -3  -7   2   97.79   11.70
   3  -7  -2  102.19   12.30
   3  -7  -2  114.49   13.70
   3  -7  -2   85.69   11.60
   3   7  -2  122.79   20.80
   3   7  -2   88.89   11.20
  -2  -7   2   -0.10    6.50
   2  -7  -2    8.50    5.40
   2  -7  -2    1.70    7.30
  -2  -7   2   -1.50    5.40
   2  -7  -2    6.10    7.10
   2   7  -2    6.60   11.40
  -2   7   2   -2.90    7.30
   1  -7  -2  148.79   14.60
   1  -7  -2  107.59   12.20
  -1  -7   2  152.58   12.70
   1  -7  -2  145.19   13.30
  -1  -7   2  151.88   13.80
   1   7  -2  171.18   18.70
  -1   7   2  151.98   14.70
   0  -7  -2   44.20    9.40
   0  -7  -2   59.79    9.30
   0  -7   2   49.40    9.90
   0  -7   2   67.59    9.50
   0  -7   2   57.99    9.70
   0  -7  -2   52.69   10.80
   0   7  -2   82.79   13.60
   0   7   2   52.19   10.20
  -1  -7  -2   90.29   12.10
   1  -7   2   97.69   12.30
  -1  -7  -2   85.89   10.60
   1  -7   2  132.49   12.40
   1  -7   2  114.89   12.10
  -1  -7  -2  129.89   13.80
  -1   7  -2  140.89   17.00
   1   7   2  110.79   13.30
  -2  -7  -2  374.86   19.70
   2  -7   2  387.16   20.70
   2  -7   2  426.16   20.10
   2  -7   2  406.56   21.50
  -2  -7  -2  428.16   23.20
   2  -7   2  415.46   20.70
   2   7   2  410.66   22.50
  -2   7  -2  445.86   24.60
   3  -7   2  270.87   17.50
   3  -7   2  250.57   17.80
   3  -7   2  253.47   16.70
  -3  -7  -2  264.97   20.70
   3  -7   2  245.48   18.00
  -3  -7  -2  229.08   16.40
   3   7   2  234.38   18.80
  -4  -7  -2   15.90   10.20
   4  -7   2    7.70    8.00
   4  -7   2   -0.70    7.60
   4  -7   2   15.30    8.30
  -4  -7  -2   15.10    8.00
   4   7   2    4.90    8.70
  -5  -7  -2  329.47   21.20
  -5  -7  -2  311.37   23.10
   5  -7   2  296.37   20.80
   5  -7   2  339.27   22.50
   5   7   2  313.47   23.30
   4  -8  -2   -1.20    7.30
   4  -8  -2    2.30    8.80
   4  -8  -2    3.50    8.70
  -4  -8   2   18.80   10.60
  -4  -8   2   -3.30    6.50
  -3  -8   2   32.10   10.90
  -3  -8   2   39.20    8.90
   3  -8  -2   47.30   10.10
   3  -8  -2   55.79   11.90
   3  -8  -2   36.40   10.40
  -3   8   2   36.50   10.20
   2  -8  -2  206.88   16.10
   2  -8  -2  146.39   15.80
   2  -8  -2  225.58   19.70
  -2  -8   2  165.18   15.90
  -2  -8   2  216.28   18.60
  -2   8   2  175.98   17.00
  -1  -8   2   80.29   11.00
   1  -8  -2   94.09   13.50
   1  -8  -2   56.19   11.40
  -1  -8   2   62.09   11.00
   1  -8  -2   69.69   11.20
  -1   8   2   63.09   11.90
   0  -8  -2    4.10    9.30
   0  -8  -2   -2.90    8.40
   0  -8   2   -6.70    7.00
   0  -8  -2    2.20    5.80
   0  -8   2    4.50    7.30
   0  -8   2   -5.40    5.90
   0   8   2   -1.40    7.40
   1  -8   2   31.10    9.80
  -1  -8  -2   20.50    8.30
  -1  -8  -2   16.70   10.20
   1  -8   2   23.50    7.90
   1  -8   2   31.20    9.70
   1   8   2   20.30    9.30
  -2  -8  -2    1.30   10.10
   2  -8   2   -1.40    7.80
   2  -8   2    4.30    6.70
   2  -8   2    3.80    8.70
  -2  -8  -2   18.70    8.10
   2  -8   2   13.80    8.60
   2   8   2    8.20    8.70
   3  -8   2   10.80    8.40
   3  -8   2   14.20    9.20
  -3  -8  -2   -8.10   10.10
  -3  -8  -2    9.20    7.80
   3  -8   2   -1.60    8.60
   3  -8   2   -4.70    8.00
   3   8   2    6.10    9.30
  10   0  -3   58.29   18.80
  10   0  -3   62.59   13.40
  10   0  -3   41.40   10.80
 -10   0   3   51.39   11.50
  10   0  -3   36.90   11.90
   9   0  -3   83.09   18.30
   9   0  -3  106.79   14.50
  -9   0   3   89.19   12.50
  -8   0   3  169.58   14.70
   8   0  -3  144.59   21.00
   8   0  -3  192.88   16.40
   7   0  -3  203.38   15.50
  -7   0   3  178.28   14.00
   7   0  -3  209.78   22.10
  -6   0   3  101.49   10.40
   6   0  -3  114.99   11.10
   6   0  -3  139.09   18.50
   5   0  -3 2811.12   73.09
   5   0  -3 2776.82   64.79
  -5   0   3 2801.12   64.49
   4   0  -3 2201.68   51.49
  -4   0   3 2262.47   51.39
   4   0  -3 2220.28   57.99
   3   0  -3   53.99    8.70
   3   0  -3   57.79    5.50
  -3   0   3   60.89    5.50
   2   0  -3 4915.71  101.69
  -2   0   3 4803.82  101.49
   2   0  -3 4834.42  104.09
  -1   0   3 5430.76  113.89
   1   0  -3 5459.55  115.19
   1   0  -3 5604.24  114.19
   0   0   3  395.96   11.90
   0   0  -3  413.96   12.10
   0   0   3  412.06   11.20
   1   0   3 1197.58   28.20
  -1   0  -3 1210.68   28.50
   1   0   3 1139.89   27.50
   2   0   3   21.70    4.30
   2   0   3   19.70    3.90
  -2   0  -3   19.00    4.50
  -3   0  -3   -0.40    4.80
   3   0   3    1.00    3.70
   3   0   3    0.40    4.20
   4   0   3 3540.35   80.29
  -4   0  -3 3579.34   82.09
  -5   0  -3  978.80   32.70
   5   0   3 1028.80   30.80
   6   0   3  196.78   15.20
  -6   0  -3  170.28   15.50
  -7   0  -3  464.15   25.40
   7   0   3  476.75   22.80
   8   0   3  460.25   23.50
   8   0   3  534.65   25.50
  -8   0  -3  547.15   28.80
  10  -1  -3   64.59   11.20
  10  -1  -3   49.20   12.70
  10  -1  -3   35.50   16.50
 -10  -1   3   72.89   12.60
  10   1  -3   52.69   13.20
  10   1  -3   47.70   19.60
 -10   1   3   68.49   12.30
  -9  -1   3   33.20    9.60
   9  -1  -3   35.60    8.50
   9  -1  -3   18.50   13.00
   9  -1  -3    1.10    9.40
   9  -1  -3   33.20   10.10
  -9   1   3   46.10   10.10
   9   1  -3   43.10   11.70
   9   1  -3   15.90   15.60
   8  -1  -3   17.60   12.50
   8  -1  -3   13.30    8.40
   8  -1  -3    8.10    8.50
   8  -1  -3   14.80    7.00
  -8  -1   3   25.90    8.70
   8   1  -3   20.50   14.90
  -8   1   3   19.90    8.20
   8   1  -3   12.70    9.30
  -7  -1   3    0.60    6.70
   7  -1  -3   -4.20    6.60
   7  -1  -3   -0.90    5.30
   7  -1  -3   -5.20    9.90
   7   1  -3    6.10    7.50
  -7   1   3   -1.40    6.20
   7   1  -3   -3.50   13.00
   6  -1  -3   19.00   11.20
  -6  -1   3   13.30    6.80
   6  -1  -3   16.50    7.00
   6  -1  -3   20.00    6.10
  -6   1   3   11.20    6.00
   6   1  -3   26.70    8.00
   6   1  -3   14.10   13.60
   5  -1  -3   91.09    7.80
  -5  -1   3   86.79    8.80
   5  -1  -3   88.19   13.40
   5  -1  -3   73.59    8.00
  -5   1   3   81.49    8.30
   5   1  -3   86.79    8.90
   5   1  -3   93.99   15.60
  -4  -1   3   99.79    8.30
   4  -1  -3  124.29   12.80
   4  -1  -3   91.19    7.60
   4  -1  -3  119.79   10.50
   4  -1  -3  107.09    7.30
   4   1  -3   99.29    8.20
  -4   1   3   90.59    7.70
   4   1  -3  109.39   14.00
   3  -1  -3   99.79   10.40
   3  -1  -3  101.69    6.90
   3  -1  -3  110.59    6.20
  -3  -1   3  102.99    7.20
   3  -1  -3  118.09   10.30
   3   1  -3  108.09    7.60
   3   1  -3  115.89   11.70
  -3   1   3  101.79    6.70
   2  -1  -3   80.89    4.70
  -2  -1   3   90.99    6.20
   2  -1  -3  120.49   10.90
   2  -1  -3   93.59    6.00
   2  -1  -3   87.39    4.90
  -2   1   3   89.39    5.90
   2   1  -3   78.49    8.70
   2   1  -3   89.79    6.50
   1  -1  -3  277.47    8.10
   1  -1  -3  274.97   15.80
  -1  -1   3  298.87    9.40
   1  -1  -3  293.67    9.40
   1   1  -3  266.87   11.50
   1   1  -3  285.57    9.50
  -1   1   3  290.37    9.20
   0  -1   3  628.74   16.20
   0  -1  -3  594.04   15.10
   0  -1  -3  655.33   16.60
   0   1   3  612.14   16.40
   0   1   3  640.04   17.10
   0   1  -3  644.94   16.50
  -1  -1  -3 2106.29   46.40
   1  -1   3 2044.90   44.60
   1  -1   3 2086.19   45.80
   1  -1   3 1953.60   44.20
  -1   1  -3 2155.38   46.30
   1   1   3 2058.59   46.80
   1   1   3 2058.79   46.00
   2  -1   3    6.50    2.90
  -2  -1  -3    4.10    4.20
   2  -1   3    3.70    3.20
   2   1   3    6.60    3.70
   2   1   3    2.90    3.80
  -2   1  -3    7.90    4.00
   3  -1   3  154.78    9.30
   3  -1   3  142.99    8.50
   3  -1   3  153.48    7.60
  -3  -1  -3  174.98   11.10
   3   1   3  166.18   10.50
  -3   1  -3  164.88   10.20
   3   1   3  148.59   12.90
   3   1   3  154.38   10.30
  -4  -1  -3  266.07   16.00
   4  -1   3  271.27   11.30
   4  -1   3  237.58   12.50
   4  -1   3  284.07   13.60
   4   1   3  273.97   14.80
   4   1   3  264.27   19.50
  -4   1  -3  266.47   14.70
   4   1   3  262.07   14.30
   5  -1   3 2103.59   51.39
   5  -1   3 2076.39   52.19
  -5  -1  -3 2127.49   55.69
   5   1   3 2095.99   53.19
   5   1   3 2160.78   60.19
   5   1   3 2075.99   54.19
  -5   1  -3 2071.69   54.29
  -6  -1  -3  221.58   17.90
   6  -1   3  232.88   15.40
   6  -1   3  197.38   14.00
   6   1   3  239.18   22.00
   6   1   3  215.78   16.10
  -6   1  -3  232.48   17.30
   7  -1   3   15.00    7.70
   7  -1   3   12.20    7.80
  -7  -1  -3   14.30   10.10
  -7   1  -3   48.80   11.30
   7   1   3   17.90   13.40
   7   1   3   17.00    8.50
  -8  -1  -3   20.30   11.50
   8  -1   3    2.10    8.30
   8  -1   3   -0.60    8.40
   8   1   3   20.60   13.80
  -8   1  -3   20.30   10.60
   8   1   3    5.60    8.90
 -10  -2   3  459.15   24.50
  10  -2  -3  374.86   24.00
  10  -2  -3  408.36   22.70
  10  -2  -3  426.76   31.10
  10   2  -3  357.76   35.80
  10   2  -3  418.26   25.70
 -10   2   3  369.16   22.50
  -9  -2   3    8.90    6.40
   9  -2  -3    6.00    6.70
   9  -2  -3   -3.00   11.00
   9  -2  -3    0.20    8.40
  -9  -2   3   -1.40    7.80
   9   2  -3   -5.90   15.50
  -9   2   3   19.50    8.70
   9   2  -3   -9.80    9.50
  -8  -2   3  282.47   18.30
   8  -2  -3  254.17   16.30
   8  -2  -3  268.37   22.70
   8  -2  -3  272.37   18.70
   8   2  -3  287.17   19.70
  -8   2   3  297.27   17.80
   8   2  -3  274.17   28.60
   7  -2  -3  970.30   36.50
   7  -2  -3  958.30   32.00
   7  -2  -3  924.11   29.80
   7  -2  -3  968.70   30.70
  -7  -2   3  978.80   31.30
   7   2  -3 1008.30   32.50
   7   2  -3  962.60   43.70
  -7   2   3  949.01   30.30
  -6  -2   3  364.76   17.40
   6  -2  -3  362.06   15.90
   6  -2  -3  366.46   18.10
   6  -2  -3  360.66   16.70
   6  -2  -3  348.37   21.00
  -6   2   3  339.17   16.00
   6   2  -3  376.56   18.40
   6   2  -3  350.46   28.40
  -5  -2   3    8.70    6.00
   5  -2  -3   -2.20    5.10
   5  -2  -3   -2.00    5.90
   5  -2  -3    0.90    4.30
   5  -2  -3    6.00    8.00
   5  -2  -3   -3.20    6.60
   5   2  -3    7.30   13.10
  -5   2   3    2.60    5.20
   5   2  -3    5.10    5.90
   4  -2  -3  467.25   15.50
   4  -2  -3  438.06   18.30
   4  -2  -3  460.85   16.90
   4  -2  -3  461.45   19.40
  -4  -2   3  461.55   16.40
   4  -2  -3  459.05   15.10
  -4   2   3  451.75   15.20
   4   2  -3  432.96   16.30
   4   2  -3  472.65   23.80
   3  -2  -3    4.90    3.90
   3  -2  -3    0.80    4.60
   3  -2  -3    2.90    2.50
  -3  -2   3    1.70    3.60
   3  -2  -3   -7.00    5.50
   3  -2  -3    1.80    2.80
   3  -2  -3    2.10    3.40
  -3   2   3    0.80    3.30
   3   2  -3    7.00    7.40
  -2  -2   3  286.97   10.40
   2  -2  -3  292.67    9.40
   2  -2  -3  290.87    9.90
  -2  -2   3  290.17   10.70
   2  -2  -3  306.97    9.80
   2  -2  -3  276.77   15.60
  -2  -2   3  305.37    9.20
   2  -2  -3  298.87   11.00
   2   2  -3  277.17   13.60
   2   2  -3  281.07   10.50
  -1  -2   3  422.06   13.00
   1  -2  -3  429.86   11.90
   1  -2  -3  411.26   18.30
  -1  -2   3  406.96   12.10
   1  -2  -3  433.26   12.40
   1  -2  -3  431.76   12.60
  -1  -2   3  413.76   11.20
   1   2  -3  428.56   12.40
   1   2  -3  410.86   15.70
  -1   2   3  432.36   11.90
   0  -2   3  303.27    9.80
   0  -2  -3  319.37   16.20
   0  -2   3  317.77    9.50
   0  -2  -3  312.87   10.10
   0  -2  -3  310.97   11.10
   0  -2  -3  324.77   10.30
   0  -2   3  334.17   11.10
   0  -2   3  318.77   10.20
   0  -2   3  315.77   10.30
   0   2   3  314.17   10.30
   0   2   3  339.77   12.20
   0   2  -3  324.07   10.20
  -1  -2  -3 2603.64   56.69
   1  -2   3 2583.64   55.69
  -1  -2  -3 2570.94   61.79
   1  -2   3 2620.94   56.19
  -1  -2  -3 2621.24   57.19
   1  -2   3 2558.84   56.39
   1  -2   3 2618.44   57.09
  -1  -2  -3 2549.94   56.89
  -1   2  -3 2657.23   56.79
   1   2   3 2605.94   56.99
   1   2   3 2588.44   58.89
  -2  -2  -3 3082.29   67.29
   2  -2   3 2983.80   65.99
   2  -2   3 2939.61   65.79
  -2  -2  -3 3042.40   69.99
   2  -2   3 2980.70   65.69
   2   2   3 3015.70   66.69
   2   2   3 3006.00   68.59
   2   2   3 3006.70   68.39
  -2   2  -3 3110.29   66.59
   3  -2   3   44.00    5.80
   3  -2   3   42.70    5.70
   3  -2   3   45.30    5.60
  -3  -2  -3   49.60    7.70
   3   2   3   49.80    7.30
   3   2   3   47.10    7.40
   3   2   3   54.99   10.40
  -3   2  -3   33.50    6.50
   4  -2   3   -1.90    4.70
   4  -2   3    3.20    5.00
   4  -2   3   -5.30    4.30
  -4  -2  -3    4.20    7.10
   4   2   3   -0.50   10.70
   4   2   3    3.80    6.10
   4   2   3    1.10    6.10
  -4   2  -3   -5.60    5.80
  -5  -2  -3   19.00    9.00
   5  -2   3   31.40    7.30
   5  -2   3   26.10    6.20
   5  -2   3   29.40    6.80
   5   2   3   28.30    8.00
   5   2   3   37.70    8.60
  -5   2  -3   31.20    8.10
   5   2   3   32.50   12.70
   6  -2   3    5.90    5.70
   6  -2   3   -0.10    6.30
  -6  -2  -3    5.20    8.80
   6  -2   3    6.60    6.40
  -6   2  -3   22.80    8.40
   6   2   3   18.10    8.50
   6   2   3   -0.60   12.60
   6   2   3    6.20    8.10
  -7  -2  -3  156.18   16.40
   7  -2   3  197.48   15.50
  -7   2  -3  163.28   15.40
   7   2   3  216.28   24.10
   7   2   3  181.38   16.40
  -8  -2  -3   21.30   11.20
   8  -2   3   -3.20    8.20
   8   2   3    4.70    9.80
  -8   2  -3    7.70    9.70
   8   2   3   28.10   16.60
   9  -3  -3  193.98   18.40
   9  -3  -3  194.08   15.70
  -9  -3   3  177.58   15.40
  -9  -3   3  195.58   17.10
   9  -3  -3  193.88   20.80
   9   3  -3  189.58   28.80
   9   3  -3  177.28   18.40
  -9   3   3  191.28   16.60
   8  -3  -3   97.79   16.20
   8  -3  -3   96.29   11.20
  -8  -3   3   95.99   12.30
  -8  -3   3   83.49   10.40
   8  -3  -3   84.69   12.60
   8   3  -3   93.79   23.90
   8   3  -3   98.99   14.00
  -8   3   3  109.89   12.80
   7  -3  -3    6.10    9.10
  -7  -3   3    5.50    6.00
  -7  -3   3    8.20    7.50
   7  -3  -3   10.80    6.10
   7  -3  -3    9.50    7.20
   7   3  -3   -2.00   16.20
  -7   3   3   13.40    7.40
   7   3  -3    3.60    8.10
   6  -3  -3  150.28   13.50
   6  -3  -3  144.89   11.60
  -6  -3   3  152.48   12.70
  -6  -3   3  155.98   12.30
   6  -3  -3  134.69   15.10
   6   3  -3  170.48   23.60
   6   3  -3  134.99   12.60
  -6   3   3  148.39   12.10
   5  -3  -3  233.68   15.80
   5  -3  -3  227.08   14.30
  -5  -3   3  241.28   13.80
   5  -3  -3  226.38   12.30
  -5  -3   3  238.18   13.40
   5  -3  -3  223.48   17.00
   5  -3  -3  225.98   12.60
  -5   3   3  222.78   12.30
   5   3  -3  229.48   25.20
   5   3  -3  225.08   14.50
  -4  -3   3    5.80    4.10
   4  -3  -3  -12.80    6.60
  -4  -3   3   -1.00    4.30
   4  -3  -3   -1.30    3.80
  -4  -3   3    2.00    5.10
   4  -3  -3    3.40    5.70
   4  -3  -3    2.90    5.20
   4   3  -3    0.70    5.60
   4   3  -3   -7.50   11.00
   3  -3  -3  104.19    9.30
  -3  -3   3  100.99    8.40
   3  -3  -3   99.99    7.50
   3  -3  -3  114.09    8.00
  -3  -3   3  101.59    7.00
   3  -3  -3  121.29   12.00
   3  -3  -3   98.89    7.60
  -3  -3   3  112.49    8.50
   3   3  -3  118.19   13.50
   3   3  -3  101.19    8.00
   3   3  -3   92.19    7.90
   2  -3  -3    2.00    3.70
   2  -3  -3   -2.10    2.50
  -2  -3   3   -1.30    3.40
  -2  -3   3    2.70    2.40
   2  -3  -3    2.50    5.70
  -2  -3   3    3.90    3.40
   2  -3  -3   -1.00    2.80
   2  -3  -3    1.00    2.80
   2   3  -3   -0.40    2.60
   2   3  -3    6.80    6.30
   2   3  -3    2.20    4.10
   1  -3  -3  622.84   18.10
   1  -3  -3  651.13   18.30
   1  -3  -3  621.54   19.20
  -1  -3   3  645.34   18.60
   1  -3  -3  630.74   23.90
  -1  -3   3  609.54   16.90
   1   3  -3  634.14   22.00
   0  -3   3 1805.42   41.10
   0  -3  -3 1745.93   41.10
   0  -3  -3 1759.92   47.10
   0  -3  -3 1688.23   40.10
   0  -3  -3 1786.02   42.10
   0  -3   3 1794.02   41.60
   0  -3   3 1775.02   42.30
   0  -3   3 1775.52   40.20
   0   3   3 1797.62   43.30
   0   3  -3 1762.42   45.90
   1  -3   3 1262.97   30.70
  -1  -3  -3 1272.77   31.50
  -1  -3  -3 1246.38   36.30
   1  -3   3 1248.68   31.80
  -1  -3  -3 1192.28   30.10
   1  -3   3 1277.07   30.70
   1  -3   3 1278.67   30.50
  -1  -3  -3 1243.18   31.60
   1  -3   3 1247.58   31.80
   1   3   3 1243.78   33.50
   1   3   3 1278.57   30.40
   2  -3   3  182.28    9.60
  -2  -3  -3  172.98   10.10
  -2  -3  -3  183.28   10.50
   2  -3   3  170.78   10.20
   2  -3   3  174.68    8.50
  -2  -3  -3  149.79   13.90
  -2  -3  -3  167.48   10.00
   2   3   3  170.38   12.00
   2   3   3  188.38   10.20
   3  -3   3  610.74   19.80
  -3  -3  -3  616.14   19.90
  -3  -3  -3  592.94   21.10
  -3  -3  -3  640.44   20.90
   3  -3   3  640.24   20.40
   3   3   3  650.33   21.20
   3   3   3  631.24   23.20
   3   3   3  607.04   24.20
  -3   3  -3  644.14   19.90
  -4  -3  -3  274.97   16.50
   4  -3   3  280.67   13.30
   4  -3   3  288.87   14.20
   4  -3   3  292.17   14.10
   4   3   3  288.57   16.90
  -4   3  -3  275.27   14.20
   4   3   3  305.17   16.30
   4   3   3  296.47   20.30
  -5  -3  -3  969.40   32.70
   5  -3   3  974.10   29.50
   5  -3   3 1018.00   29.80
   5   3   3  962.90   36.50
  -5   3  -3  963.20   29.90
   5   3   3  951.20   31.20
   5   3   3  950.80   33.00
   6  -3   3   16.30    6.90
  -6  -3  -3   35.40   10.20
   6  -3   3    8.00    6.70
  -6   3  -3   19.80    8.40
   6   3   3    6.20    8.80
   6   3   3   10.60   14.40
   6   3   3   12.20    8.60
  -7  -3  -3   18.10   10.20
   7  -3   3    8.90    7.70
  -7   3  -3   12.10    8.10
   7   3   3    3.90    8.80
   7   3   3   13.90    9.50
   7   3   3    7.10   14.60
  -8  -3  -3   65.69   14.30
   8  -3   3   82.49   12.80
  -8   3  -3   74.49   13.10
   8   3   3   68.19   19.70
   8   3   3   56.99   13.10
   9  -4  -3   65.39   10.90
   9  -4  -3   60.59   13.00
  -9  -4   3   61.29   10.60
  -9   4   3   64.69   10.90
   9   4  -3   60.39   24.10
   9   4  -3   72.49   14.60
   8  -4  -3   52.49   11.50
  -8  -4   3   51.09    9.30
  -8  -4   3   57.59   10.60
   8  -4  -3   58.89    9.50
   8   4  -3   66.39   24.40
   8   4  -3   64.29   13.10
   7  -4  -3   66.49   11.40
   7  -4  -3   78.59    9.70
  -7  -4   3   74.99   10.10
  -7  -4   3  103.89   12.00
  -7  -4   3   81.89   10.80
   7   4  -3   70.19   12.40
   7   4  -3  103.39   24.10
   6  -4  -3   74.29   11.00
   6  -4  -3   35.40    7.50
  -6  -4   3   49.10    8.50
  -6  -4   3   52.59    8.00
  -6  -4   3   57.59    8.90
   6   4  -3   54.49   19.40
   6   4  -3   48.70   10.00
   5  -4  -3 1165.58   35.70
  -5  -4   3 1147.29   33.10
  -5  -4   3 1215.48   33.40
   5  -4  -3 1216.38   34.20
  -5  -4   3 1208.58   34.70
   5  -4  -3 1163.48   33.70
   5   4  -3 1183.18   34.50
   5   4  -3 1237.78   35.80
   5   4  -3 1143.69   46.70
  -4  -4   3  981.20   27.80
  -4  -4   3  997.40   28.20
  -4  -4   3 1005.30   29.70
   4  -4  -3 1006.70   29.00
   4  -4  -3  985.70   29.10
   4  -4  -3  971.70   28.60
   4  -4  -3  960.60   30.30
   4   4  -3 1026.10   29.10
   4   4  -3  982.90   29.50
   4   4  -3  987.60   39.00
   3  -4  -3   13.10    4.80
  -3  -4   3   16.80    4.50
  -3  -4   3   13.40    5.50
   3  -4  -3   15.40    5.10
   3  -4  -3    3.20    7.40
   3  -4  -3   10.60    6.20
   3  -4  -3   11.70    5.00
  -3  -4   3   17.00    5.60
   3   4  -3   14.60    5.20
   3   4  -3    6.40   11.00
   2  -4  -3 1265.57   33.30
   2  -4  -3 1295.77   34.20
   2  -4  -3 1331.47   33.40
   2  -4  -3 1276.77   34.60
  -2  -4   3 1297.27   32.20
   2  -4  -3 1284.57   40.70
  -2  -4   3 1265.07   33.90
   2   4  -3 1234.18   31.60
   2   4  -3 1281.47   38.80
  -1  -4   3 1236.38   32.80
  -1  -4   3 1267.87   31.60
   1  -4  -3 1270.17   39.90
   1  -4  -3 1242.18   33.70
   1  -4  -3 1261.87   32.70
   1  -4  -3 1256.37   32.70
   1   4  -3 1243.28   37.20
   0  -4  -3   79.39    7.50
   0  -4  -3   82.89    7.50
   0  -4   3   86.29    8.90
   0  -4   3   94.19    7.40
   0  -4  -3   79.49   11.60
   0  -4  -3   72.29    7.70
   0  -4   3   83.59    8.20
   0  -4   3   87.19    7.70
   0   4  -3   98.89   12.00
   0   4  -3   76.09    5.40
   0   4   3   92.89    9.40
  -1  -4  -3  115.09    9.60
   1  -4   3  131.49    9.30
  -1  -4  -3  126.09    9.40
  -1  -4  -3  121.69   13.20
  -1  -4  -3  111.09    8.90
   1  -4   3  111.59    9.70
   1  -4   3  123.79    8.70
   1  -4   3  132.79   10.00
   1   4   3  125.29   11.20
  -2  -4  -3    3.20    5.50
   2  -4   3   -1.40    3.80
  -2  -4  -3    7.70    4.40
   2  -4   3    3.30    4.20
   2  -4   3    1.20    4.30
  -2  -4  -3   -1.50    7.30
   2  -4   3   -1.20    4.80
   2  -4   3   -4.90    4.00
   2   4   3   -1.90    5.10
   2   4   3   10.50    6.10
  -3  -4  -3   37.50    7.30
  -3  -4  -3   26.90    6.90
   3  -4   3   32.20    6.70
   3  -4   3   34.10    6.30
   3  -4   3   23.20    5.30
  -3  -4  -3   29.40    6.60
   3  -4   3   34.90    7.40
   3   4   3   37.90    8.30
   3   4   3   31.60    7.70
  -4  -4  -3 1658.43   44.90
   4  -4   3 1705.83   44.00
  -4  -4  -3 1670.73   44.90
   4  -4   3 1726.43   44.80
  -4  -4  -3 1678.33   43.90
   4   4   3 1632.84   47.80
   4   4   3 1686.83   48.70
   5  -4   3  537.85   21.80
  -5  -4  -3  504.45   22.80
   5  -4   3  508.55   21.00
  -5  -4  -3  478.85   21.80
   5   4   3  521.25   22.90
   5   4   3  457.45   23.50
   5   4   3  520.45   27.60
  -6  -4  -3  119.59   13.20
   6  -4   3  167.98   14.40
  -6  -4  -3  108.79   18.60
   6  -4   3  137.09   13.00
  -6   4  -3  129.29   12.80
   6   4   3  146.19   15.10
   6   4   3  114.99   14.10
   6   4   3  144.69   20.00
  -7  -4  -3  246.88   19.20
   7  -4   3  238.08   17.70
   7  -4   3  235.88   17.30
   7   4   3  243.98   26.10
  -7   4  -3  202.18   16.50
   7   4   3  171.38   17.00
   7   4   3  177.28   18.30
   8  -5  -3   13.00    8.10
   8  -5  -3   20.60    9.30
  -8  -5   3    6.90    8.20
   8  -5  -3    0.50    6.60
  -8  -5   3    0.20    7.70
   8   5  -3   20.40   25.40
   8   5  -3   15.40   11.20
   7  -5  -3   36.70    8.20
  -7  -5   3   16.40    8.00
  -7  -5   3   45.90    9.40
   7  -5  -3   29.20    7.60
   7  -5  -3   15.30    9.10
   7   5  -3   20.00   10.40
   7   5  -3   21.00   23.00
   6  -5  -3  105.39   11.00
   6  -5  -3  128.99   13.90
  -6  -5   3  133.99   13.10
  -6  -5   3  107.19   11.80
   6  -5  -3   96.49   11.10
   6   5  -3  123.49   25.50
   6   5  -3  106.99   13.10
  -5  -5   3    2.60    5.50
   5  -5  -3   11.00    5.60
   5  -5  -3    3.90    6.80
  -5  -5   3   -4.40    5.50
   5  -5  -3   -3.70    4.80
   5   5  -3    0.00   15.70
   5   5  -3  -11.60    6.80
   5   5  -3    6.90    6.20
  -4  -5   3  187.98   12.10
   4  -5  -3  191.08   12.70
  -4  -5   3  192.28   13.60
   4  -5  -3  186.98   12.80
   4  -5  -3  191.98   14.80
   4  -5  -3  193.88   13.20
   4   5  -3  253.67   25.10
   4   5  -3  195.58   13.10
   3  -5  -3  453.45   18.20
   3  -5  -3  463.95   20.10
   3  -5  -3  468.55   19.10
  -3  -5   3  485.45   17.70
  -3  -5   3  478.55   19.50
   3   5  -3  467.25   26.40
   3   5  -3  462.05   17.90
   2  -5  -3  206.48   12.30
   2  -5  -3  230.88   14.50
  -2  -5   3  218.58   11.70
  -2  -5   3  211.48   13.40
   2  -5  -3  237.08   13.60
   2  -5  -3  217.38   14.40
   2   5  -3  214.18   11.30
   2   5  -3  208.48   18.80
   1  -5  -3   -1.20    5.70
   1  -5  -3   -0.10    5.10
   1  -5  -3    1.50    4.50
  -1  -5   3   -0.80    4.60
  -1  -5   3    1.40    4.20
  -1   5   3   -8.60    5.80
   1   5  -3   -1.10    3.40
   1   5  -3   -4.10    8.20
   0  -5   3   -2.90    3.70
   0  -5   3   -4.50    4.90
   0  -5  -3    8.20    5.90
   0  -5   3   -2.90    4.50
   0  -5  -3   -4.10    4.10
   0  -5  -3    3.00    5.20
   0  -5   3    5.30    5.30
   0   5  -3   -2.00    3.70
   0   5  -3   -2.10    8.30
   0   5   3   -5.90    5.20
   1  -5   3  165.08   12.00
   1  -5   3  165.38   10.80
  -1  -5  -3  151.18   11.00
   1  -5   3  153.28   12.00
  -1  -5  -3  186.38   14.00
  -1  -5  -3  166.58   11.60
   1  -5   3  166.78   12.20
   1   5   3  175.68   13.70
   2  -5   3   61.79    7.80
  -2  -5  -3   55.69    8.20
   2  -5   3   48.40    7.30
   2  -5   3   53.99    8.20
   2  -5   3   52.89    8.00
  -2  -5  -3   52.79    8.60
   2   5   3   49.10    9.40
  -3  -5  -3   25.90    8.00
   3  -5   3   24.30    7.50
   3  -5   3   22.20    6.70
  -3  -5  -3   17.10    6.20
   3  -5   3   23.50    6.40
   3  -5   3   14.10    6.20
   3   5   3   17.10    7.90
   4  -5   3   44.10    8.50
  -4  -5  -3   59.29    9.60
   4  -5   3   45.70    8.70
   4  -5   3   75.29   10.70
  -4  -5  -3   53.09    9.90
   4   5   3   48.20   10.40
   4   5   3   44.70    9.40
   5  -5   3 1496.95   43.20
   5  -5   3 1474.45   41.70
   5  -5   3 1336.97   42.50
  -5  -5  -3 1458.75   43.30
   5   5   3 1335.67   45.00
   6  -5   3  381.86   21.50
  -6  -5  -3  362.86   21.70
   6  -5   3  384.06   20.60
   6   5   3  360.06   23.80
   7  -5   3   22.40    9.30
   7  -5   3   20.30    9.80
  -7  -5  -3    7.70    9.40
   7   5   3   15.00   11.00
   7   5   3   14.00   11.00
   7  -6  -3  242.08   20.20
   7  -6  -3  235.58   17.80
  -7  -6   3  224.28   17.40
   7  -6  -3  203.98   17.60
  -7  -6   3  223.18   18.90
   7   6  -3  205.98   18.10
   7   6  -3  255.27   35.20
   6  -6  -3  121.59   13.50
   6  -6  -3  109.09   12.80
   6  -6  -3  136.19   15.60
  -6  -6   3  109.09   13.10
  -6  -6   3  137.69   13.70
   6   6  -3  130.69   28.20
   6   6  -3   95.29   12.60
   6   6  -3  113.19   13.30
   5  -6  -3   -0.50    6.30
  -5  -6   3    8.40    6.00
   5  -6  -3   11.10    6.50
  -5  -6   3    6.70    7.10
   5  -6  -3    6.20    7.80
   5   6  -3    6.80    6.90
   5   6  -3   18.00   18.80
   4  -6  -3   30.00    7.30
  -4  -6   3   34.00    8.60
   4  -6  -3   57.89   10.50
   4  -6  -3   30.90    8.20
  -4  -6   3   27.40    6.50
   4   6  -3   55.79   17.60
   4   6  -3   32.60    7.70
   3  -6  -3   -0.60    4.30
   3  -6  -3   -2.30    6.50
  -3  -6   3   -5.20    5.70
   3  -6  -3   -7.00    5.60
  -3  -6   3    1.90    4.90
   3   6  -3    6.10   12.00
   3   6  -3    1.70    5.10
   2  -6  -3   22.80    6.60
  -2  -6   3   45.00    6.90
  -2  -6   3   37.10    7.60
   2  -6  -3   38.30    8.80
   2  -6  -3   26.20    7.60
   2   6  -3   49.60   13.00
  -1  -6   3   42.10    8.20
   1  -6  -3   26.90    7.60
  -1  -6   3   51.29    7.50
   1  -6  -3   38.50    8.40
   1  -6  -3   43.70    7.50
   1   6  -3   49.00   12.00
  -1   6   3   18.90    8.30
   0  -6  -3   53.29    8.20
   0  -6   3   78.79    9.70
   0  -6   3   73.59   10.40
   0  -6   3   69.69    8.70
   0  -6  -3   68.69    9.40
   0  -6  -3   49.70    9.00
   0   6   3   65.89   10.80
   0   6  -3   70.49   12.40
   1  -6   3  541.15   22.60
   1  -6   3  614.44   21.60
   1  -6   3  585.84   22.10
  -1  -6  -3  569.24   21.90
   1  -6   3  546.55   22.80
  -1  -6  -3  569.64   21.60
  -1  -6  -3  614.64   24.60
  -1   6  -3  565.64   26.60
   1   6   3  568.74   24.40
   2  -6   3  736.03   25.20
   2  -6   3  741.03   25.20
  -2  -6  -3  755.12   28.40
  -2  -6  -3  704.93   25.30
   2  -6   3  712.03   26.70
   2  -6   3  667.03   26.00
   2   6   3  714.03   28.70
   3  -6   3    6.30    5.80
  -3  -6  -3   -8.70    6.10
   3  -6   3   -2.40    5.50
  -3  -6  -3   -1.60    7.90
   3  -6   3    7.70    6.80
   3   6   3    4.40    7.20
   4  -6   3   21.00    7.70
  -4  -6  -3    6.30    7.50
   4  -6   3   14.80    8.10
   4  -6   3   27.70    9.10
  -4  -6  -3   20.50    9.40
   4   6   3   28.50   10.30
   5  -6   3    4.90    7.60
   5  -6   3   -1.60    7.10
  -5  -6  -3   -3.00    7.50
   5  -6   3    2.60    8.10
   5   6   3   -6.90    8.60
   5   6   3   -2.60    8.00
   6  -6   3   13.90    8.80
   6  -6   3   16.80   10.00
   6  -6   3    2.60    7.90
  -6  -6  -3   21.10   10.50
   6   6   3    8.10   10.40
   6   6   3   12.60   10.50
   6  -7  -3  190.68   19.50
  -6  -7   3  186.78   18.00
  -6  -7   3  212.18   18.40
   6  -7  -3  212.68   18.20
   6   7  -3  198.68   33.10
   5  -7  -3  172.18   16.80
  -5  -7   3  166.98   14.20
  -5  -7   3  140.19   15.40
   5  -7  -3  161.28   17.00
   5  -7  -3  171.18   15.90
   5   7  -3  200.48   29.40
   4  -7  -3    6.10    7.60
   4  -7  -3    1.50    7.50
  -4  -7   3    0.70    5.40
  -4  -7   3   -2.50    7.10
   4  -7  -3    3.00    6.00
   4   7  -3   18.30   16.80
  -3  -7   3  105.89   11.10
   3  -7  -3  113.69   12.40
   3  -7  -3  111.09   13.80
  -3  -7   3  111.59   13.10
   3   7  -3  145.09   21.00
  -2  -7   3   -0.60    7.00
   2  -7  -3   10.80    7.10
   2  -7  -3    4.10    8.00
   2  -7  -3    7.30    7.40
  -2  -7   3    8.90    6.20
  -2   7   3    3.40    7.80
   2   7  -3   24.50   12.30
  -1  -7   3  241.88   17.10
   1  -7  -3  258.87   17.50
  -1  -7   3  279.37   15.40
   1  -7  -3  237.28   15.80
   1  -7  -3  224.78   17.90
  -1   7   3  230.98   17.70
   1   7  -3  314.57   22.60
   0  -7  -3  702.73   26.80
   0  -7   3  693.93   27.90
   0  -7  -3  735.93   29.20
   0  -7  -3  695.63   27.10
   0  -7   3  769.12   26.30
   0  -7   3  681.53   26.60
   0   7   3  696.83   29.20
   0   7  -3  766.92   32.20
   1  -7   3  316.77   19.50
   1  -7   3  365.96   19.30
  -1  -7  -3  303.97   18.00
   1  -7   3  313.37   19.60
  -1  -7  -3  333.47   21.70
   1  -7   3  378.16   18.20
   1   7   3  343.17   20.90
  -1   7  -3  390.66   24.20
   2  -7   3  143.69   14.80
   2  -7   3  153.48   15.70
   2  -7   3   97.39   11.70
   2  -7   3  117.59   12.30
  -2  -7  -3  120.09   13.20
  -2  -7  -3  100.49   13.50
  -2   7  -3  163.78   19.40
   2   7   3  108.59   14.40
  -3  -7  -3  394.76   20.60
   3  -7   3  430.06   22.60
   3  -7   3  387.46   20.00
   3  -7   3  363.36   21.50
  -3  -7  -3  406.66   24.50
   3   7   3  359.36   22.90
  -4  -7  -3  143.99   15.60
   4  -7   3  144.09   15.60
   4  -7   3  178.88   17.60
  -4  -7  -3  134.79   16.50
   4   7   3  155.38   17.60
   5  -7   3  162.48   16.10
  -5  -7  -3  157.88   16.80
   5  -7   3  193.58   18.30
   5   7   3  146.19   17.80
   4  -8  -3  133.89   17.00
   4  -8  -3  128.59   14.70
  -4  -8   3  164.88   16.20
  -4  -8   3  123.59   16.30
   3  -8  -3   19.80    8.10
  -3  -8   3    6.60    7.20
   3  -8  -3    3.40    9.20
  -3  -8   3   11.50    9.50
   3   8  -3   27.10   21.50
  -3   8   3   -0.10    8.80
   2  -8  -3   66.19   12.50
  -2  -8   3   83.99   11.20
  -2  -8   3   90.69   13.20
   2  -8  -3  100.89   14.50
   2  -8  -3   85.79   11.80
   2   8  -3  104.39   19.20
  -2   8   3   78.29   12.30
   1  -8  -3  139.89   15.60
  -1  -8   3  141.99   15.00
   1  -8  -3  133.19   13.70
   1  -8  -3  165.68   16.70
  -1  -8   3  135.59   13.10
  -1   8   3  144.09   16.50
   1   8  -3  226.38   22.60
   0  -8   3   36.20    8.30
   0  -8  -3   24.40   10.80
   0  -8  -3   40.20    9.30
   0  -8   3   33.90   10.00
   0  -8  -3   40.10   11.10
   0   8  -3   70.19   14.80
   0   8   3   30.10   10.10
   1  -8   3    2.90    6.60
   1  -8   3    1.80    8.00
  -1  -8  -3   -6.80    6.30
  -1  -8  -3   -5.90    9.30
   1  -8   3    5.20    7.90
  -1   8  -3   28.60   12.90
   1   8   3   -6.40    7.90
  -2  -8  -3    4.00   10.80
   2  -8   3   17.30    7.50
  -2  -8  -3   26.60    9.50
   2  -8   3    6.70    8.50
   2  -8   3   11.60    9.10
   2  -8   3    7.50    9.10
   2   8   3   10.20    9.60
  -2   8  -3   30.80   13.00
   3  -8   3   15.10    9.40
  -3  -8  -3    1.80   10.90
  -3  -8  -3   11.50    9.00
   3  -8   3   -4.10    7.80
   3  -8   3    3.90    9.00
  -3   8  -3   18.30   11.90
   3   8   3   14.10   10.40
  10   0  -4   15.20   11.50
  10   0  -4   -0.40   14.40
  10   0  -4   -0.90    8.50
 -10   0   4   16.20    9.80
   9   0  -4   22.70   16.00
   9   0  -4   57.59   12.50
  -9   0   4   51.29   11.10
   8   0  -4  139.19   14.80
   8   0  -4  180.78   23.00
  -8   0   4  170.48   14.80
   7   0  -4  552.94   23.20
   7   0  -4  575.84   31.40
  -7   0   4  576.04   22.20
   6   0  -4   32.20    8.00
   6   0  -4   40.40   14.90
  -6   0   4   31.20    7.30
   5   0  -4  843.82   33.30
  -5   0   4  819.52   24.90
   5   0  -4  854.31   25.60
  -4   0   4 1394.46   34.70
   4   0  -4 1415.26   35.20
   4   0  -4 1369.66   41.10
  -3   0   4 3467.25   75.39
   3   0  -4 3433.06   79.79
   3   0  -4 3523.75   75.79
   2   0  -4  158.48    9.60
  -2   0   4  160.78    8.00
   2   0  -4  166.78    7.90
   1   0  -4  533.05   16.70
   1   0  -4  573.74   15.90
  -1   0   4  544.45   15.50
   0   0   4   15.60    3.70
   0   0   4   25.10    3.50
   0   0  -4   22.20    4.00
  -1   0  -4 2127.69   48.20
   1   0   4 2102.19   47.70
   1   0   4 2060.09   46.70
   2   0   4 1561.94   37.40
   2   0   4 1568.04   37.70
  -2   0  -4 1526.55   38.30
  -3   0  -4   10.70    6.10
   3   0   4   27.70    6.10
   3   0   4   21.70    5.90
   4   0   4  691.83   22.80
   4   0   4  590.94   22.00
  -4   0  -4  614.34   23.40
   5   0   4 1229.18   35.40
  -5   0  -4 1160.08   36.90
   6   0   4  387.66   19.90
  -6   0  -4  360.46   21.60
   7   0   4   30.80    9.30
  -7   0  -4   24.90   11.00
   7   0   4   27.40    9.60
  -8   0  -4   84.39   14.80
   8   0   4   81.69   13.50
   8   0   4   97.49   13.20
  10  -1  -4   -0.70   14.10
  10  -1  -4    0.00    7.80
  10  -1  -4  -14.70    9.70
 -10  -1   4   12.70    9.30
  10   1  -4    7.10   11.40
  10   1  -4   13.40   17.30
 -10   1   4    8.80    9.00
   9  -1  -4    6.10    7.40
   9  -1  -4   -7.70    8.50
   9  -1  -4    2.50    8.70
   9  -1  -4   20.90   13.60
  -9  -1   4   -1.50    7.90
   9   1  -4    0.80   10.10
  -9   1   4   11.30    8.30
   9   1  -4   -3.90   15.10
   8  -1  -4    7.10   11.60
  -8  -1   4    5.60    7.70
   8  -1  -4    1.20    7.80
   8  -1  -4   -1.60    6.30
   8   1  -4   -3.00   14.00
  -8   1   4   13.60    7.90
   8   1  -4   -2.80    8.90
  -7  -1   4  613.84   23.30
   7  -1  -4  617.44   22.00
   7  -1  -4  593.84   30.10
   7  -1  -4  632.84   24.10
   7   1  -4  568.34   33.80
   7   1  -4  594.94   24.60
  -7   1   4  623.34   23.10
   6  -1  -4 1486.65   38.00
   6  -1  -4 1452.25   39.60
   6  -1  -4 1466.35   47.50
  -6  -1   4 1447.16   39.40
  -6   1   4 1441.06   38.90
   6   1  -4 1462.95   40.40
   6   1  -4 1444.16   50.59
   5  -1  -4  532.15   18.90
   5  -1  -4  547.05   25.50
  -5  -1   4  533.85   19.20
   5  -1  -4  537.75   17.60
   5  -1  -4  525.55   23.10
   5   1  -4  523.95   19.70
   5   1  -4  502.45   27.80
  -5   1   4  529.25   18.50
   4  -1  -4  218.18   11.10
   4  -1  -4  211.68   16.60
   4  -1  -4  207.28    9.50
   4  -1  -4  206.48   15.70
  -4  -1   4  212.08   11.20
   4   1  -4  215.18   17.50
  -4   1   4  229.68   10.80
   3  -1  -4  182.48    7.50
  -3  -1   4  159.88    9.00
   3  -1  -4  179.08   16.40
   3  -1  -4  174.18    9.00
   3  -1  -4  168.58   12.40
   3   1  -4  178.98    9.40
   3   1  -4  173.08   13.10
  -3   1   4  170.88    8.60
   2  -1  -4 2909.21   62.89
   2  -1  -4 2882.61   62.59
  -2  -1   4 3003.90   64.99
   2  -1  -4 3090.49   64.99
  -2   1   4 3023.60   64.69
   2   1  -4 3021.40   68.79
   2   1  -4 3004.80   65.29
   1  -1  -4  200.38    8.40
  -1  -1   4  170.98    7.90
  -1   1   4  186.08    8.10
   1   1  -4  177.88   10.20
   1   1  -4  182.98    8.20
   0  -1  -4  107.39    5.20
   0  -1  -4  119.99    7.20
   0  -1   4  121.19    7.00
   0   1   4  123.59    7.40
   0   1   4  131.59    7.70
   0   1  -4  133.69    7.10
   1  -1   4  369.06   12.40
  -1  -1  -4  374.16   13.20
   1  -1   4  332.97    9.90
   1  -1   4  321.77   10.40
   1   1   4  361.66   13.00
  -1   1  -4  346.37   12.40
   1   1   4  340.77   12.60
   2  -1   4  350.56   11.50
   2  -1   4  355.36   13.40
  -2  -1  -4  344.17   14.10
   2   1   4  363.16   14.10
  -2   1  -4  347.17   13.70
   2   1   4  334.57   13.40
   3  -1   4  135.29   10.10
  -3  -1  -4  128.89   10.80
   3  -1   4  110.99    8.50
  -3   1  -4  124.59   10.40
   3   1   4  112.39    9.80
   3   1   4  108.79    9.50
   4  -1   4  274.57   14.60
   4  -1   4  252.97   13.10
  -4  -1  -4  265.27   16.20
   4   1   4  274.27   15.30
  -4   1  -4  260.97   15.30
   4   1   4  285.37   15.60
   5  -1   4  222.68   14.30
   5  -1   4  178.98   12.70
  -5  -1  -4  176.38   15.20
   5   1   4  213.68   15.20
  -5   1  -4  165.88   14.20
   5   1   4  221.58   15.30
   6  -1   4    1.00    6.40
   6  -1   4   -3.00    6.70
  -6  -1  -4   19.00    9.90
   6   1   4   -5.20    7.50
  -6   1  -4    5.80    8.60
   7  -1   4  106.29   12.90
   7  -1   4  106.49   11.80
  -7  -1  -4  102.99   14.60
   7   1   4   94.99   12.70
  -7   1  -4  100.59   14.30
   8  -1   4   -2.80   10.00
  -8  -1  -4   20.80   12.50
   8  -1   4   -2.00    8.50
  -8   1  -4   30.90   12.20
   8   1   4   16.40   10.20
  10  -2  -4  783.12   31.00
  10  -2  -4  791.42   39.80
 -10  -2   4  843.22   32.90
 -10  -2   4  830.12   31.60
  10  -2  -4  763.52   33.30
  10   2  -4  778.52   34.70
 -10   2   4  786.92   31.40
  10   2  -4  767.12   46.60
  -9  -2   4  338.97   20.40
   9  -2  -4  318.97   18.90
   9  -2  -4  326.47   21.40
   9  -2  -4  336.87   25.40
   9   2  -4  300.87   31.70
  -9   2   4  338.17   19.90
   9   2  -4  289.67   22.10
   8  -2  -4   -1.20    8.30
   8  -2  -4   -1.70   10.10
   8  -2  -4   10.00    6.20
  -8  -2   4    7.40    7.70
   8   2  -4    6.30   16.00
  -8   2   4    5.00    7.50
   8   2  -4    1.50    8.80
   7  -2  -4  446.76   24.70
   7  -2  -4  487.75   19.60
   7  -2  -4  473.65   20.50
  -7  -2   4  468.45   20.60
   7  -2  -4  458.65   21.80
   7   2  -4  455.85   32.70
  -7   2   4  439.96   19.30
   7   2  -4  473.55   22.20
  -6  -2   4  868.21   27.10
   6  -2  -4  830.72   29.30
   6  -2  -4  819.42   25.40
   6  -2  -4  800.72   31.50
   6  -2  -4  822.02   28.20
   6  -2  -4  776.82   26.00
   6   2  -4  841.72   27.80
   6   2  -4  819.72   38.20
  -6   2   4  793.72   25.50
   5  -2  -4    2.10    5.20
   5  -2  -4    9.40    6.80
   5  -2  -4   16.20    8.80
  -5  -2   4    4.90    6.20
   5  -2  -4   12.10    5.10
   5  -2  -4   -2.80    7.90
  -5   2   4    1.00    5.20
   5   2  -4    0.30    6.00
   5   2  -4    3.70   12.80
   4  -2  -4  997.20   28.80
  -4  -2   4 1010.60   28.10
   4  -2  -4 1002.70   30.80
   4  -2  -4 1046.50   33.60
   4  -2  -4 1080.69   27.20
  -4   2   4 1014.30   27.00
   4   2  -4 1009.40   35.50
   3  -2  -4   80.89    6.30
   3  -2  -4   87.19    7.10
   3  -2  -4   89.59   11.30
  -3  -2   4   77.69    7.10
  -3  -2   4   72.59    5.20
   3  -2  -4   77.09    5.50
   3  -2  -4   73.09    5.70
   3  -2  -4   80.39    7.50
  -3   2   4   86.79    7.00
   3   2  -4   86.59   11.30
   3   2  -4   94.69    7.70
   2  -2  -4 1134.49   27.50
   2  -2  -4 1127.09   26.80
  -2  -2   4 1164.18   28.20
   2  -2  -4 1167.98   27.40
   2  -2  -4 1145.79   28.40
   2  -2  -4 1080.19   26.20
  -2  -2   4 1162.48   26.00
   2  -2  -4 1146.59   35.50
   2   2  -4 1170.48   28.60
  -2   2   4 1138.09   27.40
   2   2  -4 1116.99   32.70
   1  -2  -4 3654.23   78.89
  -1  -2   4 3618.34   78.89
  -1  -2   4 3709.03   79.39
   1  -2  -4 3563.14   86.29
   1  -2  -4 3636.44   78.29
  -1  -2   4 3864.41   78.39
   1  -2  -4 3751.22   78.39
  -1   2   4 3704.33   78.79
   1   2  -4 3649.14   84.19
   1   2  -4 3737.23   79.39
   0  -2   4  921.11   23.90
   0  -2   4  955.10   23.80
   0  -2  -4  936.61   23.50
   0  -2   4  940.81   23.30
   0  -2  -4  961.30   31.70
   0  -2  -4  970.80   24.40
   0   2  -4  954.20   24.30
   0   2   4 1012.60   26.40
   0   2   4  968.50   24.40
   1  -2   4   26.40    3.50
  -1  -2  -4   12.40    9.20
   1  -2   4   29.00    4.70
  -1  -2  -4   29.20    4.20
   1  -2   4   25.80    4.20
  -1  -2  -4   24.80    5.00
  -1   2  -4   29.80    5.00
   1   2   4   25.50    4.90
   1   2   4   20.50    5.00
   2  -2   4  793.22   20.90
  -2  -2  -4  784.62   23.10
  -2  -2  -4  751.22   28.70
   2  -2   4  763.12   21.80
   2  -2   4  771.62   21.00
   2   2   4  774.52   24.10
   2   2   4  770.72   22.50
  -2   2  -4  763.82   22.20
  -3  -2  -4  555.94   20.90
   3  -2   4  573.34   19.10
   3  -2   4  587.04   18.00
   3  -2   4  582.24   18.40
   3   2   4  548.55   20.00
  -3   2  -4  563.34   19.90
   3   2   4  606.44   21.90
   4  -2   4  137.29   11.20
  -4  -2  -4  111.89   11.70
   4  -2   4  114.29    9.50
   4  -2   4  123.99    9.70
   4   2   4  136.19   15.60
  -4   2  -4  136.09   11.80
   4   2   4  114.79   11.50
   4   2   4  122.09   11.30
   5  -2   4   84.69    9.00
   5  -2   4   90.89    9.20
   5  -2   4   93.59   10.30
  -5  -2  -4   97.39   12.20
  -5   2  -4   93.79   11.20
   5   2   4   94.59   15.50
   5   2   4   84.39   11.30
   5   2   4   87.29   11.00
   6  -2   4   92.09   11.30
  -6  -2  -4   75.49   12.50
   6  -2   4   96.39   10.60
   6   2   4  108.19   17.30
   6   2   4   87.79   12.10
   6   2   4   74.29   11.80
  -6   2  -4   88.69   12.30
  -7  -2  -4  401.96   24.30
   7  -2   4  312.77   18.70
  -7   2  -4  323.37   21.50
   7   2   4  341.07   21.60
  -8  -2  -4  225.78   20.90
   8  -2   4  256.67   18.90
   8   2   4  206.08   19.00
  -8   2  -4  222.08   20.40
  10  -3  -4   29.90   14.30
  10  -3  -4    6.70    9.90
 -10  -3   4    7.30    8.10
 -10  -3   4   42.90   10.90
  10  -3  -4   -5.40    8.00
 -10   3   4   32.80   10.00
  10   3  -4    8.00   12.30
  10   3  -4  -19.40   20.50
   9  -3  -4   74.89   11.20
   9  -3  -4  105.69   17.20
  -9  -3   4   97.59   13.10
   9  -3  -4   59.49   12.00
  -9  -3   4   76.59   11.30
   9   3  -4   86.89   25.00
  -9   3   4   91.69   12.80
   9   3  -4   99.19   15.60
   8  -3  -4  143.79   17.80
   8  -3  -4  162.18   13.50
  -8  -3   4  141.39   14.10
  -8  -3   4  122.09   12.30
   8  -3  -4  119.69   13.80
   8   3  -4  188.68   28.50
   8   3  -4  164.58   16.60
  -8   3   4  149.39   13.90
  -7  -3   4  533.25   21.70
   7  -3  -4  521.45   25.70
  -7  -3   4  549.35   22.60
   7  -3  -4  519.45   23.30
   7  -3  -4  523.15   21.30
  -7   3   4  506.85   21.00
   7   3  -4  506.75   36.20
   7   3  -4  504.85   23.70
   6  -3  -4  469.65   20.90
   6  -3  -4  463.05   22.50
  -6  -3   4  480.35   19.90
   6  -3  -4  465.65   23.80
   6  -3  -4  473.75   18.60
  -6  -3   4  438.66   19.10
   6   3  -4  446.56   32.50
   6   3  -4  465.95   21.30
  -6   3   4  463.25   18.60
   5  -3  -4   39.00   11.00
   5  -3  -4   33.50    6.70
  -5  -3   4   40.10    7.00
   5  -3  -4   59.19    7.20
   5  -3  -4   47.50    8.70
   5  -3  -4   47.70    9.50
  -5  -3   4   48.20    8.20
  -5   3   4   45.80    7.20
   5   3  -4   53.69   16.90
   5   3  -4   55.19    9.00
   4  -3  -4  102.89    8.50
  -4  -3   4  120.19   10.20
   4  -3  -4   93.49   10.00
   4  -3  -4  112.09    9.30
   4  -3  -4   86.69   12.30
  -4  -3   4   99.09    9.40
  -4  -3   4  104.79    8.00
   4   3  -4  113.79   16.70
   4   3  -4   94.19    9.50
   3  -3  -4   43.60   10.20
   3  -3  -4   43.60    5.30
   3  -3  -4   48.40    6.00
  -3  -3   4   50.19    5.10
  -3  -3   4   47.30    6.60
  -3  -3   4   39.80    6.10
   3  -3  -4   51.09    7.40
   3  -3  -4   41.50    5.40
   3   3  -4   52.29   11.30
   3   3  -4   48.40    7.20
   2  -3  -4  360.66   12.80
  -2  -3   4  404.26   13.80
   2  -3  -4  391.76   21.50
   2  -3  -4  417.36   13.90
  -2  -3   4  408.76   12.30
  -2  -3   4  392.06   14.80
   2  -3  -4  402.46   14.90
   2   3  -4  430.16   14.40
   2   3  -4  383.76   18.60
   1  -3  -4  189.68   16.70
  -1  -3   4  177.18    8.80
  -1  -3   4  189.48    7.90
  -1  -3   4  198.38    9.80
   1  -3  -4  190.98    9.20
  -1  -3   4  186.38    9.50
   1  -3  -4  186.38    9.50
   1   3  -4  179.08   13.20
   1   3  -4  204.28    9.20
   0  -3   4  640.34   19.80
   0  -3  -4  622.84   17.90
   0  -3  -4  623.04   26.30
   0  -3   4  648.24   18.50
   0  -3   4  622.04   17.30
   0  -3   4  659.23   19.10
   0  -3  -4  635.24   18.50
   0  -3  -4  642.64   20.00
   0   3   4  640.54   18.30
   0   3   4  622.64   21.00
   0   3  -4  643.64   18.10
   1  -3   4   15.00    4.30
  -1  -3  -4   14.30    4.10
  -1  -3  -4   11.10    5.10
  -1  -3  -4    9.00    8.90
   1  -3   4    8.40    4.20
   1  -3   4   18.80    4.80
  -1  -3  -4   14.10    4.60
   1  -3   4   13.50    3.90
   1  -3   4   11.20    3.70
  -1   3  -4   14.10    4.50
   1   3   4   14.60    5.10
   1   3   4   16.60    6.00
  -2  -3  -4  151.38   10.40
  -2  -3  -4  154.78   14.70
  -2  -3  -4  147.79   10.70
   2  -3   4  159.08    9.50
   2  -3   4  159.18    9.80
   2  -3   4  148.19    9.90
  -2  -3  -4  159.58   10.90
   2   3   4  150.38   10.90
  -2   3  -4  153.38    9.70
   2   3   4  175.88   13.00
  -3  -3  -4    9.60    6.80
   3  -3   4   13.20    5.00
  -3  -3  -4   15.90    6.20
   3  -3   4    9.50    5.40
   3  -3   4    1.10    4.80
  -3  -3  -4    7.50    5.60
  -3  -3  -4    1.20    8.30
   3   3   4   14.00    6.60
  -3   3  -4   12.00    5.90
   3   3   4    9.30    6.80
   4  -3   4   20.30    5.90
   4  -3   4   30.10    6.40
  -4  -3  -4   18.80    8.00
   4   3   4   20.40    8.00
   4   3   4   27.50    8.10
  -4   3  -4   14.70    6.90
   4   3   4   13.30   10.70
   5  -3   4  299.27   15.10
   5  -3   4  276.67   15.50
  -5  -3  -4  293.47   18.70
   5   3   4  276.37   17.40
   5   3   4  289.37   19.00
   5   3   4  288.17   21.90
  -5   3  -4  267.77   16.30
   6  -3   4   71.39    9.80
  -6  -3  -4   81.39   12.50
   6   3   4   92.39   12.90
  -6   3  -4   79.99   11.30
   6   3   4   80.29   13.20
   6   3   4  103.89   17.30
   7  -3   4   18.50    8.60
  -7  -3  -4   25.30   10.80
   7   3   4   -2.20    9.90
  -7   3  -4   34.20   10.40
   7   3   4   11.00   10.30
   7   3   4   43.20   15.80
  -9  -4   4    3.50    8.00
   9  -4  -4    5.20    7.50
   9  -4  -4   13.10   10.20
  -9   4   4   18.80    9.10
   9   4  -4   18.10   23.50
   9   4  -4    0.70   11.50
   8  -4  -4   46.20    8.90
   8  -4  -4   53.89   11.60
  -8  -4   4   39.50    9.30
  -8  -4   4   60.39   10.90
   8   4  -4   55.19   24.00
   8   4  -4   56.59   13.10
   7  -4  -4  284.47   16.70
  -7  -4   4  296.17   16.50
  -7  -4   4  287.47   17.40
   7  -4  -4  283.87   18.90
  -7  -4   4  303.97   17.90
   7   4  -4  292.57   32.90
   7   4  -4  313.67   20.40
   6  -4  -4    6.10    5.20
  -6  -4   4    9.50    7.00
   6  -4  -4   11.60    7.20
  -6  -4   4    0.20    6.00
   6  -4  -4   16.90    6.40
  -6  -4   4    9.90    5.60
   6   4  -4  -12.20    7.60
   6   4  -4   15.70   17.50
  -5  -4   4  342.37   17.20
   5  -4  -4  385.86   23.30
   5  -4  -4  339.07   18.40
  -5  -4   4  368.36   16.80
  -5  -4   4  381.06   15.80
   5  -4  -4  344.67   16.20
   5  -4  -4  331.97   16.00
   5   4  -4  361.26   28.80
   5   4  -4  338.37   18.10
   4  -4  -4  683.23   22.80
  -4  -4   4  688.23   21.50
  -4  -4   4  683.63   22.30
   4  -4  -4  712.73   22.80
   4  -4  -4  680.93   24.60
   4  -4  -4  679.03   22.30
   4  -4  -4  723.63   31.30
  -4  -4   4  676.43   23.60
   4   4  -4  667.93   32.50
   4   4  -4  704.13   23.60
   3  -4  -4 1192.78   32.40
   3  -4  -4 1212.98   32.50
  -3  -4   4 1223.58   31.90
   3  -4  -4 1260.87   41.60
   3  -4  -4 1214.38   34.20
  -3  -4   4 1228.78   34.00
   3  -4  -4 1229.38   32.90
  -3  -4   4 1315.77   31.90
   3   4  -4 1197.68   40.50
   3   4  -4 1200.08   32.00
   2  -4  -4    3.50    5.90
  -2  -4   4    3.90    4.70
  -2  -4   4    4.10    3.40
   2  -4  -4    6.30    4.30
   2  -4  -4    7.60    9.00
   2   4  -4   -1.60    8.70
   2   4  -4    2.60    3.60
  -1  -4   4  154.88    8.80
   1  -4  -4  146.59   10.70
   1  -4  -4  137.79   10.00
  -1  -4   4  146.89   10.40
   1  -4  -4  162.48   15.60
   1  -4  -4  168.68   12.40
   1   4  -4  150.78   14.50
   0  -4  -4    5.10    4.50
   0  -4  -4    1.50    5.40
   0  -4   4   12.90    5.30
   0  -4  -4    4.20    4.50
   0  -4   4    2.30    4.90
   0  -4   4   12.40    3.90
   0  -4  -4   17.30    9.30
   0  -4   4    9.00    4.70
   0   4  -4    4.70    7.70
   0   4   4    3.90    5.80
   1  -4   4  632.34   21.20
  -1  -4  -4  615.44   21.50
  -1  -4  -4  610.24   27.50
  -1  -4  -4  584.24   19.90
   1  -4   4  603.44   19.20
   1  -4   4  593.84   20.60
   1  -4   4  618.34   19.20
   1   4   4  564.64   22.40
   1   4   4  592.84   18.80
   2  -4   4  738.53   22.50
   2  -4   4  720.83   23.50
   2  -4   4  725.83   21.40
  -2  -4  -4  724.23   23.90
  -2  -4  -4  696.13   29.20
   2  -4   4  717.33   24.00
  -2  -4  -4  675.03   22.90
  -2  -4  -4  696.63   22.10
   2   4   4  703.43   22.40
   2   4   4  670.33   25.80
   3  -4   4   22.40    6.70
   3  -4   4    9.60    5.40
  -3  -4  -4   19.40    6.50
   3  -4   4   22.40    6.50
  -3  -4  -4   23.70    9.20
  -3  -4  -4   17.00    6.90
  -3  -4  -4    9.60    6.40
   3   4   4   20.00    7.70
   3   4   4   18.60    7.10
   4  -4   4  292.27   15.30
  -4  -4  -4  271.37   16.70
   4  -4   4  291.67   15.90
  -4  -4  -4  294.67   16.70
  -4   4  -4  300.77   14.90
   4   4   4  273.17   18.80
   4   4   4  299.47   17.10
   5  -4   4  670.23   24.70
  -5  -4  -4  500.85   30.90
   5  -4   4  674.73   24.90
  -5  -4  -4  678.03   26.20
   5   4   4  619.94   28.10
   5   4   4  648.24   26.30
   6  -4   4  234.38   19.40
   6  -4   4  254.17   17.00
  -6  -4  -4  253.57   18.60
   6   4   4  213.58   19.70
   6   4   4  225.58   18.60
  -6   4  -4  220.48   16.40
  -7  -4  -4   26.20   10.90
   7  -4   4   23.40    9.60
  -7   4  -4   22.70   10.20
   7   4   4   12.70   11.10
   7   4   4   19.50   11.10
   8  -5  -4   26.70    8.40
  -8  -5   4   26.80    9.60
  -8  -5   4   24.70    8.60
   8  -5  -4   26.90   10.90
   8  -5  -4   18.60    8.30
   8   5  -4   22.10   12.20
   8   5  -4   29.40   25.80
  -7  -5   4  273.57   17.20
   7  -5  -4  282.07   19.60
  -7  -5   4  255.67   18.00
   7  -5  -4  265.47   17.00
   7  -5  -4  220.08   16.20
   7   5  -4  289.67   35.10
   7   5  -4  260.37   20.20
   6  -5  -4 1161.48   36.00
  -6  -5   4 1157.58   35.30
  -6  -5   4 1159.98   37.10
   6  -5  -4 1134.89   37.80
   6  -5  -4 1191.08   36.50
   6   5  -4 1192.88   52.99
   6   5  -4 1269.77   37.70
   5  -5  -4  567.94   24.50
   5  -5  -4  589.64   23.20
  -5  -5   4  621.14   22.10
  -5  -5   4  627.34   24.40
   5  -5  -4  619.14   23.30
   5   5  -4  617.34   36.50
   5   5  -4  634.24   24.30
   4  -5  -4   79.69   10.60
   4  -5  -4   61.99    8.60
  -4  -5   4   68.79    8.10
  -4  -5   4   64.69    9.10
   4  -5  -4   63.59    8.40
   4  -5  -4   69.69    8.70
   4   5  -4   78.89   17.50
   4   5  -4   52.29    9.00
   4   5  -4   46.10    7.70
   3  -5  -4  259.87   14.90
   3  -5  -4  306.87   16.80
   3  -5  -4  293.97   22.10
   3  -5  -4  290.97   14.70
  -3  -5   4  305.97   13.50
  -3  -5   4  280.77   15.40
   3   5  -4  334.87   23.60
   3   5  -4  275.57   16.60
   2  -5  -4 1118.79   32.90
   2  -5  -4 1086.39   32.00
   2  -5  -4 1125.69   41.00
  -2  -5   4 1204.28   31.20
  -2  -5   4 1166.88   33.20
   2   5  -4 1114.19   39.30
   1  -5  -4   48.50    7.40
   1  -5  -4   53.89    8.60
  -1  -5   4   37.20    6.10
   1  -5  -4   46.30    7.90
  -1  -5   4   50.09    7.70
   1  -5  -4   43.30   11.70
   1   5  -4   48.30   12.40
  -1   5   4   56.29    9.60
   0  -5   4   56.49    8.40
   0  -5  -4   59.09   12.50
   0  -5   4   55.89    8.80
   0  -5  -4   55.59    8.00
   0  -5  -4   55.49    7.70
   0  -5  -4   44.10    8.50
   0  -5   4   61.79    6.90
   0  -5   4   66.39    8.50
   0   5   4   57.39    9.80
   0   5  -4   70.39   13.20
   1  -5   4  191.68   11.60
  -1  -5  -4  213.38   15.10
  -1  -5  -4  189.38   11.80
  -1  -5  -4  216.28   12.90
   1  -5   4  208.98   13.60
  -1  -5  -4  196.38   20.50
   1  -5   4  209.18   12.90
   1  -5   4  201.18   13.60
   1   5   4  196.38   14.90
  -1   5  -4  193.18   17.30
   2  -5   4  197.08   13.90
  -2  -5  -4  230.88   16.20
   2  -5   4  220.58   13.00
  -2  -5  -4  241.88   20.30
   2  -5   4  257.37   14.80
  -2  -5  -4  208.48   13.70
   2   5   4  212.68   16.20
   3  -5   4  406.26   18.20
   3  -5   4  411.06   19.60
  -3  -5  -4  391.46   18.70
   3  -5   4  368.46   17.20
  -3  -5  -4  430.56   20.80
   3  -5   4  415.16   19.20
   3   5   4  398.06   18.60
   3   5   4  390.66   21.00
   4  -5   4  330.37   18.70
   4  -5   4  322.37   17.70
   4  -5   4  315.97   18.00
  -4  -5  -4  331.47   18.90
   4   5   4  291.37   20.80
   4   5   4  300.97   18.50
  -5  -5  -4   64.99   11.10
   5  -5   4   88.99   12.00
   5  -5   4   64.39   10.50
   5  -5   4   72.19   10.50
   5   5   4   55.09   11.90
   5   5   4   70.09   12.00
  -6  -5  -4   63.49   12.30
   6  -5   4   58.29   10.70
   6  -5   4   42.80   11.00
   6   5   4   50.59   12.00
   6   5   4   71.59   14.20
   7  -6  -4   62.79   10.60
   7  -6  -4   67.09   10.80
   7  -6  -4   90.29   14.10
  -7  -6   4   58.69   10.40
  -7  -6   4   46.00   10.80
   7   6  -4   65.79   13.50
   7   6  -4   87.19   28.30
   6  -6  -4  281.27   17.90
   6  -6  -4  248.18   19.10
  -6  -6   4  277.17   19.00
   6  -6  -4  262.07   17.70
  -6  -6   4  278.07   16.80
   6   6  -4  309.07   35.70
   6   6  -4  267.37   19.70
   5  -6  -4   19.60    7.80
  -5  -6   4   33.90    7.70
  -5  -6   4   26.80    8.40
   5  -6  -4   27.30    9.60
   5  -6  -4   27.20    8.00
   5  -6  -4   33.60    8.60
   5   6  -4   41.00   19.00
  -4  -6   4   77.19   10.50
   4  -6  -4  102.79   11.30
   4  -6  -4  115.09   13.30
  -4  -6   4  101.29   10.20
   4  -6  -4   88.09   11.10
   4   6  -4  101.69   19.90
  -3  -6   4   59.89    8.10
  -3  -6   4   45.80    8.80
   3  -6  -4   47.00    8.60
   3  -6  -4   56.39   10.10
   3   6  -4   41.60   14.10
   2  -6  -4  269.97   16.90
  -2  -6   4  270.57   14.30
   2  -6  -4  250.47   17.20
  -2  -6   4  291.17   16.70
   2  -6  -4  239.88   14.80
   2   6  -4  305.77   22.70
   1  -6  -4  570.54   22.30
   1  -6  -4  609.64   22.90
  -1  -6   4  588.64   23.00
  -1  -6   4  607.44   21.20
   1  -6  -4  569.84   24.20
  -1   6   4  555.74   24.60
   1   6  -4  604.24   28.40
   0  -6  -4  177.08   13.40
   0  -6   4  181.38   14.10
   0  -6   4  186.68   12.30
   0  -6  -4  155.28   14.20
   0  -6   4  182.48   14.00
   0  -6  -4  186.38   13.90
   0   6  -4  204.98   18.80
   0   6   4  180.98   16.20
  -1  -6  -4    2.20    5.80
   1  -6   4    0.10    6.00
  -1  -6  -4   -8.20    7.20
   1  -6   4   -3.80    6.30
   1  -6   4    3.80    6.00
   1  -6   4    1.60    5.10
  -1  -6  -4   -5.30    5.40
   1   6   4    4.10    7.20
  -1   6  -4   11.10   10.00
   2  -6   4  113.69   12.30
  -2  -6  -4  122.69   11.90
   2  -6   4  122.59   12.80
  -2  -6  -4  120.69   13.50
   2  -6   4  128.39   11.70
   2  -6   4  150.08   12.90
   2   6   4  126.49   14.20
   3  -6   4  149.49   13.60
  -3  -6  -4  142.49   14.50
   3  -6   4  175.18   15.10
   3  -6   4   97.59   14.00
  -3  -6  -4  132.09   13.10
   3   6   4  154.28   15.70
  -4  -6  -4    7.90    7.80
   4  -6   4   39.40    9.60
   4  -6   4   12.60    7.40
   4   6   4   15.30    9.30
   4   6   4   24.10   10.10
   5  -6   4   20.90    8.20
  -5  -6  -4   19.50    9.10
   5  -6   4   10.20    8.50
   5  -6   4   23.90    9.60
   5   6   4   19.60   10.60
   5   6   4   13.30   10.40
   6  -7  -4   57.59   12.00
  -6  -7   4   57.19   12.60
  -6  -7   4   63.99   10.10
   6  -7  -4   75.39   14.20
   6   7  -4   66.69   27.40
   5  -7  -4   20.40    9.00
   5  -7  -4   14.30    9.20
   5  -7  -4   24.30   10.00
  -5  -7   4    1.40    9.20
  -5  -7   4    7.60    6.30
   5   7  -4   60.29   22.90
  -4  -7   4   30.00    7.90
   4  -7  -4   30.20   10.40
  -4  -7   4   39.50   10.60
   4  -7  -4   24.90    9.00
   4  -7  -4   43.40    9.80
   4   7  -4   57.89   18.90
   3  -7  -4  129.89   13.60
   3  -7  -4  143.69   15.30
  -3  -7   4  109.89   13.10
  -3  -7   4  140.69   13.20
   3   7  -4  148.39   21.20
   2  -7  -4    0.10    6.10
  -2  -7   4    8.10    7.60
   2  -7  -4  -10.30    7.10
  -2  -7   4   -1.00    5.40
   2  -7  -4    1.20    8.10
  -2   7   4   -8.90    7.80
   2   7  -4    9.20   11.70
   1  -7  -4   77.19   11.70
  -1  -7   4   87.79   10.50
  -1  -7   4   63.89   10.60
   1  -7  -4   59.49    9.30
   1  -7  -4   64.99   11.40
  -1   7   4   62.99   12.20
   1   7  -4  105.69   17.30
   0  -7   4  317.17   19.30
   0  -7   4  381.26   17.80
   0  -7  -4  364.36   22.50
   0  -7  -4  328.77   18.70
   0  -7  -4  315.67   18.90
   0   7   4  314.17   21.10
   0   7  -4  395.06   25.00
   1  -7   4  109.79   11.50
   1  -7   4  101.49   12.30
   1  -7   4   93.59   12.70
   1  -7   4  113.99   13.70
  -1  -7  -4   90.29   11.50
  -1  -7  -4  104.89   13.80
   1   7   4   94.99   13.70
  -1   7  -4  134.19   18.70
   2  -7   4   41.10   10.50
   2  -7   4   13.10    8.50
   2  -7   4   35.30    8.40
   2  -7   4   11.80    8.10
  -2  -7  -4   26.40    8.90
  -2  -7  -4   20.70   10.90
   2   7   4   26.70   10.00
  -2   7  -4   38.60   13.30
   3  -7   4   44.00   10.70
   3  -7   4   45.60   10.60
  -3  -7  -4   51.89    9.90
  -3  -7  -4   26.70   11.60
   3   7   4   41.40   11.40
   4  -7   4   15.60    9.50
   4  -7   4    8.10    8.80
  -4  -7  -4   -1.20    7.10
   4   7   4   10.60   10.20
   4  -8  -4  100.79   15.40
  -4  -8   4   74.09   14.00
   4  -8  -4   97.89   14.60
  -4  -8   4   83.69   11.30
   4   8  -4   93.19   23.40
   3  -8  -4  226.98   19.90
   3  -8  -4  253.07   18.40
  -3  -8   4  247.68   17.10
  -3  -8   4  233.88   19.80
   3   8  -4  293.97   29.80
  -3   8   4  204.58   19.20
  -2  -8   4   24.50    9.90
  -2  -8   4   20.10    7.70
   2  -8  -4   40.40    9.90
   2  -8  -4   35.20   10.90
  -2   8   4   26.10   10.40
   2   8  -4   72.89   16.60
   1  -8  -4   -4.00    9.00
  -1  -8   4    8.80    6.60
  -1  -8   4  -15.30    7.80
   1  -8  -4    0.00    7.10
   1  -8  -4    6.30    9.60
  -1   8   4    3.70    9.20
   1   8  -4   41.80   14.00
   0  -8  -4    6.10    7.70
   0  -8  -4   -1.70    9.00
   0  -8   4   -4.70    7.50
   0  -8   4   10.30    6.60
   0  -8  -4  -11.10    8.70
   0   8   4   -4.80    8.00
   0   8  -4   34.00   12.00
   1  -8   4   55.59   12.10
  -1  -8  -4   50.59   10.40
  -1  -8  -4   28.00   12.20
   1  -8   4   56.09   11.10
   1  -8   4   51.29    9.80
  -1   8  -4  105.89   18.50
   1   8   4   65.99   12.90
  -2  -8  -4   51.49   10.70
   2  -8   4   35.70   10.10
  -2  -8  -4   62.19   14.10
   2  -8   4   65.09   12.60
   2  -8   4   50.09   10.20
   2  -8   4   48.40   11.90
   2   8   4   64.49   13.40
  -2   8  -4   74.79   17.20
  10   0  -5  322.17   23.80
  10   0  -5  324.47   20.30
  10   0  -5  284.87   30.00
 -10   0   5  337.47   21.60
  -9   0   5  226.38   17.60
   9   0  -5  233.58   19.10
   9   0  -5  208.78   25.30
   8   0  -5   62.29   17.60
  -8   0   5   77.69   11.20
   8   0  -5   72.09   11.80
  -7   0   5  584.64   22.50
   7   0  -5  551.14   31.90
   7   0  -5  549.95   23.40
   6   0  -5 4067.89   92.09
   6   0  -5 3986.70  101.89
  -6   0   5 4000.30   90.89
   5   0  -5  880.81   34.80
  -5   0   5  896.61   26.60
   4   0  -5  982.70   33.20
  -4   0   5  964.20   26.80
   4   0  -5  985.00   27.40
   3   0  -5  471.55   19.20
  -3   0   5  465.15   15.50
   3   0  -5  458.45   15.70
  -2   0   5  376.76   13.20
   2   0  -5  362.16   14.90
   2   0  -5  382.16   13.40
   1   0  -5  147.79    8.60
  -1   0   5  158.98    8.70
   1   0  -5  153.68    9.70
   0   0   5  307.47   10.70
   0   0  -5  322.17   12.50
   0   0   5  319.67   12.40
  -1   0  -5   50.79    6.30
   1   0   5   53.19    5.60
   1   0   5   60.09    6.70
  -2   0  -5 1389.16   37.70
   2   0   5 1453.95   37.10
   2   0   5 1490.55   36.20
   3   0   5  389.36   16.70
  -3   0  -5  423.26   18.20
   3   0   5  421.26   17.60
   4   0   5   28.20    7.90
  -4   0  -5   34.40    9.00
   4   0   5   28.30    7.30
   5   0   5  788.52   27.30
  -5   0  -5  708.83   28.40
  -6   0  -5  227.28   19.00
   6   0   5  261.67   16.60
   6   0   5  281.27   18.20
   7   0   5  -11.20    7.60
  -7   0  -5    8.30   10.60
   7   0   5    0.50    8.50
 -10  -1   5   72.89   13.00
  10  -1  -5   64.19   18.40
  10  -1  -5   23.40   11.70
  10  -1  -5   57.69   10.80
  10   1  -5   67.09   14.90
 -10   1   5   90.19   13.20
  10   1  -5   81.29   22.50
  -9  -1   5   95.09   13.20
   9  -1  -5   96.99   19.00
   9  -1  -5  101.69   14.00
   9  -1  -5  101.09   11.70
  -9   1   5  103.89   13.30
   9   1  -5  105.09   22.50
   9   1  -5  138.69   16.10
   8  -1  -5   -1.90   12.10
  -8  -1   5   -8.60    6.90
   8  -1  -5    1.10    6.50
   8  -1  -5  -13.60    7.60
   8   1  -5  -12.10   14.40
   8   1  -5    6.40    9.20
  -8   1   5    1.10    7.30
   7  -1  -5   90.19   10.80
  -7  -1   5   77.39   10.50
   7  -1  -5   69.59   16.30
   7  -1  -5   69.59    9.00
   7   1  -5   68.39   10.90
  -7   1   5   60.69    9.60
   7   1  -5   79.89   18.60
   6  -1  -5  201.98   19.50
   6  -1  -5  226.28   14.60
   6  -1  -5  207.78   21.50
  -6  -1   5  202.78   14.30
   6  -1  -5  225.18   12.80
   6   1  -5  222.58   23.50
  -6   1   5  221.78   13.70
   6   1  -5  211.28   15.10
  -5  -1   5  582.84   20.60
   5  -1  -5  612.64   18.50
   5  -1  -5  537.95   27.00
   5  -1  -5  562.74   27.00
  -5   1   5  536.45   19.70
   5   1  -5  560.04   29.50
   4  -1  -5   15.60    9.60
   4  -1  -5   12.00    3.90
   4  -1  -5    9.80   11.00
   4  -1  -5   17.10    5.60
  -4  -1   5    8.30    5.10
  -4   1   5   17.20    5.20
   4   1  -5    6.70    5.50
   4   1  -5    9.60    9.80
   3  -1  -5  183.98   13.00
   3  -1  -5  187.78   10.00
  -3  -1   5  196.68   10.10
   3  -1  -5  194.98    7.80
   3  -1  -5  183.98   19.20
   3   1  -5  193.28   10.60
   3   1  -5  180.88   13.90
  -3   1   5  190.28    9.80
   2  -1  -5  809.82   22.00
  -2  -1   5  811.72   21.80
   2   1  -5  782.02   22.10
  -2   1   5  800.72   21.80
   2   1  -5  794.62   25.30
  -1  -1   5  207.48    9.70
   1  -1  -5  210.98    9.90
  -1   1   5  208.78    9.90
   1   1  -5  210.98   10.00
   1   1  -5  218.08   12.30
   0  -1  -5    3.00    3.90
   0  -1   5    1.80    3.80
   0   1   5    0.50    4.00
   0   1  -5    1.80    3.80
   0   1   5    2.40    4.00
   1  -1   5   14.90    3.40
   1  -1   5   23.90    5.20
  -1  -1  -5   20.60    5.20
   1  -1   5   14.30    2.70
   1   1   5   26.80    5.40
  -1   1  -5   20.70    5.00
   1   1   5   31.50    5.70
   2  -1   5   47.40    5.80
   2  -1   5   58.29    5.40
  -2  -1  -5   59.79    7.90
   2  -1   5   55.79    7.20
   2   1   5   54.39    7.70
   2   1   5   61.59    7.60
  -2   1  -5   49.50    7.00
   3  -1   5   74.19    8.60
   3  -1   5   78.69    7.10
  -3  -1  -5   83.19   10.20
  -3   1  -5   65.09    8.90
   3   1   5   85.59    9.40
   3   1   5   80.69    9.10
  -4  -1  -5  178.78   15.10
   4  -1   5  191.08   13.60
   4  -1   5  205.48   12.10
   4   1   5  214.48   14.60
   4   1   5  187.88   14.20
  -4   1  -5  187.38   14.40
   5  -1   5  116.59   11.60
   5  -1   5   95.29    9.90
  -5  -1  -5  113.59   13.30
   5   1   5  104.99   12.10
   5   1   5   95.89   11.60
  -5   1  -5   89.99   12.00
  -6  -1  -5   55.49   11.80
   6  -1   5   36.00    8.40
   6  -1   5   49.70   10.00
  -6   1  -5   40.10   10.70
   6   1   5   49.70   10.40
   7  -1   5    5.30    8.60
   7  -1   5   -0.40    7.50
  -7  -1  -5    8.50   10.90
  -7   1  -5   18.90   10.30
   7   1   5    1.80    8.80
  10  -2  -5   -4.10    7.40
 -10  -2   5   13.30    9.30
  10  -2  -5   11.10   10.50
  10  -2  -5    0.70   12.80
  10   2  -5   -1.00   19.90
  10   2  -5  -14.60   11.30
 -10   2   5    9.70    9.60
   9  -2  -5  276.87   24.10
  -9  -2   5  322.67   20.00
   9  -2  -5  340.77   18.90
   9  -2  -5  315.27   21.70
   9   2  -5  299.27   22.50
   9   2  -5  323.07   33.80
  -9   2   5  346.47   19.90
   8  -2  -5  234.18   18.70
   8  -2  -5  239.88   21.20
   8  -2  -5  225.08   15.20
  -8  -2   5  244.78   17.00
   8   2  -5  264.27   20.00
  -8   2   5  257.07   16.60
   8   2  -5  225.28   28.30
   7  -2  -5  118.29   11.90
   7  -2  -5  111.39   15.70
   7  -2  -5  124.09   10.70
   7  -2  -5  115.59   13.00
   7  -2  -5  119.79   13.30
  -7  -2   5  149.29   13.30
   7   2  -5  127.39   21.70
   7   2  -5  111.09   12.80
  -7   2   5  123.39   11.70
   6  -2  -5  122.29   12.70
   6  -2  -5  115.99   10.80
   6  -2  -5  122.79   14.60
   6  -2  -5  133.29   10.40
  -6  -2   5  126.99   11.80
   6  -2  -5  116.79   15.40
   6   2  -5  125.59   20.50
   6   2  -5  108.59   12.20
  -6   2   5  131.89   11.20
   5  -2  -5  433.36   19.30
  -5  -2   5  449.36   18.30
   5  -2  -5  435.96   22.20
   5  -2  -5  429.36   16.20
   5  -2  -5  438.96   24.30
  -5   2   5  445.66   17.40
   5   2  -5  411.46   27.20
   4  -2  -5  609.74   18.00
  -4  -2   5  610.54   20.00
   4  -2  -5  587.64   27.50
   4  -2  -5  569.74   22.90
   4  -2  -5  591.24   19.20
   4  -2  -5  585.74   20.90
   4   2  -5  552.54   27.00
   4   2  -5  594.64   20.50
  -4   2   5  579.04   18.90
   3  -2  -5 1731.23   39.90
  -3  -2   5 1833.72   42.30
   3  -2  -5 1714.33   41.40
   3  -2  -5 1806.42   42.70
   3  -2  -5 1816.92   40.50
   3  -2  -5 1620.34   38.80
   3  -2  -5 1731.53   50.19
  -3   2   5 1777.02   41.40
   3   2  -5 1722.53   48.10
   3   2  -5 1761.02   42.70
   2  -2  -5  302.97   10.40
  -2  -2   5  297.87   12.20
   2  -2  -5  304.07   11.80
   2  -2  -5  303.47   12.00
   2  -2  -5  306.77   21.20
   2   2  -5  301.37   15.90
  -2   2   5  292.87   12.00
   2   2  -5  284.07   12.00
  -1  -2   5 2702.13   59.49
  -1  -2   5 2698.23   59.79
   1  -2  -5 2630.64   58.19
   1  -2  -5 2589.14   68.29
   1  -2  -5 2736.53   59.99
  -1  -2   5 2754.42   58.29
   1   2  -5 2646.84   65.39
   1   2  -5 2670.13   60.19
  -1   2   5 2688.63   59.89
   0  -2   5 1929.41   43.70
   0  -2  -5 1902.61   43.30
   0  -2   5 1892.41   44.70
   0  -2  -5 1968.60   45.30
   0  -2   5 1880.81   43.30
   0  -2  -5 1907.51   53.89
   0   2   5 1896.81   45.10
   0   2   5 2006.60   47.10
   0   2  -5 1907.61   45.20
   1  -2   5    0.40    2.80
  -1  -2  -5   -9.40    4.10
   1  -2   5    1.00    4.50
  -1  -2  -5    0.50    3.50
  -1  -2  -5   -7.00   11.00
   1   2   5   -6.20    4.70
  -1   2  -5   -1.90    4.30
   1   2   5    0.30    4.80
  -2  -2  -5  387.66   25.80
   2  -2   5  389.16   13.40
   2  -2   5  405.76   13.90
  -2  -2  -5  393.36   16.70
   2  -2   5  382.56   15.40
  -2  -2  -5  401.36   14.90
   2   2   5  394.76   17.20
   2   2   5  370.46   16.00
  -2   2  -5  335.17   15.00
  -3  -2  -5  374.46   25.00
   3  -2   5  413.36   17.00
  -3  -2  -5  389.46   18.10
   3  -2   5  400.96   15.00
   3   2   5  394.36   17.40
  -3   2  -5  357.46   16.90
   3   2   5  440.56   19.40
   4  -2   5   35.60    6.60
  -4  -2  -5   34.20    9.00
   4  -2   5   33.20    7.40
   4   2   5   47.60    9.00
  -4   2  -5   40.50    8.50
   4   2   5   23.70    7.80
  -5  -2  -5  192.18   16.60
   5  -2   5  203.58   14.60
   5  -2   5  194.68   13.30
   5   2   5  147.09   14.10
   5   2   5  171.08   16.10
  -5   2  -5  176.18   14.80
  -6  -2  -5   39.40   11.70
   6  -2   5   43.70    8.60
   6   2   5   43.40   11.00
   6   2   5   34.20   10.50
  -6   2  -5   36.30    9.90
  -7  -2  -5   64.09   14.10
   7  -2   5  103.19   12.20
   7   2   5  116.49   14.80
  -7   2  -5   93.29   14.40
  10  -3  -5  143.99   20.80
 -10  -3   5  101.79   13.50
 -10  -3   5  156.58   16.50
  10   3  -5  109.09   17.80
  10   3  -5  119.69   28.30
 -10   3   5  130.49   14.60
   9  -3  -5   31.60   11.90
  -9  -3   5   49.70   10.80
   9  -3  -5   33.30    8.80
  -9  -3   5   29.30    8.50
   9  -3  -5   29.40   10.30
   9   3  -5   31.60   22.60
   9   3  -5   36.30   13.20
  -9   3   5   28.60   10.10
   8  -3  -5   92.19   10.70
  -8  -3   5   94.49   11.00
   8  -3  -5   93.79   13.00
  -8  -3   5  116.09   13.20
   8  -3  -5   79.99   14.40
   8   3  -5  104.49   14.80
   8   3  -5  118.99   25.00
  -8   3   5  131.09   13.10
  -7  -3   5   11.20    7.30
   7  -3  -5    9.50    5.90
  -7  -3   5    7.90    6.30
   7  -3  -5   17.70    9.40
   7  -3  -5   14.00    9.70
   7  -3  -5    2.90    7.20
   7   3  -5   -8.60    8.60
  -7   3   5   11.80    7.80
   7   3  -5   14.80   16.90
  -6  -3   5  393.46   18.40
   6  -3  -5  344.07   19.40
  -6  -3   5  379.46   17.70
   6  -3  -5  406.86   16.90
   6  -3  -5  357.86   18.80
   6  -3  -5  389.76   23.50
   6   3  -5  331.97   29.00
   6   3  -5  351.56   19.70
  -6   3   5  376.66   17.00
   5  -3  -5   35.90    6.80
  -5  -3   5   22.40    6.40
  -5  -3   5   34.40    5.70
   5  -3  -5   31.50    8.20
   5  -3  -5   28.80    5.50
   5  -3  -5   32.30   11.30
   5  -3  -5   21.00    8.00
  -5  -3   5   43.00    8.50
  -5   3   5   25.60    7.20
   5   3  -5   41.90   15.30
   5   3  -5   40.20    8.70
   4  -3  -5    3.10    5.20
   4  -3  -5    3.50    3.90
   4  -3  -5    1.50    6.60
   4  -3  -5  -11.20    9.50
  -4  -3   5   -0.70    5.80
   4  -3  -5    0.90    4.30
  -4  -3   5   -0.20    4.60
  -4  -3   5    0.20    3.40
  -4   3   5   13.30    5.70
   4   3  -5    5.80   11.10
  -3  -3   5  594.14   19.30
   3  -3  -5  544.75   17.90
  -3  -3   5  585.94   20.00
   3  -3  -5  582.04   20.30
   3  -3  -5  606.44   18.60
   3  -3  -5  528.95   17.00
   3  -3  -5  591.34   28.80
   3  -3  -5  575.64   17.90
  -3  -3   5  571.34   16.40
   3   3  -5  630.24   20.10
   3   3  -5  586.34   25.70
  -3   3   5  554.14   17.70
  -2  -3   5 1462.25   35.00
   2  -3  -5 1591.74   38.20
  -2  -3   5 1567.64   38.80
   2  -3  -5 1534.25   37.10
  -2  -3   5 1532.05   37.40
   2  -3  -5 1507.75   36.60
   2  -3  -5 1555.84   47.40
  -2   3   5 1564.14   36.90
   2   3  -5 1475.65   43.80
   2   3  -5 1589.24   38.10
   1  -3  -5  257.07   11.00
   1  -3  -5  242.48   10.90
   1  -3  -5  249.97   21.60
  -1  -3   5  245.88    9.10
  -1  -3   5  259.17   11.40
  -1  -3   5  260.07   11.80
  -1  -3   5  251.47   11.40
   1  -3  -5  226.68   10.80
   1   3  -5  216.08   16.00
  -1   3   5  249.97   11.60
   1   3  -5  258.37   11.60
   0  -3  -5   67.69   13.40
   0  -3  -5   80.49    7.30
   0  -3   5   78.79    6.80
   0  -3   5   70.29    6.80
   0  -3   5   74.19    6.10
   0  -3   5   71.99    6.90
   0  -3  -5   59.29    6.20
   0   3  -5   72.79    7.40
   0   3   5   59.49    7.10
   0   3  -5   65.89   11.10
   0   3   5   69.49    8.80
   1  -3   5  157.48   10.40
  -1  -3  -5  162.18   10.20
   1  -3   5  180.98   11.00
   1  -3   5  154.98   10.20
   1  -3   5  154.78    9.00
  -1  -3  -5  170.08   10.10
  -1  -3  -5  166.18   16.70
  -1   3  -5  148.99   10.20
   1   3   5  169.88   11.00
   1   3   5  140.69   12.50
  -2  -3  -5   84.89    8.50
   2  -3   5   76.99    7.10
   2  -3   5   82.89    8.40
  -2  -3  -5   83.59   14.00
  -2  -3  -5   88.49    9.30
   2  -3   5   73.89    7.70
   2   3   5   77.99    9.00
   2   3   5   77.09   10.20
  -2   3  -5   80.89    8.50
   3  -3   5    3.10    4.50
  -3  -3  -5   -4.60    9.60
  -3  -3  -5    7.90    6.50
   3  -3   5    5.40    5.60
  -3  -3  -5    7.40    6.00
   3  -3   5   -3.00    4.40
   3   3   5   -0.80    6.20
   3   3   5   -4.10    6.70
  -3   3  -5    3.00    5.80
   4  -3   5    0.40    5.10
  -4  -3  -5   -9.40    6.10
  -4  -3  -5    5.30    7.60
   4  -3   5    0.60    5.00
   4   3   5   -4.60    7.20
   4   3   5   -1.80    7.10
  -4   3  -5   -5.50    6.20
   5  -3   5   49.80    8.00
  -5  -3  -5   64.89   11.40
   5   3   5   49.40   11.40
  -5   3  -5   45.70    9.70
   5   3   5   53.09   10.40
  -6  -3  -5  135.59   15.80
   6  -3   5  138.69   12.80
   6   3   5  163.08   15.70
   6   3   5  138.89   16.10
  -6   3  -5  132.99   13.90
  -7  -3  -5   38.10   12.50
   7  -3   5   44.00    9.70
   7   3   5   19.90   11.70
  -7   3  -5   22.80   10.70
   7   3   5   49.20   12.40
  -9  -4   5   69.79   11.40
   9  -4  -5   80.89   14.00
   9  -4  -5   74.59   11.20
  -9  -4   5   78.39   12.20
   9   4  -5   58.79   27.80
  -9   4   5   81.09   12.30
   9   4  -5   85.79   16.10
  -8  -4   5   27.30    9.40
  -8  -4   5   31.80    9.00
  -8  -4   5   35.70    8.60
   8  -4  -5   26.70   10.10
   8  -4  -5   41.50    8.90
  -8   4   5   27.70    8.90
   8   4  -5   29.30   22.40
   8   4  -5   39.20   12.80
   7  -4  -5  279.07   16.60
  -7  -4   5  264.37   17.60
   7  -4  -5  265.67   18.60
  -7  -4   5  314.57   16.40
  -7  -4   5  300.77   17.60
   7   4  -5  303.37   21.00
  -7   4   5  284.97   16.40
   7   4  -5  316.17   34.20
   6  -4  -5 2003.70   54.69
  -6  -4   5 2077.49   51.09
   6  -4  -5 2017.40   52.09
  -6  -4   5 2070.39   52.49
   6  -4  -5 2026.40   59.99
   6  -4  -5 1984.60   51.59
  -6  -4   5 1977.80   53.69
   6   4  -5 1980.10   67.39
   6   4  -5 2141.69   54.69
   5  -4  -5  476.45   21.10
   5  -4  -5  433.36   17.70
  -5  -4   5  476.65   17.40
  -5  -4   5  407.96   18.60
   5  -4  -5  468.85   18.60
   5  -4  -5  427.66   26.20
  -5  -4   5  485.65   20.30
   5   4  -5  485.45   21.10
   5   4  -5  411.46   29.20
  -4  -4   5  333.87   13.60
   4  -4  -5  340.17   24.00
   4  -4  -5  342.77   15.70
   4  -4  -5  327.57   17.80
   4  -4  -5  343.97   14.90
   4  -4  -5  355.26   15.70
  -4  -4   5  336.07   15.80
  -4  -4   5  360.36   16.90
   4   4  -5  325.17   24.10
   3  -4  -5  126.69   15.50
  -3  -4   5  131.49   10.80
  -3  -4   5  125.49   10.70
   3  -4  -5  135.79   10.30
   3  -4  -5  148.49   12.00
  -3  -4   5  126.09    8.10
   3  -4  -5  115.69    9.60
   3   4  -5  144.19   17.40
   3   4  -5  135.89   11.10
   2  -4  -5  154.38   10.30
   2  -4  -5  140.09   16.40
   2  -4  -5  160.78   12.10
  -2  -4   5  140.09    8.60
  -2  -4   5  152.78   11.50
  -2  -4   5  133.69   10.30
   2   4  -5  137.19   15.70
   1  -4  -5   40.70    6.60
   1  -4  -5   48.10    7.00
   1  -4  -5   32.40   11.70
  -1  -4   5   51.19    7.00
  -1  -4   5   42.90    5.10
  -1   4   5   46.20    8.80
   1   4  -5   36.70   11.20
   0  -4  -5   41.50    6.70
   0  -4   5   33.30    6.00
   0  -4  -5   30.40   12.10
   0  -4   5   33.80    5.20
   0  -4   5   37.70    6.80
   0   4   5   46.90    8.50
   0   4  -5   37.40   10.50
   1  -4   5   63.29    7.10
  -1  -4  -5   57.79    7.70
   1  -4   5   65.89    7.90
  -1  -4  -5   49.00    7.20
  -1  -4  -5   62.89    9.00
   1  -4   5   62.39    8.40
  -1  -4  -5   50.89   13.10
   1   4   5   57.79    8.00
   1   4   5   50.49    9.00
  -2  -4  -5  636.14   23.10
  -2  -4  -5  722.23   24.10
  -2  -4  -5  699.43   30.70
  -2  -4  -5  699.73   23.30
   2  -4   5  706.33   22.10
   2  -4   5  693.03   23.40
   2  -4   5  717.23   24.30
   2  -4   5  666.43   20.60
   2   4   5  636.74   22.70
   2   4   5  657.13   26.20
   3  -4   5  231.78   13.80
   3  -4   5  220.68   14.50
  -3  -4  -5  246.38   19.90
  -3  -4  -5  220.88   14.40
  -3  -4  -5  187.38   18.70
  -3  -4  -5  185.68   17.10
   3  -4   5  228.78   13.60
   3   4   5  217.28   16.70
   3   4   5  176.88   14.60
  -4  -4  -5   15.50    8.10
   4  -4   5    5.80    5.80
   4  -4   5   10.00    6.30
   4   4   5    7.40    8.20
   4   4   5   13.50    9.20
  -4   4  -5   13.70    7.20
   5  -4   5  422.06   19.40
  -5  -4  -5  350.76   20.10
   5   4   5  381.26   21.50
  -5   4  -5  340.77   18.50
   5   4   5  349.17   22.70
  -6  -4  -5  169.88   15.90
   6  -4   5  177.48   14.80
   6   4   5  165.68   17.00
   6   4   5  142.89   17.10
  -6   4  -5  158.88   14.60
  -8  -5   5   51.99   10.30
  -8  -5   5   57.79   11.20
   8  -5  -5   65.29   10.50
   8  -5  -5   61.59   10.20
   8  -5  -5   55.69   12.90
   8   5  -5   63.09   27.60
   7  -5  -5  156.18   16.20
  -7  -5   5  158.98   13.90
   7  -5  -5  139.39   13.30
   7  -5  -5  143.39   13.10
  -7  -5   5  134.29   13.80
   7   5  -5  186.48   17.60
   7   5  -5  185.38   30.60
  -6  -5   5   39.20    9.00
   6  -5  -5   45.40    8.10
   6  -5  -5   36.00    9.90
   6  -5  -5   38.20    8.30
  -6  -5   5   34.80    7.60
   6   5  -5   45.70   20.00
   6   5  -5   38.10   10.90
  -5  -5   5  694.03   26.50
   5  -5  -5  694.33   25.30
   5  -5  -5  694.53   27.00
   5  -5  -5  680.53   24.90
   5  -5  -5  689.33   33.20
  -5  -5   5  688.63   23.50
   5   5  -5  695.33   37.70
   5   5  -5  782.12   27.20
   4  -5  -5  112.19   16.20
  -4  -5   5  102.09    9.00
  -4  -5   5  124.79   11.70
   4  -5  -5  111.49   10.60
   4  -5  -5  131.29   13.00
   4  -5  -5  131.59   11.70
   4   5  -5  132.49   12.30
   4   5  -5  109.99   18.80
  -3  -5   5   39.40    6.00
  -3  -5   5   32.90    7.30
   3  -5  -5   30.20    6.70
   3  -5  -5   42.40   12.00
   3  -5  -5   26.80    8.30
   3   5  -5   29.50   13.00
   2  -5  -5    7.80    9.80
   2  -5  -5   22.00    7.30
  -2  -5   5   14.70    6.40
   2  -5  -5   20.90    5.90
  -2  -5   5   17.10    4.90
   2   5  -5    8.50   10.40
   1  -5  -5    0.10   10.10
   1  -5  -5   -2.20    4.80
   1  -5  -5    6.50    6.00
  -1  -5   5    7.90    4.20
  -1  -5   5    3.00    5.60
   1   5  -5    7.60    9.70
  -1   5   5    2.90    7.30
   0  -5  -5   94.19    9.60
   0  -5   5   94.19    9.40
   0  -5  -5   71.89   10.20
   0  -5   5   83.19    9.90
   0  -5  -5   92.19    8.70
   0  -5  -5   85.69   14.90
   0  -5   5   74.89    7.80
   0   5  -5   85.49   13.90
   0   5   5   70.39   10.60
   1  -5   5  152.78   12.80
   1  -5   5  132.49   12.30
  -1  -5  -5  118.99   12.00
  -1  -5  -5  150.48   17.20
  -1  -5  -5  136.99   11.60
   1  -5   5  162.88   11.10
   1  -5   5  166.88   12.00
  -1   5  -5  158.58   17.30
   1   5   5  143.09   13.50
   2  -5   5   -2.50    5.20
   2  -5   5   -1.70    5.90
  -2  -5  -5    7.70   10.60
  -2  -5  -5    1.40    6.20
  -2  -5  -5  -12.60    7.00
   2  -5   5    3.60    5.90
   2   5   5   -8.80    6.80
   2   5   5    4.60    6.80
   3  -5   5  197.68   15.40
  -3  -5  -5  203.38   15.00
   3  -5   5  192.08   14.90
  -3  -5  -5  208.98   21.00
  -3  -5  -5  176.68   15.90
   3   5   5  221.38   15.90
   3   5   5  151.78   15.50
   4  -5   5  315.47   18.00
  -4  -5  -5  288.87   18.60
   4  -5   5  311.47   17.50
   4  -5   5  284.67   18.70
   4   5   5  276.77   18.90
   4   5   5  289.37   21.20
   5  -5   5   52.49   10.10
  -5  -5  -5   75.89   12.20
   5  -5   5   80.49   11.40
   5  -5   5   66.89   10.50
   5   5   5   48.00   12.50
   5   5   5   70.89   12.70
   6  -5   5    6.70    8.00
  -6  -5  -5   -4.30    9.20
   6  -5   5    0.10    7.90
   6   5   5   -3.90   10.90
   6   5   5    2.60   10.60
   7  -6  -5   28.70   11.00
   7  -6  -5    3.70    7.50
  -7  -6   5    4.10    7.30
   7  -6  -5   26.40    8.50
  -7  -6   5   -3.50    8.20
   7   6  -5   -2.50   11.10
   7   6  -5  -10.10   23.70
  -6  -6   5   90.49   10.20
   6  -6  -5  112.39   14.50
   6  -6  -5  106.39   12.80
   6  -6  -5   89.49   11.30
  -6  -6   5   96.89   12.80
   6   6  -5  104.99   25.00
   6   6  -5   87.69   13.00
   5  -6  -5  175.78   16.30
   5  -6  -5  118.59   13.10
   5  -6  -5  138.49   13.40
  -5  -6   5  101.99   10.40
  -5  -6   5  107.69   13.10
   5   6  -5  140.59   24.30
   4  -6  -5  101.29   11.40
   4  -6  -5   81.79   12.10
  -4  -6   5  119.19   13.00
   4  -6  -5  100.89   11.10
  -4  -6   5   98.29   10.00
   4   6  -5  122.09   20.50
  -3  -6   5  375.16   16.50
   3  -6  -5  354.26   18.20
   3  -6  -5  380.06   19.70
  -3  -6   5  351.06   19.20
   3   6  -5  409.06   27.40
  -2  -6   5   39.80    8.90
   2  -6  -5   43.00   12.80
  -2  -6   5   37.90    6.70
   2  -6  -5   37.60    8.20
   2  -6  -5   48.20    9.90
  -2   6   5   33.10    9.70
   2   6  -5   52.79   14.70
   1  -6  -5  538.95   30.80
  -1  -6   5  517.95   19.30
  -1  -6   5  554.64   22.00
   1  -6  -5  503.75   21.20
   1  -6  -5  484.15   20.70
   1   6  -5  513.95   27.80
  -1   6   5  465.05   23.40
   0  -6  -5  423.26   19.60
   0  -6  -5  428.36   18.80
   0  -6   5  448.86   20.10
   0  -6  -5  454.95   23.20
   0  -6   5  436.96   18.00
   0  -6   5  432.16   20.60
   0  -6  -5  510.65   29.70
   0   6  -5  435.66   26.50
   0   6   5  432.86   23.20
   1  -6   5   21.90    8.30
  -1  -6  -5   10.90    6.60
  -1  -6  -5    8.60    8.90
   1  -6   5   23.00    8.50
   1  -6   5   20.20    6.30
   1  -6   5   12.50    6.90
   1   6   5   21.70    8.90
  -1   6  -5   12.80   11.30
  -2  -6  -5   57.09    9.60
   2  -6   5   25.50    9.00
   2  -6   5   25.60    7.50
  -2  -6  -5   27.60   10.50
   2  -6   5   43.20    9.30
   2   6   5   31.20    9.80
   3  -6   5   52.19   10.10
   3  -6   5   66.99   10.80
  -3  -6  -5   51.69   10.00
  -3  -6  -5   38.00   11.90
   3   6   5   70.79   12.10
  -4  -6  -5    2.60    7.90
   4  -6   5   -1.50    7.20
   4  -6   5    0.20    7.60
   4   6   5   -5.70    8.90
   4   6   5    1.80    9.50
   5  -6   5   43.10    9.60
  -5  -6  -5   21.80    9.90
   5  -6   5   39.50   10.50
   5  -6   5   20.40    9.90
   5   6   5   19.10   11.50
   5   6   5   23.10   11.50
  -6  -7   5  205.38   15.60
   6  -7  -5  159.48   18.00
   6  -7  -5  196.98   17.50
  -6  -7   5  205.68   18.70
   6   7  -5  193.78   32.20
   5  -7  -5    0.90    7.90
  -5  -7   5    7.70    6.50
  -5  -7   5   -0.20    8.80
   5  -7  -5    6.40    8.10
   5  -7  -5   28.80   10.60
   5   7  -5   21.60   19.20
   4  -7  -5    5.40    9.40
   4  -7  -5    7.20    8.20
  -4  -7   5    2.40    8.30
  -4  -7   5   12.50    6.30
   4   7  -5   26.30   17.30
  -3  -7   5  304.67   16.70
  -3  -7   5  334.57   20.70
   3  -7  -5  277.17   19.90
   3  -7  -5  298.57   18.50
   3   7  -5  373.06   28.40
   2  -7  -5  793.12   29.70
   2  -7  -5  833.22   30.60
  -2  -7   5  858.71   28.10
  -2  -7   5  870.61   31.50
  -2   7   5  784.02   32.70
   2   7  -5  916.21   39.60
  -1  -7   5  114.89   13.10
   1  -7  -5  113.19   12.50
  -1  -7   5  135.79   12.00
   1  -7  -5  123.29   14.40
   1  -7  -5  137.89   14.10
   1   7  -5  159.28   19.90
  -1   7   5  154.48   16.50
   0  -7   5  120.99   11.60
   0  -7  -5   99.89   13.80
   0  -7  -5   97.09   12.40
   0  -7   5  108.79   12.60
   0   7   5   97.39   14.50
   0   7  -5  178.78   21.20
  -1  -7  -5  246.68   17.20
   1  -7   5  251.37   18.30
   1  -7   5  266.17   16.20
   1  -7   5  266.17   17.60
  -1  -7  -5  253.97   21.40
   1   7   5  240.38   19.90
  -1   7  -5  268.17   23.90
   2  -7   5   35.50   10.40
  -2  -7  -5   15.10   11.20
  -2  -7  -5   37.20    9.10
   2  -7   5   27.20   12.20
   2  -7   5   49.20   11.20
   2   7   5   40.90   11.30
  -2   7  -5   53.49   15.60
   3  -7   5   33.60   10.80
  -3  -7  -5   25.20   13.50
   3  -7   5   21.40   10.10
  -3  -7  -5   22.50    8.40
   3   7   5   29.40   11.60
  -3   7  -5   40.40   15.00
  -4  -8   5   13.00    8.30
   4  -8  -5   24.00   11.40
  -4  -8   5   24.80   10.70
   4  -8  -5   23.40   10.40
   4   8  -5   48.10   20.60
   3  -8  -5   10.60    7.80
   3  -8  -5    0.50   10.20
  -3  -8   5   17.20    7.40
  -3  -8   5   -9.70    9.00
   3   8  -5   42.80   17.00
  -3   8   5    4.10   10.10
   2  -8  -5   33.10   10.50
  -2  -8   5   25.80    7.80
   2  -8  -5   41.10    9.80
  -2  -8   5   38.60   10.80
   2   8  -5   57.79   17.10
  -2   8   5   33.30   11.90
  -1  -8   5   -4.80    8.50
   1  -8  -5   13.70    9.60
   1  -8  -5    3.10    7.40
  -1  -8   5   10.70    7.00
   1   8  -5   43.90   15.00
  -1   8   5    9.60    9.60
   0  -8   5    0.20    6.60
   0  -8  -5  -15.30   10.00
   0  -8   5    3.20    8.30
   0  -8  -5    6.50    7.70
   0   8  -5   37.70   13.70
   0   8   5   10.40    9.80
   1  -8   5    2.40    6.90
  -1  -8  -5   -0.10   11.70
  -1  -8  -5    7.60    8.20
   1  -8   5   -0.30    8.10
  -1   8  -5   29.40   14.50
   1   8   5    8.00    9.90
  10   0  -6   -2.40   11.00
  10   0  -6    1.30   16.60
  10   0  -6   -2.70    7.60
 -10   0   6   24.20   10.70
   9   0  -6  352.76   22.40
   9   0  -6  281.97   28.70
  -9   0   6  310.37   19.50
   9   0  -6  292.57   18.50
   8   0  -6  162.48   22.70
  -8   0   6  174.68   14.90
   8   0  -6  160.98   15.50
   7   0  -6  534.45   32.80
   7   0  -6  547.55   23.60
  -7   0   6  566.64   22.30
   6   0  -6  434.66   28.20
  -6   0   6  493.45   19.90
   6   0  -6  457.45   29.20
   5   0  -6  520.75   28.30
   5   0  -6  548.65   20.70
  -5   0   6  512.75   19.40
   4   0  -6   34.80    7.20
  -4   0   6   35.20    6.70
   4   0  -6   34.40   11.90
  -3   0   6  790.62   23.10
   3   0  -6  769.62   23.20
   3   0  -6  793.32   26.60
   2   0  -6  286.97   12.60
  -2   0   6  270.47   12.50
   2   0  -6  288.17   14.30
  -1   0   6  708.73   21.40
   1   0  -6  701.03   23.00
  -1   0   6  715.63   19.50
   1   0  -6  731.93   21.80
   0   0   6  955.70   26.40
   0   0   6  944.81   24.40
   0   0  -6  918.61   26.40
   1   0   6  126.79    9.30
   1   0   6  139.89   11.10
  -1   0  -6  120.69   10.00
  -2   0  -6  759.32   25.10
   2   0   6  773.42   23.30
   2   0   6  790.72   24.70
   2   0   6  765.02   20.40
   3   0   6 1109.69   29.20
  -3   0  -6 1106.79   34.30
   3   0   6 1153.88   33.20
   3   0   6 1113.09   32.10
   4   0   6  525.75   19.30
   4   0   6  556.64   22.00
  -4   0  -6  517.35   23.40
   4   0   6  558.44   22.60
   5   0   6   -6.00    7.00
   5   0   6  -11.00    6.00
  -5   0  -6   -8.20    7.60
  -6   0  -6    9.40    9.90
   6   0   6    9.40    8.90
   7   0   6   30.60   11.30
  -7   0  -6   18.30   12.60
  10  -1  -6   37.60    9.70
  10  -1  -6   11.70   14.90
 -10  -1   6   33.30   11.00
  10  -1  -6   18.10   11.60
 -10   1   6   44.90   11.60
  10   1  -6   21.00   12.60
  10   1  -6   14.40   18.70
  -9  -1   6   -8.00    7.70
   9  -1  -6    0.00    6.60
   9  -1  -6   -8.90   12.30
   9  -1  -6   -1.00    9.50
  -9   1   6    0.30    8.10
   9   1  -6   -3.80   10.20
   9   1  -6    4.60   16.90
  -8  -1   6  316.07   18.60
   8  -1  -6  272.27   18.90
   8  -1  -6  316.87   16.90
   8  -1  -6  299.87   25.60
  -8   1   6  284.27   17.50
   8   1  -6  302.97   30.00
   8   1  -6  305.67   20.50
  -7  -1   6   21.30    8.00
   7  -1  -6    4.60    5.90
   7  -1  -6   26.90   10.70
   7  -1  -6    7.40   12.60
   7  -1  -6   10.70    7.80
   7   1  -6    6.60   14.50
   7   1  -6   14.00    9.00
  -7   1   6   13.10    7.20
   6  -1  -6    4.40    5.50
  -6  -1   6    1.30    6.80
   6  -1  -6    3.80   11.90
   6  -1  -6    2.00   12.30
   6   1  -6    6.20   14.70
  -6   1   6    9.20    7.10
   5  -1  -6   83.59   15.20
   5  -1  -6   89.29    9.80
   5  -1  -6  106.09   16.40
   5  -1  -6   88.99    7.50
  -5  -1   6   73.99    9.20
   5   1  -6   73.99   16.20
  -5   1   6   84.19    9.10
   5   1  -6  102.09   10.70
   4  -1  -6    2.30    3.80
   4  -1  -6   -4.50    9.80
  -4  -1   6    0.40    5.40
   4  -1  -6   12.40   13.70
   4  -1  -6   -3.70    5.70
   4   1  -6    4.80   10.30
   4   1  -6    4.30    6.10
  -4   1   6    0.10    5.20
   3  -1  -6   66.99   10.10
  -3  -1   6   67.19    7.60
   3  -1  -6   58.19    7.10
   3  -1  -6   50.49    4.10
   3   1  -6   65.29    7.40
   3   1  -6   47.80   10.30
  -3   1   6   65.49    7.40
  -2  -1   6   72.29    7.60
   2  -1  -6   82.39    7.80
   2   1  -6   61.79    9.40
  -2   1   6   76.39    7.70
   2   1  -6   65.79    7.10
   1  -1  -6  220.28   11.50
  -1  -1   6  236.68   11.80
   1   1  -6  235.28   14.30
   1   1  -6  213.98   11.60
  -1   1   6  237.28   11.30
  -1   1   6  241.88   11.90
   0  -1   6  494.75   17.50
   0  -1  -6  481.45   17.50
   0   1   6  516.75   17.90
   0   1  -6  473.35   17.50
   0   1   6  531.25   17.80
   1  -1   6  211.28    9.70
  -1  -1  -6  234.38   12.70
  -1  -1  -6  220.08    9.90
   1  -1   6  232.18   13.00
  -1   1  -6  238.88   12.70
   1   1   6  229.28   12.60
   1   1   6  247.58   13.30
   2  -1   6   11.40    6.20
   2  -1   6   15.20    5.30
   2  -1   6    7.80    3.90
  -2  -1  -6   16.30    6.90
  -2   1  -6   14.80    6.10
   2   1   6   16.10    6.30
   2   1   6   10.00    6.50
  -3  -1  -6   33.30    8.80
   3  -1   6   36.60    6.20
   3  -1   6   47.30    8.30
   3   1   6   49.10    8.40
   3   1   6   44.30    8.30
  -3   1  -6   48.80    8.40
   4  -1   6   34.60    6.60
   4  -1   6   48.30    8.90
  -4  -1  -6   43.60    9.80
  -4   1  -6   28.30    9.00
   4   1   6   41.60    8.90
   4   1   6   51.79    9.30
   5  -1   6   18.20    8.20
   5  -1   6   20.50    7.10
  -5  -1  -6   21.60    9.70
  -5   1  -6   38.30   10.00
   5   1   6   25.00    9.10
   5   1   6   14.80    8.80
  -6  -1  -6    3.90   10.40
   6  -1   6   -0.50    8.10
  -6   1  -6   -6.60    8.90
   6   1   6    5.70    8.50
  -7  -1  -6  118.09   17.40
   7  -1   6   99.49   14.70
   7   1   6  119.89   15.20
  -7   1  -6  106.29   15.80
  10  -2  -6   19.90   11.80
 -10  -2   6   23.00   10.00
  10  -2  -6    3.70   13.80
  10  -2  -6    4.80    8.00
  10   2  -6   10.90   12.70
  10   2  -6    0.60   20.10
 -10   2   6    8.40    9.50
   9  -2  -6  191.38   21.20
   9  -2  -6  195.28   19.20
   9  -2  -6  189.68   15.50
  -9  -2   6  228.28   18.20
   9   2  -6  195.98   29.20
  -9   2   6  216.88   17.20
   9   2  -6  226.18   20.00
   8  -2  -6  141.29   18.60
  -8  -2   6  155.68   14.70
   8  -2  -6  142.79   15.70
   8  -2  -6  137.29   11.90
   8   2  -6  122.89   24.50
   8   2  -6  176.08   16.90
  -8   2   6  136.49   13.50
   7  -2  -6   38.80   11.50
   7  -2  -6   35.30    7.20
   7  -2  -6   46.10   13.20
   7  -2  -6   36.80    8.90
  -7  -2   6   56.19    9.90
   7  -2  -6   35.30   10.10
  -7   2   6   53.29    9.70
   7   2  -6   30.10   16.70
   7   2  -6   39.50   10.70
   6  -2  -6  723.13   31.00
   6  -2  -6  753.92   27.60
   6  -2  -6  787.12   32.80
   6  -2  -6  788.32   24.30
  -6  -2   6  781.22   26.30
  -6   2   6  733.13   25.20
   6   2  -6  713.73   37.20
   6   2  -6  752.22   27.30
   5  -2  -6   55.89    8.70
  -5  -2   6   67.99    9.20
   5  -2  -6   62.29   10.10
   5  -2  -6   73.59   12.90
   5  -2  -6   71.89    7.30
   5  -2  -6   82.09   14.90
   5   2  -6   81.89   10.20
   5   2  -6   71.59   16.30
  -5   2   6   78.49    9.10
   4  -2  -6  475.65   15.80
  -4  -2   6  481.05   18.50
   4  -2  -6  482.15   28.40
   4  -2  -6  518.25   19.90
   4  -2  -6  483.95   18.00
   4   2  -6  504.35   19.20
   4   2  -6  462.65   25.00
  -4   2   6  469.35   17.50
   3  -2  -6 1266.07   33.10
   3  -2  -6 1287.47   32.40
  -3  -2   6 1234.98   32.70
   3  -2  -6 1216.08   43.10
   3  -2  -6 1191.28   29.50
   3  -2  -6 1252.57   30.10
  -3   2   6 1239.68   32.30
   3   2  -6 1267.17   33.50
   3   2  -6 1177.58   38.70
   2  -2  -6  245.38   11.90
   2  -2  -6  241.08   24.40
   2  -2  -6  240.58   12.00
  -2  -2   6  256.77   12.30
   2  -2  -6  237.18    9.40
   2   2  -6  230.18   12.00
   2   2  -6  218.68   16.00
  -2   2   6  235.28   12.10
   1  -2  -6  114.39    7.20
   1  -2  -6  132.99    9.60
  -1  -2   6  132.09    9.90
   1  -2  -6  147.59   18.00
  -1  -2   6  124.89    7.60
  -1  -2   6  129.79    8.70
  -1   2   6  114.79   10.60
   1   2  -6  117.89    9.70
   1   2  -6  119.09   13.40
  -1   2   6  136.49   10.30
   0  -2  -6  942.61   25.00
   0  -2   6 1043.20   28.10
   0  -2  -6 1014.90   28.10
   0  -2   6 1020.50   25.80
   0  -2   6  998.90   25.40
   0  -2  -6  978.30   39.40
   0   2   6  973.60   27.90
   0   2  -6 1027.80   28.30
   0   2   6 1033.90   29.70
   1  -2   6  118.29    7.10
  -1  -2  -6  121.29   18.90
  -1  -2  -6  114.89    9.70
  -1  -2  -6  115.89    8.60
   1  -2   6  119.19    9.80
   1   2   6  107.19    9.90
  -1   2  -6  113.79    9.80
   1   2   6  137.89   12.10
  -2  -2  -6   35.20   16.10
   2  -2   6   53.69    5.70
   2  -2   6   53.49    8.10
  -2  -2  -6   70.29    7.50
  -2  -2  -6   48.70    8.30
   2   2   6   52.59    8.60
   2   2   6   49.60    8.10
  -2   2  -6   44.80    7.60
   3  -2   6  183.88   13.10
  -3  -2  -6  177.68   19.30
  -3  -2  -6  163.38   13.80
   3  -2   6  184.88   10.80
   3   2   6  177.68   13.80
  -3   2  -6  168.68   12.80
   3   2   6  162.38   14.60
   4  -2   6  139.49   10.90
   4  -2   6  113.39   11.60
  -4  -2  -6  126.79   13.50
   4   2   6  110.89   12.50
  -4   2  -6  102.09   11.90
   4   2   6  119.89   12.60
   5  -2   6  683.33   26.80
  -5  -2  -6  683.03   29.30
   5  -2   6  727.13   26.00
  -5   2  -6  636.04   27.70
   5   2   6  651.83   27.20
   5   2   6  703.23   28.70
  -6  -2  -6  763.02   34.00
   6   2   6  851.91   32.30
   6   2   6  797.92   32.70
  -6   2  -6  748.83   32.10
  -7  -2  -6   29.70   13.20
  -7   2  -6   -0.90   10.00
   7   2   6    9.30   10.40
   9  -3  -6    1.10    6.90
   9  -3  -6    5.30   11.20
   9  -3  -6   -3.40    9.10
  -9  -3   6    6.20    9.30
  -9  -3   6    0.80    7.50
   9   3  -6   -2.20   20.80
   9   3  -6  -12.00   11.70
  -9   3   6   -3.20    8.50
  -8  -3   6   53.09   10.20
  -8  -3   6   48.40    9.40
   8  -3  -6   48.10    8.80
   8  -3  -6   45.80   12.00
   8  -3  -6   47.40   11.00
  -8   3   6   43.90   10.20
   8   3  -6   56.49   12.80
   8   3  -6   90.09   23.60
   7  -3  -6   45.50    9.90
   7  -3  -6   58.69   12.50
   7  -3  -6   46.70    7.90
   7  -3  -6   43.40   11.00
  -7  -3   6   52.29   10.10
  -7   3   6   46.00    9.40
   7   3  -6   51.39   20.10
   7   3  -6   55.29   12.20
  -6  -3   6    1.30    6.80
   6  -3  -6   -4.60    7.60
   6  -3  -6    1.40    7.50
   6  -3  -6    1.50   10.20
  -6  -3   6   -0.60    4.50
   6  -3  -6   -2.00    5.20
  -6   3   6   -1.00    7.00
   6   3  -6   13.30   15.60
   6   3  -6    5.60    7.90
  -5  -3   6  457.95   15.60
   5  -3  -6  416.66   15.80
   5  -3  -6  443.96   20.40
   5  -3  -6  457.05   17.40
   5  -3  -6  468.15   28.40
  -5  -3   6  458.05   19.40
  -5  -3   6  407.36   18.40
   5   3  -6  438.76   28.60
  -5   3   6  448.46   18.00
  -4  -3   6   84.59    9.00
   4  -3  -6  131.79   16.70
   4  -3  -6  117.89   11.70
   4  -3  -6   96.79    8.00
   4  -3  -6  123.49    9.90
  -4  -3   6  113.59   10.70
   4  -3  -6  101.29    8.20
  -4  -3   6  106.89    7.20
   4   3  -6  112.79   11.10
   4   3  -6  102.09   15.90
  -4   3   6  112.89    9.90
  -3  -3   6   31.50    6.60
   3  -3  -6   39.40    6.10
   3  -3  -6   49.50    6.90
   3  -3  -6   41.20   12.70
  -3  -3   6   45.10    7.60
   3  -3  -6   37.30    7.80
   3   3  -6   29.80   11.30
  -3   3   6   43.80    7.30
   3   3  -6   29.60    7.30
  -2  -3   6  485.15   17.40
   2  -3  -6  489.55   16.00
  -2  -3   6  496.35   18.10
   2  -3  -6  490.85   17.40
   2  -3  -6  457.25   16.60
   2  -3  -6  439.66   28.70
  -2   3   6  487.55   17.30
   2   3  -6  446.06   22.90
   2   3  -6  484.35   17.70
   1  -3  -6  661.13   32.70
  -1  -3   6  643.44   20.70
   1  -3  -6  662.93   20.40
   1  -3  -6  678.23   19.70
  -1  -3   6  654.03   20.40
  -1  -3   6  660.03   19.70
   1   3  -6  646.84   20.90
  -1   3   6  615.64   22.80
  -1   3   6  660.93   20.90
   1   3  -6  626.14   27.20
   0  -3   6  233.48   11.40
   0  -3  -6  233.68   11.10
   0  -3   6  237.68   11.90
   0  -3   6  241.88   12.70
   0  -3  -6  244.28   24.80
   0  -3  -6  237.98   12.20
   0   3   6  241.08   13.00
   0   3  -6  225.88   17.50
   0   3  -6  230.18   12.60
   0   3   6  235.08   15.30
   1  -3   6    3.00    4.70
  -1  -3  -6    1.10    4.50
   1  -3   6   -1.20    5.20
  -1  -3  -6   -0.30    5.40
  -1  -3  -6   -8.00   12.90
  -1   3  -6   -7.90    5.00
   1   3   6    3.00    6.40
   1   3   6    5.00    6.80
  -2  -3  -6    7.90   13.60
  -2  -3  -6   27.50    6.60
  -2  -3  -6   28.20    7.50
   2  -3   6   21.10    7.00
   2  -3   6   21.00    5.20
   2  -3   6   28.20    6.10
   2   3   6   19.40    7.70
   2   3   6   30.10    7.80
  -2   3  -6   28.10    7.10
  -3  -3  -6   26.40   12.30
  -3  -3  -6    1.10    6.90
   3  -3   6    1.10    6.90
  -3  -3  -6    0.80    6.30
   3  -3   6    5.00    4.70
   3   3   6    1.40    7.40
   3   3   6    2.50    6.80
  -3   3  -6   11.60    6.40
   4  -3   6   23.00    6.50
  -4  -3  -6   29.20    9.50
  -4  -3  -6   31.40    8.60
  -4   3  -6   30.60    8.30
   4   3   6   24.50    9.30
   4   3   6    8.80    8.50
  -5  -3  -6   14.90    9.10
   5  -3   6    1.20    7.00
  -5  -3  -6    1.10    7.90
  -5   3  -6   10.80    8.30
   5   3   6   -0.20    9.00
   5   3   6    8.30    8.80
  -6  -3  -6   57.69   13.20
  -6  -3  -6   25.50   10.80
   6   3   6   26.60   11.10
  -6   3  -6   22.60   10.60
   6   3   6   33.60   11.50
   9  -4  -6  145.49   14.30
   9  -4  -6  154.58   18.00
  -9  -4   6  157.78   15.90
  -9  -4   6  155.58   14.80
   9   4  -6  161.08   33.00
  -9   4   6  163.98   15.30
   9   4  -6  153.98   19.40
   8  -4  -6  112.69   14.90
  -8  -4   6   91.39   10.90
   8  -4  -6   82.69   12.70
  -8  -4   6   92.29   12.60
   8  -4  -6   89.79   11.10
  -8   4   6  126.39   13.20
   8   4  -6  101.59   16.30
   8   4  -6  126.99   27.70
  -7  -4   6  269.67   18.10
   7  -4  -6  230.68   15.80
  -7  -4   6  253.77   17.30
   7  -4  -6  267.87   24.20
   7  -4  -6  239.78   15.00
   7  -4  -6  258.67   18.50
  -7  -4   6  224.68   13.90
   7   4  -6  236.78   30.40
   7   4  -6  269.57   20.70
  -6  -4   6  190.58   12.20
   6  -4  -6  194.48   13.70
   6  -4  -6  197.88   16.50
  -6  -4   6  210.48   15.20
   6  -4  -6  214.98   20.30
  -6  -4   6  200.28   15.50
   6  -4  -6  184.58   12.50
   6   4  -6  184.68   25.30
   6   4  -6  244.58   18.40
  -5  -4   6  340.27   17.80
   5  -4  -6  327.27   15.10
   5  -4  -6  322.67   15.90
   5  -4  -6  344.97   24.90
   5  -4  -6  364.36   19.20
  -5  -4   6  332.27   17.10
  -5  -4   6  324.97   13.90
   5   4  -6  319.77   27.10
   5   4  -6  354.36   19.00
   4  -4  -6   -3.90   10.10
   4  -4  -6   -1.80    4.80
  -4  -4   6   -1.70    6.20
   4  -4  -6    0.60    5.30
   4  -4  -6   -0.10    7.20
  -4  -4   6   -1.20    3.30
   4  -4  -6   -5.10    4.70
  -4  -4   6    1.50    5.60
   4   4  -6   -5.20   11.10
   3  -4  -6  310.77   25.30
   3  -4  -6  334.87   14.60
  -3  -4   6  318.37   16.10
   3  -4  -6  308.77   16.40
  -3  -4   6  287.97   11.70
  -3  -4   6  306.67   15.00
   3   4  -6  273.47   21.60
   3   4  -6  313.97   15.90
  -2  -4   6  104.19    9.80
   2  -4  -6   88.09   15.80
  -2  -4   6   94.09    7.20
   2  -4  -6   99.09    8.70
  -2  -4   6  105.39    9.70
   2  -4  -6  104.69    9.70
   2   4  -6  107.49   15.40
   2   4  -6  123.39   10.60
  -1  -4   6  234.58   10.20
   1  -4  -6  214.78   21.40
   1  -4  -6  237.38   12.80
  -1  -4   6  274.67   13.80
   1  -4  -6  219.08   12.30
   1   4  -6  259.87   13.10
   1   4  -6  239.48   19.10
  -1   4   6  238.48   15.80
   0  -4   6  416.76   16.40
   0  -4   6  399.96   16.90
   0  -4  -6  394.16   28.90
   0  -4  -6  385.36   16.20
   0   4   6  397.56   19.90
   0   4   6  408.16   16.60
   0   4  -6  401.76   23.10
   0   4  -6  432.56   16.60
   1  -4   6   49.90    6.70
  -1  -4  -6   69.39   14.60
   1  -4   6   47.40    7.00
  -1  -4  -6   49.40    7.10
   1   4   6   38.80    8.80
  -1   4  -6   53.29    8.30
   1   4   6   33.70    7.60
  -2  -4  -6  425.56   27.60
   2  -4   6  380.86   18.30
   2  -4   6  410.06   17.90
  -2  -4  -6  384.56   17.40
   2   4   6  365.56   17.90
  -2   4  -6  395.06   17.50
   2   4   6  400.66   21.10
   3  -4   6  640.54   24.70
   3  -4   6  683.83   23.00
  -3  -4  -6  679.83   33.00
   3  -4   6  663.13   23.60
  -3  -4  -6  631.34   24.40
   3   4   6  621.14   25.00
   3   4   6  628.44   27.80
  -3   4  -6  626.64   23.40
   4  -4   6  333.97   16.80
  -4  -4  -6  284.67   18.40
   4   4   6  301.67   21.50
  -4   4  -6  304.87   17.30
   4   4   6  313.97   19.80
   5  -4   6   -0.50   10.10
  -5  -4  -6   -6.30    8.20
   5   4   6   -4.00    9.40
  -5   4  -6   -1.50    7.40
   5   4   6    0.40    9.60
  -6  -4  -6  -15.60    8.30
   6   4   6   11.20   11.40
   6   4   6    1.20   10.60
  -6   4  -6    0.70    8.10
  -8  -5   6  315.67   21.70
   8  -5  -6  328.87   19.60
  -8  -5   6  302.47   19.00
   8  -5  -6  306.57   23.20
   8   5  -6  313.77   24.90
   8   5  -6  359.06   41.60
  -7  -5   6   70.79    9.70
   7  -5  -6   68.39   12.30
   7  -5  -6   87.29   13.90
  -7  -5   6   84.19   11.80
   7  -5  -6   47.80    9.40
   7   5  -6   47.50   24.50
   7   5  -6   62.89   14.00
   6  -5  -6    3.90    6.50
  -6  -5   6    6.60    5.40
   6  -5  -6    0.90    6.10
  -6  -5   6   -3.50    6.90
   6  -5  -6    3.50    8.50
   6  -5  -6    0.00   10.80
   6   5  -6   -5.60   16.90
   6   5  -6    2.40    9.50
   5  -5  -6    7.60    6.30
   5  -5  -6   18.00    8.50
  -5  -5   6    1.30    6.60
  -5  -5   6    6.30    4.80
   5  -5  -6    4.80   11.80
   5  -5  -6   29.30    7.60
   5   5  -6   14.40    9.50
   5   5  -6    6.70   14.60
   4  -5  -6  105.29   10.50
  -4  -5   6  122.89   12.10
   4  -5  -6  113.99   12.60
   4  -5  -6  111.29   17.00
  -4  -5   6   85.49    8.00
   4  -5  -6   96.19    9.60
   4   5  -6   98.39   18.10
   3  -5  -6    1.60    7.30
  -3  -5   6   -0.40    4.10
   3  -5  -6    2.10    5.40
  -3  -5   6    4.10    6.30
   3  -5  -6    0.10    9.90
   3   5  -6    0.00   11.40
   2  -5  -6   41.10    8.30
  -2  -5   6   29.50    7.60
   2  -5  -6   53.29   13.30
  -2  -5   6   34.20    5.70
   2  -5  -6   48.30    7.60
   2   5  -6   37.50   12.30
   1  -5  -6    7.80    5.90
   1  -5  -6    8.30   11.00
  -1  -5   6    9.00    4.30
  -1  -5   6    8.40    6.10
   1  -5  -6    0.50    5.40
  -1   5   6    2.40    7.00
   1   5  -6    8.10    9.50
   0  -5   6  252.87   15.70
   0  -5  -6  285.87   25.20
   0  -5   6  282.57   15.20
   0  -5   6  292.87   13.40
   0  -5  -6  287.67   15.30
   0   5   6  269.67   18.30
   0   5  -6  291.87   21.60
  -1  -5  -6  457.05   29.20
  -1  -5  -6  432.56   18.40
   1  -5   6  436.16   18.00
   1  -5   6  417.76   19.60
   1   5   6  382.06   21.50
   1   5   6  424.06   18.50
  -1   5  -6  414.56   25.80
  -2  -5  -6  112.09   16.00
  -2  -5  -6   99.69   11.10
   2  -5   6   91.49   11.30
   2  -5   6   84.69   10.60
   2   5   6   85.79   12.70
   2   5   6   95.89   11.10
  -3  -5  -6   54.99    9.90
   3  -5   6   47.60    9.60
   3  -5   6   39.30    9.10
   3   5   6   52.39   10.60
   3   5   6   29.40   10.50
   4  -5   6  191.08   15.30
  -4  -5  -6  140.29   14.30
   4  -5   6  140.79   14.20
   4   5   6  142.49   17.10
   4   5   6  133.99   14.60
   5  -5   6   39.00   10.00
  -5  -5  -6   65.99   12.20
   5   5   6   29.40   11.90
   5   5   6   53.09   13.50
   7  -6  -6   32.70   11.40
   7  -6  -6   42.40    9.60
  -7  -6   6   21.60   10.60
   7   6  -6   36.40   24.40
   7   6  -6   10.60   12.60
  -6  -6   6  161.38   19.20
   6  -6  -6  197.68   19.60
  -6  -6   6  166.08   16.70
   6  -6  -6  195.78   18.50
   6   6  -6  246.58   20.20
   6   6  -6  210.68   30.40
   5  -6  -6    1.40    7.10
   5  -6  -6    9.00    7.80
   5  -6  -6   27.00   10.10
  -5  -6   6   11.40    6.60
  -5  -6   6    8.00    8.00
   5   6  -6   -2.20    9.20
   5   6  -6   11.10   16.60
   4  -6  -6  157.78   15.30
   4  -6  -6  146.39   19.90
  -4  -6   6  123.59   14.30
   4  -6  -6  154.48   13.50
  -4  -6   6  112.09   12.80
   4   6  -6  144.39   21.40
  -3  -6   6  292.87   18.30
   3  -6  -6  285.37   18.00
  -3  -6   6  206.98   16.90
   3  -6  -6  244.08   15.80
   3  -6  -6  295.27   26.20
   3   6  -6  279.07   24.80
  -2  -6   6   76.19   10.90
   2  -6  -6   94.69   11.00
   2  -6  -6   85.89   16.60
  -2  -6   6   70.89   11.50
   2  -6  -6   91.29   11.00
  -2   6   6  100.29   13.30
   2   6  -6  114.79   18.00
   1  -6  -6   22.70    7.60
   1  -6  -6   21.30   13.00
   1  -6  -6   28.90   10.30
  -1  -6   6   17.30    9.00
  -1  -6   6   30.70    7.80
  -1   6   6   11.10    8.30
   1   6  -6   37.40   13.40
   0  -6   6  139.09   17.50
   0  -6  -6  226.48   23.00
   0  -6   6  212.58   16.10
   0  -6   6  174.58   15.00
   0  -6  -6  207.08   14.90
   0   6  -6  221.48   21.50
   0   6   6  198.68   17.60
   1  -6   6   52.29   10.30
  -1  -6  -6   70.09   15.30
   1  -6   6   55.29    9.40
  -1  -6  -6   56.39    9.50
  -1   6  -6   51.99   15.20
   1   6   6   43.90   11.10
  -2  -6  -6    9.00    6.80
   2  -6   6   -1.10    7.00
  -2  -6  -6   20.60   11.80
  -2  -6  -6   -6.20    9.50
   2  -6   6    0.60    7.10
  -2   6  -6   -1.50   10.70
   2   6   6   -6.90    8.40
   3  -6   6   35.60    9.70
   3  -6   6   38.50    9.60
  -3  -6  -6   22.60    8.60
   3   6   6   28.20    9.50
   3   6   6   31.30   11.20
   4  -6   6   35.40   10.40
   4  -6   6   28.40    9.50
  -4  -6  -6   44.50   10.90
   4   6   6   35.90   12.90
   6  -7  -6   27.20   11.50
  -6  -7   6   -8.00    8.70
   6   7  -6    7.30   21.70
  -5  -7   6  279.47   21.80
   5  -7  -6  285.87   19.90
   5  -7  -6  305.17   21.90
   5   7  -6  319.07   34.70
   4  -7  -6  148.09   14.80
  -4  -7   6  145.49   16.00
   4  -7  -6  160.98   16.80
   4   7  -6  158.08   24.10
   3  -7  -6    3.60    7.50
  -3  -7   6   -7.00    8.70
   3  -7  -6   26.00   10.40
  -3   7   6   16.40    9.80
   3   7  -6   30.10   14.90
   2  -7  -6  301.67   19.50
  -2  -7   6  305.87   19.70
   2  -7  -6  281.07   18.20
  -2   7   6  285.97   21.20
   2   7  -6  321.07   26.80
   1  -7  -6  345.77   19.30
  -1  -7   6  338.97   20.60
  -1   7   6  330.07   23.00
   1   7  -6  435.16   28.40
   0  -7   6   34.20    9.30
   0  -7  -6   37.80    9.40
   0   7   6   26.50   10.60
   0   7  -6   70.49   16.40
   1  -7   6   40.00    9.60
  -1  -7  -6   27.80    8.70
   1  -7   6   52.29   10.80
  -1  -7  -6   19.60   11.80
   1   7   6   28.50   11.20
  -1   7  -6   31.90   14.80
  -2  -7  -6   44.70   13.80
  -2  -7  -6   63.19   11.00
   2  -7   6   88.89   13.20
   2   7   6   59.89   13.10
  -2   7  -6   78.79   17.40
   2  -8  -6   19.70    9.10
  -2  -8   6   11.20    9.90
  -2   8   6   21.70   11.00
   2   8  -6   46.80   16.80
   1  -8  -6   -0.90    7.50
  -1  -8   6   -9.70    8.80
  -1   8   6    0.90    9.80
   1   8  -6   36.30   15.30
 -10   0   7   56.89   12.20
  10   0  -7   60.59   14.20
  10   0  -7   31.20   19.10
  10   0  -7   40.20   10.20
   9   0  -7  255.27   21.20
   9   0  -7  296.97   18.00
  -9   0   7  276.47   19.20
   9   0  -7  294.07   29.30
  -8   0   7  902.11   31.20
   8   0  -7  935.11   29.60
   8   0  -7  844.82   42.40
   8   0  -7  872.21   33.30
   7   0  -7   93.19   19.50
   7   0  -7   97.59    9.90
  -7   0   7  108.49   11.90
   7   0  -7   95.69   16.50
   7   0  -7   89.99   11.60
   6   0  -7   68.89    8.00
   6   0  -7   73.89   10.80
  -6   0   7   79.09   10.30
   6   0  -7   69.19   17.70
   5   0  -7  325.27   24.60
   5   0  -7  301.77   16.60
  -5   0   7  311.27   15.90
   5   0  -7  322.07   13.10
   4   0  -7   27.40    7.60
  -4   0   7   27.20    6.90
   4   0  -7   17.30   11.40
   4   0  -7   25.90    4.40
  -3   0   7  244.08   13.70
   3   0  -7  252.37   16.90
   3   0  -7  232.98   13.30
   2   0  -7    1.70    5.70
   2   0  -7  -14.10    6.80
  -2   0   7   -1.20    5.70
  -1   0   7 1908.81   46.40
   1   0  -7 1861.91   48.70
  -1   0   7 1889.41   43.90
   1   0  -7 1825.32   46.60
   0   0  -7 1454.45   38.70
   0   0   7 1461.85   38.30
   0   0   7 1433.86   35.70
   1   0   7  863.31   26.80
   1   0   7  804.32   24.10
  -1   0  -7  838.42   26.80
   2   0   7   42.60    8.60
   2   0   7   53.59    7.50
  -2   0  -7   39.80    8.60
  -3   0  -7  977.50   32.80
   3   0   7 1020.10   31.90
   3   0   7 1036.90   30.90
  -4   0  -7  230.58   17.70
   4   0   7  248.68   17.00
   4   0   7  216.48   15.40
  -5   0  -7   33.10   11.20
   5   0   7   17.50    9.40
  -6   0  -7  285.47   23.60
   6   0   7  267.27   20.50
 -10  -1   7   77.39   13.20
  10  -1  -7   80.29   12.00
  10  -1  -7   34.90   13.30
  10  -1  -7   52.39   18.10
  10   1  -7   70.39   15.40
 -10   1   7   59.49   12.30
  10   1  -7   61.59   21.80
   9  -1  -7   -7.20   13.30
   9  -1  -7   -3.30    9.80
  -9  -1   7   -8.50    8.20
   9  -1  -7   -1.20    7.20
  -9   1   7   -6.50    8.40
   9   1  -7   16.10   18.20
   9   1  -7   -0.60   10.90
   8  -1  -7   49.99    8.70
   8  -1  -7   53.49   11.40
  -8  -1   7   54.39   10.90
   8  -1  -7   57.89   16.10
  -8   1   7   44.80    9.90
   8   1  -7   34.80   19.70
   8   1  -7   50.99   12.30
   7  -1  -7  461.65   28.00
  -7  -1   7  447.06   21.00
   7  -1  -7  469.85   21.60
   7  -1  -7  477.25   18.70
   7  -1  -7  439.36   29.20
  -7   1   7  445.96   20.60
   7   1  -7  454.25   32.50
   7   1  -7  460.75   22.80
   6  -1  -7  260.37   13.10
   6  -1  -7  258.77   24.20
   6  -1  -7  280.37   26.10
  -6  -1   7  268.07   16.10
  -6   1   7  211.98   14.90
   6   1  -7  244.18   25.20
   5  -1  -7  247.48   23.20
   5  -1  -7  244.68   15.30
   5  -1  -7  254.87   22.30
   5  -1  -7  247.68   11.70
  -5  -1   7  242.98   14.90
   5   1  -7  239.08   15.70
   5   1  -7  240.38   23.50
  -5   1   7  234.68   14.20
   4  -1  -7   12.30   10.70
  -4  -1   7   16.60    6.60
   4  -1  -7    8.30    3.70
   4  -1  -7   15.60   16.10
   4  -1  -7   12.60    6.80
   4   1  -7   10.80   11.00
  -4   1   7   10.20    5.80
   4   1  -7   12.00    7.20
   3  -1  -7   16.50    6.20
  -3  -1   7   16.70    6.70
   3  -1  -7   23.40    9.00
   3   1  -7    8.80    9.50
   3   1  -7   25.60    6.60
  -3   1   7   20.50    6.60
  -2  -1   7  194.48   12.90
   2  -1  -7  208.58   12.40
   2   1  -7  206.88   12.50
  -2   1   7  192.08   12.50
   2   1  -7  199.38   15.90
   1  -1  -7   16.70    6.40
  -1  -1   7   11.90    6.10
  -1   1   7   15.00    6.10
  -1   1   7   15.00    6.50
   1   1  -7   16.50    6.50
   1   1  -7    6.90    8.90
   0  -1   7   31.80    5.40
   0  -1  -7   59.49    8.10
   0  -1   7   56.89    8.10
   0   1   7   47.80    7.10
   0   1   7   36.30    7.40
   0   1  -7   46.30    7.80
  -1  -1  -7    3.80    4.10
   1  -1   7   -7.20    6.00
  -1  -1  -7   -8.10    5.50
   1   1   7   -3.80    5.20
   1   1   7    7.30    6.60
  -1   1  -7    1.40    6.00
   2  -1   7  633.74   22.80
  -2  -1  -7  586.14   22.80
   2   1   7  640.44   22.70
  -2   1  -7  556.54   22.30
   2   1   7  602.34   22.50
   3  -1   7  213.88   14.50
  -3  -1  -7  152.88   13.60
   3   1   7  218.38   15.10
  -3   1  -7  164.28   13.90
   3   1   7  210.98   14.80
  -4  -1  -7   97.79   13.00
   4  -1   7  103.59   11.70
   4   1   7  103.19   12.50
  -4   1  -7  115.99   13.00
   4   1   7   95.89   12.00
  -5  -1  -7    8.80   10.10
   5  -1   7   -0.20    8.30
   5   1   7   -6.10    8.60
  -5   1  -7    6.10    8.90
   5   1   7    8.20    9.20
  -6  -1  -7   25.30   12.60
   6  -1   7   29.50   10.80
  -6   1  -7   36.80   12.90
   6   1   7   12.90   10.80
  10  -2  -7  175.78   15.00
 -10  -2   7  199.18   18.40
  10  -2  -7  204.88   24.20
  10  -2  -7  188.98   19.70
  10   2  -7  150.38   28.50
  10   2  -7  186.98   20.70
 -10   2   7  219.28   18.40
   9  -2  -7   35.40   12.10
   9  -2  -7   36.60    8.70
   9  -2  -7   28.20   14.00
  -9  -2   7   44.40   11.00
  -9   2   7   47.30   11.40
   9   2  -7   32.30   13.20
   9   2  -7   37.10   21.80
   8  -2  -7   16.60    7.30
  -8  -2   7   37.00   10.10
   8  -2  -7   14.30   12.00
   8  -2  -7   28.20   11.40
  -8   2   7   28.00    9.50
   8   2  -7   11.90   11.00
   8   2  -7   26.50   19.30
   7  -2  -7   -1.90    7.10
  -7  -2   7    7.50    8.00
   7  -2  -7    8.40    9.50
   7  -2  -7   17.90   12.10
   7  -2  -7    6.40    5.70
   7  -2  -7   24.40   12.10
   7   2  -7   24.50   18.00
   7   2  -7   15.10    9.60
  -7   2   7    5.30    8.00
   6  -2  -7  842.32   36.40
   6  -2  -7  861.71   25.00
  -6  -2   7  826.72   27.90
   6  -2  -7  790.22   29.20
   6  -2  -7  746.33   32.40
  -6   2   7  799.12   27.00
   6   2  -7  855.11   39.80
   5  -2  -7  788.52   31.00
   5  -2  -7  776.62   22.60
  -5  -2   7  767.32   25.50
   5  -2  -7  768.72   25.70
   5  -2  -7  773.32   27.40
   5  -2  -7  781.52   36.00
  -5   2   7  729.93   24.80
   5   2  -7  729.13   35.00
   5   2  -7  747.63   26.70
   4  -2  -7   -0.20   13.40
   4  -2  -7   10.00    4.20
  -4  -2   7   19.20    6.90
   4  -2  -7    8.40    7.80
   4  -2  -7    4.80    6.60
  -4   2   7    2.10    6.00
   4   2  -7   -6.30   10.80
   4   2  -7    9.80    7.00
   3  -2  -7 1127.39   31.30
   3  -2  -7 1141.99   31.40
   3  -2  -7 1188.38   44.40
  -3  -2   7 1139.89   31.70
   3  -2  -7 1118.69   27.80
   3   2  -7 1100.29   38.00
   3   2  -7 1115.49   32.20
  -3   2   7 1112.59   31.40
   2  -2  -7 2391.86   53.89
   2  -2  -7 2273.27   51.89
   2  -2  -7 2421.26   56.09
  -2  -2   7 2399.26   55.89
   2  -2  -7 2453.75   69.49
  -2   2   7 2326.07   55.79
   2   2  -7 2313.07   62.29
   2   2  -7 2277.37   56.29
  -1  -2   7 1200.58   30.20
  -1  -2   7 1227.08   32.20
   1  -2  -7 1159.58   45.70
   1  -2  -7 1103.29   27.90
  -1  -2   7 1104.49   28.00
   1  -2  -7 1120.39   31.70
  -1   2   7 1126.09   31.90
   1   2  -7 1152.18   37.90
  -1   2   7 1180.28   32.90
   1   2  -7 1152.88   32.20
   0  -2   7  205.68   13.30
   0  -2  -7  187.08   12.20
   0  -2   7  182.38    9.80
   0  -2  -7  184.18    9.20
   0  -2  -7  245.08   24.00
   0   2   7  199.78   12.80
   0   2  -7  199.48   12.70
   0   2  -7  173.88   16.80
   0   2   7  200.48   13.80
  -1  -2  -7  124.69    9.40
  -1  -2  -7  167.78   22.10
   1  -2   7  132.39   11.10
  -1  -2  -7  121.09   11.00
   1   2   7  115.89   11.30
   1   2   7  120.09   10.90
  -1   2  -7  129.59   11.10
  -2  -2  -7    2.40    5.30
  -2  -2  -7    5.20    6.30
  -2  -2  -7   -5.30   15.60
   2  -2   7   23.70    7.40
   2   2   7    6.70    6.50
   2   2   7   26.40    8.00
  -2   2  -7    5.30    6.60
   3  -2   7   82.59   10.40
  -3  -2  -7   82.59   11.20
  -3  -2  -7   79.69    9.80
  -3  -2  -7   96.29   18.80
   3   2   7   84.69   11.00
   3   2   7   86.89   11.20
  -3   2  -7   74.49   10.00
  -4  -2  -7  123.99   14.70
   4  -2   7  129.99   12.60
   4   2   7   92.69   12.60
  -4   2  -7  128.99   13.30
   4   2   7   91.09   13.00
  -5  -2  -7   18.60   11.00
   5   2   7   31.00   11.10
   5   2   7   43.80   11.80
  -5   2  -7   40.60   11.20
  -6  -2  -7  117.79   17.10
   6   2   7  101.69   15.30
  -6   2  -7  107.49   15.20
   6   2   7   90.89   14.60
  -9  -3   7    4.80    8.40
   9  -3  -7   14.00    7.50
  -9  -3   7   14.00    9.20
   9  -3  -7   10.00   11.10
  -9   3   7   12.90   10.40
   9   3  -7   24.20   13.40
   9   3  -7   24.90   23.40
   8  -3  -7    2.30    9.40
   8  -3  -7    8.90    6.20
  -8  -3   7    2.80    8.20
   8  -3  -7   20.70   11.80
   8   3  -7    0.80   18.80
   8   3  -7   -1.50   10.40
  -8   3   7   12.60    8.90
   7  -3  -7   58.19   11.60
  -7  -3   7   69.79   10.70
   7  -3  -7   68.59    9.00
   7  -3  -7   83.69   14.80
  -7   3   7   79.99   11.30
   7   3  -7   60.39   12.20
   7   3  -7   77.99   21.50
  -6  -3   7   89.09   11.30
   6  -3  -7   95.39   12.40
   6  -3  -7   94.29    9.20
   6  -3  -7   90.19   16.50
   6   3  -7   91.09   19.70
  -6   3   7  103.49   11.50
   5  -3  -7  437.86   17.30
   5  -3  -7  478.75   21.30
  -5  -3   7  479.45   20.10
   5  -3  -7  517.25   30.40
   5   3  -7  461.25   21.40
   5   3  -7  472.55   29.50
  -5   3   7  465.05   19.00
  -4  -3   7  257.67   14.70
   4  -3  -7  236.78   24.90
   4  -3  -7  237.98   14.30
  -4  -3   7  264.27   14.80
   4  -3  -7  245.08   11.80
   4  -3  -7  228.78   15.70
  -4   3   7  233.08   14.00
   4   3  -7  234.88   15.40
   4   3  -7  227.18   21.20
   3  -3  -7   71.99    7.30
   3  -3  -7   84.79    9.60
  -3  -3   7   89.49    9.30
  -3  -3   7   98.29    9.70
   3  -3  -7   81.99    8.90
   3  -3  -7   68.19   15.30
  -3   3   7   82.09    9.40
   3   3  -7   96.39   15.40
   3   3  -7   84.69   10.00
  -2  -3   7   13.20    6.60
  -2  -3   7    9.90    5.70
   2  -3  -7    0.90   12.30
   2  -3  -7   12.70    6.00
   2  -3  -7   10.90    4.70
   2  -3  -7   11.30    6.20
  -2   3   7    2.40    6.40
   2   3  -7   16.60    6.20
   2   3  -7    6.40    9.70
  -1  -3   7  121.89   10.20
   1  -3  -7  101.89    8.00
  -1  -3   7  110.59    8.50
   1  -3  -7   66.99   16.80
   1  -3  -7   99.89    9.40
  -1  -3   7  101.99   10.00
  -1   3   7  107.49   10.30
   1   3  -7   89.49   14.50
   1   3  -7  107.89   10.10
  -1   3   7  113.59   11.70
   0  -3  -7   91.09   18.20
   0  -3  -7   88.59    7.70
   0  -3   7   89.39    7.90
   0  -3  -7   89.09    9.10
   0  -3   7   78.89    7.50
   0  -3   7  100.09    9.80
   0   3   7  108.89   10.30
   0   3  -7   95.99   14.50
   0   3  -7  103.49   10.20
   0   3   7  112.49   11.90
  -1  -3  -7   61.29    8.60
   1  -3   7   58.19    7.30
  -1  -3  -7   70.89   16.60
  -1  -3  -7   59.79    7.40
   1  -3   7   73.69    9.00
   1   3   7   44.70    8.30
  -1   3  -7   71.09    9.20
   1   3   7   43.60    9.20
   2  -3   7  129.29   12.60
   2  -3   7  115.69   10.10
  -2  -3  -7  128.89   11.70
  -2  -3  -7  113.99   10.20
  -2  -3  -7  148.79   19.70
   2   3   7  139.39   13.60
  -2   3  -7  132.79   11.90
   2   3   7  125.29   11.70
  -3  -3  -7  106.39   12.60
  -3  -3  -7  109.59   19.10
  -3  -3  -7  107.79   11.30
  -3   3  -7   99.39   11.50
   3   3   7  104.59   12.20
   3   3   7  120.99   13.70
  -4  -3  -7  235.08   18.60
   4   3   7  255.07   18.70
   4   3   7  259.17   19.40
  -4   3  -7  253.37   17.20
  -5  -3  -7   92.79   14.30
  -5  -3  -7   84.49   11.90
   5   3   7   78.99   13.90
  -5   3  -7   86.89   12.60
   5   3   7  103.59   14.60
   9  -4  -7  166.38   18.70
   9  -4  -7  130.49   13.50
  -9  -4   7  172.78   17.10
   9   4  -7  145.09   19.50
  -9   4   7  121.09   14.20
   9   4  -7  159.08   33.00
   8  -4  -7  432.26   25.20
   8  -4  -7  498.65   30.90
   8  -4  -7  451.15   21.90
  -8  -4   7  475.75   24.90
   8   4  -7  500.35   28.60
  -8   4   7  473.45   22.30
   8   4  -7  471.35   42.40
   7  -4  -7   67.59    9.30
   7  -4  -7   75.29   12.80
   7  -4  -7   73.39   15.70
  -7  -4   7   93.79   12.50
  -7  -4   7   82.29   15.80
   7   4  -7   46.60   13.10
  -7   4   7   82.39   10.90
   7   4  -7   72.39   21.80
  -6  -4   7   34.40    9.40
   6  -4  -7   27.90   10.00
   6  -4  -7   26.60    6.90
   6  -4  -7   34.40   13.50
  -6  -4   7   25.70    8.40
   6   4  -7   22.50   16.50
   6   4  -7   33.50   10.50
  -6   4   7   39.70    8.80
  -5  -4   7  162.38   13.90
  -5  -4   7  142.99   13.00
   5  -4  -7  130.79   18.40
   5  -4  -7  148.69   11.80
   5  -4  -7  135.99   14.00
   5   4  -7  135.99   20.70
  -4  -4   7   27.20    7.60
  -4  -4   7   26.30    8.10
   4  -4  -7   17.30    6.40
   4  -4  -7   11.50   12.40
   4  -4  -7   15.20    8.40
   4   4  -7   20.80   12.70
   4   4  -7    8.90    8.40
   3  -4  -7   78.49    9.80
   3  -4  -7   59.79    7.40
   3  -4  -7   62.09   15.20
  -3  -4   7   73.79    9.20
  -3  -4   7   62.79   10.80
   3   4  -7   70.29   14.20
   3   4  -7   76.39   10.20
   2  -4  -7    6.00   12.10
   2  -4  -7   16.60    6.90
  -2  -4   7   14.70    6.50
   2  -4  -7   10.50    5.50
   2   4  -7   11.10    7.10
  -2   4   7    5.60    6.90
   2   4  -7   11.20   10.00
   1  -4  -7  934.41   40.60
   1  -4  -7  941.91   27.20
  -1  -4   7  956.70   27.80
   1   4  -7  917.01   36.30
   1   4  -7  878.71   27.60
  -1   4   7  879.51   31.00
  -1   4   7  885.51   27.40
   0  -4  -7  723.43   36.40
   0  -4   7  693.43   22.30
   0  -4   7  710.03   23.50
   0  -4  -7  678.23   22.40
   0   4  -7  636.24   30.40
   0   4  -7  700.13   23.40
   0   4   7  670.63   23.30
   0   4   7  657.73   26.80
  -1  -4  -7  449.16   18.10
  -1  -4  -7  494.55   31.30
   1  -4   7  468.65   19.20
  -1   4  -7  469.65   19.30
   1   4   7  415.46   22.20
   1   4   7  446.56   19.70
   2  -4   7   13.60    6.90
  -2  -4  -7    2.80    6.10
  -2  -4  -7   11.80   13.60
  -2   4  -7   -6.80    6.80
   2   4   7   -2.20    8.20
   2   4   7    4.30    8.30
   3  -4   7  607.34   24.30
  -3  -4  -7  580.94   23.50
   3   4   7  535.55   27.20
  -3   4  -7  548.35   22.80
   3   4   7  524.25   23.90
  -4  -4  -7  151.58   14.40
   4  -4   7  120.39   12.80
   4   4   7  119.79   15.90
   4   4   7  104.89   14.00
  -4   4  -7  132.89   13.50
  -5  -4  -7    4.60    9.60
   5   4   7   -4.70   10.50
  -5   4  -7   20.90    9.60
   5   4   7    7.50   11.00
   8  -5  -7   69.69   14.80
  -8  -5   7   68.29   12.60
   8  -5  -7   46.10    9.80
   8   5  -7   72.39   15.80
   8   5  -7   77.69   28.40
   7  -5  -7  498.55   27.20
  -7  -5   7  581.04   27.30
   7  -5  -7  532.25   34.10
   7  -5  -7  561.44   24.40
   7   5  -7  603.84   28.90
   7   5  -7  532.65   41.40
   6  -5  -7  286.47   20.20
  -6  -5   7  280.57   19.10
   6  -5  -7  287.77   28.60
   6  -5  -7  273.97   16.70
   6   5  -7  313.57   21.70
   6   5  -7  287.67   31.20
   5  -5  -7   44.30   14.70
   5  -5  -7   33.90   10.20
  -5  -5   7   38.60    9.40
   5   5  -7   39.20   10.60
   5   5  -7   43.60   17.40
   4  -5  -7   56.09    8.70
  -4  -5   7   53.49    9.70
   4  -5  -7   49.99   14.60
   4  -5  -7   54.69   10.30
   4   5  -7   53.99   15.70
   3  -5  -7   10.00    7.80
   3  -5  -7    0.20    5.60
   3  -5  -7   -0.90   11.20
  -3  -5   7   -0.90    6.80
   3   5  -7   -9.30   10.50
   3   5  -7  -10.90    7.70
   2  -5  -7  322.37   16.30
   2  -5  -7  283.57   26.60
   2  -5  -7  322.57   16.00
  -2  -5   7  305.07   17.20
   2   5  -7  284.97   22.50
  -2   5   7  274.67   18.70
   1  -5  -7  170.48   20.20
   1  -5  -7  173.08   13.20
  -1  -5   7  184.98   14.30
   1   5  -7  180.48   19.60
  -1   5   7  161.08   15.70
   0  -5  -7   15.00   13.00
   0  -5   7   10.10    6.20
   0  -5  -7   15.50    6.70
   0  -5   7    9.40    7.30
   0   5   7    7.30    8.60
   0   5  -7   19.10   12.10
   0   5   7   12.60    7.50
   1  -5   7   81.59   10.30
  -1  -5  -7  109.59   17.10
  -1  -5  -7   78.99    9.60
   1   5   7   90.39   10.80
   1   5   7   81.99   12.50
  -1   5  -7   69.69   15.50
  -2  -5  -7  800.72   36.70
   2  -5   7  771.32   28.50
  -2  -5  -7  813.02   27.50
   2   5   7  718.13   27.50
   2   5   7  711.33   31.40
   3  -5   7  145.69   13.90
  -3  -5  -7  132.79   13.20
   3   5   7  125.49   16.30
   3   5   7  135.29   14.30
   4  -5   7   -1.80    7.80
  -4  -5  -7   -7.60    7.90
   4   5   7    7.30   11.60
   4   5   7    1.00   10.00
   7  -6  -7   -5.60    7.40
   7  -6  -7   12.50   11.20
  -7  -6   7    1.70    9.10
   7   6  -7  -17.20   11.40
   7   6  -7    4.40   22.40
  -6  -6   7  163.48   16.70
   6  -6  -7  143.39   16.40
   6  -6  -7  172.48   22.40
   6   6  -7  168.38   17.10
   6   6  -7  134.99   26.10
   5  -6  -7  231.78   25.50
   5  -6  -7  220.18   19.40
  -5  -6   7  204.08   17.30
   5  -6  -7  187.68   15.70
   5   6  -7  236.88   19.70
   5   6  -7  196.98   27.10
  -4  -6   7   -6.00    7.60
   4  -6  -7   24.20    9.60
   4  -6  -7    0.10    7.00
   4  -6  -7    4.40   13.40
   4   6  -7   16.90   14.40
  -3  -6   7  291.67   19.20
   3  -6  -7  270.37   17.90
   3  -6  -7  283.77   28.70
   3   6  -7  311.17   26.50
  -2  -6   7  767.52   28.40
   2  -6  -7  789.32   40.00
   2  -6  -7  724.03   26.40
  -2   6   7  671.13   30.20
   2   6  -7  737.13   36.40
   1  -6  -7  520.85   34.40
  -1  -6   7  518.15   22.50
   1  -6  -7  497.25   21.70
   1   6  -7  514.85   30.50
  -1   6   7  458.55   25.60
   0  -6  -7   25.30   14.80
   0  -6  -7   22.50    8.20
   0  -6   7   10.30    7.60
   0   6  -7   18.10   12.80
   0   6   7   20.90   10.00
  -1  -6  -7   27.10   14.10
   1  -6   7   28.70    9.50
  -1  -6  -7   12.10    7.90
   1   6   7   18.20   10.40
  -1   6  -7   24.90   13.30
   2  -6   7    5.60    8.10
  -2  -6  -7    0.20    6.90
  -2  -6  -7   24.20   13.50
   2   6   7   11.00    9.90
  -2   6  -7   -5.60   11.70
   2   6   7    1.30    8.70
  -3  -6  -7   13.90    8.00
   3  -6   7   11.70    8.80
   3   6   7    6.20    9.60
   3   6   7    8.10   11.20
   5  -7  -7  299.47   21.80
  -5  -7   7  223.08   19.90
   5  -7  -7  232.18   19.00
   5   7  -7  231.58   30.20
   4  -7  -7  304.47   19.70
   4  -7  -7  280.57   21.40
  -4  -7   7  294.57   22.40
   4   7  -7  313.67   31.00
  -3  -7   7   68.29   12.80
   3  -7  -7   84.49   18.60
   3  -7  -7   79.79   13.60
   3  -7  -7   92.39   12.20
   3   7  -7   97.19   19.80
  -3   7   7   62.49   13.70
   2  -7  -7   29.90   14.90
  -2  -7   7    7.60    8.50
   2  -7  -7    8.30    7.80
   2   7  -7   27.10   14.40
  -2   7   7   -1.80    9.60
   1  -7  -7  200.48   25.00
   1  -7  -7  203.78   16.20
  -1  -7   7  184.18   16.10
   1   7  -7  260.57   25.50
  -1   7   7  176.08   18.80
   0  -7  -7   95.49   18.60
   0  -7   7   60.59   11.00
   0  -7  -7   75.29   11.70
   0   7  -7  113.29   19.60
   0   7   7   48.50   12.40
   1  -7   7   60.89   12.00
  -1  -7  -7   57.69   10.90
   1   7   7   53.19   13.30
  -1   7  -7   45.20   16.20
  10   0  -8  190.08   19.50
  10   0  -8  194.68   16.00
 -10   0   8  228.38   18.70
  10   0  -8  147.59   25.70
   9   0  -8   83.99   20.80
   9   0  -8   82.79   11.00
   9   0  -8  108.49   15.20
  -9   0   8   79.99   13.00
   8   0  -8  752.02   41.50
   8   0  -8  803.82   27.00
  -8   0   8  771.42   29.30
   8   0  -8  819.22   31.80
   7   0  -8  813.12   26.90
  -7   0   8  792.92   28.70
   7   0  -8  746.13   38.40
   7   0  -8  775.42   39.60
   6   0  -8   -9.20    8.00
  -6   0   8    3.40    7.20
   6   0  -8   -1.90   13.50
   5   0  -8  396.26   26.20
  -5   0   8  368.76   17.90
   5   0  -8  374.76   18.70
  -4   0   8   -7.40    6.20
   4   0  -8    5.80    7.20
   4   0  -8    5.10   11.20
   3   0  -8  242.38   14.70
  -3   0   8  243.48   14.80
   3   0  -8  256.07   18.30
   2   0  -8 1405.46   38.40
  -2   0   8 1383.46   38.00
   2   0  -8 1399.06   40.50
  -1   0   8 1193.78   34.60
   1   0  -8 1262.77   37.50
  -1   0   8 1236.38   31.90
   1   0  -8 1194.38   35.00
   0   0   8  760.82   23.10
   0   0  -8  789.12   26.70
   0   0   8  823.12   26.40
   1   0   8  851.91   28.00
  -1   0  -8  824.52   28.30
   1   0   8  869.11   26.90
  -2   0  -8  381.96   19.50
   2   0   8  394.06   19.40
  -3   0  -8   -6.20    7.30
   3   0   8    7.00    8.00
  -4   0  -8   43.60   10.60
   4   0   8   52.09   10.70
  -5   0  -8    9.90   10.50
   5   0   8   22.00   10.80
  10  -1  -8   97.99   21.20
 -10  -1   8  145.99   16.10
  10  -1  -8  108.19   12.80
  10   1  -8   99.09   24.90
 -10   1   8  116.99   15.30
  10   1  -8  128.59   18.50
  -9  -1   8   49.30   11.40
   9  -1  -8   34.00   11.60
   9  -1  -8   41.10    9.20
   9  -1  -8   36.00   16.60
  -9   1   8   46.00   11.10
   9   1  -8   55.19   13.70
   9   1  -8   33.40   20.50
   8  -1  -8  125.39   14.40
   8  -1  -8  127.29   20.70
  -8  -1   8  106.69   13.10
   8  -1  -8  121.29   11.20
   8   1  -8  113.59   14.40
   8   1  -8  121.09   23.90
  -8   1   8  127.79   14.10
   7  -1  -8   23.20   15.10
   7  -1  -8   28.40   15.60
  -7  -1   8   63.19   10.80
   7  -1  -8   38.60    7.60
   7   1  -8   27.70   18.70
  -7   1   8   48.30   10.40
  -6  -1   8   46.30    9.50
   6  -1  -8   35.90   16.80
   6  -1  -8   30.90    9.50
   6  -1  -8   34.70   14.80
   6   1  -8   38.00   16.30
   6   1  -8   34.30   10.30
  -6   1   8   35.10    8.70
   5  -1  -8   77.29   10.30
   5  -1  -8   63.19   15.10
  -5  -1   8   81.19   10.50
   5  -1  -8   76.29   20.20
  -5   1   8   73.29    9.90
   5   1  -8  100.59   11.60
   5   1  -8   63.09   15.40
  -4  -1   8    9.40    6.80
   4  -1  -8    0.40    6.70
   4  -1  -8    5.70   10.60
  -4   1   8    3.10    6.70
   4   1  -8    4.10   12.00
   4   1  -8   -1.80    7.10
  -3  -1   8  228.88   14.90
   3  -1  -8  209.98   16.20
   3  -1  -8  237.48   14.30
   3   1  -8  229.38   19.20
   3   1  -8  224.58   14.20
  -3   1   8  231.58   14.40
  -2  -1   8   11.10    7.20
   2  -1  -8    7.10    6.40
   2  -1  -8   14.50    7.90
   2   1  -8    2.50    9.30
  -2   1   8   15.60    7.20
   2   1  -8   16.20    7.00
   1  -1  -8 1025.90   31.40
   1  -1  -8 1049.59   31.60
  -1  -1   8 1096.89   31.70
  -1   1   8 1066.09   30.40
   1   1  -8 1043.70   31.80
   1   1  -8 1089.09   36.20
  -1   1   8 1054.79   31.40
   0  -1  -8  395.76   18.70
   0  -1  -8  409.56   18.90
   0  -1   8  448.96   19.30
   0   1  -8  436.26   22.80
   0   1   8  401.16   18.50
   0   1  -8  416.86   18.90
   0   1   8  451.95   18.00
   1  -1   8    1.90    6.70
  -1  -1  -8    1.80    6.80
  -1   1  -8   -4.30    5.90
   1   1   8    7.60    7.00
   1   1   8   -2.80    5.70
  -2  -1  -8   23.00    8.20
   2  -1   8   29.60    8.30
  -2   1  -8   12.00    7.30
   2   1   8   11.40    7.10
   2   1   8   10.00    7.50
  -3  -1  -8    8.80    8.60
   3  -1   8   12.90    8.00
   3   1   8   -2.50    7.80
   3   1   8    7.20    7.90
  -3   1  -8    7.70    8.00
  -4  -1  -8   52.59   11.30
   4  -1   8   66.99   11.10
  -4   1  -8   60.99   11.30
   4   1   8   56.69   10.90
   4   1   8   70.29   11.30
  -5  -1  -8    9.80   10.60
   5  -1   8   28.00   10.30
  -5   1  -8   -2.80    8.60
   5   1   8   20.10   12.60
   5   1   8   19.10   10.30
  -9  -2   8    4.50    9.30
   9  -2  -8    1.10    7.30
   9  -2  -8  -16.60   12.20
   9  -2  -8  -18.10   10.90
  -9   2   8   19.00   10.60
   9   2  -8   10.60   21.30
   9   2  -8  -13.70   10.80
  -8  -2   8   44.90   10.70
   8  -2  -8   51.89    8.60
   8  -2  -8   42.00   12.50
   8  -2  -8   25.70   13.70
   8  -2  -8   46.40   14.70
  -8   2   8   35.70   10.30
   8   2  -8   57.49   13.50
   8   2  -8   23.10   19.60
   7  -2  -8   10.00    6.00
   7  -2  -8   28.40   13.40
   7  -2  -8   16.80   13.10
  -7  -2   8   28.10    9.60
   7  -2  -8   13.60   10.80
   7   2  -8   16.00   18.00
  -7   2   8   21.00    9.10
   6  -2  -8  246.48   17.20
   6  -2  -8  255.87   19.20
  -6  -2   8  288.97   17.20
   6  -2  -8  288.87   27.60
   6  -2  -8  204.68   24.70
   6   2  -8  243.38   18.00
  -6   2   8  259.27   16.30
   6   2  -8  283.27   27.70
   5  -2  -8  735.53   25.80
   5  -2  -8  749.62   27.60
   5  -2  -8  791.72   39.00
  -5  -2   8  763.22   26.00
   5   2  -8  681.73   26.40
  -5   2   8  685.63   25.10
   5   2  -8  755.62   35.50
   4  -2  -8  599.04   22.60
   4  -2  -8  583.14   34.80
  -4  -2   8  556.24   21.60
   4  -2  -8  583.24   21.80
   4   2  -8  556.14   28.70
   4   2  -8  515.95   22.30
  -4   2   8  569.54   21.60
   3  -2  -8  101.59   10.30
   3  -2  -8   87.49   18.70
  -3  -2   8  131.19   11.50
   3  -2  -8   85.59    9.70
  -3   2   8  100.39   10.60
   3   2  -8   95.49   15.20
   3   2  -8  128.49   11.20
   2  -2  -8  238.58   25.40
  -2  -2   8  194.48   13.70
   2  -2  -8  195.38   13.20
   2   2  -8  211.98   18.30
  -2   2   8  186.38   13.70
   2   2  -8  178.38   13.20
   1  -2  -8  149.99   12.20
  -1  -2   8  162.08   13.20
   1  -2  -8  174.88   23.90
  -1  -2   8  157.98   10.50
   1   2  -8  166.28   17.90
  -1   2   8  159.18   13.20
   1   2  -8  139.79   11.80
  -1   2   8  144.99   12.10
   0  -2  -8    1.40    6.60
   0  -2  -8   15.60   18.60
   0  -2   8   11.70    6.90
   0   2  -8    8.00    9.50
   0   2   8    5.60    6.70
   0   2  -8   13.40    6.90
   0   2   8    1.90    6.30
  -1  -2  -8  329.97   28.50
   1  -2   8  273.57   15.90
  -1  -2  -8  250.37   15.50
   1   2   8  280.47   16.40
   1   2   8  252.67   15.80
  -1   2  -8  245.68   15.70
  -2  -2  -8   49.70   19.60
  -2  -2  -8   48.90    9.70
   2  -2   8   42.60    8.70
   2   2   8   33.60    9.10
   2   2   8   44.30    9.50
  -2   2  -8   37.10    8.60
   3  -2   8  810.52   28.90
  -3  -2  -8  896.91   48.90
  -3  -2  -8  753.12   29.70
   3   2   8  770.52   28.90
   3   2   8  842.32   30.60
  -3   2  -8  730.63   29.10
   4  -2   8  705.93   33.10
  -4  -2  -8  565.74   27.30
  -4   2  -8  525.55   25.60
   4   2   8  577.44   26.20
   4   2   8  563.14   26.90
  -5  -2  -8   20.10   11.30
  -5   2  -8    4.70    9.60
   5   2   8   -4.80   10.10
   5   2   8    1.00   10.00
  -9  -3   8   -5.30    8.70
   9  -3  -8   -8.60   11.50
   9  -3  -8    1.50    6.90
  -9  -3   8    3.00    8.40
   9   3  -8   10.60   12.70
  -9   3   8   -5.30    9.10
   9   3  -8   -2.10   22.20
   8  -3  -8  103.59   15.30
   8  -3  -8  116.59   17.10
  -8  -3   8  111.89   13.50
   8  -3  -8   92.59   10.60
   8   3  -8   88.49   15.70
   8   3  -8   95.99   24.30
  -8   3   8   96.49   12.80
   7  -3  -8  214.38   18.40
   7  -3  -8  253.57   15.90
   7  -3  -8  202.38   21.70
  -7  -3   8  216.68   17.00
  -7   3   8  222.88   16.80
   7   3  -8  192.88   27.70
   7   3  -8  245.58   20.10
  -6  -3   8  225.98   16.40
   6  -3  -8  214.38   17.00
   6  -3  -8  219.58   22.20
   6   3  -8  221.58   26.10
  -6   3   8  204.68   15.80
  -5  -3   8   59.79    9.60
   5  -3  -8   63.89   16.10
   5  -3  -8   49.90   10.60
   5   3  -8   42.10   10.30
   5   3  -8   47.00   15.80
  -5   3   8   42.40    9.30
  -4  -3   8  111.89   10.90
  -4  -3   8  118.29   11.50
   4  -3  -8  128.89   12.30
   4  -3  -8  126.09   18.70
  -4   3   8  106.89   11.10
   4   3  -8  112.59   12.20
   4   3  -8  116.49   17.40
   3  -3  -8  514.85   19.90
  -3  -3   8  547.25   21.00
   3  -3  -8  494.35   32.40
  -3  -3   8  531.95   20.60
   3  -3  -8  520.05   20.00
   3   3  -8  488.05   26.80
  -3   3   8  509.85   20.30
   3   3  -8  503.15   21.00
  -2  -3   8   -3.90    6.00
   2  -3  -8   -5.20    6.00
   2  -3  -8   -2.00   13.40
  -2  -3   8    1.20    5.60
  -2   3   8   -0.70    6.90
   2   3  -8   -3.90    9.30
   2   3  -8    2.70    6.30
  -2   3   8    1.70    7.30
  -1  -3   8  227.28   14.70
   1  -3  -8  266.87   14.60
   1  -3  -8  250.27   24.40
  -1  -3   8  255.87   13.20
  -1   3   8  229.38   16.10
  -1   3   8  242.48   14.90
   1   3  -8  234.08   14.70
   1   3  -8  231.18   19.80
   0  -3  -8  104.29   19.70
   0  -3   8  131.99   11.70
   0  -3  -8   96.19   10.50
   0   3  -8  128.39   16.70
   0   3   8  105.19   11.10
   0   3  -8  106.19   11.00
   0   3   8   97.99   11.80
  -1  -3  -8   15.40   16.90
  -1  -3  -8   44.00    8.60
   1  -3   8   17.90    7.50
   1  -3   8   27.80    8.70
   1   3   8   36.50    9.50
  -1   3  -8   24.80    7.80
   1   3   8   16.10    8.10
   2  -3   8  216.28   14.30
  -2  -3  -8  216.58   15.60
  -2  -3  -8  236.68   23.90
   2   3   8  206.18   17.10
  -2   3  -8  222.88   16.00
   2   3   8  202.68   16.20
  -3  -3  -8   12.00    8.40
   3   3   8   19.60    9.50
  -3   3  -8   16.60    8.50
   3   3   8    0.10    9.00
  -4  -3  -8  122.19   14.20
  -4   3  -8  106.09   13.40
   4   3   8  127.89   14.90
   4   3   8  118.19   15.50
  -5  -3  -8  104.19   15.90
   5   3   8  107.09   15.20
  -5   3  -8  119.69   14.70
   5   3   8  109.49   15.70
   8  -4  -8  431.76   21.90
   8  -4  -8  484.95   32.30
   8  -4  -8  419.76   26.10
  -8  -4   8  452.35   25.30
   8   4  -8  464.25   28.80
  -8   4   8  447.76   22.80
   8   4  -8  435.56   42.00
  -7  -4   8  499.65   25.10
   7  -4  -8  499.75   32.70
   7  -4  -8  466.95   25.60
   7  -4  -8  480.85   23.20
   7   4  -8  466.25   38.10
   7   4  -8  516.75   27.20
  -7   4   8  513.95   22.60
   6  -4  -8    4.40   14.00
   6  -4  -8   -6.60    8.40
  -6  -4   8   -6.40    7.00
   6   4  -8   -2.70   15.70
  -6   4   8    5.60    8.10
  -5  -4   8  127.69   13.00
   5  -4  -8  158.38   21.20
   5  -4  -8  174.18   15.20
   5   4  -8  171.78   23.00
   5   4  -8  150.98   15.20
  -5   4   8  160.68   13.30
  -4  -4   8   -3.80    6.70
   4  -4  -8    4.80    8.00
   4  -4  -8   -0.50   12.90
   4  -4  -8   -2.20    5.80
   4   4  -8   -9.50    7.80
   4   4  -8   10.60   12.60
  -4   4   8   -2.40    7.60
   3  -4  -8  163.28   20.40
  -3  -4   8  139.79   12.60
   3  -4  -8  134.49   11.20
   3  -4  -8  163.78   13.50
   3   4  -8  143.59   13.60
  -3   4   8  130.39   12.40
   3   4  -8  154.08   19.70
   2  -4  -8  860.51   26.30
   2  -4  -8  909.71   41.10
  -2  -4   8  916.31   28.10
   2   4  -8  783.92   27.70
  -2   4   8  858.81   27.60
   2   4  -8  825.22   35.80
  -2   4   8  776.02   29.80
  -1  -4   8  767.72   24.60
   1  -4  -8  807.92   39.30
   1  -4  -8  728.33   24.00
   1   4  -8  742.93   33.80
  -1   4   8  684.73   25.10
   1   4  -8  708.03   25.40
  -1   4   8  673.73   28.10
   0  -4  -8  392.86   17.40
   0  -4  -8  434.26   32.40
   0  -4   8  469.05   21.50
   0   4   8  421.26   19.60
   0   4  -8  434.76   19.60
   0   4   8  416.76   22.20
   0   4  -8  428.36   26.50
  -1  -4  -8  540.25   34.10
  -1  -4  -8  479.55   19.60
   1  -4   8  520.75   21.00
  -1   4  -8  497.55   29.30
  -1   4  -8  507.75   21.70
   1   4   8  464.05   24.40
   1   4   8  501.85   22.00
  -2  -4  -8  300.57   28.50
  -2  -4  -8  229.28   15.80
   2  -4   8  281.67   16.80
   2   4   8  235.78   19.60
   2   4   8  222.08   17.80
  -2   4  -8  267.07   17.00
   3  -4   8   22.80    8.20
  -3  -4  -8   15.10    8.50
   3   4   8   14.80   10.30
  -3   4  -8    8.00    8.80
   3   4   8   19.30   10.70
   4  -4   8   33.20    9.60
  -4  -4  -8   12.60   11.70
   4   4   8    9.20   10.50
  -4   4  -8   29.00   10.00
   4   4   8   13.90   11.80
   7  -5  -8   17.10   11.80
   7  -5  -8    6.70    9.00
   7  -5  -8   31.50   16.30
  -7  -5   8    0.70    8.90
   7   5  -8   10.70   12.40
   7   5  -8    3.10   21.10
  -6  -5   8   18.20    9.30
   6  -5  -8   11.20   10.20
   6  -5  -8    5.70   14.40
   6   5  -8    5.90   17.80
   6   5  -8   24.00   11.50
  -5  -5   8   73.59   11.60
   5  -5  -8   75.69   12.00
   5  -5  -8   79.79   17.20
   5   5  -8   69.29   18.60
   4  -5  -8   87.69   17.80
   4  -5  -8  103.29   12.00
   4  -5  -8   81.99   10.00
  -4  -5   8   88.49   12.00
   4   5  -8   98.59   19.00
   4   5  -8   92.69   12.50
  -3  -5   8    5.20    7.50
   3  -5  -8   -4.60    6.20
   3  -5  -8   17.40   13.50
   3   5  -8  -13.30   11.30
   3   5  -8   -6.40    8.40
   2  -5  -8   16.20   14.10
   2  -5  -8    6.10    6.40
  -2  -5   8    4.00    7.00
  -2   5   8   15.40    9.50
   2   5  -8    1.90   11.00
   2   5  -8    0.20    8.50
   1  -5  -8 1016.60   45.50
   1  -5  -8  915.91   29.60
  -1  -5   8  959.00   30.40
  -1   5   8  950.30   29.90
   1   5  -8  976.80   30.40
   1   5  -8  903.91   39.80
  -1   5   8  900.91   34.60
   0  -5  -8  573.04   35.60
   0  -5   8  510.45   22.60
   0  -5  -8  503.05   20.80
   0   5  -8  466.65   20.80
   0   5  -8  506.35   30.20
   0   5   8  448.06   24.70
   0   5   8  502.35   21.70
   1  -5   8    1.70    7.00
  -1  -5  -8   29.20   14.90
  -1  -5  -8    1.40    6.70
  -1   5  -8    5.00   11.90
   1   5   8    3.30    9.30
   1   5   8   -2.50    8.00
  -1   5  -8   -2.30    7.40
  -2  -5  -8   10.30    7.30
  -2  -5  -8   33.30   14.10
   2  -5   8   18.70    8.50
   2   5   8   20.20   10.00
   2   5   8    4.50   10.20
   3  -5   8   28.40    9.40
  -3  -5  -8   32.60    9.80
   3   5   8   47.60   11.90
   3   5   8   51.09   13.50
   6  -6  -8   69.49   19.50
  -6  -6   8   47.70   11.80
   6  -6  -8   71.59   13.60
   6   6  -8   92.39   24.50
   6   6  -8   30.40   13.10
   5  -6  -8  241.88   27.60
   5  -6  -8  180.48   17.20
  -5  -6   8  178.98   17.40
   5  -6  -8  163.78   15.20
   5   6  -8  182.18   17.00
   5   6  -8  168.38   24.70
   4  -6  -8  266.07   19.30
   4  -6  -8  259.57   17.00
  -4  -6   8  234.78   20.10
   4  -6  -8  269.17   27.80
   4   6  -8  235.68   26.40
   3  -6  -8    0.20    6.90
  -3  -6   8    7.20    8.70
   3  -6  -8    5.80   14.20
   3   6  -8   20.90   13.90
  -3   6   8    7.50   10.20
  -2  -6   8   -3.70    7.90
   2  -6  -8   15.50   13.90
   2  -6  -8    3.60    6.80
   2   6  -8   18.30   13.50
  -2   6   8    7.70    9.80
   1  -6  -8   77.39   18.30
   1  -6  -8   70.39   10.30
  -1  -6   8   56.29   10.10
   1   6  -8   92.89   17.50
  -1   6   8   72.59   13.50
   0  -6  -8   13.30   14.70
   0  -6  -8   -4.00    7.30
   0   6  -8   12.50   13.60
   0   6   8   -3.70    9.10
  -1  -6  -8   24.00    8.70
   1  -6   8   41.00   10.70
  -1  -6  -8   50.99   16.90
  -1   6  -8   49.99   16.20
   1   6   8   31.00   11.90
   2  -6   8   14.70    9.60
  -2  -6  -8   22.60   23.30
  -2  -6  -8    8.60    8.50
   2   6   8   14.20   11.40
   2   6   8   21.60   10.40
  -2   6  -8   19.60   14.60
  -4  -7   8  129.19   16.00
   4  -7  -8  132.19   14.00
   4   7  -8  164.78   24.70
  -4   7   8  116.49   16.60
  -3  -7   8  271.67   22.20
   3  -7  -8  349.96   34.20
   3  -7  -8  289.77   19.10
   3   7  -8  349.57   30.70
  -3   7   8  301.97   24.20
   2  -7  -8   29.40   16.30
   2  -7  -8    6.60    8.00
  -2  -7   8   10.80    9.10
   2   7  -8   26.30   15.30
  -2   7   8   -8.10   10.90
  -1  -7   8   -1.80    8.50
   1  -7  -8    8.90    8.20
   1  -7  -8   30.60   16.80
  -1   7   8   -3.60   10.90
   1   7  -8   44.30   15.90
   9   0  -9  137.79   24.90
  -9   0   9  222.28   18.50
   9   0  -9  215.48   20.20
  -8   0   9   -3.90    8.80
   8   0  -9    2.00   17.50
   8   0  -9    5.50    9.60
   7   0  -9  157.18   24.20
  -7   0   9  203.58   16.20
   7   0  -9  154.58   22.50
   6   0  -9    3.00   14.60
   6   0  -9    5.40    9.20
  -6   0   9    5.00    8.20
   5   0  -9  115.59   17.50
   5   0  -9  121.09   13.20
  -5   0   9  117.59   12.40
   4   0  -9  374.66   22.70
   4   0  -9  343.47   18.30
  -4   0   9  338.57   17.90
   3   0  -9  242.98   15.60
  -3   0   9  241.28   15.60
   3   0  -9  252.57   18.70
   2   0  -9  634.54   25.70
  -2   0   9  591.04   23.00
   2   0  -9  534.25   22.40
   1   0  -9  447.36   20.40
  -1   0   9  481.45   20.70
   1   0  -9  470.55   22.60
   0   0  -9   21.50    8.70
   0   0  -9   44.80   10.50
   0   0   9   33.30    8.80
   1   0   9  212.58   15.60
  -1   0  -9  190.48   15.20
   2   0   9  363.66   19.70
  -2   0  -9  320.97   19.60
  -3   0  -9    8.30    8.60
   3   0   9   -0.70    8.10
  -4   0  -9   43.90   11.70
   4   0   9   13.70    9.50
  -9  -1   9   24.80   10.50
   9  -1  -9   15.30   11.70
   9  -1  -9    2.30   14.70
  -9   1   9    0.70    9.90
   9   1  -9  -18.70   11.30
   9   1  -9    7.00   20.60
   8  -1  -9  239.78   24.20
   8  -1  -9  277.47   19.80
   8  -1  -9  164.08   23.70
  -8  -1   9  246.68   18.50
   8   1  -9  225.38   19.20
  -8   1   9  213.68   18.00
   8   1  -9  179.98   26.90
   7  -1  -9   96.29   19.60
   7  -1  -9  133.19   21.20
  -7  -1   9  102.79   13.20
   7   1  -9  110.09   22.20
  -7   1   9  102.09   12.80
   6  -1  -9   69.39   17.00
  -6  -1   9   79.59   11.60
   6  -1  -9   68.39   11.50
   6  -1  -9   74.39   20.10
   6   1  -9   76.39   12.30
  -6   1   9   87.09   11.60
   6   1  -9   67.59   18.10
   5  -1  -9  -28.60   18.30
  -5  -1   9    8.80    8.00
   5  -1  -9    4.20   11.90
   5  -1  -9   -0.60    7.90
   5   1  -9    0.50    8.00
  -5   1   9   -1.20    7.10
   5   1  -9   -1.60   12.30
  -4  -1   9   15.50    8.20
   4  -1  -9   16.90    8.00
   4  -1  -9   20.40   10.90
   4   1  -9   22.70   11.90
  -4   1   9   18.60    8.10
   4   1  -9   21.80    8.40
  -3  -1   9   25.60    8.30
   3  -1  -9   49.00   10.10
   3  -1  -9   18.60    7.70
  -3   1   9   40.60    8.80
   3   1  -9   19.00    7.90
   3   1  -9   18.20   11.10
   2  -1  -9   71.39    9.90
  -2  -1   9   67.49   10.20
   2   1  -9   61.79    9.60
  -2   1   9   66.09    8.90
   2   1  -9   67.69   13.00
  -2   1   9   61.29    9.80
   1  -1  -9   13.80    7.10
  -1  -1   9   10.20    7.80
   1   1  -9    6.60    9.20
  -1   1   9    5.10    6.20
   1   1  -9    1.70    7.00
  -1   1   9    4.20    7.50
   0  -1  -9   29.30   10.10
   0  -1  -9   23.80    8.30
   0  -1   9   23.90    8.50
   0   1   9   24.20    8.40
   0   1   9   17.20    7.10
   0   1  -9   45.90   11.70
   0   1  -9    6.60    7.40
   1  -1   9   36.90    8.80
  -1  -1  -9   32.70    8.90
   1   1   9   47.00    9.00
  -1   1  -9   25.60    8.90
   1   1   9   33.50    9.20
  -2  -1  -9    1.10    8.10
   2  -1   9    2.00    7.90
   2   1   9    6.20   10.40
  -2   1  -9    5.60    8.20
   2   1   9    7.50    8.20
   3  -1   9    9.70    8.60
  -3  -1  -9   -2.40    8.10
  -3   1  -9    1.10    8.70
   3   1   9   -0.70    8.30
   4  -1   9   32.90   10.30
  -4  -1  -9   39.10   11.60
   4   1   9   42.30   11.60
  -4   1  -9   49.99   11.80
   9  -2  -9   71.79   16.10
  -9  -2   9  105.19   14.30
   9   2  -9   80.49   25.70
  -9   2   9   87.09   13.70
   9   2  -9   63.49   16.00
   8  -2  -9  607.74   30.40
  -8  -2   9  650.93   27.50
   8  -2  -9  657.53   36.00
   8   2  -9  642.64   30.20
  -8   2   9  618.14   27.10
   8   2  -9  594.64   41.80
   7  -2  -9  339.77   23.00
  -7  -2   9  372.76   20.90
   7  -2  -9  390.06   31.60
  -7   2   9  371.56   20.80
   7   2  -9  370.36   33.30
   6  -2  -9   -5.40    8.30
   6  -2  -9  -13.20    9.60
   6  -2  -9   12.40   16.40
  -6  -2   9    6.20    8.20
   6   2  -9   -2.50    9.70
   6   2  -9    5.20   15.80
  -6   2   9    2.30    8.10
   5  -2  -9  615.44   25.00
  -5  -2   9  627.04   24.90
   5  -2  -9  645.44   26.40
   5  -2  -9  678.73   38.60
   5   2  -9  633.54   26.00
   5   2  -9  649.54   33.90
  -5   2   9  636.54   24.60
   4  -2  -9  353.56   33.10
   4  -2  -9  339.57   18.20
  -4  -2   9  377.96   18.50
   4  -2  -9  382.46   19.20
  -4   2   9  330.57   18.00
   4   2  -9  327.47   18.70
   4   2  -9  364.46   25.00
   3  -2  -9  130.09   21.90
   3  -2  -9  140.19   12.50
  -3  -2   9  158.48   13.30
  -3   2   9  148.69   12.90
   3   2  -9  165.08   18.60
   3   2  -9  138.29   12.50
   2  -2  -9  299.27   16.60
  -2  -2   9  325.37   17.40
   2  -2  -9  318.07   30.30
   2   2  -9  314.97   21.70
  -2   2   9  331.37   17.40
  -2   2   9  308.07   17.30
   2   2  -9  325.37   17.30
   1  -2  -9  212.58   15.00
   1  -2  -9  263.47   28.50
  -1  -2   9  226.18   15.80
  -1  -2   9  245.08   13.30
  -1   2   9  244.08   16.00
  -1   2   9  240.08   15.70
   1   2  -9  259.67   20.40
   1   2  -9  227.48   15.40
   0  -2   9  181.08   14.40
   0  -2  -9  157.48   25.80
   0  -2  -9  147.69   13.10
   0   2  -9  153.18   13.70
   0   2  -9  177.18   18.30
   0   2   9  161.18   14.40
   0   2   9  143.29   13.10
   1  -2   9  614.14   24.20
  -1  -2  -9  566.04   23.90
  -1  -2  -9  521.55   40.10
  -1   2  -9  591.24   24.70
   1   2   9  586.04   24.10
   1   2   9  596.74   24.50
   2  -2   9   63.79   10.70
  -2  -2  -9   44.00   21.40
  -2  -2  -9   95.19   12.40
   2   2   9  100.39   12.80
  -2   2  -9   70.19   11.40
   3  -2   9   71.69   12.30
  -3  -2  -9   94.99   13.50
   3   2   9   68.19   12.40
   3   2   9   64.29   12.10
  -3   2  -9   64.99   12.20
  -4  -2  -9  551.74   28.30
  -4   2  -9  545.75   27.70
   4   2   9  558.24   27.70
   4   2   9  579.74   27.70
  -8  -3   9   66.59   12.50
   8  -3  -9  108.39   16.10
   8  -3  -9   96.59   17.90
   8   3  -9   98.09   26.50
  -8   3   9   95.59   13.60
   8   3  -9  106.69   16.60
   7  -3  -9  200.28   18.20
   7  -3  -9  230.98   25.00
  -7  -3   9  224.58   17.70
  -7   3   9  196.18   16.40
   7   3  -9  203.08   28.30
  -6  -3   9  330.07   19.00
   6  -3  -9  336.97   21.00
   6  -3  -9  350.66   30.50
  -6   3   9  318.87   18.90
   6   3  -9  291.57   20.70
   6   3  -9  324.57   30.60
   5  -3  -9   24.80    9.70
  -5  -3   9   17.10    8.60
   5  -3  -9   24.10   15.80
  -5   3   9   25.90    9.20
   5   3  -9    4.40    9.40
   5   3  -9   30.60   15.10
   4  -3  -9   19.20    8.80
  -4  -3   9    7.90    6.90
  -4  -3   9   13.70    8.10
   4  -3  -9    9.40   14.80
   4   3  -9    3.30    8.90
  -4   3   9    9.40    8.40
   4   3  -9   12.30   12.60
  -3  -3   9   43.50    8.50
   3  -3  -9   49.30   17.10
  -3  -3   9   27.80    8.50
  -3   3   9   34.80    9.30
   3   3  -9   31.90    9.30
   3   3  -9   42.30   13.50
   2  -3  -9   91.99   11.10
   2  -3  -9  115.59   21.20
  -2  -3   9  117.49   10.90
  -2  -3   9  110.19   11.40
   2   3  -9  109.49   11.80
   2   3  -9  130.49   17.80
  -2   3   9  126.49   13.40
  -2   3   9  107.29   12.00
   1  -3  -9  129.69   22.20
  -1  -3   9   86.39    9.40
  -1  -3   9   99.89   11.30
   1  -3  -9   75.49   10.30
   1   3  -9   75.89   11.20
   1   3  -9  123.59   17.40
  -1   3   9   85.19   11.20
  -1   3   9   89.59   11.80
   0  -3  -9   33.50    8.80
   0  -3  -9   24.40   18.60
   0  -3   9   39.20    9.70
   0   3   9   30.60    9.20
   0   3  -9   31.20    8.90
   0   3  -9   51.09   13.80
   0   3   9   33.70    9.40
  -1  -3  -9    2.30   17.60
  -1  -3  -9   16.90    8.10
   1   3   9   14.20    8.70
   1   3   9   13.90    8.80
  -1   3  -9   24.10    9.20
  -1   3  -9    7.00   11.90
  -2  -3  -9  115.99   21.10
  -2  -3  -9   79.09   12.00
  -2   3  -9   90.59   12.40
   2   3   9   95.59   13.40
   2   3   9  103.79   13.40
  -3  -3  -9   82.69   12.70
  -3   3  -9   70.49   12.40
   3   3   9   79.49   13.40
   3   3   9   79.39   13.70
  -4  -3  -9   22.20   14.80
  -4   3  -9   46.90   12.20
   4   3   9   32.50   12.00
   4   3   9   34.90   12.70
   8  -4  -9    5.90   12.00
   8  -4  -9   32.30   15.10
  -8  -4   9    9.10    9.80
   8   4  -9   23.90   13.70
   8   4  -9    2.70   23.00
  -8   4   9    5.00    9.80
   7  -4  -9   98.69   18.90
  -7  -4   9   81.89   12.90
   7  -4  -9   85.99   14.40
   7   4  -9   99.69   16.10
  -7   4   9   88.79   12.60
   7   4  -9   67.49   23.70
   6  -4  -9   21.50   15.80
   6  -4  -9    9.90   10.00
  -6  -4   9    1.90    8.20
   6   4  -9   17.70   17.70
  -6   4   9    2.40    8.70
  -5  -4   9   44.40   10.30
   5  -4  -9   31.50   16.40
   5  -4  -9   36.00   10.50
   5   4  -9   31.70   16.00
   5   4  -9   28.00   11.00
  -5   4   9   22.80    9.60
   4  -4  -9  225.38   17.60
   4  -4  -9  195.38   23.30
  -4  -4   9  218.48   17.10
   4   4  -9  193.08   16.30
  -4   4   9  192.98   14.80
   4   4  -9  176.78   21.90
   3  -4  -9  119.09   19.60
  -3  -4   9  137.39   12.90
  -3   4   9  115.29   12.70
   3   4  -9  119.39   18.30
   3   4  -9  126.09   13.50
   2  -4  -9  220.48   24.00
  -2  -4   9  253.87   15.80
   2   4  -9  246.68   16.80
   2   4  -9  255.47   22.50
  -2   4   9  241.38   18.60
  -2   4   9  216.98   16.60
   1  -4  -9  201.68   25.00
  -1  -4   9  206.98   18.60
  -1   4   9  227.48   18.70
   1   4  -9  247.78   22.30
   1   4  -9  226.28   16.10
  -1   4   9  215.78   16.20
   0  -4  -9   34.10   17.60
   0   4   9   30.80   10.50
   0   4  -9   51.99   14.40
   0   4  -9   37.90    9.30
   0   4   9   43.00   10.30
  -1  -4  -9   83.29   19.20
  -1   4  -9   77.59   11.70
   1   4   9   86.19   12.30
  -1   4  -9   88.49   17.80
   1   4   9   77.69   13.10
  -2  -4  -9  192.48   23.30
   2   4   9  162.58   15.80
   2   4   9  149.49   16.30
  -2   4  -9  210.78   17.20
   3   4   9   11.00   11.40
   3   4   9   10.40   11.00
  -3   4  -9    7.60    9.50
   7  -5  -9   11.10   12.20
  -7  -5   9   17.30   10.60
   7  -5  -9   40.50   16.90
   7   5  -9    8.20   22.60
   7   5  -9   16.50   13.00
   6  -5  -9   26.90   16.30
  -6  -5   9   12.50   10.20
   6  -5  -9    3.10   10.20
   6   5  -9   20.00   19.70
  -5  -5   9   -1.10    9.10
   5  -5  -9   13.40    9.70
   5  -5  -9   22.70   15.30
   5   5  -9    4.90   15.30
  -4  -5   9  118.19   13.60
   4  -5  -9  122.19   21.10
   4   5  -9   94.49   13.70
   4   5  -9   95.79   18.50
   3  -5  -9  187.48   23.90
  -3  -5   9  208.58   17.40
   3   5  -9  176.58   22.70
  -3   5   9  213.28   18.50
   3   5  -9  148.99   15.00
   2  -5  -9   14.80   16.00
  -2  -5   9    8.30    7.90
   2   5  -9    2.50    8.90
   2   5  -9   16.40   12.80
  -2   5   9   20.30   10.80
   1  -5  -9   34.90   18.20
   1   5  -9   39.90   14.40
  -1   5   9   47.30   12.30
  -1   5   9   14.10    8.80
   1   5  -9   26.80    9.00
   0  -5  -9  122.79   22.70
   0   5  -9  128.79   13.20
   0   5  -9  164.48   21.90
   0   5   9  118.79   15.70
   0   5   9  136.29   13.90
  -1  -5  -9   44.80   17.70
  -1   5  -9   54.39   16.80
  -1   5  -9   38.00   10.00
   1   5   9   54.29   13.20
   1   5   9   34.70   10.50
  -2  -5  -9   25.10   26.50
   2   5   9    5.70   10.00
  -2   5  -9   22.30    9.90
   2   5   9   13.60   11.20
  -2   5  -9   20.80   14.50
  -5  -6   9  191.08   18.20
   5  -6  -9  196.38   23.10
   5  -6  -9  175.08   26.10
   5   6  -9  135.69   24.70
  -4  -6   9  114.99   15.00
   4  -6  -9  124.89   22.90
   4   6  -9   99.69   20.70
  -3  -6   9   73.19   12.60
   3  -6  -9   78.59   19.90
  -3   6   9   71.99   14.70
   3   6  -9   83.19   19.00
   2  -6  -9   99.89   21.20
  -2  -6   9   96.09   13.20
  -2   6   9   82.49   14.80
   2   6  -9  100.79   20.10
   2   6  -9   54.39   11.90
   1  -6  -9  141.39   22.60
   1   6  -9  118.29   20.20
  -1   6   9   71.99   14.60
   0  -6  -9   56.59   18.60
   0   6   9   38.90   12.30
   0   6  -9   64.09   18.20
   9   0 -10    9.80   19.90
  -9   0  10   24.50   11.60
   9   0 -10   18.80   12.50
   8   0 -10  -31.20   19.60
   8   0 -10  -23.50   16.50
  -8   0  10    5.80    9.90
   7   0 -10    2.30   16.40
  -7   0  10   18.00    9.80
   7   0 -10   -3.90   10.30
   7   0 -10  -26.60   21.20
   6   0 -10   24.30   10.90
  -6   0  10   41.00   10.40
   6   0 -10   44.40   16.10
  -5   0  10  244.68   17.50
   5   0 -10  229.08   18.40
   5   0 -10  282.07   24.00
   4   0 -10  511.95   23.50
   4   0 -10  551.94   27.40
  -4   0  10  513.25   23.10
   3   0 -10   15.50   10.30
   3   0 -10    6.80    8.30
  -3   0  10   11.10    8.50
   2   0 -10  609.34   26.70
   2   0 -10  602.64   24.90
  -2   0  10  622.64   25.00
   1   0 -10  848.02   30.80
  -1   0  10  873.71   30.40
   1   0 -10  911.71   33.00
   0   0 -10  243.48   17.20
   0   0 -10  251.77   19.10
   0   0  10  270.37   17.90
  -1   0 -10   32.10   10.30
   1   0  10   33.70    9.60
  -2   0 -10  115.99   14.10
   2   0  10  132.19   14.10
   3   0  10   74.29   12.70
  -3   0 -10  103.49   14.60
  -9  -1  10    3.50   10.50
   9   1 -10    8.90   13.00
  -9   1  10  -22.30    9.70
   9   1 -10  -28.60   20.10
   8  -1 -10   89.39   20.40
  -8  -1  10   55.89   12.00
  -8   1  10   54.29   12.10
   8   1 -10   62.99   21.80
   7  -1 -10   -0.70   10.40
  -7  -1  10   -0.20    9.30
   7  -1 -10   20.30   19.00
   7   1 -10  -12.90   16.40
   7   1 -10  -13.10   10.20
  -7   1  10   13.80    9.90
   6  -1 -10  -16.40   18.70
   6  -1 -10   -6.20    8.90
  -6  -1  10   -7.50    8.90
  -6   1  10    2.50    8.80
   6   1 -10    5.30   15.50
   6   1 -10  -29.90    9.00
  -5  -1  10   29.90    9.40
   5  -1 -10   36.50   10.50
   5  -1 -10    9.80   22.10
   5   1 -10   53.19   15.80
  -5   1  10   37.50   10.00
   5   1 -10   37.30   11.10
  -4  -1  10   32.90   10.00
   4  -1 -10   27.50    9.10
  -4   1  10   37.60   10.30
   4   1 -10   60.29   14.20
   4   1 -10   39.70   10.70
  -3  -1  10  305.47   18.40
   3  -1 -10  314.67   18.10
   3   1 -10  303.57   21.90
  -3   1  10  293.07   18.00
   3   1 -10  243.38   17.40
  -2  -1  10  202.48   15.80
   2  -1 -10  161.18   14.20
   2   1 -10  196.78   18.20
  -2   1  10  186.58   15.30
   2   1 -10  153.58   14.40
  -2   1  10  164.88   15.10
   1  -1 -10  139.09   13.50
  -1  -1  10  147.99   13.80
  -1   1  10  142.29   13.80
   1   1 -10  144.59   13.80
   1   1 -10  167.38   17.80
   0  -1 -10    0.90    8.00
   0  -1  10   11.50    8.40
   0   1  10    3.20    8.20
   0   1 -10   12.20   10.80
   0   1 -10    5.20    8.10
  -1  -1 -10   16.30    9.40
   1  -1  10   31.90    9.10
  -1   1 -10   21.20    9.10
   1   1  10    2.90    8.50
  -2  -1 -10   59.39   11.50
   2  -1  10   41.80   10.70
   2   1  10   58.59   11.80
  -2   1 -10   37.00   11.00
  -3  -1 -10   58.39   12.50
   3  -1  10   57.79   11.50
  -3   1 -10   39.90   11.40
   3   1  10   53.09   12.10
   8  -2 -10   78.59   16.00
  -8  -2  10  100.79   14.20
   8  -2 -10  127.99   20.60
  -8   2  10   94.89   14.00
   8   2 -10   96.69   25.90
  -7  -2  10  835.52   31.20
   7  -2 -10  782.62   33.00
   7  -2 -10  826.42   44.10
  -7   2  10  795.82   30.80
   7   2 -10  800.72   44.70
  -6  -2  10  640.94   26.20
   6  -2 -10  640.24   41.10
   6  -2 -10  632.84   28.10
   6  -2 -10  617.84   33.30
   6   2 -10  574.04   27.30
   6   2 -10  629.64   37.40
  -6   2  10  568.04   25.50
   5  -2 -10    9.00   18.70
  -5  -2  10  -11.30    7.90
   5  -2 -10  -13.90    8.60
   5  -2 -10  -16.60    9.20
   5   2 -10   17.10   13.70
  -5   2  10    4.60    9.10
   5   2 -10    3.70    9.50
  -4  -2  10  308.97   18.30
   4  -2 -10  244.58   28.40
   4  -2 -10  301.07   18.30
   4   2 -10  247.88   18.00
   4   2 -10  297.57   24.10
  -4   2  10  301.67   18.40
   3  -2 -10  207.88   27.00
  -3  -2  10  223.28   16.80
   3  -2 -10  206.58   15.90
   3   2 -10  196.98   16.10
  -3   2  10  250.17   16.90
   3   2 -10  241.78   21.70
   2  -2 -10   -3.60    7.30
  -2  -2  10   -5.20    7.40
   2  -2 -10  -19.90   19.90
  -2   2  10  -12.10    8.00
   2   2 -10    1.60   10.30
  -2   2  10   -6.30    8.10
   2   2 -10   -0.20    7.60
  -1  -2  10  107.79   12.70
   1  -2 -10  126.29   13.00
   1  -2 -10   99.79   25.60
   1   2 -10  119.29   13.10
  -1   2  10  100.29   11.90
   1   2 -10  169.88   19.20
  -1   2  10  122.59   13.50
   0  -2  10   12.30    8.50
   0  -2 -10   -2.60    7.90
   0  -2 -10   13.80   22.90
   0   2 -10   19.40   11.40
   0   2 -10    8.90    8.60
   0   2  10    6.20    7.90
   0   2  10   -2.00    8.20
   1  -2  10  306.77   19.60
  -1  -2 -10  334.77   33.20
  -1  -2 -10  276.67   19.50
  -1   2 -10  336.37   25.30
   1   2  10  321.17   19.90
   1   2  10  336.77   19.90
  -1   2 -10  321.57   19.90
   2  -2  10  453.25   22.80
  -2  -2 -10  418.26   23.40
  -2  -2 -10  387.76   39.40
   2   2  10  419.06   23.00
  -2   2 -10  421.96   24.00
  -3  -2 -10  213.08   19.50
   3   2  10  218.08   19.10
  -3   2 -10  238.98   19.80
   8  -3 -10  189.68   24.30
  -8  -3  10  185.88   17.40
   8  -3 -10  170.18   19.00
  -8   3  10  167.78   16.70
   8   3 -10  186.88   31.10
   8   3 -10  170.58   19.30
   7  -3 -10    0.70   11.10
   7  -3 -10   34.00   17.40
  -7  -3  10   -7.00    8.50
  -7   3  10   13.20   10.80
   7   3 -10   -6.50   18.80
   6  -3 -10   93.29   20.90
   6  -3 -10   72.69   12.80
  -6  -3  10   65.69   11.70
  -6   3  10   64.89   11.90
   6   3 -10   87.59   14.00
   6   3 -10   82.29   20.90
   5  -3 -10  173.58   15.30
   5  -3 -10  188.88   25.20
  -5  -3  10  202.48   17.30
  -5  -3  10  169.78   15.30
  -5   3  10  185.18   16.00
   5   3 -10  161.48   16.10
   5   3 -10  173.68   22.70
   4  -3 -10    5.00   16.00
  -4  -3  10   17.20    8.70
  -4  -3  10    9.90    8.10
   4   3 -10   19.30   10.20
  -4   3  10   14.20    9.20
   4   3 -10   29.60   14.40
  -3  -3  10   23.10    9.00
  -3  -3  10   13.70    8.10
   3  -3 -10   35.00   19.20
  -3   3  10   30.40    9.80
  -3   3  10   37.40   10.20
   3   3 -10   16.40    9.50
   3   3 -10   54.99   14.80
   2  -3 -10   20.40   18.20
  -2  -3  10   27.30    7.50
  -2  -3  10   16.10    8.70
   2   3 -10    5.50    8.60
   2   3 -10   31.00   12.60
  -2   3  10   15.80    9.30
  -2   3  10   36.50   10.10
   1  -3 -10  200.68   26.70
  -1  -3  10  181.08   17.20
  -1   3  10  196.28   16.00
   1   3 -10  208.28   16.70
  -1   3  10  210.58   17.30
   1   3 -10  220.38   21.40
   0  -3 -10  165.18   25.70
   0   3  10  124.69   14.20
   0   3 -10  132.69   13.80
   0   3  10  168.68   15.60
   0   3 -10  169.98   21.40
  -1  -3 -10    2.10   19.20
   1   3  10    1.00    9.50
   1   3  10    3.20    9.30
  -1   3 -10   -3.30    8.60
  -1   3 -10    4.60   12.10
  -2  -3 -10  114.49   23.30
  -2   3 -10   86.89   13.40
   2   3  10  117.49   14.80
   2   3  10   87.49   14.10
   7  -4 -10   19.80   17.80
  -7  -4  10   -4.40    9.80
   7  -4 -10   10.00   11.90
   7   4 -10    2.80   20.40
  -7   4  10  -13.30    9.60
  -6  -4  10   27.60   11.10
   6  -4 -10   38.80   19.70
   6  -4 -10   18.30   11.10
   6   4 -10   22.30   12.30
   6   4 -10   35.00   20.70
  -6   4  10   27.80   10.80
  -5  -4  10  163.38   15.60
   5  -4 -10  157.38   23.70
  -5   4  10  156.98   15.00
   5   4 -10  158.08   16.90
   5   4 -10  144.49   22.80
  -4  -4  10  300.77   19.80
   4  -4 -10  262.37   27.40
  -4   4  10  230.18   18.20
   4   4 -10  265.27   25.80
   4   4 -10  274.27   19.80
   3  -4 -10   14.80   15.70
  -3  -4  10    3.20    7.40
   3   4 -10   20.30   13.20
  -3   4  10   18.50    9.90
   3   4 -10   -0.10    9.10
  -3   4  10    0.00    9.80
   2  -4 -10  347.67   34.30
  -2  -4  10  322.57   19.60
   2   4 -10  316.47   19.50
  -2   4  10  308.67   19.70
   2   4 -10  323.77   25.60
  -2   4  10  324.07   21.50
   1  -4 -10  510.35   38.90
   1   4 -10  503.65   30.60
  -1   4  10  492.45   23.40
  -1   4  10  433.26   24.80
   1   4 -10  493.55   23.50
   0  -4 -10  172.78   25.30
   0   4 -10  166.78   22.60
   0   4 -10  169.68   15.70
   0   4  10  158.98   17.00
   0   4  10  177.08   16.50
  -1  -4 -10   19.60   18.30
  -1   4 -10    5.20    9.20
  -1   4 -10   13.70   14.30
   1   4  10    9.00   10.40
   1   4  10    1.60   10.30
  -2  -4 -10   55.19   33.10
   2   4  10   47.20   12.30
  -2   4 -10   59.09   12.70
   2   4  10   49.30   13.70
  -2   4 -10   55.39   17.80
  -6  -5  10   26.70   11.70
   6  -5 -10   52.79   19.80
   6  -5 -10   47.60   12.80
   6   5 -10   40.60   20.60
  -6   5  10   35.50   11.00
   5  -5 -10   26.20   18.00
  -5  -5  10   21.80   10.30
  -5   5  10   -4.90    9.40
   5   5 -10   -8.90   11.10
   5   5 -10    7.60   16.00
   4  -5 -10   43.80   20.20
  -4  -5  10   44.60   11.60
   4   5 -10   59.39   18.40
   4   5 -10   39.40   12.80
  -3  -5  10  377.76   22.10
   3  -5 -10  385.46   37.40
   3   5 -10  359.06   22.60
  -3   5  10  353.16   24.20
  -3   5  10  357.96   21.20
   3   5 -10  403.46   30.30
   2  -5 -10  233.68   28.10
   2   5 -10  263.57   25.40
  -2   5  10  232.18   18.50
  -2   5  10  213.18   19.70
   2   5 -10  226.58   18.60
   1  -5 -10   57.89   20.60
  -1   5  10   33.00   11.20
   1   5 -10   26.80   10.00
  -1   5  10   10.10   11.70
   1   5 -10   56.99   16.70
   0  -5 -10   31.70   19.80
   0   5 -10   26.10   10.40
   0   5  10   27.90   12.20
   0   5  10   12.30   10.30
   0   5 -10   39.10   16.30
  -8   0  11   -1.10   10.90
   8   0 -11   21.00   20.10
   8   0 -11  -38.90   21.00
   7   0 -11  175.08   18.30
   7   0 -11   97.29   28.80
  -7   0  11  142.69   15.90
   7   0 -11  110.29   22.80
   6   0 -11  210.38   18.70
   6   0 -11  253.97   27.00
  -6   0  11  240.08   18.90
   5   0 -11   47.30   15.50
   5   0 -11   49.00   11.90
  -5   0  11   44.20   11.10
   4   0 -11  637.54   31.50
   4   0 -11  639.94   27.30
  -4   0  11  636.24   26.90
  -3   0  11  812.72   29.90
   3   0 -11  769.52   36.30
   3   0 -11  840.12   30.90
  -2   0  11   92.59   12.50
   2   0 -11   66.89   11.80
   2   0 -11  109.09   20.40
  -1   0  11   88.89   12.60
   1   0 -11   88.19   12.50
   0   0  11   65.09   12.10
   0   0 -11   54.69   11.60
   1   0  11   26.80   10.40
  -1   0 -11   29.80   10.80
   2   0  11   22.40   11.10
  -2   0 -11   33.20   12.00
   8  -1 -11  119.89   24.70
  -8  -1  11  127.79   16.20
  -8   1  11  111.59   15.50
   8   1 -11   96.39   24.90
   7  -1 -11   68.49   14.30
   7  -1 -11   77.19   24.40
  -7  -1  11  110.69   14.30
   7   1 -11   79.59   21.70
   7   1 -11   79.49   14.90
  -7   1  11  104.79   14.60
   6  -1 -11  236.48   19.50
   6  -1 -11  198.08   30.20
  -6  -1  11  247.48   19.10
  -6   1  11  259.67   19.70
   6   1 -11  202.18   18.60
   6   1 -11  217.38   25.80
   5  -1 -11   29.50   11.30
  -5  -1  11   55.39   11.60
   5  -1 -11   16.40   24.50
  -5   1  11   43.70   11.00
   5   1 -11   55.19   16.20
   5   1 -11   21.40   11.50
   4  -1 -11   -5.50    8.80
  -4  -1  11    7.30    9.00
   4  -1 -11  -26.60   23.10
   4   1 -11  -11.70    9.20
  -4   1  11    0.60    9.10
   4   1 -11   17.00   12.60
  -3  -1  11   91.59   12.60
   3  -1 -11   68.89   11.60
   3   1 -11  114.09   16.30
   3   1 -11   78.39   12.30
  -3   1  11   74.29   12.20
   2  -1 -11   53.59   11.30
  -2  -1  11   68.49   11.80
   2   1 -11   89.59   14.20
   2   1 -11   61.99   11.30
  -2   1  11   66.19   12.00
  -1  -1  11   16.00    9.50
   1  -1 -11    2.40    8.90
  -1   1  11   21.80    9.90
   1   1 -11   38.10   11.30
   1   1 -11   21.20    9.30
   0  -1 -11   -5.10    8.40
   0  -1  11    4.70    9.00
   0   1 -11   23.80   11.60
   0   1  11   -9.20    9.10
   0   1 -11    7.30    9.30
   1  -1  11  101.49   13.60
  -1  -1 -11  124.89   15.10
  -1   1 -11  110.99   14.30
   1   1  11   71.99   12.90
  -1   1 -11  123.69   18.10
   2  -1  11   30.40   10.90
  -2  -1 -11   24.20   12.00
   2   1  11   35.40   12.00
  -2   1 -11   32.10   12.10
   8  -2 -11    5.90   17.70
   8  -2 -11  -25.60   12.80
  -8  -2  11   16.30   11.40
   8   2 -11   12.30   21.60
  -8   2  11    4.10   11.00
   7  -2 -11  149.09   25.20
  -7  -2  11  144.49   15.70
   7  -2 -11  127.19   17.00
   7   2 -11  125.59   17.50
  -7   2  11  160.78   16.60
   7   2 -11  148.39   26.70
  -6  -2  11  152.18   15.80
   6  -2 -11  161.38   17.10
   6  -2 -11  192.58   28.40
   6   2 -11  170.88   25.10
   6   2 -11  157.38   17.50
  -6   2  11  168.68   16.50
   5  -2 -11   39.70   13.10
  -5  -2  11   29.90   10.60
   5  -2 -11   51.49   22.40
  -5   2  11   53.29   12.00
   5   2 -11   43.20   12.10
   5   2 -11   52.79   16.90
   4  -2 -11   44.80   22.20
  -4  -2  11   23.50    9.70
   4  -2 -11   18.10    9.50
  -4   2  11   32.90   11.10
   4   2 -11    8.50   10.10
   4   2 -11   46.20   14.50
  -3  -2  11  -12.00    8.60
   3  -2 -11   17.00   21.10
   3  -2 -11    2.70    8.50
  -3   2  11    9.50    8.40
   3   2 -11   18.20   12.20
   3   2 -11   -3.70    9.20
  -3   2  11   -4.50    8.60
  -2  -2  11  150.68   14.90
   2  -2 -11  186.48   30.20
   2  -2 -11  144.89   14.60
   2   2 -11  156.58   15.70
  -2   2  11  183.28   17.20
   2   2 -11  215.08   20.60
  -2   2  11  172.88   15.90
   1  -2 -11  479.05   23.60
   1  -2 -11  577.74   45.40
  -1  -2  11  501.75   24.30
   1   2 -11  463.85   24.20
  -1   2  11  486.45   24.10
   1   2 -11  559.84   30.10
   0  -2 -11  269.77   19.40
   0  -2 -11  294.47   34.50
   0  -2  11  306.37   20.30
   0   2  11  265.07   19.90
   0   2 -11  302.87   20.50
   0   2 -11  314.77   25.50
  -1  -2 -11    6.60   23.90
   1  -2  11   -5.10    9.60
  -1  -2 -11    0.30   10.00
  -1   2 -11    9.00   13.30
  -1   2 -11    6.60    9.80
   1   2  11    3.10   10.30
  -2  -2 -11  494.35   47.20
  -2  -2 -11  431.66   25.90
   2   2  11  398.46   24.40
  -2   2 -11  444.66   25.80
   7  -3 -11  146.79   24.10
   7  -3 -11  137.49   16.90
  -7  -3  11  158.38   16.60
   7   3 -11  118.49   26.80
  -7   3  11  144.39   16.30
   6  -3 -11   75.79   21.90
   6  -3 -11   86.09   21.80
  -6  -3  11   53.09   12.00
  -6  -3  11   79.89   13.00
   6   3 -11   41.10   13.60
   6   3 -11  103.79   23.50
  -6   3  11   69.69   13.50
  -5  -3  11    3.10    9.50
  -5  -3  11    9.30    9.00
   5  -3 -11    6.10   19.10
   5   3 -11    2.90   10.70
  -5   3  11   -3.90   10.10
   5   3 -11   35.60   16.60
   4  -3 -11   14.50   19.60
  -4  -3  11   14.00    8.80
  -4  -3  11   -0.40    9.10
   4   3 -11    4.60   10.70
   4   3 -11    3.80   13.20
  -4   3  11   15.90   10.80
  -3  -3  11   -2.20    9.40
  -3  -3  11    2.20    7.40
   3  -3 -11   23.00   19.70
   3   3 -11   12.80   13.20
  -3   3  11   -0.50    8.70
  -3   3  11   -4.90    9.40
   3   3 -11  -15.70    8.80
   2  -3 -11    0.30   20.20
  -2   3  11    7.10    9.70
   2   3 -11   -0.50    9.40
   2   3 -11   28.10   13.00
  -2   3  11   16.10    9.60
   1  -3 -11   -1.60   20.80
  -1   3  11   -1.40    8.70
   1   3 -11   -8.80    9.20
  -1   3  11   12.30   10.40
   1   3 -11   20.20   13.30
   0  -3 -11   68.89   24.30
   0   3  11   37.10   11.30
   0   3 -11   30.90   14.90
   0   3 -11   23.60   10.70
   0   3  11   13.10   10.70
  -1  -3 -11  262.47   31.20
  -1   3 -11  270.67   21.50
  -1   3 -11  340.67   28.40
   1   3  11  262.37   24.50
   1   3  11  286.57   21.20
  -6  -4  11  134.59   16.20
   6  -4 -11   97.39   24.40
  -6   4  11  128.59   15.70
   6   4 -11  103.69   16.80
   6   4 -11  122.59   25.20
   5  -4 -11   27.10   19.50
  -5  -4  11   33.00   10.90
   5   4 -11  -13.00   11.30
   5   4 -11   37.80   18.80
  -5   4  11    9.50   11.00
  -4  -4  11  432.96   23.50
   4  -4 -11  405.96   38.50
  -4   4  11  338.87   22.40
  -4   4  11  380.06   23.60
   4   4 -11  403.16   31.70
   4   4 -11  312.47   23.20
   3  -4 -11  548.65   42.10
  -3  -4  11  530.85   24.60
   3   4 -11  462.25   32.60
  -3   4  11  460.25   26.30
  -3   4  11  510.15   25.40
   3   4 -11  508.75   25.90
   2  -4 -11   94.59   24.50
  -2   4  11   75.29   13.10
  -2   4  11   63.39   14.10
   2   4 -11   74.99   17.10
   2   4 -11   40.10   11.50
   1  -4 -11   50.19   22.20
   1   4 -11   37.90   12.20
  -1   4  11   26.00   11.20
   1   4 -11   53.99   16.00
  -1   4  11   28.30   11.20
   0  -4 -11   62.59   22.50
   0   4 -11   49.00   17.00
   0   4 -11   36.70   12.10
   0   4  11   40.50   12.30
   0   4  11    8.20   11.00
  -3   5  11  151.78   18.40
   3   5 -11  161.88   24.10
  -3   5  11  133.19   15.50
   3   5 -11  113.19   15.90
   7   0 -12  452.35   27.50
   7   0 -12  326.77   38.40
  -7   0  12  476.05   25.90
   6   0 -12  493.75   27.10
  -6   0  12  507.15   26.60
   5   0 -12   63.59   13.80
  -5   0  12   84.19   13.90
   4   0 -12   -6.80   10.10
  -4   0  12    0.20   10.50
  -3   0  12  715.53   29.50
   3   0 -12  682.03   29.50
  -2   0  12  151.38   16.10
   2   0 -12  105.79   14.00
  -1   0  12    7.30   10.10
   1   0 -12    7.00    9.60
   0   0  12  185.28   17.50
   0   0 -12  182.18   17.90
   7  -1 -12   -4.00   11.90
   7  -1 -12  -13.40   23.90
  -7  -1  12    7.40   11.10
   7   1 -12   34.90   19.80
  -7   1  12    9.20   11.40
   7   1 -12   24.00   13.80
   6  -1 -12   15.60   26.50
  -6  -1  12   46.20   12.70
   6  -1 -12   48.10   13.70
  -6   1  12   59.19   14.10
   6   1 -12   71.79   20.20
   6   1 -12   47.50   14.20
   5  -1 -12   20.50   27.10
  -5  -1  12   30.40   11.60
   5  -1 -12   11.70   11.10
  -5   1  12   47.00   12.50
   5   1 -12    3.70   11.70
   5   1 -12   47.00   16.60
  -4  -1  12  216.48   18.40
   4  -1 -12  186.88   17.60
   4  -1 -12  205.58   33.90
  -4   1  12  224.68   18.90
   4   1 -12  289.67   24.40
   4   1 -12  225.28   19.50
  -3  -1  12  160.08   16.70
   3  -1 -12  161.68   16.30
   3   1 -12  244.78   22.00
  -3   1  12  141.99   15.80
   3   1 -12  158.68   16.40
   2  -1 -12   -2.30    9.40
  -2  -1  12    0.10   10.00
   2   1 -12   41.80   12.00
  -2   1  12   -2.20   10.10
   2   1 -12   -5.40    9.90
   1  -1 -12   -2.30    9.30
  -1  -1  12    3.40   10.20
   1   1 -12   30.20   12.20
   1   1 -12  -12.30    9.20
  -1   1  12   -7.20    9.70
   0  -1  12   18.80   10.70
   0  -1 -12    0.70   10.10
   0   1  12   12.40   10.90
   0   1 -12   12.70   10.80
   0   1 -12   42.80   14.60
   6  -2 -12   41.70   25.20
  -6  -2  12   49.30   13.20
  -6   2  12   21.90   12.60
   6   2 -12   14.20   13.00
   6   2 -12   49.80   19.70
   5  -2 -12   18.60   24.00
  -5  -2  12   30.50   12.20
  -5   2  12   18.70   11.70
   5   2 -12    1.30   11.80
   5   2 -12   47.20   16.90
  -4  -2  12  180.08   17.20
   4  -2 -12  183.18   30.50
   4  -2 -12  117.99   23.90
   4   2 -12  138.59   16.20
   4   2 -12  225.78   23.80
  -4   2  12  165.08   17.00
  -3  -2  12   31.40   11.50
   3  -2 -12   -8.60   23.40
   3  -2 -12   19.20   10.60
  -3   2  12   45.60   11.80
   3   2 -12   34.40   11.90
   3   2 -12   70.59   15.60
   2  -2 -12  -32.20   22.80
  -2  -2  12  -17.90    9.30
   2  -2 -12   -2.90    9.90
   2   2 -12   47.80   12.70
   2   2 -12   -8.00    9.40
  -2   2  12  -15.10   10.30
  -1  -2  12  309.97   21.80
   1  -2 -12  279.37   20.70
   1  -2 -12  295.07   36.00
   1   2 -12  271.47   21.60
   1   2 -12  375.36   26.80
  -1   2  12  300.67   22.00
   0  -2 -12  205.28   32.80
   0  -2 -12  146.39   16.90
   0  -2  12  195.48   18.20
   0   2  12  172.68   17.60
   0   2 -12  215.88   19.40
   0   2 -12  244.28   25.30
  -5  -3  12    9.10   10.00
  -5  -3  12   -6.00   12.40
   5  -3 -12   -8.30   21.70
   5   3 -12   11.40   15.50
   5   3 -12  -15.50   11.20
  -5   3  12   10.50   11.40
  -4  -3  12   85.49   12.60
   4  -3 -12   77.99   25.30
  -4   3  12   81.39   13.80
  -4   3  12   44.50   13.10
   4   3 -12  100.29   18.80
   4   3 -12   37.90   13.80
   3  -3 -12  262.97   32.70
  -3   3  12  207.88   18.60
  -3   3  12  236.28   20.80
   3   3 -12  261.27   25.60
   3   3 -12  171.38   18.40
   2  -3 -12   99.49   27.10
   2   3 -12   61.99   13.70
  -2   3  12   76.89   13.90
   2   3 -12  129.39   19.80
   1  -3 -12   47.70   24.40
   1   3 -12   32.50   14.50
  -1   3  12    1.10   10.40
   1   3 -12    5.60   11.40
   5   0 -13  278.57   23.00
  -5   0  13  312.17   23.10
  -4   0  13    2.50   11.50
   4   0 -13  -16.70   11.30
  -3   0  13   22.00   12.50
   3   0 -13   28.30   12.30
   2   0 -13    8.10   11.60
  -2   0  13    4.70   11.10
   4  -1 -13  -65.99   26.30
   4  -1 -13  -10.80   11.50
  -4  -1  13    4.30   11.10
  -4   1  13  -14.20   11.20
   4   1 -13   -2.40   11.70
  -3  -1  13    2.10   11.50
   3  -1 -13   -4.10   11.10
   3  -1 -13  -63.99   27.30
   3   1 -13    9.90   11.50
  -3   1  13   13.50   12.10
   0   0   0    0.00    0.00

_computing_structure_solution     'SHELXT 2014/5 (Sheldrick, 2014)'
;
_shelx_hkl_checksum              11130
_olex2_submission_special_instructions 'No special instructions were received'
loop_
_space_group_symop_operation_xyz
'x, y, z'
'-x, y+1/2, -z'
'-x, -y, -z'
'x, -y-1/2, z'
loop_
_atom_site_label
_atom_site_type_symbol
_atom_site_fract_x
_atom_site_fract_y
_atom_site_fract_z
_atom_site_U_iso_or_equiv
_atom_site_adp_type
_atom_site_occupancy
_atom_site_site_symmetry_order
_atom_site_calc_flag
_atom_site_refinement_flags_posn
_atom_site_refinement_flags_adp
_atom_site_refinement_flags_occupancy
_atom_site_disorder_assembly
_atom_site_disorder_group
Cl1 Cl 0.32724(5) 0.52197(6) 0.08036(4) 0.02143(13) Uani 1 1 d . . . . .
P1 P 0.43445(7) 0.750000 0.20732(6) 0.01513(14) Uani 1 2 d S T P . .
O1 O 0.6251(2) 0.750000 0.24372(17) 0.0242(4) Uani 1 2 d S T P . .
C1 C 0.3451(3) 0.750000 0.3483(2) 0.0136(4) Uani 1 2 d S T P . .
C2 C 0.4627(3) 0.750000 0.4898(2) 0.0135(4) Uani 1 2 d S T P . .
C3 C 0.3924(3) 0.750000 0.5984(2) 0.0144(4) Uani 1 2 d S T P . .
H3 H 0.470590 0.750000 0.693167 0.017 Uiso 1 2 calc RS T P . .
C4 C 0.2127(3) 0.750000 0.5748(2) 0.0158(4) Uani 1 2 d S T P . .
C5 C 0.0998(3) 0.750000 0.4353(2) 0.0165(4) Uani 1 2 d S T P . .
H5 H -0.023226 0.750000 0.417489 0.020 Uiso 1 2 calc RS T P . .
C6 C 0.1605(3) 0.750000 0.3212(2) 0.0158(4) Uani 1 2 d S T P . .
C7 C 0.6611(3) 0.750000 0.5338(2) 0.0162(4) Uani 1 2 d S T P . .
H7A H 0.699481 0.859157 0.488601 0.024 Uiso 0.5 1 calc GR . . A -1
H7B H 0.700785 0.627573 0.504655 0.024 Uiso 0.5 1 calc GR . . A -1
H7C H 0.711521 0.763270 0.636715 0.024 Uiso 0.5 1 calc GR . . A -1
C8 C 0.1457(3) 0.750000 0.6973(2) 0.0232(5) Uani 1 2 d S T P . .
H8A H 0.028298 0.691903 0.668049 0.035 Uiso 0.5 1 calc GR . . B -1
H8B H 0.139872 0.883969 0.728708 0.035 Uiso 0.5 1 calc GR . . B -1
H8C H 0.225304 0.674127 0.775155 0.035 Uiso 0.5 1 calc GR . . B -1
C9 C 0.0228(3) 0.750000 0.1753(3) 0.0283(6) Uani 1 2 d S T P . .
H9A H 0.052458 0.651306 0.116607 0.043 Uiso 0.5 1 calc GR . . C -1
H9B H 0.019052 0.878306 0.131907 0.043 Uiso 0.5 1 calc GR . . C -1
H9C H -0.092288 0.720388 0.182900 0.043 Uiso 0.5 1 calc GR . . C -1
loop_
_atom_site_aniso_label
_atom_site_aniso_U_11
_atom_site_aniso_U_22
_atom_site_aniso_U_33
_atom_site_aniso_U_23
_atom_site_aniso_U_13
_atom_site_aniso_U_12
Cl1 0.0223(2) 0.0211(2) 0.0210(2) -0.00462(15) 0.00751(15) 0.00096(14)
P1 0.0105(3) 0.0195(3) 0.0165(3) 0.000 0.0060(2) 0.000
O1 0.0118(8) 0.0384(10) 0.0241(9) 0.000 0.0081(6) 0.000
C1 0.0112(9) 0.0142(9) 0.0169(10) 0.000 0.0066(8) 0.000
C2 0.0105(9) 0.0107(9) 0.0183(10) 0.000 0.0035(8) 0.000
C3 0.0137(10) 0.0140(9) 0.0145(10) 0.000 0.0033(8) 0.000
C4 0.0164(10) 0.0148(10) 0.0181(11) 0.000 0.0083(9) 0.000
C5 0.0107(9) 0.0194(10) 0.0204(11) 0.000 0.0065(8) 0.000
C6 0.0108(10) 0.0185(10) 0.0184(11) 0.000 0.0052(8) 0.000
C7 0.0098(9) 0.0166(10) 0.0207(11) 0.000 0.0031(8) 0.000
C8 0.0186(11) 0.0329(13) 0.0211(12) 0.000 0.0105(9) 0.000
C9 0.0087(10) 0.0562(17) 0.0181(12) 0.000 0.0018(9) 0.000
loop_
_atom_type_symbol
_atom_type_description
_atom_type_scat_dispersion_real
_atom_type_scat_dispersion_imag
_atom_type_scat_source
C C 0.0033 0.0016 'International Tables Vol C Tables 4.2.6.8 and 6.1.1.4'
H H 0.0000 0.0000 'International Tables Vol C Tables 4.2.6.8 and 6.1.1.4'
Cl Cl 0.1484 0.1585 'International Tables Vol C Tables 4.2.6.8 and 6.1.1.4'
O O 0.0106 0.0060 'International Tables Vol C Tables 4.2.6.8 and 6.1.1.4'
P P 0.1023 0.0942 'International Tables Vol C Tables 4.2.6.8 and 6.1.1.4'
loop_
_geom_angle_atom_site_label_1
_geom_angle_atom_site_label_2
_geom_angle_atom_site_label_3
_geom_angle
_geom_angle_site_symmetry_1
_geom_angle_site_symmetry_3
Cl1 P1 Cl1 101.58(3) 4_575 .
O1 P1 Cl1 110.55(4) . 4_575
O1 P1 Cl1 110.55(4) . .
O1 P1 C1 118.25(10) . .
C1 P1 Cl1 107.28(4) . .
C1 P1 Cl1 107.28(4) . 4_575
C2 C1 P1 118.59(15) . .
C2 C1 C6 119.89(19) . .
C6 C1 P1 121.52(16) . .
C1 C2 C7 125.49(19) . .
C3 C2 C1 118.24(19) . .
C3 C2 C7 116.28(19) . .
C2 C3 H3 118.5 . .
C2 C3 C4 123.0(2) . .
C4 C3 H3 118.5 . .
C3 C4 C5 117.8(2) . .
C3 C4 C8 120.2(2) . .
C5 C4 C8 122.0(2) . .
C4 C5 H5 118.8 . .
C6 C5 C4 122.43(19) . .
C6 C5 H5 118.8 . .
C1 C6 C9 124.61(19) . .
C5 C6 C1 118.63(19) . .
C5 C6 C9 116.76(19) . .
C2 C7 H7A 109.5 . .
C2 C7 H7B 109.5 . .
C2 C7 H7C 109.5 . .
H7A C7 H7B 109.5 . .
H7A C7 H7C 109.5 . .
H7B C7 H7C 109.5 . .
C4 C8 H8A 109.5 . .
C4 C8 H8B 109.5 . .
C4 C8 H8C 109.5 . .
H8A C8 H8B 109.5 . .
H8A C8 H8C 109.5 . .
H8B C8 H8C 109.5 . .
C6 C9 H9A 109.5 . .
C6 C9 H9B 109.5 . .
C6 C9 H9C 109.5 . .
H9A C9 H9B 109.5 . .
H9A C9 H9C 109.5 . .
H9B C9 H9C 109.5 . .
loop_
_geom_bond_atom_site_label_1
_geom_bond_atom_site_label_2
_geom_bond_distance
Cl1 P1 2.0238(5)
P1 O1 1.4604(16)
P1 C1 1.793(2)
C1 C2 1.421(3)
C1 C6 1.425(3)
C2 C3 1.389(3)
C2 C7 1.515(3)
C3 H3 0.9500
C3 C4 1.391(3)
C4 C5 1.393(3)
C4 C8 1.502(3)
C5 H5 0.9500
C5 C6 1.389(3)
C6 C9 1.515(3)
C7 H7A 0.9800
C7 H7B 0.9800
C7 H7C 0.9800
C8 H8A 0.9800
C8 H8B 0.9800
C8 H8C 0.9800
C9 H9A 0.9800
C9 H9B 0.9800
C9 H9C 0.9800
