#------------------------------------------------------------------------------
#$Date: 2019-11-03 11:41:00 +0200 (Sun, 03 Nov 2019) $
#$Revision: 221300 $
#$URL: file:///home/coder/svn-repositories/cod/cif/4/12/81/4128164.cif $
#------------------------------------------------------------------------------
#
# This file is available in the Crystallography Open Database (COD),
# http://www.crystallography.net/
#
# All data on this site have been placed in the public domain by the
# contributors.
#
data_4128164
loop_
_publ_author_name
'Zhu, Min'
'Zheng, Chao'
'Zhang, Xiao'
'You, Shu-Li'
_publ_section_title
;
 Synthesis of Cyclobutane-Fused Angular Tetracyclic Spiroindolines via
 Visible-Light-Promoted Intramolecular Dearomatization of Indole
 Derivatives.
;
_journal_issue                   6
_journal_name_full               'Journal of the American Chemical Society'
_journal_page_first              2636
_journal_page_last               2644
_journal_paper_doi               10.1021/jacs.8b12965
_journal_volume                  141
_journal_year                    2019
_chemical_formula_sum            'C17 H19 N O3'
_chemical_formula_weight         285.33
_space_group_crystal_system      triclinic
_space_group_IT_number           2
_space_group_name_Hall           '-P 1'
_space_group_name_H-M_alt        'P -1'
_symmetry_space_group_name_Hall  '-P 1'
_symmetry_space_group_name_H-M   'P -1'
_atom_sites_solution_hydrogens   geom
_audit_creation_method           SHELXL-2013
_cell_angle_alpha                65.743(2)
_cell_angle_beta                 71.707(2)
_cell_angle_gamma                63.078(2)
_cell_formula_units_Z            2
_cell_length_a                   8.9322(4)
_cell_length_b                   9.3914(5)
_cell_length_c                   10.8992(6)
_cell_measurement_reflns_used    3089
_cell_measurement_temperature    293(2)
_cell_measurement_theta_max      53.697
_cell_measurement_theta_min      5.179
_cell_volume                     733.98(7)
_computing_cell_refinement       'Bruker SAINT'
_computing_data_collection       'Bruker APEX2'
_computing_data_reduction        'Bruker SAINT'
_computing_molecular_graphics    'Bruker SHELXTL'
_computing_publication_material  'Bruker SHELXTL'
_computing_structure_refinement  'SHELXL-2013 (Sheldrick, 2013)'
_computing_structure_solution    'SHELXS-97 (Sheldrick 2008)'
_diffrn_ambient_temperature      293(2)
_diffrn_measured_fraction_theta_full 0.992
_diffrn_measured_fraction_theta_max 0.990
_diffrn_measurement_device_type  'Bruker APEX-II CCD'
_diffrn_measurement_method       '\f and \w scans'
_diffrn_radiation_type           MoK\a
_diffrn_radiation_wavelength     0.71073
_diffrn_reflns_av_R_equivalents  0.0262
_diffrn_reflns_av_unetI/netI     0.0338
_diffrn_reflns_Laue_measured_fraction_full 0.992
_diffrn_reflns_Laue_measured_fraction_max 0.990
_diffrn_reflns_limit_h_max       11
_diffrn_reflns_limit_h_min       -11
_diffrn_reflns_limit_k_max       11
_diffrn_reflns_limit_k_min       -11
_diffrn_reflns_limit_l_max       13
_diffrn_reflns_limit_l_min       -13
_diffrn_reflns_number            7535
_diffrn_reflns_point_group_measured_fraction_full 0.992
_diffrn_reflns_point_group_measured_fraction_max 0.990
_diffrn_reflns_theta_full        25.242
_diffrn_reflns_theta_max         25.999
_diffrn_reflns_theta_min         2.565
_exptl_absorpt_coefficient_mu    0.088
_exptl_absorpt_correction_T_max  0.7456
_exptl_absorpt_correction_T_min  0.6612
_exptl_absorpt_correction_type   multi-scan
_exptl_absorpt_process_details   sadabs
_exptl_crystal_colour            colorless
_exptl_crystal_density_diffrn    1.291
_exptl_crystal_description       prismatic
_exptl_crystal_F_000             304
_exptl_crystal_size_max          0.160
_exptl_crystal_size_mid          0.130
_exptl_crystal_size_min          0.070
_refine_diff_density_max         0.179
_refine_diff_density_min         -0.159
_refine_diff_density_rms         0.031
_refine_ls_extinction_coef       0.082(15)
_refine_ls_extinction_expression Fc^*^=kFc[1+0.001xFc^2^\l^3^/sin(2\q)]^-1/4^
_refine_ls_extinction_method     SHELXL
_refine_ls_goodness_of_fit_ref   1.047
_refine_ls_hydrogen_treatment    constr
_refine_ls_matrix_type           full
_refine_ls_number_parameters     193
_refine_ls_number_reflns         2860
_refine_ls_number_restraints     0
_refine_ls_restrained_S_all      1.047
_refine_ls_R_factor_all          0.0630
_refine_ls_R_factor_gt           0.0475
_refine_ls_shift/su_max          0.006
_refine_ls_shift/su_mean         0.000
_refine_ls_structure_factor_coef Fsqd
_refine_ls_weighting_details
'w=1/[\s^2^(Fo^2^)+(0.0511P)^2^+0.1700P] where P=(Fo^2^+2Fc^2^)/3'
_refine_ls_weighting_scheme      calc
_refine_ls_wR_factor_gt          0.1123
_refine_ls_wR_factor_ref         0.1253
_reflns_Friedel_coverage         0.000
_reflns_number_gt                2233
_reflns_number_total             2860
_reflns_threshold_expression     'I > 2\s(I)'
_cod_data_source_file            ja8b12965_si_003.cif
_cod_data_source_block           mo_d8v19014_0m
_cod_database_code               4128164
_shelx_space_group_comment
; 
The symmetry employed for this shelxl refinement is uniquely defined 
by the following loop, which should always be used as a source of 
symmetry information in preference to the above space-group names. 
They are only intended as comments. 
;
_shelx_estimated_absorpt_t_min   0.986
_shelx_estimated_absorpt_t_max   0.994
_shelxl_version_number           2013-4
_shelx_res_file
; 
TITL mo_d8v19014_0m_a.res in P-1 
CELL 0.71073 8.9322 9.3914 10.8992 65.743 71.707 63.078 
ZERR 2 0.0004 0.0005 0.0006 0.002 0.002 0.002 
LATT 1 
SFAC C  H  N  O 
UNIT 34 38 2 6 
OMIT 0 0 1 
OMIT  -3.00  52.00 
L.S. 8 
ACTA 
BOND $H 
FMAP 2 
PLAN 20 
LIST 4 
HTAB C15 O1_$1 
EQIV $1 x, y, z-1 
HTAB C2 O1 
conf 
htab 
mpla n1 c1 > c8 
wpdb -1 
size 0.16 0.13 0.07 
TEMP 20.1 
WGHT    0.051100    0.170000 
EXTI    0.082216 
FVAR       1.69368 
O1    4    0.569674    0.203805    0.613754    11.00000    0.07358    0.09478 = 
         0.06146   -0.00848   -0.03152   -0.03667 
O2    4    0.289338    0.486679   -0.019913    11.00000    0.11308    0.06261 = 
         0.07030   -0.01029    0.00817   -0.04256 
O3    4    0.375378    0.210191    0.034112    11.00000    0.07502    0.05987 = 
         0.06209   -0.01698    0.00630   -0.02703 
N1    3    0.399455    0.232435    0.481736    11.00000    0.04402    0.04939 = 
         0.04038   -0.00798   -0.01294   -0.01567 
C1    1    0.284275    0.165304    0.585163    11.00000    0.04418    0.04086 = 
         0.04073   -0.01072   -0.00933   -0.01074 
C2    1    0.287730    0.091056    0.724261    11.00000    0.05993    0.05848 = 
         0.04351   -0.00966   -0.01708   -0.01754 
AFIX  43 
H2    2    0.375412    0.077495    0.761790    11.00000   -1.20000 
AFIX   0 
C3    1    0.156795    0.037750    0.805543    11.00000    0.07629    0.06728 = 
         0.03683   -0.00753   -0.00851   -0.02866 
AFIX  43 
H3    2    0.157083   -0.012177    0.898965    11.00000   -1.20000 
AFIX   0 
C4    1    0.026430    0.056842    0.751495    11.00000    0.06524    0.06436 = 
         0.04657   -0.01357    0.00093   -0.03099 
AFIX  43 
H4    2   -0.060133    0.020272    0.808407    11.00000   -1.20000 
AFIX   0 
C5    1    0.023489    0.130424    0.612428    11.00000    0.05528    0.05076 = 
         0.04827   -0.01220   -0.00886   -0.02231 
AFIX  43 
H5    2   -0.064408    0.143082    0.575666    11.00000   -1.20000 
AFIX   0 
C6    1    0.152485    0.184670    0.529178    11.00000    0.04756    0.03761 = 
         0.04077   -0.01080   -0.00976   -0.01280 
C7    1    0.175091    0.272195    0.378660    11.00000    0.04555    0.03938 = 
         0.03842   -0.00775   -0.01098   -0.01542 
C8    1    0.342140    0.301087    0.349007    11.00000    0.05015    0.04853 = 
         0.03751   -0.01041   -0.01028   -0.01841 
AFIX  13 
H8    2    0.428052    0.256272    0.278451    11.00000   -1.20000 
AFIX   0 
C9    1    0.244608    0.492950    0.299847    11.00000    0.07500    0.04620 = 
         0.05687   -0.00193   -0.02744   -0.02768 
AFIX  23 
H9A   2    0.243130    0.549895    0.357246    11.00000   -1.20000 
H9B   2    0.281713    0.546533    0.204958    11.00000   -1.20000 
AFIX   0 
C10   1    0.077646    0.468400    0.324055    11.00000    0.05404    0.04182 = 
         0.04508   -0.01143   -0.01520   -0.01113 
AFIX  13 
H10   2   -0.009732    0.515253    0.393029    11.00000   -1.20000 
AFIX   0 
C11   1    0.009211    0.502898    0.198554    11.00000    0.05669    0.04967 = 
         0.04989   -0.00818   -0.02214   -0.01330 
AFIX  23 
H11A  2    0.024221    0.601638    0.126734    11.00000   -1.20000 
H11B  2   -0.110849    0.521569    0.220987    11.00000   -1.20000 
AFIX   0 
C12   1    0.112204    0.345521    0.153041    11.00000    0.05862    0.05417 = 
         0.04307   -0.01094   -0.01860   -0.02192 
AFIX  13 
H12   2    0.038438    0.330075    0.113282    11.00000   -1.20000 
AFIX   0 
C13   1    0.151616    0.199951    0.286958    11.00000    0.05553    0.04693 = 
         0.04313   -0.01191   -0.01090   -0.02222 
AFIX  23 
H13A  2    0.058443    0.160405    0.328682    11.00000   -1.20000 
H13B  2    0.254326    0.106619    0.270304    11.00000   -1.20000 
AFIX   0 
C14   1    0.266512    0.359122    0.048079    11.00000    0.07246    0.05419 = 
         0.03895   -0.00776   -0.01815   -0.02533 
C15   1    0.526037    0.209510   -0.066420    11.00000    0.08703    0.08381 = 
         0.06635   -0.02088    0.01314   -0.03344 
AFIX 137 
H15A  2    0.494493    0.269129   -0.155713    11.00000   -1.50000 
H15B  2    0.600695    0.095422   -0.060922    11.00000   -1.50000 
H15C  2    0.583113    0.263526   -0.049479    11.00000   -1.50000 
AFIX   0 
C16   1    0.532965    0.250563    0.500556    11.00000    0.04752    0.05291 = 
         0.05621   -0.01270   -0.01701   -0.01406 
C17   1    0.634432    0.329730    0.375638    11.00000    0.05821    0.08747 = 
         0.07119   -0.01199   -0.01441   -0.03701 
AFIX 137 
H17A  2    0.684232    0.261553    0.316672    11.00000   -1.50000 
H17B  2    0.722802    0.338433    0.401125    11.00000   -1.50000 
H17C  2    0.561467    0.440078    0.328845    11.00000   -1.50000 
AFIX   0 
HKLF 4 
  
REM  mo_d8v19014_0m_a.res in P-1 
REM R1 =  0.0475 for    2233 Fo > 4sig(Fo)  and  0.0630 for all    2860 data 
REM    193 parameters refined using      0 restraints 
  
END 
  
WGHT      0.0504      0.1717 
  
REM Instructions for potential hydrogen bonds 
HTAB C2 O1 
HTAB C15 O1_$1 
  
REM Highest difference peak  0.179,  deepest hole -0.159,  1-sigma level  0.031 
Q1    1   0.5938  0.3798  0.2772  11.00000  0.05    0.18 
Q2    1   0.1694  0.2344  0.3405  11.00000  0.05    0.16 
Q3    1   0.2078  0.1744  0.5626  11.00000  0.05    0.16 
Q4    1   0.1055  0.3573  0.3590  11.00000  0.05    0.16 
Q5    1   0.0513  0.4871  0.2698  11.00000  0.05    0.14 
Q6    1   0.1553  0.2289  0.4564  11.00000  0.05    0.14 
Q7    1   0.1359  0.1097  0.5599  11.00000  0.05    0.13 
Q8    1   0.3157  0.3959  0.3172  11.00000  0.05    0.12 
Q9    1   0.7661  0.2447  0.3800  11.00000  0.05    0.12 
Q10   1   0.2720  0.2537  0.3604  11.00000  0.05    0.12 
Q11   1   0.3727  0.2826  0.4196  11.00000  0.05    0.12 
Q12   1   0.3765  0.2613  0.0803  11.00000  0.05    0.12 
Q13   1   0.0051  0.2051  0.3384  11.00000  0.05    0.12 
Q14   1   0.1920  0.3579  0.1205  11.00000  0.05    0.12 
Q15   1   0.3394  0.4196  0.0581  11.00000  0.05    0.11 
Q16   1   0.2757  0.4260 -0.0668  11.00000  0.05    0.11 
Q17   1   0.1250  0.2916  0.2152  11.00000  0.05    0.11 
Q18   1   0.6760  0.4053  0.4131  11.00000  0.05    0.10 
Q19   1   0.2108  0.0785  0.2837  11.00000  0.05    0.10 
Q20   1   0.5966  0.1608  0.5620  11.00000  0.05    0.10 
;
_shelx_res_checksum              85111
_shelx_hkl_file
; 
  -1   0   0   20.40    1.00 
   1   0   0   19.80    1.30 
  -2   0   0    8.70    0.90 
  -2   0   0    8.50    0.80 
  -2   0   0    8.70    1.40 
   2   0   0    9.70    0.90 
   2   0   0    9.10    1.40 
  -3   0   0  713.03   18.30 
  -3   0   0  727.23   20.50 
  -3   0   0  726.83   18.50 
   3   0   0  745.53   20.80 
   3   0   0  712.63   18.70 
  -4   0   0   16.10    1.50 
  -4   0   0   14.70    2.40 
  -4   0   0   12.70    1.30 
   4   0   0   15.80    2.70 
  -5   0   0   23.10    3.50 
  -5   0   0   25.00    1.80 
   5   0   0   27.80    3.50 
  -6   0   0   32.70    1.80 
  -6   0   0   30.60    2.10 
   6   0   0   25.00    4.40 
   7   0   0  219.18   12.50 
   8   0   0   28.20    5.40 
   9   0   0   24.60    6.10 
  10   0   0    1.70    2.70 
   9  -1   0   20.60    5.20 
   8  -1   0   77.29    8.30 
   7  -1   0   15.40    4.00 
   6  -1   0  142.49    9.30 
   5  -1   0  177.68    9.50 
  -4   1   0   59.79    4.60 
   3  -1   0  409.96   13.60 
  -3   1   0  401.86   13.40 
   2  -1   0 2548.25   60.79 
  -2   1   0 2490.65   60.69 
   0   1   0  274.37    7.50 
   0   1   0  265.17    7.70 
   0   1   0  257.07    7.00 
  -2  -1   0  235.78    8.10 
  -2  -1   0  240.28    7.60 
   2   1   0  228.08    7.60 
   2   1   0  241.98    8.30 
  -3  -1   0  281.57    9.70 
  -3  -1   0  287.07    9.70 
   3   1   0  285.27   10.10 
   3   1   0  290.57   10.00 
  -4  -1   0 1038.80   27.30 
  -4  -1   0  993.90   27.90 
  -4  -1   0  984.20   27.40 
   4   1   0 1031.90   28.00 
   4   1   0  999.90   28.30 
  -5  -1   0 1500.15   39.00 
  -5  -1   0 1474.75   38.20 
  -5  -1   0 1420.76   39.90 
   5   1   0 1492.05   39.40 
   5   1   0 1508.35   40.80 
  -6  -1   0   24.90    2.70 
  -6  -1   0   22.90    2.40 
   6   1   0   17.20    3.80 
  -7  -1   0  159.38    6.90 
  -7  -1   0  145.69    7.20 
   7   1   0  143.99   10.00 
  -8  -1   0  293.67   10.60 
  -8  -1   0  292.47    9.90 
   8   1   0  307.47   16.00 
  -9  -1   0   15.10    1.50 
   9   1   0   23.50    5.20 
  10   1   0    1.60    2.90 
   9  -2   0   34.90    6.40 
   8  -2   0   53.39    8.00 
   7  -2   0    7.10    3.00 
   6  -2   0    1.40    1.60 
   5  -2   0  166.58    9.60 
   4  -2   0 1180.98   33.10 
  -4   2   0 1097.49   32.50 
   3  -2   0  463.75   15.70 
  -3   2   0  480.45   15.70 
   2  -2   0  459.35   11.90 
   2  -2   0  458.05   14.40 
   2  -2   0  480.75   12.40 
  -2   2   0  468.65   12.50 
  -2   2   0  443.26   14.20 
   0  -2   0 2714.23   63.09 
   0  -2   0 2638.24   62.49 
   0   2   0 2557.04   62.59 
   0   2   0 2573.14   63.19 
  -2  -2   0  278.77   10.40 
  -2  -2   0  281.67    8.70 
   2   2   0  281.37   10.60 
   2   2   0  275.57    8.70 
  -3  -2   0 1923.41   50.29 
  -3  -2   0 1973.00   48.50 
   3   2   0 2001.40   48.80 
   3   2   0 1994.80   50.99 
  -4  -2   0 1817.82   46.60 
  -4  -2   0 1762.32   45.30 
   4   2   0 1767.42   47.40 
   4   2   0 1760.42   45.60 
  -5  -2   0   18.40    3.80 
  -5  -2   0   14.30    2.80 
  -5  -2   0   13.00    2.70 
   5   2   0   16.90    4.00 
   5   2   0   13.90    2.90 
  -6  -2   0  217.28   10.70 
  -6  -2   0  219.88   10.20 
   6   2   0  227.18   11.10 
   6   2   0  223.78   11.20 
  -7  -2   0   19.60    3.80 
  -7  -2   0   21.20    3.30 
   7   2   0   20.20    4.30 
   7   2   0   16.60    3.40 
  -8  -2   0  129.79    7.30 
  -8  -2   0  132.09    8.20 
  -9  -2   0    0.60    1.60 
  -9  -2   0   -0.50    1.70 
   9   2   0    4.20    3.10 
 -10  -2   0    8.70    2.30 
  10   2   0    4.10    3.10 
   8  -3   0    2.80    2.90 
   7  -3   0   21.00    4.90 
   6  -3   0   38.80    5.00 
   5  -3   0  227.58   12.00 
   4  -3   0    6.30    2.10 
   3  -3   0   99.79    6.30 
   3  -3   0  107.19    4.00 
   3  -3   0  101.69    3.40 
  -3   3   0  100.79    6.30 
   2  -3   0    0.50    0.60 
   2  -3   0    0.10    0.70 
  -2   3   0    0.20    0.70 
  -2   3   0   -0.50    0.60 
   1  -3   0    0.90    0.60 
   1  -3   0    0.40    0.70 
   1  -3   0    2.00    0.80 
  -1   3   0    0.40    0.60 
   0  -3   0 4425.26  104.59 
   0  -3   0 4381.96  105.29 
   0   3   0 4414.96  105.89 
  -1  -3   0    5.90    1.50 
  -1  -3   0    1.40    0.60 
   1   3   0    1.30    0.70 
  -2  -3   0  298.47   11.90 
   2   3   0  303.67   12.40 
   2   3   0  288.27    9.50 
  -3  -3   0   22.40    2.30 
   3   3   0   21.20    2.30 
   3   3   0   37.50    4.00 
  -4  -3   0 1729.53   47.80 
  -4  -3   0 1734.93   45.10 
   4   3   0 1818.82   49.20 
   4   3   0 1792.12   45.50 
  -5  -3   0 1536.95   43.20 
  -5  -3   0 1493.95   40.70 
   5   3   0 1548.84   44.60 
   5   3   0 1558.24   41.60 
  -6  -3   0  556.64   20.20 
  -6  -3   0  532.35   19.10 
  -6  -3   0  583.54   21.50 
   6   3   0  540.95   21.40 
   6   3   0  557.64   19.80 
  -7  -3   0  466.25   18.20 
  -7  -3   0  474.45   19.50 
   7   3   0  462.45   19.90 
   7   3   0  456.05   18.60 
  -8  -3   0   13.00    3.30 
  -8  -3   0   15.80    3.10 
   8   3   0   12.90    3.90 
   8   3   0   12.80    3.90 
  -9  -3   0    5.00    2.40 
  -9  -3   0    2.90    1.80 
   9   3   0   -2.60    1.60 
 -10  -3   0    5.60    2.90 
  10   3   0    6.10    3.20 
   8  -4   0    9.70    3.90 
   7  -4   0    2.80    2.60 
   6  -4   0   -0.80    1.60 
   5  -4   0  135.19    9.40 
   4  -4   0   16.90    3.50 
   3  -4   0   98.79    5.00 
   3  -4   0  107.49    4.40 
   3  -4   0  104.59    6.80 
  -3   4   0  110.49    8.40 
   2  -4   0   64.09    4.10 
   2  -4   0   69.49    4.70 
   2  -4   0   77.69    5.20 
   2  -4   0   69.29    6.40 
  -2   4   0   67.79    4.70 
  -2   4   0   70.89    6.00 
   1  -4   0  446.36   14.50 
   1  -4   0  439.16   14.90 
   1  -4   0  423.96   16.00 
  -1   4   0  434.56   15.70 
  -1   4   0  428.06   14.30 
   0  -4   0 2467.05   59.19 
   0  -4   0 2417.86   61.79 
   0  -4   0 2368.16   60.59 
   0   4   0 2422.66   62.69 
  -1  -4   0  153.68    8.40 
  -1  -4   0  157.68    6.40 
  -1  -4   0  162.18    6.80 
   1   4   0  152.18    7.20 
   1   4   0  160.88    8.90 
  -2  -4   0   78.39    5.80 
  -2  -4   0   71.59    4.00 
   2   4   0   77.49    4.50 
   2   4   0   80.39    6.30 
  -3  -4   0  178.18    7.40 
  -3  -4   0  184.48    9.80 
   3   4   0  179.78    7.60 
   3   4   0  186.98   10.50 
  -4  -4   0    2.70    1.60 
  -4  -4   0    1.00    1.00 
   4   4   0   -0.30    0.80 
   4   4   0    2.10    1.30 
  -5  -4   0    8.20    2.70 
  -5  -4   0    8.60    2.20 
   5   4   0   11.50    2.70 
   5   4   0    6.30    2.40 
  -6  -4   0  107.49    8.30 
  -6  -4   0  105.89    6.80 
   6   4   0   98.19    6.90 
   6   4   0  107.59    8.90 
  -7  -4   0  114.59    9.10 
   7   4   0   90.59    8.70 
   7   4   0  107.79    8.10 
  -8  -4   0    7.80    3.20 
   8   4   0    4.10    2.70 
   8   4   0   -0.70    2.10 
  -9  -4   0   -3.30    1.90 
   9   4   0   -3.80    1.70 
   9   4   0   -1.40    1.60 
 -10  -4   0   48.10    7.60 
  10   4   0   45.80    7.50 
 -11  -4   0    6.80    4.10 
  11   4   0   -4.60    2.00 
   7  -5   0   -2.10    2.50 
   6  -5   0   26.60    5.00 
   5  -5   0    5.40    2.70 
   4  -5   0  132.49    4.10 
   4  -5   0  126.79    8.90 
   3  -5   0   69.49    4.80 
   3  -5   0   83.99    6.40 
   3  -5   0   82.39    4.40 
   2  -5   0   14.60    2.50 
   2  -5   0   11.00    2.40 
   2  -5   0    7.50    2.20 
   2  -5   0   15.20    3.40 
  -2   5   0    8.60    2.10 
  -2   5   0   11.20    2.60 
   1  -5   0  111.19    6.50 
   1  -5   0  113.99    6.90 
   1  -5   0  123.89    7.90 
   1  -5   0  110.59    7.50 
  -1   5   0  120.09    7.80 
   0  -5   0   40.10    4.00 
   0  -5   0   39.90    3.90 
   0  -5   0   39.20    3.50 
   0   5   0   33.40    5.10 
  -1  -5   0  636.64   22.80 
  -1  -5   0  679.73   19.60 
  -1  -5   0  672.13   20.30 
   1   5   0  666.73   24.10 
   1   5   0  683.33   21.40 
  -2  -5   0  323.37   14.80 
  -2  -5   0  323.47   11.40 
   2   5   0  336.47   12.40 
  -3  -5   0 1835.42   47.10 
  -3  -5   0 1885.51   52.89 
   3   5   0 1886.31   54.29 
   3   5   0 1870.41   48.10 
  -4  -5   0  477.35   20.00 
  -4  -5   0  521.25   16.50 
   4   5   0  503.95   16.80 
   4   5   0  510.95   21.70 
  -5  -5   0  429.86   15.30 
   5   5   0  413.66   19.90 
   5   5   0  430.96   15.60 
  -6  -5   0  418.06   16.00 
   6   5   0  444.46   21.10 
   6   5   0  451.05   16.90 
  -7  -5   0   36.20    6.50 
   7   5   0   48.20    7.60 
   7   5   0   47.00    5.30 
  -8  -5   0   25.40    5.70 
   8   5   0   11.90    4.30 
   8   5   0   18.60    4.10 
  -9  -5   0    2.90    3.20 
   9   5   0    3.30    2.20 
   9   5   0   11.00    3.30 
 -10  -5   0   -3.70    3.00 
  10   5   0    5.70    2.80 
  10   5   0   -3.90    4.10 
   6  -6   0    1.50    2.30 
   5  -6   0   34.90    5.90 
   4  -6   0    9.60    1.10 
   4  -6   0   14.10    3.70 
   4  -6   0   11.10    1.50 
   3  -6   0   38.90    4.50 
   3  -6   0   24.50    3.70 
   3  -6   0   34.50    3.00 
   2  -6   0   25.10    3.00 
   2  -6   0   16.70    3.50 
   2  -6   0   15.30    3.10 
  -2   6   0   26.40    4.50 
   1  -6   0  247.38   11.10 
   1  -6   0  261.37   13.00 
   1  -6   0  221.78   13.00 
   1  -6   0  250.87   12.60 
  -1   6   0  258.67   13.20 
   0  -6   0  285.77   11.80 
   0  -6   0  314.67   14.20 
   0  -6   0  305.97   13.30 
   0   6   0  318.57   15.70 
  -1  -6   0  127.29    6.70 
  -1  -6   0  129.39    8.90 
  -1  -6   0  119.79    7.00 
   1   6   0  121.99    7.80 
   1   6   0  126.59    9.70 
  -2  -6   0  355.96   12.70 
  -2  -6   0  346.17   12.90 
  -2  -6   0  360.26   19.70 
   2   6   0  354.56   14.10 
   2   6   0  365.96   17.90 
  -3  -6   0   41.10    3.70 
   3   6   0   49.40    6.00 
   3   6   0   39.00    4.00 
  -4  -6   0   88.49    5.80 
   4   6   0   86.29    6.00 
   4   6   0   94.99    8.80 
  -5  -6   0   28.80    4.20 
   5   6   0   24.80    5.50 
  -6  -6   0    9.60    2.60 
   6   6   0   11.10    2.70 
   6   6   0    4.20    2.50 
  -7  -6   0  145.09   11.90 
   7   6   0  131.69   11.50 
   7   6   0  135.59    9.00 
  -8  -6   0    0.90    1.80 
   8   6   0    0.50    2.20 
   8   6   0    1.40    1.60 
  -9  -6   0    5.50    4.30 
   9   6   0    4.20    4.00 
   9   6   0    6.20    3.10 
 -10  -6   0   -0.30    3.30 
  10   6   0    3.10    2.30 
  10   6   0    4.10    4.20 
   5  -7   0    0.10    1.90 
   4  -7   0    0.80    2.50 
   4  -7   0    3.40    1.20 
   3  -7   0    1.00    1.70 
   3  -7   0    0.80    1.30 
   2  -7   0   43.00    5.00 
   2  -7   0   38.70    4.70 
   2  -7   0   44.30    4.50 
  -2   7   0   42.90    5.40 
   1  -7   0   72.69    5.90 
   1  -7   0   85.89    7.00 
   1  -7   0   85.19    7.90 
  -1   7   0   83.39    7.90 
   0  -7   0  503.25   22.00 
   0  -7   0  480.05   17.50 
   0  -7   0  491.15   19.20 
   0   7   0  489.25   21.90 
  -1  -7   0   44.50    4.30 
  -1  -7   0   40.50    4.40 
   1   7   0   53.29    6.40 
  -2  -7   0  119.09    6.80 
  -2  -7   0  139.99    7.60 
   2   7   0  145.99   11.30 
   2   7   0  132.69    8.40 
  -3  -7   0   19.30    3.10 
   3   7   0   14.80    3.20 
   3   7   0   27.50    5.70 
  -4  -7   0   36.80    3.80 
   4   7   0   29.80    4.40 
   4   7   0   27.30    6.00 
  -5  -7   0   -1.60    1.70 
   5   7   0    3.20    1.80 
   5   7   0   -2.50    1.80 
  -6  -7   0  282.77   17.80 
   6   7   0  257.37   17.30 
   6   7   0  252.87   12.50 
  -7  -7   0  132.19   12.20 
   7   7   0   95.09   10.40 
   7   7   0  109.89    8.20 
  -8  -7   0   46.20    8.50 
   8   7   0   44.30    5.30 
   8   7   0   52.79    9.00 
   9   7   0   -4.40    2.70 
   9   7   0    0.40    2.40 
 -10  -7   0    1.60    3.80 
  10   7   0   -2.80    3.90 
   4  -8   0   17.20    3.90 
   3  -8   0    2.30    2.60 
   3  -8   0    0.40    2.10 
   2  -8   0    6.30    3.00 
   2  -8   0    2.20    2.80 
   1  -8   0    6.90    2.40 
   1  -8   0    4.30    2.70 
  -1   8   0    4.90    2.80 
   0  -8   0    1.20    1.60 
   0  -8   0    1.70    2.00 
   0   8   0    8.00    2.70 
  -1  -8   0   21.40    4.70 
  -1  -8   0   28.80    4.60 
  -1  -8   0   28.50    3.60 
   1   8   0   29.80    5.60 
  -2  -8   0   -0.40    1.20 
  -2  -8   0    1.50    1.60 
  -2  -8   0   -2.80    1.50 
   2   8   0   -1.00    1.20 
  -3  -8   0   34.70    6.40 
  -3  -8   0   43.20    4.20 
  -3  -8   0   36.30    3.80 
   3   8   0   33.10    5.10 
   3   8   0   32.30    6.70 
  -4  -8   0  365.16   26.70 
  -4  -8   0  419.26   15.40 
   4   8   0  405.96   17.00 
   4   8   0  407.26   32.70 
  -5  -8   0   23.40    5.60 
  -5  -8   0   13.40    3.00 
   5   8   0   10.10    3.90 
   5   8   0   21.20    3.70 
  -6  -8   0   49.90    8.50 
   6   8   0   55.49    5.50 
   6   8   0   58.59    9.60 
  -7  -8   0   89.49   10.00 
   7   8   0   70.69    9.10 
   7   8   0   59.29    6.30 
  -8  -8   0    2.50    3.10 
   8   8   0    1.10    1.80 
   8   8   0    3.20    3.60 
  -9  -8   0    0.50    3.50 
   9   8   0   -4.60    2.80 
   9   8   0   -2.30    1.90 
  10   8   0   15.40    4.00 
   2  -9   0   22.40    4.30 
   2  -9   0   26.80    5.20 
   1  -9   0   25.70    5.60 
   1  -9   0   10.70    5.20 
  -1   9   0   16.90    4.90 
   0  -9   0   12.50    3.20 
   0  -9   0   19.90    5.30 
   0   9   0   12.10    4.40 
  -1  -9   0   46.50    8.10 
  -1  -9   0   47.40    4.80 
   1   9   0   45.30    7.90 
  -2  -9   0   10.50    4.30 
  -2  -9   0    8.70    2.80 
   2   9   0   14.40    4.20 
  -3  -9   0   -0.10    1.60 
  -3  -9   0    3.80    2.80 
   3   9   0    1.50    2.00 
   3   9   0    0.50    1.90 
  -4  -9   0  141.29   13.20 
  -4  -9   0  124.29    7.90 
   4   9   0  138.39   13.10 
   4   9   0  118.79    8.70 
  -5  -9   0   69.39   11.00 
   5   9   0   67.49    6.50 
   5   9   0   65.29   10.40 
  -6  -9   0   29.60    7.20 
   6   9   0   29.50    6.20 
   6   9   0   29.00    5.00 
  -7  -9   0   -2.00    2.60 
   7   9   0    4.00    3.40 
   7   9   0    0.70    2.00 
  -8  -9   0    2.60    3.10 
   8   9   0   -1.40    3.00 
   8   9   0   -3.50    1.70 
  -9  -9   0    6.80    4.70 
   9   9   0    7.80    5.40 
   9   9   0   12.70    3.80 
   0 -10   0    5.20    2.70 
   0  10   0   12.40    4.60 
  -1 -10   0   15.30    3.70 
  -1 -10   0   30.30    6.00 
   1  10   0   14.10    5.60 
  -2 -10   0    0.40    3.00 
  -2 -10   0   -1.70    1.60 
   2  10   0    5.00    2.80 
  -3 -10   0    6.00    3.90 
  -3 -10   0    6.20    2.40 
   3  10   0    3.30    3.90 
  -4 -10   0   -3.30    2.40 
  -4 -10   0   -1.30    1.50 
   4  10   0   -4.30    2.80 
   4  10   0    0.90    2.60 
  -5 -10   0   19.10    5.70 
  -5 -10   0    8.30    2.50 
   5  10   0   13.80    3.60 
   5  10   0   16.30    4.20 
  -6 -10   0   12.50    4.30 
   6  10   0   -4.20    2.90 
   6  10   0   -2.80    2.10 
  -7 -10   0    7.80    4.50 
   7  10   0   11.00    3.50 
   7  10   0   -1.20    4.50 
  -8 -10   0    2.60    4.50 
   8  10   0    7.40    3.90 
   8  10   0   -0.30    2.00 
  -3 -11   0   45.90    9.80 
  -3 -11   0   38.70    5.00 
   3  11   0   44.80   11.40 
  -4 -11   0    7.00    2.60 
  -4 -11   0    9.90    4.70 
   4  11   0   12.30    4.50 
  -5 -11   0    2.80    2.00 
  -5 -11   0    2.70    3.80 
   5  11   0   -2.60    3.60 
   5  11   0   -5.00    2.70 
   7  10  -1    5.60    3.10 
   7  10  -1   12.40    4.90 
  -7 -10   1   -4.10    3.00 
   6  10  -1    7.60    3.20 
   6  10  -1    7.30    4.00 
  -6 -10   1    9.20    4.20 
   5  10  -1    7.50    6.50 
   5  10  -1    8.10    3.30 
  -5 -10   1    9.40    2.50 
   4  10  -1   -1.30    3.00 
  -4 -10   1    2.90    1.70 
  -4 -10   1    6.40    3.40 
   3  10  -1   10.60    4.40 
  -3 -10   1   12.50    4.50 
  -3 -10   1   12.40    2.70 
   2  10  -1   -0.40    2.70 
  -2 -10   1   -2.10    1.70 
  -2 -10   1    2.30    3.80 
   1  10  -1   27.50    6.20 
  -1 -10   1   15.90    3.10 
  -1 -10   1   16.90    5.20 
   0  10  -1    8.30    4.50 
   0 -10   1    1.90    1.90 
   0 -10   1    6.90    3.70 
   8   9  -1    5.20    3.90 
   8   9  -1    1.90    2.50 
  -8  -9   1    1.30    3.90 
   7   9  -1    6.20    2.90 
   7   9  -1   11.90    5.00 
  -7  -9   1    8.60    4.20 
   6   9  -1    0.00    2.10 
   6   9  -1    4.90    3.10 
  -6  -9   1    1.50    2.80 
   5   9  -1   23.50    4.20 
   5   9  -1   16.70    5.80 
  -5  -9   1   12.30    2.80 
   4   9  -1    7.50    4.10 
   4   9  -1    4.90    2.40 
  -4  -9   1    0.70    2.10 
  -4  -9   1    5.30    1.90 
   3   9  -1   -0.80    3.00 
  -3  -9   1    3.00    2.10 
  -3  -9   1    6.50    2.00 
   2   9  -1   22.60    5.20 
  -2  -9   1   16.10    3.20 
  -2  -9   1   20.50    5.30 
  -2  -9   1   16.50    2.90 
   1   9  -1    9.30    4.00 
  -1  -9   1   17.10    4.80 
  -1  -9   1   13.00    2.60 
   0   9  -1   10.00    3.40 
   0  -9   1   10.40    2.80 
   0  -9   1    5.20    3.50 
  -1   9  -1    5.00    7.70 
   1  -9   1   10.80    2.80 
   1  -9   1   22.10    5.30 
  -2   9  -1   13.10    4.40 
   2  -9   1   10.10    3.20 
   2  -9   1    7.60    3.90 
   9   8  -1   -3.40    2.70 
   9   8  -1    5.00    2.80 
  -9  -8   1   -0.60    3.10 
   8   8  -1    1.40    1.70 
   8   8  -1    0.60    3.30 
  -8  -8   1    4.20    3.00 
   7   8  -1    5.90    2.40 
   6   8  -1   23.80    4.00 
   6   8  -1   15.40    5.20 
   5   8  -1    2.20    1.60 
   5   8  -1   -0.40    2.50 
  -5  -8   1    4.50    1.90 
   4   8  -1   28.30    6.30 
   4   8  -1   41.20    4.20 
  -4  -8   1   37.40    3.80 
   3   8  -1    9.20    2.90 
   3   8  -1   14.80    4.20 
  -3  -8   1   13.20    2.50 
  -3  -8   1   11.30    2.20 
   2   8  -1  125.29   11.20 
  -2  -8   1  108.79    6.60 
  -2  -8   1  115.79    6.80 
   1   8  -1   47.10    7.90 
  -1  -8   1   44.90    4.20 
  -1  -8   1   37.30    3.90 
   0   8  -1   13.70    4.70 
   0  -8   1    4.00    3.10 
   0  -8   1   10.00    2.40 
  -1   8  -1   95.89    9.20 
   1  -8   1   99.49    9.40 
   1  -8   1   90.29    6.90 
  -2   8  -1   34.50    6.20 
   2  -8   1   31.00    5.70 
   2  -8   1   24.60    4.40 
   3  -8   1   38.40    5.80 
   3  -8   1   30.20    4.70 
  10   7  -1   14.40    3.90 
  10   7  -1   11.70    4.50 
 -10  -7   1   10.00    5.10 
   9   7  -1   12.50    3.40 
   9   7  -1    4.60    2.90 
  -9  -7   1    6.80    4.80 
   8   7  -1   16.80    3.80 
   8   7  -1   25.10    5.70 
  -8  -7   1    4.40    4.30 
   7   7  -1   11.00    4.30 
   7   7  -1    9.00    2.80 
   6   7  -1   83.59    6.40 
   6   7  -1   62.99   10.10 
  -6  -7   1   83.59    6.00 
   5   7  -1    9.80    2.40 
   5   7  -1   13.20    4.20 
   4   7  -1   27.30    6.20 
   4   7  -1   23.70    3.70 
  -4  -7   1   23.50    3.30 
   3   7  -1   45.70    4.50 
   3   7  -1   40.20    7.50 
  -3  -7   1   42.20    3.80 
  -3  -7   1   39.30    3.50 
   2   7  -1   34.20    6.30 
  -2  -7   1   24.30    2.90 
  -2  -7   1   28.00    3.20 
   1   7  -1    8.30    3.20 
  -1  -7   1   12.00    2.60 
  -1  -7   1   16.50    2.70 
   0   7  -1   84.19    8.20 
   0  -7   1   79.49    5.40 
   0  -7   1   66.89    5.60 
  -1   7  -1    6.80    3.20 
   1  -7   1    2.40    1.50 
  -2   7  -1    6.80    2.80 
   2  -7   1    6.60    2.30 
   2  -7   1    5.50    2.80 
   2  -7   1    8.80    2.50 
  -3   7  -1    4.30    2.60 
   3  -7   1    3.00    2.20 
   3  -7   1    2.40    1.60 
   3  -7   1    2.10    2.00 
   4  -7   1   29.20    5.20 
   4  -7   1   27.40    3.50 
   5  -7   1    1.10    2.40 
  10   6  -1   27.20    6.00 
  10   6  -1   41.80    8.60 
 -10  -6   1   45.60    8.60 
   9   6  -1    7.80    2.60 
   9   6  -1   -2.90    2.00 
  -9  -6   1    3.40    2.80 
   8   6  -1   -1.00    2.10 
   8   6  -1    5.60    3.20 
  -8  -6   1    5.20    3.10 
   7   6  -1   16.50    4.80 
   7   6  -1   20.00    3.80 
   6   6  -1   96.29    6.90 
   6   6  -1   98.49   10.20 
  -6  -6   1  110.59    6.80 
   5   6  -1    7.00    2.20 
   5   6  -1    8.90    3.50 
  -5  -6   1    7.70    2.10 
   4   6  -1   73.99    5.20 
   4   6  -1   79.59    8.20 
  -4  -6   1   76.19    5.00 
   3   6  -1   17.30    4.30 
   3   6  -1   18.60    3.00 
  -3  -6   1   20.20    2.60 
   2   6  -1   37.00    3.70 
   2   6  -1   36.00    6.30 
  -2  -6   1   42.60    3.40 
  -2  -6   1   39.70    3.20 
   1   6  -1   36.50    6.10 
  -1  -6   1   33.30    3.30 
  -1  -6   1   31.80    3.00 
   0   6  -1    1.10    1.50 
   0  -6   1    1.40    1.20 
   0  -6   1    0.40    1.20 
   0  -6   1    1.30    1.50 
   1  -6   1    1.70    1.90 
   1  -6   1    6.30    2.00 
   1  -6   1    3.70    1.50 
  -2   6  -1   10.20    3.60 
   2  -6   1    5.00    3.30 
   2  -6   1    5.60    2.10 
  -3   6  -1   -0.50    1.50 
   3  -6   1    0.30    1.20 
   3  -6   1   -1.00    1.30 
   3  -6   1   -1.30    1.10 
   4  -6   1    5.60    1.10 
   4  -6   1    5.40    3.20 
   5  -6   1   -3.10    1.80 
   6  -6   1   -0.10    2.40 
  10   5  -1    6.90    4.10 
  10   5  -1    1.90    3.00 
 -10  -5   1    1.00    3.30 
   9   5  -1   18.70    4.20 
   9   5  -1    8.70    5.00 
  -9  -5   1    6.30    5.10 
   8   5  -1   14.50    4.10 
   8   5  -1   11.70    3.60 
  -8  -5   1   11.90    4.90 
   7   5  -1  432.76   17.20 
   7   5  -1  398.06   21.20 
   6   5  -1   19.50    3.50 
   6   5  -1   12.70    3.90 
  -6  -5   1   20.00    3.20 
   5   5  -1    9.10    3.40 
   5   5  -1    9.80    2.30 
  -5  -5   1    8.90    2.20 
   4   5  -1   13.10    2.50 
   4   5  -1   14.60    3.90 
  -4  -5   1   15.50    2.60 
   3   5  -1  334.87   16.60 
   3   5  -1  315.37   11.40 
  -3  -5   1  314.07   10.80 
  -3  -5   1  305.17   14.80 
   2   5  -1    4.10    2.10 
   2   5  -1    5.60    1.60 
  -2  -5   1    7.40    2.10 
  -2  -5   1    6.80    1.60 
   1   5  -1   10.60    3.10 
  -1  -5   1   12.00    2.90 
  -1  -5   1    9.30    1.80 
  -1  -5   1   14.00    1.80 
   0   5  -1   20.30    3.90 
   0  -5   1   15.80    3.10 
   0  -5   1   24.00    2.80 
   0  -5   1   20.90    2.30 
  -1   5  -1    7.70    2.60 
   1  -5   1   13.20    2.80 
   1  -5   1    9.30    2.10 
   1  -5   1   12.80    2.90 
  -2   5  -1   18.30    2.90 
  -2   5  -1   22.30    3.70 
   2  -5   1   22.10    3.50 
   2  -5   1   22.10    2.70 
   2  -5   1   11.60    3.20 
  -3   5  -1    6.00    2.00 
   3  -5   1    7.30    2.00 
   3  -5   1   11.90    2.70 
   3  -5   1    7.50    1.60 
   4  -5   1   12.80    3.00 
   4  -5   1    8.80    1.70 
   5  -5   1    7.00    2.60 
   6  -5   1    2.40    2.10 
  10   4  -1    6.40    3.70 
  10   4  -1    2.50    2.70 
 -10  -4   1   -1.10    3.10 
   9   4  -1    5.70    3.30 
   9   4  -1    6.10    3.00 
  -9  -4   1    3.20    2.50 
   8   4  -1    0.00    2.20 
   8   4  -1   -2.40    1.40 
  -8  -4   1    2.10    2.20 
   7   4  -1   -0.40    1.70 
   7   4  -1    2.20    2.00 
   6   4  -1  297.67   13.10 
   6   4  -1  289.27   16.00 
  -6  -4   1  319.07   12.70 
   5   4  -1    1.00    1.30 
   5   4  -1    1.20    1.40 
  -5  -4   1    1.30    1.00 
  -5  -4   1   -0.10    1.40 
   4   4  -1   14.80    3.70 
   4   4  -1   15.70    2.60 
  -4  -4   1   14.20    2.40 
  -4  -4   1   11.10    2.80 
   3   4  -1  703.43   29.80 
   3   4  -1  752.82   20.60 
  -3  -4   1  713.33   28.70 
  -3  -4   1  736.23   20.20 
   2   4  -1 1617.24   40.60 
   2   4  -1 1619.64   46.40 
  -2  -4   1 1632.64   45.30 
  -2  -4   1 1604.24   40.30 
   1   4  -1    1.10    1.40 
   1   4  -1    2.00    1.00 
  -1  -4   1    1.70    1.10 
  -1  -4   1    0.50    0.80 
  -1  -4   1    5.00    1.00 
   0   4  -1   14.60    3.10 
   0  -4   1   13.60    2.20 
   0  -4   1   12.80    1.90 
   0  -4   1   17.30    3.10 
  -1   4  -1  367.46   14.90 
  -1   4  -1  394.46   13.00 
   1  -4   1  393.66   14.60 
   1  -4   1  413.86   14.30 
   1  -4   1  392.96   12.90 
  -2   4  -1  180.48    8.90 
  -2   4  -1  182.68    8.40 
   2  -4   1  189.58    8.50 
   2  -4   1  184.28    7.90 
   2  -4   1  161.98    9.60 
  -3   4  -1  206.08    9.70 
  -3   4  -1  185.88    8.60 
   3  -4   1  199.08    7.40 
   3  -4   1  194.38    9.70 
   4  -4   1    0.50    0.60 
   4  -4   1    1.80    0.70 
   4  -4   1    0.10    1.20 
   5  -4   1   11.70    3.10 
   6  -4   1    1.20    2.00 
   7  -4   1    5.30    3.00 
   8  -4   1    1.40    2.70 
  10   3  -1    1.30    3.20 
 -10  -3   1    0.10    3.00 
   9   3  -1    3.20    2.40 
   9   3  -1   -1.70    1.60 
  -9  -3   1   -1.00    2.20 
   8   3  -1   64.29    7.00 
   8   3  -1   68.39    7.00 
  -8  -3   1   71.39    7.30 
   7   3  -1   64.99    6.30 
   7   3  -1   48.00    6.10 
  -7  -3   1   62.79    5.90 
   6   3  -1  790.12   28.30 
   6   3  -1  811.92   25.50 
  -6  -3   1  792.42   26.20 
  -6  -3   1  765.02   25.70 
   5   3  -1   12.50    3.20 
   5   3  -1    9.50    2.40 
  -5  -3   1   12.70    3.40 
  -5  -3   1   11.00    2.20 
   4   3  -1  648.34   22.70 
   4   3  -1  620.94   18.90 
  -4  -3   1  615.14   21.30 
  -4  -3   1  615.84   18.50 
   3   3  -1 1350.46   34.70 
   3   3  -1 1356.06   39.50 
  -3  -3   1 1398.26   38.70 
  -3  -3   1 1377.86   34.70 
   2   3  -1   14.40    2.90 
   2   3  -1   11.40    1.30 
  -2  -3   1   12.40    2.60 
  -2  -3   1   12.50    1.50 
   1   3  -1  175.28    6.30 
   1   3  -1  174.58    8.80 
  -1  -3   1  178.18    8.60 
  -1  -3   1  174.68    5.90 
   0   3  -1  248.98   10.50 
   0  -3   1  244.78    8.70 
   0  -3   1  250.57   10.00 
   0  -3   1  254.57    7.90 
  -1   3  -1 1186.08   32.90 
  -1   3  -1 1186.08   31.00 
   1  -3   1 1242.98   31.10 
   1  -3   1 1160.18   31.90 
   1  -3   1 1259.17   33.10 
  -2   3  -1  406.16   13.40 
  -2   3  -1  388.86   13.00 
   2  -3   1  374.16   12.00 
   2  -3   1  390.66   13.10 
  -3   3  -1  261.07   15.40 
  -3   3  -1  287.07    9.90 
   3  -3   1  261.67   11.90 
   3  -3   1  289.87    8.60 
   4  -3   1   61.19    2.20 
   4  -3   1   58.19    5.20 
   4  -3   1   62.99    2.50 
   5  -3   1  101.59    7.50 
   7  -3   1    2.30    2.30 
   8  -3   1    9.10    3.70 
  10   2  -1   16.70    4.80 
   9   2  -1    2.70    2.50 
  -9  -2   1   -4.20    1.70 
  -9  -2   1   -0.90    2.60 
   8   2  -1    5.30    2.80 
   8   2  -1    8.70    3.00 
  -8  -2   1    2.50    2.50 
   7   2  -1   -2.80    1.40 
   7   2  -1   -2.10    1.10 
  -7  -2   1    0.80    1.50 
  -7  -2   1   -0.40    1.40 
   6   2  -1   16.30    3.50 
   6   2  -1    9.80    3.20 
  -6  -2   1   14.40    2.70 
   5   2  -1  847.52   27.00 
  -5  -2   1  819.32   25.30 
  -5  -2   1  833.22   25.00 
   4   2  -1  583.44   20.10 
   4   2  -1  588.74   18.20 
  -4  -2   1  588.74   19.10 
  -4  -2   1  580.04   17.70 
   3   2  -1 3514.25   86.29 
   3   2  -1 3445.36   82.99 
  -3  -2   1 3498.95   85.29 
  -3  -2   1 3498.45   82.79 
   2   2  -1  131.59    6.90 
   2   2  -1  130.99    5.00 
  -2  -2   1  137.69    6.70 
  -2  -2   1  132.99    4.90 
   1   2  -1  101.99    3.50 
   1   2  -1   94.79    5.40 
  -1  -2   1   96.59    5.20 
  -1  -2   1  100.59    3.40 
   0   2  -1  107.59    5.50 
   0  -2   1  115.09    3.90 
   0  -2   1  115.99    5.50 
   0  -2   1  120.09    4.40 
  -1   2  -1  599.64   17.80 
  -1   2  -1  618.24   17.60 
   1  -2   1  630.54   17.10 
   1  -2   1  604.44   16.50 
  -2   2  -1  322.27   10.30 
  -2   2  -1  336.27   11.00 
   2  -2   1  340.27   11.10 
   2  -2   1  328.87    9.60 
  -3   2  -1   15.70    1.50 
  -3   2  -1   18.20    2.30 
   3  -2   1   14.90    1.20 
   3  -2   1   17.60    2.70 
  -4   2  -1  589.74   19.50 
   4  -2   1  602.24   19.90 
   5  -2   1   28.80    4.50 
   6  -2   1   47.80    5.50 
   7  -2   1  130.39    9.70 
   8  -2   1   12.60    3.90 
   9  -2   1   12.70    4.30 
  10   1  -1    5.60    4.80 
   9   1  -1    6.50    3.40 
  -9  -1   1    6.80    1.50 
  -9  -1   1    4.10    1.60 
   8   1  -1   32.80    5.90 
  -8  -1   1   29.60    3.40 
  -8  -1   1   37.50    3.00 
   7   1  -1  170.38    9.30 
   7   1  -1  201.08   11.50 
  -7  -1   1  200.48    8.10 
  -7  -1   1  184.18    9.30 
   6   1  -1   44.70    5.00 
   6   1  -1   37.60    4.00 
  -6  -1   1   48.50    3.60 
  -6  -1   1   45.30    4.20 
   5   1  -1   81.79    5.60 
   5   1  -1   82.49    6.00 
  -5  -1   1   84.89    5.70 
  -5  -1   1   87.79    5.00 
   4   1  -1 4848.11  115.79 
  -4  -1   1 4727.23  114.89 
  -4  -1   1 4913.21  114.49 
   3   1  -1  650.13   19.30 
   3   1  -1  639.74   18.30 
  -3  -1   1  642.64   18.20 
  -3  -1   1  630.94   18.50 
   2   1  -1  119.49    4.70 
   2   1  -1  125.99    5.70 
  -2  -1   1  117.49    6.40 
  -2  -1   1  114.19    4.60 
   1   1  -1 2093.99   50.79 
  -1  -1   1 2085.39   50.59 
   0   1  -1  186.78    4.80 
   0   1  -1  186.38    6.50 
   0  -1   1  190.58    5.10 
   0  -1   1  191.18    4.80 
   0  -1   1  205.18    6.70 
  -1   1  -1 1856.61   45.40 
   1  -1   1 1951.50   45.50 
   1  -1   1 1948.61   45.40 
  -2   1  -1  120.29    4.20 
  -2   1  -1  123.19    5.20 
   2  -1   1  128.39    5.40 
   2  -1   1  127.39    4.00 
  -3   1  -1  236.18    9.10 
  -3   1  -1  239.58    6.60 
   3  -1   1  236.38    6.70 
   3  -1   1  238.98    9.30 
  -4   1  -1  453.05   18.40 
   4  -1   1  496.65   16.60 
   5  -1   1  556.24   19.70 
   6  -1   1   11.60    3.00 
   8  -1   1   19.00    4.80 
   9  -1   1   16.70    5.00 
  10   0  -1   -0.90    3.40 
   9   0  -1    1.30    2.20 
   8   0  -1    2.20    2.40 
   7   0  -1   69.39    6.80 
  -7   0   1   54.09    2.60 
  -7   0   1   56.49    3.40 
   6   0  -1    9.30    2.90 
  -6   0   1    9.30    1.40 
  -6   0   1    9.40    1.70 
   5   0  -1   97.89    6.60 
   5   0  -1   99.69    5.20 
  -5   0   1   94.29    4.10 
  -5   0   1   91.59    4.90 
  -5   0   1   92.49    6.30 
   4   0  -1   24.10    2.20 
   4   0  -1   19.00    3.00 
  -4   0   1   20.60    2.70 
  -4   0   1   18.00    1.60 
   3   0  -1 1105.69   28.30 
   3   0  -1 1111.79   29.40 
  -3   0   1 1089.89   29.40 
  -3   0   1 1099.69   27.40 
   2   0  -1    0.50    0.50 
   2   0  -1    2.70    0.90 
  -2   0   1    0.60    0.50 
  -2   0   1    0.00    0.30 
   1   0  -1 1116.79   27.20 
  -1   0   1 1116.89   27.00 
  -1   0   1 1132.49   27.10 
   0   0  -1    0.10    0.10 
  -1   0  -1  779.72   18.50 
  -1   0  -1  787.52   18.80 
   1   0   1  721.43   18.70 
  -2   0  -1 1207.28   28.40 
  -2   0  -1 1097.69   31.10 
   2   0   1 1223.38   28.80 
   2   0   1 1230.28   30.00 
  -3   0  -1  157.68    5.60 
  -3   0  -1  154.28    6.60 
  -3   0  -1  152.58    4.90 
   3   0   1  155.08    6.80 
   3   0   1  161.98    5.50 
  -4   0  -1  669.13   17.80 
  -4   0  -1  683.33   17.10 
  -4   0  -1  678.23   20.40 
   4   0   1  659.43   20.60 
  -5   0  -1  306.87    9.10 
  -5   0  -1  281.17    8.50 
  -5   0  -1  298.57   12.20 
   5   0   1  312.47   12.80 
  -6   0  -1    2.10    0.50 
  -6   0  -1    2.30    0.60 
   6   0   1    3.40    1.90 
   7   0   1    3.10    2.30 
   8   0   1  118.59   10.00 
   9   0   1   14.00    4.60 
  10   0   1    1.90    2.80 
   8  -1  -1  143.79   10.90 
   7  -1  -1   86.69    7.90 
   6  -1  -1   22.30    4.40 
   5  -1  -1    7.70    2.50 
   4  -1  -1    6.40    1.80 
  -4   1   1    4.50    1.30 
   3  -1  -1   24.80    2.60 
   3  -1  -1   25.00    1.40 
  -3   1   1   23.30    1.20 
  -3   1   1   21.10    2.40 
   2  -1  -1  293.47    9.90 
   2  -1  -1  282.67    7.60 
  -2   1   1  285.97    9.80 
  -2   1   1  292.67    7.60 
  -1  -1  -1 1701.13   40.90 
  -3  -1  -1  788.72   21.70 
  -3  -1  -1  788.42   21.40 
  -3  -1  -1  797.12   21.80 
   3   1   1  798.52   22.00 
  -4  -1  -1 1164.98   31.60 
  -4  -1  -1 1113.19   31.50 
  -4  -1  -1 1200.98   30.70 
   4   1   1 1192.98   32.10 
  -5  -1  -1   63.29    4.00 
  -5  -1  -1   65.29    4.80 
  -5  -1  -1   61.59    4.10 
   5   1   1   64.29    5.20 
  -6  -1  -1    7.20    1.70 
  -6  -1  -1    8.70    1.70 
   6   1   1    7.30    2.80 
  -7  -1  -1   19.60    2.20 
  -7  -1  -1   18.90    2.20 
   7   1   1   12.70    3.60 
  -8  -1  -1   96.69    4.60 
  -8  -1  -1   98.69    4.80 
   8   1   1  111.69    9.00 
   9   1   1   -0.30    2.30 
   9  -2  -1   18.80    5.10 
   8  -2  -1   58.59    7.10 
   7  -2  -1   31.60    5.40 
   6  -2  -1  196.68   11.50 
   5  -2  -1   49.10    5.10 
   4  -2  -1   24.70    3.80 
  -4   2   1   26.10    3.90 
   3  -2  -1   15.20    2.70 
  -3   2   1   16.40    2.70 
   2  -2  -1  280.27   10.30 
   2  -2  -1  286.07    7.40 
   2  -2  -1  284.67    8.00 
  -2   2   1  266.37   10.10 
   1  -2  -1 4027.80   93.29 
   1  -2  -1 4065.09   96.19 
   1  -2  -1 3824.12   92.89 
  -1   2   1 4037.80   93.09 
   1   2   1 3601.04   86.09 
  -2  -2  -1    1.20    0.80 
  -2  -2  -1    0.90    1.10 
  -2  -2  -1    0.50    0.60 
   2   2   1    0.80    0.60 
   2   2   1    1.50    0.80 
  -3  -2  -1 1071.69   28.20 
  -3  -2  -1 1034.70   29.20 
  -3  -2  -1 1073.99   29.60 
   3   2   1 1086.99   28.40 
   3   2   1 1076.39   29.90 
  -4  -2  -1  330.87   12.80 
  -4  -2  -1  351.26   13.00 
  -4  -2  -1  356.36   12.40 
   4   2   1  356.76   13.50 
   4   2   1  384.46   13.00 
  -5  -2  -1  101.29    7.60 
  -5  -2  -1  116.89    6.70 
  -5  -2  -1  119.99    6.90 
   5   2   1  121.09    7.20 
   5   2   1  102.19    8.10 
  -6  -2  -1   72.49    5.40 
  -6  -2  -1   78.49    5.60 
   6   2   1   79.89    6.30 
  -7  -2  -1  569.54   19.40 
  -7  -2  -1  584.74   19.80 
   7   2   1  583.14   21.80 
  -8  -2  -1   73.69    5.30 
  -8  -2  -1   77.49    5.60 
   8   2   1   66.89   12.80 
  -9  -2  -1    3.80    1.80 
  -9  -2  -1    5.90    1.80 
   9   2   1    3.90    2.80 
 -10  -2  -1    2.40    1.30 
  10   2   1   -0.60    2.50 
   7  -3  -1   67.79    7.30 
   6  -3  -1   -1.80    1.20 
   5  -3  -1   47.90    5.30 
   4  -3  -1   29.00    3.60 
   3  -3  -1  352.86   13.70 
  -3   3   1  348.37   13.50 
   2  -3  -1    6.10    1.10 
   2  -3  -1    6.90    1.30 
   2  -3  -1    7.60    1.80 
  -2   3   1    5.30    1.60 
   1  -3  -1 2484.95   57.39 
   1  -3  -1 2283.67   56.99 
   1  -3  -1 2283.17   57.39 
   1  -3  -1 2325.17   59.89 
  -1   3   1 2283.77   57.39 
   0  -3  -1 3949.90   95.19 
   0  -3  -1 3991.50   94.99 
   0  -3  -1 3918.01   94.99 
   0   3   1 4004.50   95.59 
   0   3   1 3942.81   95.29 
  -1  -3  -1 3461.75   82.29 
  -1  -3  -1 3403.96   84.19 
  -1  -3  -1 3514.75   84.29 
   1   3   1 3469.45   84.59 
   1   3   1 3428.96   82.69 
  -2  -3  -1  369.56   13.70 
  -2  -3  -1  360.66   11.50 
  -2  -3  -1  374.76   13.80 
   2   3   1  391.66   14.30 
   2   3   1  365.56   11.80 
  -3  -3  -1  341.37   11.50 
  -3  -3  -1  338.07   13.40 
  -3  -3  -1  343.47   13.40 
   3   3   1  339.67   13.70 
   3   3   1  344.17   11.60 
  -4  -3  -1   31.10    3.50 
  -4  -3  -1   32.10    3.10 
  -4  -3  -1   23.10    3.60 
   4   3   1   31.40    4.50 
   4   3   1   21.90    2.80 
  -5  -3  -1  689.83   23.10 
  -5  -3  -1  671.23   22.70 
  -5  -3  -1  646.74   21.10 
   5   3   1  674.83   23.50 
   5   3   1  689.83   21.70 
  -6  -3  -1  152.88    8.90 
  -6  -3  -1  149.39    9.00 
  -6  -3  -1  155.98    9.30 
   6   3   1  148.69    9.50 
   6   3   1  151.18    8.90 
  -7  -3  -1  510.65   22.50 
  -7  -3  -1  497.25   19.80 
   7   3   1  543.75   20.60 
  -8  -3  -1   21.90    3.80 
  -8  -3  -1   25.60    4.40 
   8   3   1   18.00    4.20 
  -9  -3  -1   -2.50    1.80 
  -9  -3  -1    3.20    1.80 
   9   3   1   -0.50    1.70 
 -10  -3  -1    0.40    4.00 
 -10  -3  -1    0.40    2.00 
  10   3   1    0.20    2.40 
  11   3   1    0.10    2.50 
   8  -4  -1    9.10    4.20 
   7  -4  -1   12.20    3.70 
   6  -4  -1    4.40    2.40 
   5  -4  -1   15.20    3.60 
   4  -4  -1   47.30    5.00 
   3  -4  -1  111.49    4.30 
   3  -4  -1  114.09    7.30 
   3  -4  -1  108.39    4.40 
   2  -4  -1  117.99    8.20 
   2  -4  -1  129.49    7.20 
   2  -4  -1  125.59    5.90 
   2  -4  -1  119.49    5.80 
  -2   4   1  116.29    6.90 
   1  -4  -1 2284.77   57.69 
   1  -4  -1 2249.18   57.39 
   1  -4  -1 2310.37   60.19 
   1  -4  -1 2292.17   57.39 
  -1   4   1 2240.08   57.39 
  -1   4   1 2293.47   58.09 
   0  -4  -1   19.90    3.10 
   0  -4  -1   19.70    2.30 
   0  -4  -1   16.90    2.90 
   0  -4  -1   21.70    2.70 
   0   4   1   20.20    3.20 
   0   4   1   23.50    3.60 
  -1  -4  -1   23.60    3.60 
  -1  -4  -1   24.20    2.50 
  -1  -4  -1   22.10    3.50 
   1   4   1   20.80    3.40 
   1   4   1   21.60    2.70 
  -2  -4  -1  288.77   10.60 
  -2  -4  -1  321.47   13.40 
  -2  -4  -1  335.57   13.70 
   2   4   1  308.57   13.50 
   2   4   1  303.77   11.20 
  -3  -4  -1  574.04   17.40 
  -3  -4  -1  578.54   20.80 
  -3  -4  -1  591.54   20.80 
   3   4   1  579.24   21.20 
   3   4   1  581.74   17.90 
  -4  -4  -1   34.00    4.10 
  -4  -4  -1   38.90    4.40 
  -4  -4  -1   43.50    3.80 
   4   4   1   39.20    4.50 
   4   4   1   45.40    3.90 
  -5  -4  -1  170.58   10.50 
  -5  -4  -1  147.49   14.70 
  -5  -4  -1  167.08    8.80 
   5   4   1  183.88    8.90 
   5   4   1  166.18   11.40 
  -6  -4  -1  177.88   10.50 
  -6  -4  -1  173.78   11.00 
  -6  -4  -1  160.28    9.00 
   6   4   1  172.68    9.30 
   6   4   1  175.58   11.20 
  -7  -4  -1    3.00    2.50 
  -7  -4  -1    6.80    2.70 
   7   4   1    7.10    2.70 
   7   4   1    2.10    2.20 
  -8  -4  -1   38.50    6.00 
   8   4   1   46.80    5.90 
   8   4   1   37.50    6.00 
  -9  -4  -1   73.29    7.20 
   9   4   1   67.09    7.70 
 -10  -4  -1   25.40    5.00 
  10   4   1   14.70    4.40 
 -11  -4  -1    8.00    3.50 
  11   4   1    4.80    3.20 
   7  -5  -1    1.20    2.50 
   6  -5  -1    5.00    2.60 
   5  -5  -1    1.20    2.00 
   4  -5  -1    3.40    2.00 
   3  -5  -1   14.00    2.00 
   3  -5  -1    8.90    2.50 
   2  -5  -1    5.70    1.50 
   2  -5  -1    5.00    1.80 
   2  -5  -1    7.80    1.90 
   1  -5  -1   14.10    3.00 
   1  -5  -1   20.00    2.60 
   1  -5  -1   17.20    3.30 
   1  -5  -1   21.80    3.30 
  -1   5   1   19.40    3.40 
   0  -5  -1   67.79    5.50 
   0  -5  -1   65.19    5.60 
   0  -5  -1   64.79    4.60 
   0  -5  -1   61.69    5.10 
   0   5   1   65.79    5.70 
  -1  -5  -1   27.10    2.90 
  -1  -5  -1   22.00    2.40 
  -1  -5  -1   18.90    3.60 
  -1  -5  -1   21.10    3.80 
   1   5   1   25.40    3.30 
   1   5   1   25.00    4.30 
  -2  -5  -1  368.46   15.80 
  -2  -5  -1  377.56   16.40 
  -2  -5  -1  371.96   13.20 
   2   5   1  384.96   14.10 
   2   5   1  381.56   16.70 
  -3  -5  -1   24.10    4.20 
  -3  -5  -1   20.60    2.60 
   3   5   1   17.30    6.10 
   3   5   1   20.70    3.20 
  -4  -5  -1    7.10    2.50 
  -4  -5  -1    7.90    2.20 
  -4  -5  -1   10.10    2.70 
   4   5   1    7.60    2.70 
   4   5   1   11.30    2.50 
  -5  -5  -1    2.40    1.70 
  -5  -5  -1    6.20    2.00 
  -5  -5  -1    2.90    2.00 
   5   5   1    6.10    2.60 
  -6  -5  -1  499.25   18.20 
  -6  -5  -1  492.25   21.70 
   6   5   1  518.85   18.70 
   6   5   1  466.45   21.80 
  -7  -5  -1  623.14   25.70 
   7   5   1  607.34   22.20 
   7   5   1  604.94   26.10 
  -8  -5  -1    4.00    3.40 
   8   5   1    8.50    3.50 
   8   5   1   11.70    3.30 
  -9  -5  -1   -0.20    1.90 
   9   5   1    4.20    2.30 
 -10  -5  -1    0.30    3.50 
  10   5   1   10.70    3.80 
  11   5   1   -0.20    2.30 
   6  -6  -1    8.60    3.80 
   5  -6  -1   12.40    3.50 
   4  -6  -1   30.70    5.20 
   3  -6  -1    0.70    0.90 
   3  -6  -1    0.40    1.60 
   3  -6  -1    2.50    1.10 
   2  -6  -1   38.60    4.30 
   2  -6  -1   36.10    3.60 
   2  -6  -1   29.50    3.70 
   1  -6  -1   35.30    4.00 
   1  -6  -1   33.40    4.30 
   1  -6  -1   37.10    4.20 
  -1   6   1   42.10    4.70 
   0  -6  -1  194.18   11.90 
   0  -6  -1  202.48   10.90 
   0  -6  -1  208.38   13.10 
   0  -6  -1  203.48    9.60 
   0   6   1  214.38   12.00 
  -1  -6  -1  412.16   18.20 
  -1  -6  -1  419.76   15.00 
  -1  -6  -1  422.86   15.90 
  -1  -6  -1  431.66   17.80 
   1   6   1  416.16   16.90 
   1   6   1  425.96   18.70 
  -2  -6  -1   26.80    4.40 
  -2  -6  -1   29.30    3.30 
  -2  -6  -1   31.60    5.40 
   2   6   1   27.00    5.00 
   2   6   1   28.40    4.40 
  -3  -6  -1   97.99    6.00 
  -3  -6  -1  114.89    9.00 
  -3  -6  -1   93.79    8.30 
   3   6   1   92.29    8.20 
   3   6   1  101.89    6.70 
  -4  -6  -1   64.69    5.00 
  -4  -6  -1   58.59    6.70 
   4   6   1   65.39    5.30 
   4   6   1   55.89    6.70 
  -5  -6  -1  102.49    9.30 
  -5  -6  -1   97.99    6.70 
   5   6   1   92.59    9.00 
   5   6   1  100.39    6.90 
  -6  -6  -1   40.10    6.90 
   6   6   1   42.70    7.00 
   6   6   1   44.50    4.80 
  -7  -6  -1   -0.80    1.60 
   7   6   1    1.50    1.60 
   7   6   1    9.90    3.00 
  -8  -6  -1    9.90    4.30 
   8   6   1   26.60    6.00 
   8   6   1   20.20    4.40 
   9   6   1    3.20    3.80 
   9   6   1   -0.70    1.80 
 -10  -6  -1   15.80    4.50 
  10   6   1    7.30    3.30 
 -11  -6  -1    2.70    3.70 
  11   6   1   -2.90    2.40 
   5  -7  -1    4.50    2.90 
   4  -7  -1    4.60    2.00 
   3  -7  -1   31.60    5.20 
   3  -7  -1   38.70    3.90 
   3  -7  -1   41.90    3.50 
   2  -7  -1   17.90    3.80 
   2  -7  -1   16.60    3.10 
   2  -7  -1   19.00    3.60 
   1  -7  -1   33.50    5.40 
   1  -7  -1   21.80    3.80 
   1  -7  -1   22.30    4.10 
   0  -7  -1  267.77   14.50 
   0  -7  -1  263.07   13.70 
   0  -7  -1  251.27   11.80 
   0   7   1  257.57   14.50 
  -1  -7  -1    2.50    1.50 
  -1  -7  -1    3.30    1.80 
  -1  -7  -1   -0.60    1.80 
   1   7   1    2.90    2.00 
  -2  -7  -1  215.48   10.10 
  -2  -7  -1  216.98   13.60 
  -2  -7  -1  218.58   10.60 
   2   7   1  216.08   11.70 
   2   7   1  233.78   14.30 
  -3  -7  -1  199.68   13.30 
  -3  -7  -1  189.08    9.50 
   3   7   1  182.18   13.00 
   3   7   1  214.48   14.00 
  -4  -7  -1   31.70    6.10 
  -4  -7  -1   37.30    4.10 
   4   7   1   45.20    4.60 
   4   7   1   47.50    7.70 
  -5  -7  -1  380.26   20.20 
  -5  -7  -1  370.96   14.80 
   5   7   1  355.06   15.30 
   5   7   1  368.06   20.10 
  -6  -7  -1  186.28   14.00 
   6   7   1  201.28   11.00 
   6   7   1  198.48   14.50 
  -7  -7  -1   19.60    5.50 
   7   7   1   24.10    4.40 
   7   7   1   21.10    5.90 
  -8  -7  -1   33.30    7.10 
   8   7   1   38.50    7.70 
   8   7   1   33.80    5.70 
  -9  -7  -1   15.80    5.10 
   9   7   1   26.40    6.10 
   9   7   1   15.10    4.20 
 -10  -7  -1   -4.30    2.60 
  10   7   1   -7.10    2.90 
  10   7   1    4.10    2.50 
   4  -8  -1    4.90    3.40 
   3  -8  -1    2.80    1.60 
   3  -8  -1    4.10    2.20 
   2  -8  -1    8.40    2.40 
   2  -8  -1    5.70    2.30 
   1  -8  -1    5.20    2.30 
   1  -8  -1   13.70    3.40 
   0  -8  -1   51.99    6.70 
   0  -8  -1   49.80    5.20 
   0   8   1   51.79    8.10 
  -1  -8  -1  232.48   11.30 
  -1  -8  -1  219.28   14.20 
   1   8   1  214.78   14.60 
  -2  -8  -1  166.28   12.70 
  -2  -8  -1  176.78    9.50 
   2   8   1  157.38   12.50 
   2   8   1  173.78   11.10 
  -3  -8  -1    0.60    1.00 
  -3  -8  -1    5.40    2.30 
  -3  -8  -1   -1.20    1.40 
   3   8   1   -0.50    1.50 
   3   8   1    2.60    1.60 
  -4  -8  -1    8.90    2.20 
  -4  -8  -1   12.90    3.80 
   4   8   1    8.00    2.50 
   4   8   1    7.50    3.60 
   5   8   1  209.38   11.70 
  -6  -8  -1   23.00    6.30 
   6   8   1   41.30    4.90 
   6   8   1   35.40    7.60 
  -7  -8  -1   35.70    7.10 
   7   8   1   32.10    7.10 
   7   8   1   30.20    5.40 
  -8  -8  -1   22.80    5.40 
   8   8   1    7.60    4.60 
   8   8   1   12.00    3.20 
  -9  -8  -1    9.40    4.30 
   9   8   1   10.90    4.50 
 -10  -8  -1   15.80    5.70 
  10   8   1   12.80    5.40 
  10   8   1   10.60    3.60 
   2  -9  -1    0.20    2.30 
   2  -9  -1    0.70    2.50 
   1  -9  -1    8.60    2.70 
   1  -9  -1    7.50    2.60 
   0  -9  -1    3.70    3.20 
   0  -9  -1    4.40    2.20 
   0   9   1    6.80    3.40 
  -1  -9  -1    2.70    3.00 
  -1  -9  -1    7.80    2.50 
   1   9   1    3.40    3.20 
  -2  -9  -1   38.20   11.60 
  -2  -9  -1   48.30    4.90 
  -3  -9  -1    9.20    3.60 
  -3  -9  -1    8.70    2.50 
   3   9   1    7.00    2.90 
   3   9   1    3.40    2.80 
  -4  -9  -1   24.00    5.60 
   4   9   1   33.30    5.40 
   4   9   1   27.80    6.20 
  -5  -9  -1    3.70    3.40 
   5   9   1    6.80    3.50 
   5   9   1    9.60    2.90 
  -6  -9  -1  480.65   26.20 
   6   9   1  454.25   26.20 
   6   9   1  447.96   19.90 
  -7  -9  -1    2.40    3.80 
   7   9   1    8.10    3.00 
   7   9   1    6.00    4.10 
  -8  -9  -1    6.10    2.90 
   8   9   1    0.20    2.90 
   8   9   1    1.60    2.30 
  -9  -9  -1   13.10    5.80 
   9   9   1    8.50    5.10 
   1 -10  -1   20.30    4.20 
   1 -10  -1   19.60    5.40 
   0 -10  -1    2.30    3.30 
   0 -10  -1   11.30    3.10 
  -1 -10  -1   27.00    6.30 
  -1 -10  -1   17.90    4.30 
   1  10   1   21.90    6.10 
  -2 -10  -1   -2.60    1.30 
  -2 -10  -1    4.80    3.20 
   2  10   1   -1.60    2.90 
  -3 -10  -1   -0.90    1.50 
  -3 -10  -1    2.10    2.90 
   3  10   1    0.80    3.50 
  -4 -10  -1   38.60    7.70 
  -4 -10  -1   33.10    5.00 
   4  10   1   31.80    7.40 
   4  10   1   28.60    5.30 
  -5 -10  -1   40.60    8.50 
   5  10   1   56.59    9.90 
   5  10   1   44.90    5.60 
  -6 -10  -1   -0.30    3.50 
   6  10   1    5.30    2.90 
   6  10   1    3.60    3.60 
  -7 -10  -1   32.70    8.00 
   7  10   1   32.20    7.70 
   7  10   1   43.20    5.60 
  -8 -10  -1   16.50    5.60 
   8  10   1    4.80    5.50 
   8  10   1    9.80    3.60 
  -2 -11  -1   -1.40    4.40 
  -2 -11  -1    5.50    2.30 
   2  11   1    5.10    3.40 
  -3 -11  -1    7.70    4.40 
  -3 -11  -1    3.50    2.90 
   3  11   1   -3.10    4.90 
  -4 -11  -1    6.50    2.40 
  -4 -11  -1    0.30    3.40 
   4  11   1    2.70    3.10 
   4  11   1    9.00    4.50 
  -5 -11  -1   16.60    3.60 
  -5 -11  -1   10.70    4.80 
   5  11   1    6.20    3.60 
   5  11   1   12.90    5.30 
  -6 -11  -1   32.70    8.30 
   6  11   1   18.20    7.40 
   6  11   1   20.70    5.30 
  -7 -11  -1   -1.50    3.80 
   7  11   1    4.20    3.60 
   7  11   1   -3.30    2.70 
   5  10  -2    2.00    4.00 
   4  10  -2   28.80    7.80 
   2  10  -2   41.80    8.90 
  -2 -10   2   37.80    8.10 
   7   9  -2   -2.40    2.30 
   7   9  -2    7.20    4.30 
   6   9  -2   23.00    4.40 
   5   9  -2    7.30    3.60 
   5   9  -2    6.70    2.30 
  -5  -9   2    8.20    2.00 
  -4  -9   2    2.10    1.40 
   3   9  -2  100.09   11.10 
  -3  -9   2  115.29    5.90 
   2   9  -2   86.59   10.20 
  -2  -9   2   89.59    5.30 
   1   9  -2    1.10    2.60 
  -1  -9   2   -2.50    1.10 
   0   9  -2    0.50    3.30 
   0  -9   2    1.60    3.20 
   0  -9   2    7.70    2.30 
  -1   9  -2   -0.20    3.50 
   1  -9   2   -2.50    3.00 
   1  -9   2    1.50    1.90 
   8   8  -2    0.80    4.10 
   8   8  -2    2.80    2.30 
   7   8  -2    5.70    3.40 
   7   8  -2    1.90    2.00 
   6   8  -2   12.40    3.00 
   6   8  -2   14.10    5.40 
  -6  -8   2   11.50    2.50 
   5   8  -2   31.40    3.70 
   5   8  -2   21.00    6.20 
  -5  -8   2   26.40    3.20 
   4   8  -2   29.70    6.70 
   4   8  -2   44.70    4.20 
  -4  -8   2   35.70    3.50 
  -4  -8   2   35.40    3.30 
   3   8  -2   83.59   10.20 
  -3  -8   2   93.69    5.20 
  -3  -8   2   87.89    5.20 
   2   8  -2    3.70    3.40 
  -2  -8   2   10.40    2.00 
  -2  -8   2    7.20    1.80 
   1   8  -2   13.70    4.20 
  -1  -8   2   17.20    2.70 
  -1  -8   2   14.70    2.50 
   0   8  -2    1.70    2.10 
   0  -8   2    2.90    1.80 
   0  -8   2    1.90    1.50 
  -1   8  -2   -0.10    2.60 
   1  -8   2   -0.70    1.30 
  -2   8  -2   50.19    8.10 
   2  -8   2   52.09    6.60 
   2  -8   2   34.60    4.40 
  -3   8  -2   -8.50    3.30 
   3  -8   2    2.00    2.90 
   3  -8   2   -1.90    2.00 
   9   7  -2    1.10    2.60 
   9   7  -2   -0.80    3.80 
  -9  -7   2   -6.20    3.20 
   8   7  -2    7.10    2.80 
   8   7  -2   12.00    4.20 
   7   7  -2   17.50    5.60 
   7   7  -2   10.50    2.90 
   6   7  -2   36.50    7.50 
   6   7  -2   37.70    4.10 
  -6  -7   2   40.00    4.00 
   5   7  -2   56.99    4.80 
   5   7  -2   53.79    8.70 
  -5  -7   2   52.59    4.10 
   4   7  -2   37.00    7.80 
   4   7  -2   26.80    3.20 
  -4  -7   2   23.60    2.70 
   3   7  -2    0.10    2.20 
   3   7  -2    6.30    1.60 
  -3  -7   2    2.00    1.30 
  -3  -7   2    3.00    1.20 
   2   7  -2   11.50    4.40 
  -2  -7   2   11.60    2.10 
  -2  -7   2   13.80    2.10 
   1   7  -2   30.40    6.30 
  -1  -7   2   35.60    3.30 
  -1  -7   2   30.10    2.80 
   0   7  -2    0.70    2.50 
   0  -7   2    1.60    1.60 
   0  -7   2    2.40    1.50 
  -1   7  -2  119.79   10.20 
   1  -7   2  115.99    8.10 
   1  -7   2  122.89    7.10 
  -2   7  -2   22.20    4.80 
  -3   7  -2   22.40    4.40 
   3  -7   2   26.40    5.00 
   3  -7   2   27.60    4.60 
   4  -7   2   10.90    3.40 
   9   6  -2    0.70    2.80 
   9   6  -2   -1.00    2.00 
  -9  -6   2    6.60    3.80 
   8   6  -2    0.80    1.80 
   8   6  -2    3.10    2.30 
   7   6  -2   93.89    7.00 
   7   6  -2   84.39    9.60 
   6   6  -2   56.99    4.90 
  -6  -6   2   47.00    4.30 
   5   6  -2  126.39    7.10 
   5   6  -2  142.39   12.10 
  -5  -6   2  135.19    6.70 
   4   6  -2   26.90    5.70 
   4   6  -2   34.20    3.20 
  -4  -6   2   32.10    3.00 
   3   6  -2   66.49    4.40 
   3   6  -2   61.39    7.30 
  -3  -6   2   64.29    4.00 
   2   6  -2   47.80    7.50 
  -2  -6   2   49.60    3.20 
  -2  -6   2   53.99    3.40 
   1   6  -2    1.40    2.10 
  -1  -6   2    4.40    1.30 
  -1  -6   2    1.50    0.90 
   0   6  -2   51.59    6.40 
   0  -6   2   53.69    4.30 
   0  -6   2   48.40    3.70 
  -1   6  -2   10.20    2.80 
   1  -6   2    9.40    2.00 
   1  -6   2    9.40    2.30 
  -2   6  -2  402.86   18.50 
   2  -6   2  406.46   15.60 
   2  -6   2  427.66   16.30 
   2  -6   2  410.16   17.60 
  -3   6  -2   11.70    3.10 
   3  -6   2   11.50    2.50 
   3  -6   2   12.80    2.90 
  -4   6  -2    4.90    2.00 
   4  -6   2    0.10    1.80 
   4  -6   2    2.70    1.80 
   4  -6   2    4.70    1.40 
   5  -6   2    6.40    2.90 
   6  -6   2    5.80    3.00 
  10   5  -2   22.90    5.20 
  10   5  -2   14.10    5.30 
 -10  -5   2   10.70    5.30 
   9   5  -2   29.40    5.70 
   9   5  -2   29.50    6.50 
  -9  -5   2   32.50    6.30 
   8   5  -2    5.70    2.90 
   8   5  -2    3.90    2.30 
   7   5  -2    0.70    2.10 
   7   5  -2    0.60    1.60 
   6   5  -2   33.30    6.80 
   6   5  -2   42.30    4.40 
  -6  -5   2   45.70    4.20 
   5   5  -2  222.68   14.30 
   5   5  -2  218.08    9.70 
  -5  -5   2  231.38    9.50 
   4   5  -2    4.10    2.50 
   4   5  -2    5.00    1.40 
  -4  -5   2    5.60    1.40 
   3   5  -2    2.40    1.10 
   3   5  -2    2.10    1.90 
  -3  -5   2    2.20    1.10 
   2   5  -2  258.67   14.40 
   2   5  -2  262.57    9.40 
  -2  -5   2  272.67    8.70 
   1   5  -2   13.20    3.30 
  -1  -5   2   11.60    1.50 
  -1  -5   2   12.10    2.90 
  -1  -5   2   10.10    1.60 
   0   5  -2    3.30    1.90 
   0  -5   2    3.30    1.00 
   0  -5   2    0.60    1.00 
   0  -5   2    1.80    1.80 
  -1   5  -2  845.52   28.90 
   1  -5   2  839.42   26.60 
   1  -5   2  853.71   23.90 
   1  -5   2  825.62   25.80 
  -2   5  -2   12.90    2.40 
  -2   5  -2   11.70    3.00 
   2  -5   2   10.20    3.10 
   2  -5   2   11.50    2.60 
  -3   5  -2  246.48   11.90 
   3  -5   2  244.68   11.40 
   3  -5   2  236.08    9.80 
  -4   5  -2    3.60    1.70 
   4  -5   2    6.00    1.30 
   4  -5   2    3.40    1.60 
   4  -5   2    7.20    2.60 
   5  -5   2    5.70    2.40 
   5  -5   2    4.40    0.70 
   6  -5   2    4.30    3.00 
   7  -5   2   19.70    5.40 
  10   4  -2   25.50    5.80 
  10   4  -2   38.70    7.30 
   9   4  -2   -0.30    2.30 
   9   4  -2    2.30    2.60 
  -9  -4   2   -1.00    2.70 
   8   4  -2   -2.80    2.10 
   8   4  -2    1.30    2.20 
   7   4  -2    5.10    2.40 
   7   4  -2    6.80    3.20 
   6   4  -2    7.40    2.60 
   6   4  -2    5.50    2.60 
  -6  -4   2   13.60    2.50 
   5   4  -2  416.36   19.70 
   5   4  -2  439.36   15.20 
  -5  -4   2  430.26   14.70 
   4   4  -2   29.80    5.50 
   4   4  -2   25.90    2.80 
  -4  -4   2   33.70    2.90 
  -4  -4   2   31.50    5.90 
   3   4  -2   21.00    2.10 
   3   4  -2   24.00    4.70 
  -3  -4   2   26.20    4.20 
  -3  -4   2   21.20    2.00 
   2   4  -2   81.59    6.90 
   2   4  -2   79.69    3.80 
  -2  -4   2   69.89    5.90 
  -2  -4   2   73.79    3.40 
   1   4  -2  614.64   22.80 
  -1  -4   2  654.83   16.50 
  -1  -4   2  624.84   16.60 
   0   4  -2  103.09    7.30 
   0  -4   2  107.89    4.60 
   0  -4   2  105.19    5.40 
   0  -4   2  105.49    6.90 
  -1   4  -2   17.40    2.00 
  -1   4  -2   16.10    3.30 
   1  -4   2   19.80    3.10 
   1  -4   2   19.20    2.10 
   1  -4   2   18.60    2.90 
  -2   4  -2  535.05   19.20 
  -2   4  -2  558.54   17.40 
   2  -4   2  527.25   19.30 
   2  -4   2  537.05   17.30 
   2  -4   2  547.75   17.50 
  -3   4  -2   35.00    3.70 
  -3   4  -2   44.30    4.30 
   3  -4   2   47.50    4.30 
   3  -4   2   36.60    3.10 
  -4   4  -2    1.70    1.40 
   4  -4   2    7.80    2.40 
   4  -4   2    5.70    1.20 
   5  -4   2    4.00    2.00 
   6  -4   2   35.60    5.70 
   7  -4   2   -1.20    2.90 
  10   3  -2    1.20    3.20 
 -10  -3   2    4.70    3.30 
   9   3  -2    5.10    3.30 
   9   3  -2    2.70    2.90 
  -9  -3   2    5.70    3.10 
   8   3  -2   21.00    5.00 
   8   3  -2   16.90    7.30 
   7   3  -2  303.07   16.20 
   7   3  -2  298.67   14.30 
   6   3  -2  171.48   11.40 
   6   3  -2  187.28    9.80 
  -6  -3   2  162.48    9.70 
   5   3  -2    3.80    2.10 
   5   3  -2    7.60    2.50 
  -5  -3   2    7.60    2.40 
  -5  -3   2    5.40    1.60 
   4   3  -2  755.82   21.60 
   4   3  -2  740.93   27.20 
  -4  -3   2  722.33   20.90 
  -4  -3   2  718.03   24.30 
   3   3  -2  287.27   13.50 
   3   3  -2  286.07    9.60 
  -3  -3   2  286.87    9.40 
  -3  -3   2  297.67   12.90 
   2   3  -2   76.19    3.30 
   2   3  -2   71.69    5.80 
  -2  -3   2   75.09    3.20 
  -2  -3   2   74.29    5.60 
   1   3  -2 2150.48   50.69 
   1   3  -2 2197.98   57.09 
  -1  -3   2 2160.78   55.89 
  -1  -3   2 2087.59   50.09 
  -1  -3   2 2176.88   50.19 
   0   3  -2   76.19    5.60 
   0  -3   2   84.49    3.40 
   0  -3   2   89.59    3.90 
   0  -3   2   85.09    5.50 
  -1   3  -2    1.60    0.70 
  -1   3  -2    0.00    0.50 
   1  -3   2    2.50    1.00 
  -2   3  -2   15.10    2.20 
  -2   3  -2   19.30    2.90 
   2  -3   2   15.40    1.90 
   2  -3   2   16.20    2.00 
  -3   3  -2  244.48   10.20 
  -3   3  -2  252.77   10.10 
   3  -3   2  253.27   10.60 
   3  -3   2  250.97    8.80 
  -4   3  -2  100.49    6.80 
  -4   3  -2   88.09    4.90 
   4  -3   2   93.99    6.60 
   5  -3   2    1.70    1.50 
   6  -3   2    4.80    2.50 
   7  -3   2  100.29    9.10 
   8  -3   2    0.80    3.20 
  10   2  -2    1.10    3.00 
 -10  -2   2    0.90    2.70 
   9   2  -2   -2.90    1.90 
   9   2  -2    4.20    2.60 
  -9  -2   2   -2.40    2.50 
  -9  -2   2    0.60    1.90 
   8   2  -2    4.00    2.10 
   8   2  -2   -2.50    2.30 
  -8  -2   2   -0.80    1.80 
  -8  -2   2   -1.50    1.60 
   7   2  -2   77.69    7.20 
   7   2  -2   67.69    6.80 
  -7  -2   2   81.89    5.90 
   6   2  -2   18.70    3.70 
  -6  -2   2   22.90    3.80 
   5   2  -2   -0.20    1.20 
   5   2  -2    0.50    1.40 
  -5  -2   2    0.10    0.90 
  -5  -2   2   -0.20    1.00 
   4   2  -2  108.39    7.40 
   4   2  -2  113.49    6.10 
  -4  -2   2  105.79    6.50 
  -4  -2   2  113.89    5.80 
   3   2  -2  432.56   13.30 
   3   2  -2  444.76   16.40 
  -3  -2   2  431.36   13.00 
  -3  -2   2  424.66   15.30 
   2   2  -2 1509.65   40.40 
   2   2  -2 1431.56   35.70 
  -2  -2   2 1471.95   39.40 
  -2  -2   2 1491.45   35.60 
   1   2  -2   47.70    1.80 
   1   2  -2   44.20    3.80 
  -1  -2   2   46.80    1.70 
  -1  -2   2   42.40    3.60 
   0   2  -2 1686.13   44.70 
   0  -2   2 1755.32   44.20 
   0  -2   2 1739.53   40.20 
   0  -2   2 1753.22   40.70 
  -1   2  -2   13.70    2.20 
  -1   2  -2   13.00    1.30 
   1  -2   2   11.60    1.90 
   1  -2   2   13.20    1.30 
  -2   2  -2  163.38    6.70 
  -2   2  -2  168.18    7.10 
   2  -2   2  178.58    7.00 
   2  -2   2  171.48    6.60 
  -3   2  -2  604.24   18.70 
  -3   2  -2  663.73   18.10 
   3  -2   2  557.14   20.00 
   3  -2   2  662.63   19.30 
  -4   2  -2   45.90    3.00 
  -4   2  -2   52.59    4.20 
   4  -2   2   51.69    2.80 
   4  -2   2   42.90    4.30 
   5  -2   2   49.00    5.10 
   6  -2   2   22.90    4.40 
   7  -2   2   58.39    6.80 
   8  -2   2   65.59    7.90 
   9  -2   2   -0.40    2.80 
  10   1  -2    2.00    3.50 
   9   1  -2    9.70    3.70 
  -9  -1   2    8.70    2.60 
   8   1  -2   11.00    4.00 
   8   1  -2   14.00    3.30 
  -8  -1   2   20.20    3.40 
  -8  -1   2   11.90    2.20 
   7   1  -2  195.28   10.70 
   7   1  -2  219.08   12.20 
  -7  -1   2  210.98    9.00 
   6   1  -2  556.64   20.80 
   6   1  -2  638.74   21.90 
  -6  -1   2  625.04   19.10 
   5   1  -2  396.06   15.00 
   5   1  -2  370.06   15.10 
  -5  -1   2  399.66   13.80 
  -5  -1   2  411.96   15.00 
   4   1  -2  172.98    8.60 
   4   1  -2  165.08    7.80 
  -4  -1   2  151.88    7.50 
  -4  -1   2  169.48    7.60 
   3   1  -2   40.60    3.10 
   3   1  -2   44.70    3.80 
  -3  -1   2   39.00    2.90 
  -3  -1   2   39.50    3.30 
   2   1  -2 2623.94   64.19 
   2   1  -2 2544.55   61.49 
  -2  -1   2 2612.54   63.49 
  -2  -1   2 2603.14   61.59 
   1   1  -2  122.89    3.90 
   1   1  -2  123.69    5.90 
  -1  -1   2  128.09    3.90 
  -1  -1   2  127.79    5.70 
   0   1  -2   73.89    4.10 
   0  -1   2   79.99    4.00 
  -1   1  -2  435.26   11.20 
  -1   1  -2  417.36   12.60 
   1  -1   2  415.16   11.60 
  -2   1  -2  164.18    6.20 
  -2   1  -2  159.58    6.20 
   2  -1   2  186.18    6.70 
   2  -1   2  179.88    6.00 
  -3   1  -2   99.39    4.30 
  -3   1  -2   97.09    5.10 
   3  -1   2  106.39    4.30 
   3  -1   2  104.99    5.50 
  -4   1  -2   31.00    2.00 
  -4   1  -2   26.10    2.90 
   4  -1   2   25.70    2.10 
   4  -1   2   30.30    3.40 
  -5   1  -2  165.68    5.40 
  -5   1  -2  174.08    6.00 
   5  -1   2  171.18    5.80 
   5  -1   2  186.38    9.60 
   6  -1   2   39.60    5.90 
   7  -1   2   19.50    4.80 
   8  -1   2   98.59    9.20 
   9  -1   2    8.70    3.80 
   9   0  -2   -1.80    2.10 
   8   0  -2    5.70    2.60 
  -8   0   2    8.30    1.40 
  -8   0   2    6.80    1.30 
   7   0  -2    9.00    5.50 
   7   0  -2   11.80    2.30 
  -7   0   2   15.30    1.80 
  -7   0   2   12.20    2.30 
   6   0  -2   36.00    3.50 
   6   0  -2   36.70    5.40 
  -6   0   2   41.90    2.90 
   5   0  -2   35.10    3.30 
   5   0  -2   34.90    4.00 
  -5   0   2   38.30    2.80 
   4   0  -2  190.58    8.80 
   4   0  -2  186.78    8.20 
  -4   0   2  189.38    7.10 
  -4   0   2  187.28    9.10 
   3   0  -2   35.20    2.90 
   3   0  -2   40.50    3.20 
  -3   0   2   30.10    2.40 
  -3   0   2   32.90    2.90 
   2   0  -2  411.36   12.40 
   2   0  -2  403.16   12.10 
  -2   0   2  387.56   12.80 
  -2   0   2  397.26   12.10 
   0   0  -2  212.98    6.10 
   0   0  -2  208.98    6.90 
   0   0   2  208.48    6.20 
   0   0   2  211.88    6.90 
  -2   0  -2  206.68    6.80 
  -2   0  -2  213.08    7.60 
   2   0   2  212.98    7.00 
   2   0   2  233.98    7.70 
  -3   0  -2    7.20    1.50 
  -3   0  -2    6.10    1.00 
   3   0   2    6.10    1.10 
   3   0   2    6.10    1.60 
  -4   0  -2 1322.47   36.10 
  -4   0  -2 1353.96   33.20 
   4   0   2 1386.16   36.80 
   4   0   2 1380.76   34.50 
  -5   0  -2    9.90    1.70 
  -5   0  -2   12.40    1.20 
  -5   0  -2   10.10    2.20 
   5   0   2   12.40    1.60 
   5   0   2   12.70    2.90 
  -6   0  -2   23.90    2.10 
  -6   0  -2   19.00    1.50 
   6   0   2   26.40    4.60 
   7   0   2   17.10    4.50 
   8   0   2    1.20    2.60 
   9   0   2   86.09    8.70 
  10   0   2   -1.00    2.80 
   9  -1  -2    4.80    3.60 
   8  -1  -2   36.30    6.30 
   7  -1  -2  290.77   15.20 
   6  -1  -2  254.67   13.10 
  -6   1   2  251.47    7.00 
  -6   1   2  250.67    7.40 
   5  -1  -2   57.09    5.30 
   5  -1  -2   63.99    3.50 
  -5   1   2   51.59    2.70 
   4  -1  -2    7.00    2.00 
   4  -1  -2    6.40    1.30 
  -4   1   2    5.80    1.50 
  -4   1   2    4.90    1.00 
   3  -1  -2  741.33   19.70 
   3  -1  -2  729.13   21.80 
  -3   1   2  734.73   21.90 
  -3   1   2  751.92   19.00 
   2  -1  -2   91.79    3.90 
   2  -1  -2   95.49    4.90 
  -2   1   2   87.59    4.70 
  -2   1   2   93.29    3.80 
   1  -1  -2   91.89    4.20 
   1  -1  -2   91.89    3.70 
  -1   1   2   90.49    4.20 
  -1   1   2   85.79    3.60 
   0  -1  -2  105.99    4.60 
   0  -1  -2  107.59    4.10 
   0   1   2  106.39    4.20 
   0   1   2  106.19    4.70 
  -1  -1  -2 1373.56   33.50 
  -1  -1  -2 1368.86   33.80 
   1   1   2 1368.56   33.60 
   1   1   2 1407.46   34.10 
  -2  -1  -2 2014.00   58.49 
  -2  -1  -2 2356.36   54.39 
   2   1   2 2373.26   54.79 
   2   1   2 2272.17   54.19 
  -3  -1  -2    2.00    0.80 
  -3  -1  -2    2.60    1.10 
   3   1   2    3.20    1.00 
   3   1   2    1.90    1.20 
  -4  -1  -2 1835.32   46.80 
  -4  -1  -2 1756.82   46.70 
  -4  -1  -2 1787.62   45.40 
   4   1   2 1855.41   46.50 
   4   1   2 1942.41   47.70 
  -5  -1  -2  179.98    8.80 
  -5  -1  -2  175.78    7.20 
  -5  -1  -2  182.68    8.20 
   5   1   2  194.68    9.50 
  -6  -1  -2    6.00    1.40 
  -6  -1  -2    2.30    1.00 
   6   1   2    0.30    1.90 
  -7  -1  -2   58.79    4.20 
  -7  -1  -2   61.79    3.70 
   7   1   2   54.99    6.20 
  -8  -1  -2   30.80    2.30 
  -8  -1  -2   28.90    2.70 
   8   1   2   31.80    5.80 
   9   1   2   24.00    5.30 
  10   1   2   -1.00    2.90 
   9  -2  -2    1.50    3.10 
   8  -2  -2    4.20    2.90 
   7  -2  -2    2.00    2.30 
   6  -2  -2    3.10    2.10 
   5  -2  -2  509.05   19.50 
   4  -2  -2  205.78   10.20 
  -4   2   2  195.88    5.50 
   3  -2  -2   58.59    2.80 
  -3   2   2   58.29    2.90 
  -3   2   2   55.69    4.80 
   2  -2  -2 1349.27   32.90 
   2  -2  -2 1382.06   36.30 
  -2   2   2 1360.06   33.70 
  -2   2   2 1384.26   36.20 
   1  -2  -2   21.60    2.20 
   1  -2  -2   25.50    2.90 
   1  -2  -2   22.60    1.80 
  -1   2   2   25.30    2.40 
  -1   2   2   25.70    2.10 
   1   2   2 3236.28   77.79 
  -2  -2  -2  911.31   24.40 
  -2  -2  -2  942.91   25.60 
   2   2   2  944.81   24.60 
   2   2   2  938.71   25.80 
  -3  -2  -2 5290.17  125.69 
   3   2   2 5248.88  125.09 
  -4  -2  -2  416.06   14.10 
  -4  -2  -2  427.76   14.40 
  -4  -2  -2  397.16   14.70 
   4   2   2  425.46   14.50 
   4   2   2  415.86   14.60 
  -5  -2  -2  145.99    7.70 
  -5  -2  -2  161.38    7.80 
  -5  -2  -2  144.79    7.90 
  -6  -2  -2   59.09    4.80 
  -6  -2  -2   50.99    4.30 
   6   2   2   65.19    5.70 
  -7  -2  -2   74.19    5.30 
  -7  -2  -2   75.29    5.70 
   7   2   2   75.89    6.80 
  -8  -2  -2    5.60    1.80 
  -8  -2  -2    3.90    1.60 
   8   2   2    6.20    2.90 
  -9  -2  -2   60.49    4.80 
  -9  -2  -2   61.69    4.40 
   9   2   2   56.59    7.10 
 -10  -2  -2    9.10    1.70 
  10   2   2   15.00    4.30 
  11   2   2    4.90    3.60 
   8  -3  -2   39.50    7.20 
   7  -3  -2   19.70    4.50 
   6  -3  -2  183.88   11.60 
   5  -3  -2   57.59    6.00 
   4  -3  -2   -0.60    1.00 
   3  -3  -2    0.30    0.50 
   3  -3  -2    1.30    1.20 
   3  -3  -2   -0.10    0.30 
  -3   3   2    0.20    1.00 
   2  -3  -2  220.48    7.10 
   2  -3  -2  223.28    8.10 
   2  -3  -2  222.08    9.60 
   2  -3  -2  206.18   11.10 
  -2   3   2  224.68    9.70 
  -2   3   2  216.68    7.90 
   1  -3  -2   14.00    1.70 
   1  -3  -2   13.60    2.30 
   1  -3  -2   14.20    2.80 
   1  -3  -2   14.30    2.30 
  -1   3   2   15.00    2.70 
  -1   3   2   13.30    2.20 
   0  -3  -2 1901.91   49.30 
   0  -3  -2 2005.60   48.40 
   0  -3  -2 1936.01   49.80 
   0  -3  -2 1935.21   48.60 
   0   3   2 1895.61   48.90 
   0   3   2 1942.61   50.19 
  -1  -3  -2  961.20   27.80 
  -1  -3  -2  969.60   26.40 
  -1  -3  -2  978.70   27.30 
   1   3   2  977.30   27.40 
   1   3   2  983.20   27.00 
  -2  -3  -2    3.10    1.30 
  -2  -3  -2    2.90    1.30 
  -2  -3  -2    2.60    0.90 
   2   3   2    3.50    1.10 
   2   3   2    1.90    0.90 
  -3  -3  -2   89.59    5.90 
  -3  -3  -2   89.69    6.10 
  -3  -3  -2   95.99    5.10 
   3   3   2   89.69    5.90 
   3   3   2   97.89    5.30 
  -4  -3  -2  686.83   22.30 
  -4  -3  -2  687.63   22.80 
  -4  -3  -2  667.43   20.50 
   4   3   2  709.03   21.00 
  -5  -3  -2  354.26   14.70 
  -5  -3  -2  368.86   14.60 
   5   3   2  336.07   15.40 
  -6  -3  -2    1.80    1.50 
  -6  -3  -2    2.80    1.80 
   6   3   2    1.80    1.90 
  -7  -3  -2   21.30    3.70 
  -7  -3  -2   21.80    4.10 
   7   3   2   14.80    3.80 
  -8  -3  -2  167.38   12.50 
  -8  -3  -2  208.28   10.90 
   8   3   2  192.18   11.80 
  -9  -3  -2    5.90    2.10 
   9   3   2    4.10    2.80 
 -10  -3  -2    2.90    2.70 
 -10  -3  -2    1.40    1.80 
  10   3   2    1.40    2.50 
  11   3   2    1.10    3.60 
   7  -4  -2   -0.70    1.80 
   6  -4  -2   10.50    3.50 
   5  -4  -2   33.70    5.30 
   4  -4  -2  175.08   10.20 
   3  -4  -2   14.60    3.10 
   3  -4  -2   13.20    1.50 
   3  -4  -2   16.40    1.30 
   2  -4  -2    5.40    1.80 
   2  -4  -2    4.50    2.10 
   2  -4  -2    5.20    1.50 
   2  -4  -2    4.60    1.20 
  -2   4   2    6.10    1.80 
   1  -4  -2 9999.00  230.08 
   1  -4  -2 9723.73  233.08 
   0  -4  -2  913.51   26.90 
   0  -4  -2  862.01   25.30 
   0  -4  -2  894.11   27.10 
   0  -4  -2  908.41   26.30 
   0   4   2  913.11   27.80 
  -1  -4  -2   41.50    3.60 
  -1  -4  -2   47.50    4.20 
  -1  -4  -2   41.30    3.90 
   1   4   2   36.70    3.70 
  -2  -4  -2  255.97   11.80 
  -2  -4  -2  255.77    9.90 
  -2  -4  -2  264.07   11.70 
   2   4   2  256.17   12.10 
   2   4   2  255.47   10.40 
  -3  -4  -2  425.96   16.80 
  -3  -4  -2  433.26   16.70 
  -3  -4  -2  422.96   14.10 
   3   4   2  442.06   14.80 
   3   4   2  414.56   16.90 
  -4  -4  -2  344.67   12.50 
  -4  -4  -2  321.47   14.30 
  -4  -4  -2  329.97   14.60 
   4   4   2  322.07   12.40 
   4   4   2  338.87   15.10 
  -5  -4  -2   37.00    4.00 
  -5  -4  -2   46.70    5.00 
  -5  -4  -2   41.60    4.80 
   5   4   2   41.00    4.80 
  -6  -4  -2   31.40    4.90 
  -6  -4  -2   21.90    6.10 
  -6  -4  -2   28.80    5.00 
   6   4   2   24.80    4.20 
  -7  -4  -2    2.80    1.60 
  -7  -4  -2   -0.20    1.30 
   7   4   2   -1.00    1.40 
  -8  -4  -2   88.79    7.70 
   8   4   2   83.29    7.60 
  -9  -4  -2   -0.70    1.80 
   9   4   2    4.30    2.60 
 -10  -4  -2   -5.50    1.90 
  10   4   2    4.30    2.70 
 -11  -4  -2   13.20    3.30 
  11   4   2    6.10    3.90 
   7  -5  -2   -1.00    2.40 
   6  -5  -2    2.80    2.50 
   5  -5  -2   33.90    5.70 
   4  -5  -2    6.50    2.40 
   3  -5  -2   -0.70    0.60 
   3  -5  -2    0.10    0.60 
   3  -5  -2   -1.50    0.80 
   2  -5  -2   76.49    5.90 
   2  -5  -2   63.59    4.40 
   2  -5  -2   68.19    4.90 
   1  -5  -2  133.99    7.40 
   1  -5  -2  117.39    8.30 
   1  -5  -2  113.19    7.00 
   1  -5  -2  131.69    7.40 
   0  -5  -2 3437.06   87.79 
   0  -5  -2 3463.15   87.79 
   0  -5  -2 3509.85   85.99 
   0  -5  -2 3603.64   88.79 
  -1  -5  -2   55.69    4.30 
  -1  -5  -2   57.49    5.30 
  -1  -5  -2   62.19    5.50 
  -1  -5  -2   60.19    4.80 
   1   5   2   60.59    5.20 
   1   5   2   57.49    5.40 
  -2  -5  -2  291.87   13.50 
  -2  -5  -2  280.47   13.40 
  -2  -5  -2  288.07   11.50 
   2   5   2  298.17   14.10 
   2   5   2  275.87   12.00 
  -3  -5  -2  249.78   13.00 
  -3  -5  -2  254.67   10.40 
  -3  -5  -2  267.67   13.20 
   3   5   2  251.67   13.20 
   3   5   2  253.37   10.90 
  -4  -5  -2   14.50    3.40 
  -4  -5  -2   12.90    2.70 
  -4  -5  -2   13.20    3.20 
   4   5   2   16.90    3.00 
   4   5   2   22.30    4.20 
  -5  -5  -2  297.67   15.10 
  -5  -5  -2  307.27   15.40 
  -5  -5  -2  298.47   12.60 
   5   5   2  316.47   13.10 
   5   5   2  348.57   16.70 
  -6  -5  -2  192.28   11.90 
   6   5   2  184.78   10.10 
   6   5   2  185.18   12.20 
  -7  -5  -2  293.47   16.00 
   7   5   2  279.17   16.20 
   7   5   2  301.27   14.10 
  -8  -5  -2  131.19   10.30 
   8   5   2  101.29    8.30 
  -9  -5  -2    8.90    3.10 
   9   5   2    6.80    3.00 
 -10  -5  -2   22.60    5.20 
  10   5   2   28.50    5.70 
 -11  -5  -2   17.60    4.70 
  11   5   2    8.70    3.50 
   6  -6  -2    8.70    3.20 
   5  -6  -2   14.40    4.00 
   4  -6  -2   29.60    5.20 
   3  -6  -2   16.80    2.10 
   3  -6  -2   16.00    3.80 
   3  -6  -2   17.40    2.10 
   2  -6  -2   93.99    6.10 
   2  -6  -2  116.99    6.80 
   2  -6  -2   89.89    7.00 
   1  -6  -2  282.07   12.50 
   1  -6  -2  256.17   12.40 
   1  -6  -2  287.67   12.90 
   0  -6  -2  148.59    9.30 
   0  -6  -2  165.88    9.60 
   0  -6  -2  147.59    9.40 
   0  -6  -2  156.38    8.60 
  -1  -6  -2    6.70    3.20 
  -1  -6  -2   14.30    2.80 
  -1  -6  -2    8.90    2.20 
  -1  -6  -2   11.20    2.90 
   1   6   2    9.90    3.00 
  -2  -6  -2   -0.10    1.00 
  -2  -6  -2   -1.10    1.30 
  -2  -6  -2    1.10    1.10 
   2   6   2   -1.40    1.00 
  -3  -6  -2   -1.20    1.00 
  -3  -6  -2    1.70    1.80 
  -3  -6  -2    0.40    1.20 
   3   6   2    0.60    1.30 
   3   6   2    1.20    1.00 
  -4  -6  -2  260.87   14.30 
  -4  -6  -2  248.68   10.80 
   4   6   2  232.58   14.00 
   4   6   2  227.98   13.40 
  -5  -6  -2   16.10    4.40 
  -5  -6  -2   18.10    3.50 
   5   6   2   13.10    3.70 
   5   6   2   21.40    3.80 
  -6  -6  -2   14.30    3.70 
   6   6   2    6.30    2.50 
   6   6   2    9.10    3.60 
  -7  -6  -2  444.96   21.90 
   7   6   2  488.65   19.30 
   7   6   2  450.65   22.60 
  -8  -6  -2    2.10    1.60 
   8   6   2    0.20    2.10 
   8   6   2    3.10    2.10 
  -9  -6  -2   17.70    4.80 
   9   6   2   28.60    5.40 
 -10  -6  -2   43.70    7.40 
  10   6   2   39.50    6.80 
 -11  -6  -2   13.80    5.00 
  11   6   2    1.20    4.20 
   5  -7  -2    1.20    2.80 
   4  -7  -2    7.60    2.80 
   3  -7  -2    2.20    1.30 
   3  -7  -2    4.10    2.00 
   3  -7  -2    2.10    1.40 
   2  -7  -2   -0.30    1.60 
   2  -7  -2   -1.60    1.50 
   2  -7  -2    4.00    1.70 
   1  -7  -2  138.59    9.10 
   1  -7  -2  156.18    9.70 
   1  -7  -2  148.39    9.20 
   0  -7  -2   -1.90    1.40 
   0  -7  -2    2.40    1.80 
  -1  -7  -2  405.86   19.00 
  -1  -7  -2  409.06   19.60 
  -1  -7  -2  414.86   16.10 
   1   7   2  431.46   19.10 
   1   7   2  431.26   19.80 
  -2  -7  -2  167.38    9.00 
  -2  -7  -2  166.08    9.60 
  -2  -7  -2  177.68   12.00 
   2   7   2  169.98   12.10 
   2   7   2  187.58   11.00 
  -3  -7  -2  220.38   13.70 
  -3  -7  -2  209.88   10.50 
   3   7   2  221.08   11.80 
   3   7   2  210.48   13.90 
  -4  -7  -2   41.70    7.00 
  -4  -7  -2   54.69    5.10 
   4   7   2   55.59    7.00 
   4   7   2   55.39    5.50 
  -5  -7  -2  176.38   12.80 
   5   7   2  169.88   13.00 
   5   7   2  176.98   10.20 
  -6  -7  -2  331.17   18.70 
   6   7   2  331.77   15.30 
   6   7   2  336.47   19.50 
  -7  -7  -2   27.90    6.10 
   7   7   2   33.70    5.50 
   7   7   2   35.70    7.00 
  -8  -7  -2   -1.30    2.60 
   8   7   2    2.10    1.90 
   8   7   2    5.40    2.90 
  -9  -7  -2   14.00    4.30 
   9   7   2   18.00    4.10 
 -10  -7  -2   13.80    4.70 
  10   7   2   22.50    5.10 
 -11  -7  -2    9.20    4.40 
  11   7   2   -4.20    2.50 
   4  -8  -2    2.10    2.20 
   3  -8  -2    2.70    1.90 
   3  -8  -2    1.80    1.50 
   2  -8  -2   10.20    2.80 
   2  -8  -2   11.70    3.40 
   2  -8  -2   12.60    3.20 
   1  -8  -2   19.90    4.10 
   1  -8  -2   19.90    4.00 
   0  -8  -2   28.00    4.50 
   0  -8  -2   20.40    4.50 
  -1  -8  -2    2.50    1.50 
  -1  -8  -2   -1.50    1.30 
   1   8   2    2.60    2.60 
  -2  -8  -2   84.29    6.40 
  -2  -8  -2   74.49    8.20 
   2   8   2   70.19    7.20 
   2   8   2   81.09    8.80 
  -3  -8  -2   14.70    4.10 
   3   8   2   15.10    3.60 
   3   8   2    7.70    3.60 
  -4  -8  -2   70.59    8.30 
   4   8   2   88.49    9.70 
   4   8   2   84.69    7.40 
  -5  -8  -2   13.60    4.60 
   5   8   2   16.50    4.90 
   5   8   2   26.40    4.60 
  -6  -8  -2   68.29    8.80 
   6   8   2   62.29   10.50 
   6   8   2   83.29    7.30 
  -7  -8  -2   -2.40    2.40 
   7   8   2    3.30    3.30 
   7   8   2   -0.60    1.60 
  -8  -8  -2    7.90    3.50 
   8   8   2   10.00    4.00 
  -9  -8  -2   -3.10    2.30 
   9   8   2    1.70    2.30 
   9   8   2   -1.40    2.20 
 -10  -8  -2   11.40    5.40 
  10   8   2    7.60    3.90 
   3  -9  -2    1.10    2.00 
   2  -9  -2    2.20    2.60 
   2  -9  -2    2.20    2.10 
   1  -9  -2    8.20    3.20 
   1  -9  -2    5.80    3.10 
   0  -9  -2    0.30    2.60 
  -1  -9  -2   36.90    4.50 
  -1  -9  -2   37.90    6.90 
  -2  -9  -2   46.10    5.30 
  -2  -9  -2   61.59    7.70 
   2   9   2   52.59    6.40 
   2   9   2   58.79    9.20 
  -3  -9  -2   22.80    4.00 
   3   9   2   22.10    4.80 
  -4  -9  -2    8.20    3.50 
   4   9   2    2.80    3.00 
   4   9   2   12.30    3.80 
  -5  -9  -2  174.18   14.30 
   5   9   2  135.39   13.10 
   5   9   2  170.68   11.10 
  -6  -9  -2   34.80    7.20 
   6   9   2   41.70    8.60 
   6   9   2   31.20    5.70 
  -7  -9  -2   -3.80    2.00 
   7   9   2    2.40    2.00 
   7   9   2    0.20    3.50 
  -8  -9  -2    1.70    3.40 
   8   9   2    0.40    2.70 
   8   9   2    3.50    2.40 
  -9  -9  -2    6.30    3.50 
   9   9   2   13.80    3.90 
   9   9   2    6.00    3.50 
 -10  -9  -2   -2.10    3.50 
  10   9   2    0.20    2.30 
   1 -10  -2   29.00    5.30 
   1 -10  -2   28.60    5.90 
   0 -10  -2   19.50    4.40 
   0 -10  -2   17.30    4.60 
  -1 -10  -2    9.40    4.10 
  -1 -10  -2    3.30    2.20 
  -2 -10  -2    4.70    2.10 
  -2 -10  -2    4.50    3.50 
  -3 -10  -2   23.80    5.90 
  -3 -10  -2   15.50    3.40 
   3  10   2   17.20    5.50 
   3  10   2   13.10    4.40 
  -4 -10  -2    6.10    2.40 
  -4 -10  -2    3.00    3.30 
   4  10   2   14.30    3.60 
   4  10   2    4.70    3.50 
  -5 -10  -2   22.80    6.20 
   5  10   2    7.50    4.20 
   5  10   2   12.50    4.00 
  -6 -10  -2   60.19   10.50 
   6  10   2   34.00    8.10 
   6  10   2   45.90    7.10 
  -7 -10  -2   -0.90    2.90 
   7  10   2   -0.50    2.10 
   7  10   2   -2.50    3.30 
  -8 -10  -2    5.90    7.40 
   8  10   2   -1.20    5.20 
   8  10   2   -1.00    1.90 
   9  10   2   15.20    5.00 
  -1 -11  -2    6.90    3.00 
  -1 -11  -2    7.10    4.50 
  -2 -11  -2    2.60    2.10 
  -2 -11  -2    3.10    4.10 
  -3 -11  -2    4.70    2.90 
  -3 -11  -2    1.90    2.10 
  -4 -11  -2    2.30    3.60 
   4  11   2    6.50    4.00 
   4  11   2    3.60    2.40 
  -5 -11  -2    9.90    3.20 
  -5 -11  -2   21.40    6.30 
   5  11   2   16.60    5.80 
   5  11   2   20.90    5.10 
  -6 -11  -2    9.10    6.00 
   6  11   2   17.50    5.10 
   6  11   2    9.40    5.00 
  -7 -11  -2   12.60    4.50 
   7  11   2   14.60    4.60 
   7  11   2    4.30    4.80 
   6   9  -3   -1.80    4.10 
   5   9  -3    0.90    4.00 
   4   9  -3    4.70    3.80 
   3   9  -3   31.40    7.40 
   2   9  -3    7.70    4.10 
   1   9  -3   13.50    4.80 
   0   9  -3    5.10    3.00 
   8   8  -3    7.50    2.80 
   8   8  -3   -2.80    3.60 
   7   8  -3    2.70    2.30 
   7   8  -3    1.30    3.30 
   6   8  -3   10.40    2.60 
   6   8  -3   -0.60    3.00 
   5   8  -3   15.90    2.60 
   5   8  -3    7.30    4.00 
   4   8  -3   11.30    3.70 
  -4  -8   3    9.70    1.40 
   3   8  -3  164.58   14.60 
  -3  -8   3  180.48    5.90 
  -3  -8   3  172.38    5.80 
   2   8  -3    2.40    2.80 
  -2  -8   3    0.40    0.70 
   1   8  -3   90.09    9.90 
  -1  -8   3   94.99    4.90 
  -1  -8   3   98.49    4.80 
   0   8  -3    2.50    3.50 
   0  -8   3    1.90    1.30 
  -1   8  -3    5.50    3.80 
   1  -8   3   11.40    2.40 
   2  -8   3   40.30    4.50 
   8   7  -3    0.40    3.00 
   8   7  -3    0.20    1.80 
   7   7  -3    8.10    3.30 
   7   7  -3    0.10    1.80 
   6   7  -3   11.00    4.80 
   6   7  -3   15.50    3.20 
  -6  -7   3   22.10    4.20 
   5   7  -3    1.70    1.20 
   5   7  -3    1.50    2.90 
  -5  -7   3    2.90    1.20 
   4   7  -3  191.68   14.80 
   4   7  -3  199.28    8.00 
  -4  -7   3  180.38    7.10 
  -4  -7   3  202.08    7.10 
   3   7  -3   -0.80    2.20 
  -3  -7   3    1.00    0.60 
  -3  -7   3   -0.70    0.60 
   2   7  -3  546.15   26.40 
  -2  -7   3  568.64   14.60 
  -2  -7   3  483.35   14.10 
   1   7  -3   49.20    7.90 
  -1  -7   3   44.50    2.90 
  -1  -7   3   36.40    2.60 
   0   7  -3   25.40    5.60 
   0  -7   3   20.70    2.50 
   0  -7   3   31.00    3.00 
  -1   7  -3   40.80    7.30 
   1  -7   3   24.90    3.30 
   1  -7   3   29.60    3.90 
  -2   7  -3    7.70    3.70 
   2  -7   3    5.20    2.20 
  -3   7  -3   15.30    4.80 
   3  -7   3   21.80    4.00 
  -4   7  -3   15.70    4.60 
   4  -7   3   12.70    3.70 
   4  -7   3   14.90    3.80 
   9   6  -3    8.30    3.40 
   9   6  -3    8.80    4.30 
   8   6  -3    4.00    3.40 
   8   6  -3    2.90    2.30 
   7   6  -3    5.00    3.50 
   7   6  -3    3.50    1.90 
   6   6  -3   82.99    9.40 
   6   6  -3   76.89    5.90 
  -6  -6   3   80.99    5.30 
   5   6  -3    0.40    2.10 
   5   6  -3    1.40    1.30 
  -5  -6   3    1.50    1.10 
   4   6  -3   42.40    3.30 
   4   6  -3   35.00    6.70 
  -4  -6   3   43.60    2.80 
   3   6  -3  658.33   28.80 
   3   6  -3  624.54   17.70 
  -3  -6   3  645.74   17.00 
  -3  -6   3  631.24   16.80 
   2   6  -3   20.30    4.70 
  -2  -6   3   18.40    1.60 
  -2  -6   3   15.30    1.30 
   1   6  -3   71.59    7.60 
  -1  -6   3   70.39    3.50 
  -1  -6   3   67.79    3.30 
   0   6  -3   65.29    7.50 
   0  -6   3   54.79    3.50 
   0  -6   3   60.29    3.90 
  -1   6  -3    8.00    2.80 
   1  -6   3   13.20    2.40 
   1  -6   3    6.40    1.80 
  -2   6  -3   11.70    3.40 
   2  -6   3   13.30    2.60 
   2  -6   3   15.60    3.30 
  -3   6  -3    2.60    2.40 
   3  -6   3    5.80    2.60 
  -4   6  -3   15.40    3.90 
   4  -6   3   23.50    4.20 
  -5   6  -3    1.20    2.90 
   5  -6   3   -0.80    2.40 
   9   5  -3   -1.30    2.00 
   9   5  -3   -3.00    3.20 
   8   5  -3    8.90    3.10 
   8   5  -3    4.20    4.10 
   7   5  -3    0.40    2.90 
   7   5  -3   -3.10    1.40 
   6   5  -3  110.99   10.60 
   6   5  -3  125.29    7.40 
  -6  -5   3  117.49    6.90 
   5   5  -3  409.86   14.40 
   5   5  -3  405.66   21.20 
  -5  -5   3  425.26   14.00 
   4   5  -3   14.50    4.30 
   4   5  -3   18.00    2.20 
  -4  -5   3   19.10    2.10 
   3   5  -3    7.60    1.40 
   3   5  -3    5.90    2.90 
  -3  -5   3    7.10    1.20 
   2   5  -3    0.80    1.20 
  -2  -5   3   -0.10    0.50 
  -2  -5   3   -0.80    0.30 
   1   5  -3   -0.40    1.50 
  -1  -5   3    0.10    0.60 
   0   5  -3    4.60    2.30 
   0  -5   3    7.70    1.50 
   0  -5   3    9.80    1.50 
  -1   5  -3  138.59    9.80 
   1  -5   3  134.69    9.00 
   1  -5   3  108.79    5.60 
   1  -5   3  143.49    7.10 
  -2   5  -3  563.54   22.10 
  -2   5  -3  568.64   18.00 
   2  -5   3  579.14   19.70 
   2  -5   3  588.54   20.30 
   2  -5   3  491.35   17.50 
  -3   5  -3    2.80    2.00 
  -3   5  -3   -0.50    1.10 
   3  -5   3    0.00    1.20 
   3  -5   3   -1.80    1.90 
   3  -5   3    0.00    1.40 
  -4   5  -3   26.90    4.30 
   4  -5   3   17.90    3.60 
   4  -5   3   18.40    2.80 
  -5   5  -3    0.60    1.60 
   5  -5   3   -3.40    1.20 
   5  -5   3   -0.30    1.40 
   5  -5   3   -2.00    1.50 
   6  -5   3    1.90    3.00 
   9   4  -3   -0.20    3.20 
   9   4  -3    4.30    2.80 
   8   4  -3    4.90    2.90 
   8   4  -3    0.30    2.40 
   7   4  -3   21.30    4.00 
   7   4  -3   14.20    4.10 
   6   4  -3  102.09    9.30 
   6   4  -3   96.69    6.80 
  -6  -4   3   91.29    6.10 
   5   4  -3  271.07   15.90 
   5   4  -3  292.17   11.50 
  -5  -4   3  284.57   11.00 
   4   4  -3    2.50    1.20 
   4   4  -3    5.20    2.20 
  -4  -4   3    5.00    1.20 
   3   4  -3  151.18    5.90 
   3   4  -3  152.28   10.50 
  -3  -4   3  154.78    5.80 
   2   4  -3  213.38   12.30 
   2   4  -3  205.28    6.20 
  -2  -4   3  205.48    5.80 
  -2  -4   3  211.18   12.20 
   1   4  -3  118.59    8.80 
  -1  -4   3  123.79    8.10 
   0   4  -3 1742.23   49.70 
   0  -4   3 1722.93   47.60 
   0  -4   3 1735.43   41.20 
   0  -4   3 1721.13   41.80 
  -1   4  -3   62.79    7.50 
   1  -4   3   64.69    5.20 
   1  -4   3   67.69    4.40 
   1  -4   3   65.19    3.70 
  -2   4  -3  408.56   13.70 
  -2   4  -3  412.36   16.80 
   2  -4   3  409.66   14.90 
   2  -4   3  405.26   15.60 
   2  -4   3  423.76   14.00 
  -3   4  -3  267.77   11.30 
  -3   4  -3  291.17   13.00 
   3  -4   3  276.57   10.90 
   3  -4   3  289.47   11.80 
  -4   4  -3    8.00    2.50 
   4  -4   3   12.20    3.00 
   4  -4   3   15.30    2.20 
  -5   4  -3   23.40    2.90 
   5  -4   3   17.40    3.80 
   5  -4   3   21.60    2.20 
   6  -4   3   12.70    3.70 
   7  -4   3   -5.70    2.00 
   9   3  -3   34.50    6.60 
   9   3  -3   19.30    5.00 
  -9  -3   3   35.40    6.60 
   8   3  -3   17.70    4.40 
   8   3  -3    1.90    3.40 
   7   3  -3  143.89    9.50 
   7   3  -3  156.98   11.60 
   6   3  -3   20.40    4.60 
   6   3  -3   17.00    3.60 
   5   3  -3   49.70    4.60 
   5   3  -3   54.89    6.30 
  -5  -3   3   51.19    4.20 
   4   3  -3   73.99    4.80 
   4   3  -3   81.09    7.20 
  -4  -3   3   81.69    6.40 
  -4  -3   3   70.69    4.30 
   3   3  -3  276.37    9.20 
   3   3  -3  276.57   13.80 
  -3  -3   3  275.77    8.90 
  -3  -3   3  285.47   12.90 
   2   3  -3 1156.68   27.80 
   2   3  -3 1126.59   35.50 
  -2  -3   3 1132.19   33.90 
  -2  -3   3 1176.28   27.60 
   1   3  -3  178.98    9.90 
  -1  -3   3  180.58    9.20 
   0   3  -3  140.19    8.40 
   0  -3   3  141.29    4.30 
   0  -3   3  139.59    7.60 
   0  -3   3  141.29    4.10 
  -1   3  -3  914.61   28.10 
   1  -3   3  883.91   26.50 
   1  -3   3  898.21   25.10 
   1  -3   3  945.81   23.40 
  -2   3  -3  436.86   13.90 
  -2   3  -3  461.55   16.70 
   2  -3   3  463.05   14.20 
   2  -3   3  446.96   15.00 
  -3   3  -3  245.18   10.00 
  -3   3  -3  242.98   10.80 
   3  -3   3  255.47    9.60 
   3  -3   3  247.18   10.30 
  -4   3  -3   13.40    2.70 
  -4   3  -3   13.20    2.50 
   4  -3   3    9.90    1.80 
   4  -3   3    7.20    2.40 
  -5   3  -3   39.00    3.20 
   5  -3   3   29.60    4.70 
   5  -3   3   40.80    2.80 
   6  -3   3  144.99    9.90 
   7  -3   3    5.20    3.20 
   8  -3   3   -2.70    2.60 
   9   2  -3    3.10    2.70 
   9   2  -3   -0.60    2.20 
  -9  -2   3    4.40    2.70 
   8   2  -3    3.20    2.60 
   8   2  -3    1.40    2.60 
   7   2  -3    0.40    1.90 
   7   2  -3    4.50    2.70 
   6   2  -3  352.36   14.70 
   6   2  -3  346.77   16.60 
  -6  -2   3  333.07   14.20 
   5   2  -3  263.47   11.50 
   5   2  -3  245.28   13.20 
  -5  -2   3  268.27   11.10 
  -5  -2   3  273.77   12.00 
   4   2  -3  162.68    7.60 
  -4  -2   3  153.28    8.90 
  -4  -2   3  159.18    7.30 
   3   2  -3  188.88    7.30 
   3   2  -3  177.58    9.80 
  -3  -2   3  187.88    9.20 
  -3  -2   3  174.98    6.90 
   2   2  -3  310.37   13.20 
   2   2  -3  287.27    8.70 
  -2  -2   3  297.27    8.60 
  -2  -2   3  279.47   11.70 
   1   2  -3  116.39    6.90 
  -1  -2   3  111.99    6.40 
   0   2  -3  979.30   28.40 
   0  -2   3  957.20   27.30 
  -1   2  -3    2.80    0.70 
   1  -2   3    2.90    0.90 
   1  -2   3    5.90    1.40 
  -2   2  -3  238.18    8.40 
  -2   2  -3  248.68   10.00 
   2  -2   3  243.18    8.60 
   2  -2   3  242.48    9.10 
  -3   2  -3   83.49    4.90 
  -3   2  -3   88.39    5.20 
   3  -2   3   79.39    5.10 
   3  -2   3   81.99    4.50 
  -4   2  -3   17.40    2.20 
  -4   2  -3   17.40    2.90 
   4  -2   3   20.20    3.40 
   4  -2   3   16.80    2.00 
  -5   2  -3   20.00    2.10 
   5  -2   3   24.60    4.40 
   5  -2   3   17.40    2.00 
  -6   2  -3   92.59    3.70 
  -6   2  -3   93.39    3.60 
   6  -2   3   90.99    7.60 
   6  -2   3   93.39    3.60 
   7  -2   3   67.59    7.60 
   8  -2   3   15.60    4.30 
   9  -2   3   -0.90    3.30 
   9   1  -3    0.00    2.20 
  -9  -1   3    3.40    2.60 
   8   1  -3   29.90    5.50 
   8   1  -3   35.30    5.20 
  -8  -1   3   40.20    4.00 
   7   1  -3  123.49   10.70 
   7   1  -3  114.49    8.70 
  -7  -1   3  116.59    6.70 
   6   1  -3   22.90    4.10 
   6   1  -3   13.20    3.10 
  -6  -1   3   19.60    3.00 
   5   1  -3  250.57   11.30 
   5   1  -3  238.68   11.90 
  -5  -1   3  252.37   11.10 
  -5  -1   3  246.08   10.40 
   4   1  -3  265.57   12.00 
   4   1  -3  264.97   10.60 
  -4  -1   3  261.67   10.70 
  -4  -1   3  264.97   10.50 
   3   1  -3 1755.82   47.40 
   3   1  -3 1817.42   44.80 
  -3  -1   3 1760.02   44.60 
  -3  -1   3 1773.32   46.00 
   2   1  -3    0.10    0.50 
   2   1  -3    1.50    0.70 
  -2  -1   3    2.30    1.00 
  -2  -1   3    3.20    0.80 
   1   1  -3  111.19    6.10 
   1   1  -3  111.79    4.30 
   1   1  -3  112.49    3.80 
  -1  -1   3  112.59    5.80 
  -1  -1   3  112.79    3.80 
   0   1  -3 1345.07   36.00 
   0   1  -3 1379.76   31.70 
   0  -1   3 1366.96   35.40 
   0  -1   3 1390.06   32.00 
  -1   1  -3    7.80    1.70 
  -1   1  -3    9.40    1.00 
   1  -1   3    7.50    1.50 
  -2   1  -3  410.26   12.10 
  -2   1  -3  403.06   13.00 
   2  -1   3  419.66   12.70 
   2  -1   3  411.96   12.40 
  -3   1  -3    9.60    1.80 
  -3   1  -3    9.70    1.80 
   3  -1   3    8.70    2.00 
   3  -1   3   11.40    1.80 
  -4   1  -3    2.80    0.90 
  -4   1  -3    3.00    1.10 
   4  -1   3    3.10    1.10 
   4  -1   3    3.60    1.70 
  -5   1  -3   54.19    3.40 
  -5   1  -3   46.60    4.80 
   5  -1   3   63.79    3.80 
   5  -1   3   61.19    5.60 
  -6   1  -3    8.90    1.40 
  -6   1  -3   10.40    1.70 
   6  -1   3    7.10    1.30 
   6  -1   3    5.80    2.90 
   7  -1   3   46.80    5.80 
   8  -1   3    1.00    2.20 
   9  -1   3   17.40    5.20 
   9   0  -3   11.60    4.90 
   8   0  -3    9.40    3.70 
   8   0  -3    7.30    2.20 
  -8   0   3   10.10    2.00 
  -8   0   3   14.30    2.40 
   7   0  -3   17.00    3.30 
   7   0  -3   23.60    4.70 
  -7   0   3   18.70    2.50 
   6   0  -3    2.10    1.90 
   6   0  -3   -0.20    1.40 
  -6   0   3    0.90    0.90 
   5   0  -3    0.90    1.30 
   5   0  -3   -0.50    1.10 
  -5   0   3   -0.40    0.80 
   4   0  -3   50.79    4.60 
   4   0  -3   55.99    4.50 
  -4   0   3   52.69    3.70 
  -4   0   3   48.70    4.20 
   3   0  -3 2919.41   72.29 
   3   0  -3 2965.20   72.99 
  -3   0   3 3012.10   71.59 
  -3   0   3 2940.61   72.19 
   2   0  -3 3424.36   82.79 
   2   0  -3 3537.65   84.19 
  -2   0   3 3502.25   82.99 
  -2   0   3 3471.05   83.19 
   1   0  -3  272.87    9.70 
   1   0  -3  272.97    8.40 
   1   0  -3  269.47    9.30 
  -1   0   3  270.47    9.40 
  -1   0   3  276.07    8.50 
  -1   0  -3 1658.83   39.00 
  -1   0  -3 1619.44   40.50 
   1   0   3 1633.94   40.40 
   1   0   3 1603.74   39.10 
  -2   0  -3  465.55   13.60 
  -2   0  -3  459.65   13.30 
   2   0   3  453.65   13.40 
   2   0   3  461.45   13.60 
  -3   0  -3  106.09    4.80 
  -3   0  -3  113.99    5.40 
   3   0   3  105.29    5.10 
   3   0   3  114.09    5.70 
  -4   0  -3  470.05   15.80 
  -4   0  -3  493.05   14.00 
   4   0   3  479.65   16.30 
   4   0   3  485.75   14.90 
  -5   0  -3   86.69    4.20 
  -5   0  -3   89.79    5.90 
   5   0   3   85.19    6.40 
   5   0   3   86.59    5.00 
  -6   0  -3   31.90    2.30 
  -6   0  -3   31.60    3.00 
   6   0   3   29.70    5.00 
   6   0   3   33.80    3.00 
  -7   0  -3   60.89    4.20 
  -7   0  -3   58.29    3.00 
   7   0   3   52.39    6.00 
   8   0   3    7.40    3.30 
   9   0   3    5.60    3.20 
  10   0   3   10.50    4.70 
   9  -1  -3   21.60    5.60 
   7  -1  -3  206.28    7.60 
   7  -1  -3  199.08   12.50 
  -7   1   3  203.58    7.50 
  -7   1   3  205.38    6.80 
   6  -1  -3   48.30    5.20 
   6  -1  -3   34.80    3.30 
  -6   1   3   34.70    2.60 
   5  -1  -3   14.00    2.20 
   5  -1  -3   14.10    3.20 
  -5   1   3   15.90    1.90 
   4  -1  -3  616.14   20.30 
   4  -1  -3  573.04   18.00 
  -4   1   3  588.74   16.90 
  -4   1   3  614.04   20.10 
   3  -1  -3  401.36   13.40 
   3  -1  -3  447.86   14.90 
  -3   1   3  437.26   14.90 
  -3   1   3  410.26   12.70 
   2  -1  -3 1049.30   28.50 
   2  -1  -3 1089.19   27.90 
  -2   1   3 1065.19   28.70 
  -2   1   3 1045.80   27.30 
   1  -1  -3  765.22   20.60 
   1  -1  -3  740.53   22.10 
   1  -1  -3  778.62   20.50 
  -1   1   3  749.23   20.60 
  -1   1   3  766.92   20.40 
   0  -1  -3  806.92   21.60 
   0  -1  -3  795.82   21.10 
   0  -1  -3  774.42   20.70 
   0   1   3  780.92   21.80 
   0   1   3  827.52   21.40 
  -1  -1  -3  674.53   18.50 
  -1  -1  -3  696.33   19.00 
   1   1   3  716.23   19.30 
   1   1   3  702.43   18.80 
  -3  -1  -3   -0.30    0.50 
  -3  -1  -3    0.70    0.90 
   3   1   3    0.00    0.50 
   3   1   3    1.50    1.10 
  -4  -1  -3    3.00    1.40 
  -4  -1  -3    4.10    1.10 
   4   1   3    4.60    1.70 
   4   1   3    5.20    1.60 
  -5  -1  -3   26.00    3.30 
  -5  -1  -3   35.20    2.80 
   5   1   3   37.30    4.10 
   5   1   3   33.00    3.30 
  -6  -1  -3    1.50    0.90 
  -6  -1  -3   -2.20    0.90 
   6   1   3    0.10    0.90 
   6   1   3    3.70    2.20 
  -7  -1  -3    9.00    1.60 
  -7  -1  -3    4.30    1.80 
   7   1   3   10.40    3.50 
  -8  -1  -3    6.70    1.30 
  -8  -1  -3    6.70    1.70 
   8   1   3    3.40    2.70 
  -9  -1  -3    1.30    0.70 
   9   1   3    2.50    3.10 
  10   1   3   25.10    6.40 
   8  -2  -3    0.00    2.10 
   7  -2  -3    2.50    2.00 
   6  -2  -3  102.39    8.30 
   5  -2  -3  223.88   11.80 
   5  -2  -3  216.18    7.70 
  -5   2   3  221.38    7.30 
   4  -2  -3  466.05   16.90 
   4  -2  -3  421.96   12.90 
  -4   2   3  404.76   13.90 
   3  -2  -3  144.59    5.80 
   3  -2  -3  138.99    7.60 
  -3   2   3  137.19    5.70 
  -3   2   3  127.19    7.30 
   2  -2  -3  187.28    6.80 
   2  -2  -3  196.28   10.10 
   2  -2  -3  193.08    8.50 
  -2   2   3  191.08    7.20 
  -2   2   3  190.48    8.50 
   1  -2  -3  684.93   19.60 
   1  -2  -3  676.63   18.30 
   1  -2  -3  665.53   21.30 
  -1   2   3  684.03   19.70 
  -1   2   3  662.13   18.80 
   0  -2  -3 1796.02   44.00 
   0  -2  -3 1761.62   45.30 
   0  -2  -3 1766.72   43.80 
   0   2   3 1753.72   45.70 
   0   2   3 1795.62   44.40 
  -1  -2  -3  127.09    5.70 
  -1  -2  -3  132.19    5.80 
   1   2   3  125.59    5.90 
   1   2   3  124.09    6.00 
  -2  -2  -3 1812.02   46.70 
  -2  -2  -3 1850.51   46.00 
   2   2   3 1897.91   47.30 
   2   2   3 1875.51   46.40 
  -3  -2  -3  164.58    7.20 
  -3  -2  -3  166.78    7.40 
   3   2   3  170.98    7.30 
   3   2   3  155.78    7.60 
  -4  -2  -3   32.90    3.10 
  -4  -2  -3   36.00    3.40 
   4   2   3   32.90    3.30 
   4   2   3   37.60    3.60 
  -5  -2  -3   66.29    4.50 
  -5  -2  -3   55.59    4.80 
  -5  -2  -3   57.09    4.70 
   5   2   3   51.79    4.60 
   5   2   3   60.09    5.10 
  -6  -2  -3  448.56   17.10 
  -6  -2  -3  466.45   15.80 
   6   2   3  478.15   17.90 
   6   2   3  450.65   16.90 
  -7  -2  -3   27.30    3.00 
  -7  -2  -3   26.60    4.20 
   7   2   3   24.20    4.60 
  -8  -2  -3    1.90    1.80 
  -8  -2  -3    3.40    1.20 
   8   2   3    2.60    2.40 
  -9  -2  -3   46.00    4.80 
  -9  -2  -3   41.50    3.50 
   9   2   3   41.50    7.10 
 -10  -2  -3    0.30    1.10 
  10   2   3   -0.50    2.10 
  11   2   3   32.10    6.70 
   8  -3  -3   55.19    7.20 
   7  -3  -3   15.40    4.10 
   6  -3  -3   10.30    3.20 
   5  -3  -3  358.36   16.40 
   4  -3  -3   51.29    3.00 
   4  -3  -3   49.10    5.00 
  -4   3   3   46.00    2.80 
   3  -3  -3   22.90    1.90 
   3  -3  -3   25.20    3.30 
  -3   3   3   24.40    2.50 
   2  -3  -3  194.78    6.80 
   2  -3  -3  186.68    9.30 
   2  -3  -3  193.28   10.70 
  -2   3   3  181.48    7.70 
  -2   3   3  181.38    8.80 
   1  -3  -3  394.16   15.60 
   1  -3  -3  402.36   14.00 
   1  -3  -3  417.96   12.80 
  -1   3   3  420.86   14.40 
  -1   3   3  414.96   13.70 
   0  -3  -3 2431.26   60.09 
   0  -3  -3 2312.77   57.69 
   0  -3  -3 2312.07   57.59 
   0   3   3 2295.77   59.99 
   0   3   3 2325.77   58.49 
  -1  -3  -3 1593.94   42.10 
  -1  -3  -3 1631.04   42.30 
   1   3   3 1651.13   43.00 
   1   3   3 1652.73   43.00 
  -2  -3  -3 1190.38   32.00 
  -2  -3  -3 1209.18   33.20 
   2   3   3 1209.88   33.80 
   2   3   3 1234.48   32.60 
  -3  -3  -3 3020.80   74.49 
  -3  -3  -3 3038.80   76.19 
  -3  -3  -3 3038.20   77.49 
   3   3   3 3135.19   75.19 
   3   3   3 3098.09   76.99 
  -4  -3  -3 2252.57   56.59 
  -4  -3  -3 2213.08   58.99 
  -4  -3  -3 2254.87   57.79 
   4   3   3 2219.18   58.39 
   4   3   3 2181.08   56.49 
  -5  -3  -3    7.20    2.20 
  -5  -3  -3    7.30    2.50 
  -5  -3  -3    4.50    1.80 
   5   3   3   10.40    2.60 
   5   3   3    4.60    1.70 
  -6  -3  -3  449.16   18.20 
  -6  -3  -3  456.35   17.10 
   6   3   3  465.75   17.50 
  -7  -3  -3   46.40    4.50 
  -7  -3  -3   50.29    5.50 
   7   3   3   52.69    5.80 
  -8  -3  -3  189.88   11.10 
   8   3   3  192.48   12.10 
  -9  -3  -3    6.90    2.40 
  -9  -3  -3   -1.60    1.20 
   9   3   3    2.10    2.50 
 -10  -3  -3    6.00    2.00 
 -10  -3  -3    6.00    3.10 
  10   3   3    0.40    2.60 
 -11  -3  -3   -0.20    2.60 
  11   3   3    0.20    2.30 
   6  -4  -3    5.60    3.00 
   5  -4  -3   23.10    4.70 
   4  -4  -3  278.67   13.70 
   3  -4  -3    1.40    1.30 
   3  -4  -3    6.00    1.10 
   3  -4  -3    4.30    1.40 
   2  -4  -3  487.05   14.50 
   2  -4  -3  489.55   16.30 
   2  -4  -3  510.15   20.60 
   2  -4  -3  504.95   17.90 
  -2   4   3  486.15   16.00 
  -2   4   3  474.45   17.60 
   1  -4  -3   21.10    3.20 
   1  -4  -3   23.50    2.50 
   1  -4  -3   23.10    4.40 
   1  -4  -3   21.10    3.90 
  -1   4   3   23.50    2.90 
  -1   4   3   20.10    3.10 
   0  -4  -3 2423.86   62.79 
   0  -4  -3 2378.96   61.09 
   0  -4  -3 2377.96   63.09 
   0  -4  -3 2453.85   61.39 
   0   4   3 2492.75   62.39 
   0   4   3 2502.95   64.49 
  -1  -4  -3   19.50    3.20 
  -1  -4  -3   27.00    3.30 
  -1  -4  -3   23.60    3.00 
   1   4   3   18.00    3.20 
   1   4   3   22.80    3.50 
  -2  -4  -3    0.50    1.00 
  -2  -4  -3    0.00    0.90 
  -2  -4  -3    3.70    1.80 
   2   4   3    1.80    1.10 
   2   4   3    3.20    1.50 
  -3  -4  -3  161.18    9.00 
  -3  -4  -3  160.68    9.30 
  -3  -4  -3  165.78    7.80 
   3   4   3  160.88    9.10 
   3   4   3  167.58    8.10 
  -4  -4  -3   67.79    5.70 
  -4  -4  -3   73.99    6.30 
  -4  -4  -3   73.19    5.00 
   4   4   3   68.19    5.90 
   4   4   3   67.29    5.00 
  -5  -4  -3   42.30    4.90 
  -5  -4  -3   32.50    3.70 
  -5  -4  -3   37.50    4.30 
   5   4   3   39.40    4.00 
  -6  -4  -3  225.58   12.50 
  -6  -4  -3  246.38   12.50 
   6   4   3  246.68   11.70 
  -7  -4  -3  949.40   31.20 
  -7  -4  -3  942.41   32.10 
   7   4   3  933.91   30.50 
  -8  -4  -3   43.50    5.10 
   8   4   3   33.90    5.70 
  -9  -4  -3   35.80    5.60 
   9   4   3   49.90    6.00 
 -10  -4  -3    1.20    1.90 
  10   4   3    1.10    2.30 
  11   4   3    4.60    3.20 
   7  -5  -3   10.20    3.60 
   6  -5  -3    1.60    2.60 
   5  -5  -3   10.40    3.30 
   4  -5  -3    0.30    1.30 
   3  -5  -3   21.80    2.50 
   3  -5  -3   23.30    2.00 
   3  -5  -3   25.30    4.30 
   2  -5  -3   37.30    3.60 
   2  -5  -3   36.50    3.10 
   2  -5  -3   34.70    4.10 
   1  -5  -3   40.60    3.80 
   1  -5  -3   61.49    6.10 
   1  -5  -3   37.10    4.00 
   1  -5  -3   38.00    4.20 
   0  -5  -3  976.10   28.60 
   0  -5  -3  929.41   29.90 
   0  -5  -3  941.31   29.50 
   0  -5  -3  935.11   27.90 
   0   5   3  928.41   30.80 
  -1  -5  -3  656.93   22.00 
  -1  -5  -3  672.13   20.80 
  -1  -5  -3  642.14   22.10 
  -1  -5  -3  653.03   23.00 
   1   5   3  636.54   22.40 
   1   5   3  665.53   22.90 
  -2  -5  -3 1058.19   30.50 
  -2  -5  -3 1052.39   32.30 
  -2  -5  -3  996.30   32.60 
   2   5   3 1056.29   32.60 
   2   5   3 1057.89   31.40 
  -3  -5  -3 1032.40   33.30 
  -3  -5  -3 1034.30   29.60 
  -3  -5  -3 1044.20   32.60 
   3   5   3 1009.00   30.30 
  -4  -5  -3    1.80    1.60 
  -4  -5  -3    7.90    2.40 
   4   5   3    2.40    1.30 
  -5  -5  -3  255.97   13.70 
  -5  -5  -3  249.28   13.30 
  -5  -5  -3  254.37   11.50 
   5   5   3  257.27   11.80 
  -6  -5  -3  119.69   11.30 
  -6  -5  -3  117.69    9.20 
   6   5   3  128.09    8.20 
  -7  -5  -3    0.30    1.60 
   7   5   3    0.10    1.70 
  -8  -5  -3  271.87   15.10 
   8   5   3  273.37   14.40 
  -9  -5  -3   12.70    3.20 
   9   5   3    3.50    2.50 
 -10  -5  -3    0.50    2.40 
  10   5   3    0.70    2.60 
 -11  -5  -3   -3.10    2.50 
  11   5   3    4.60    2.90 
   6  -6  -3    0.80    1.80 
   5  -6  -3   -0.60    1.60 
   4  -6  -3   13.60    3.50 
   3  -6  -3   50.69    3.40 
   3  -6  -3   59.89    4.20 
   2  -6  -3   29.50    3.60 
   2  -6  -3   27.90    4.60 
   2  -6  -3   22.40    2.80 
   1  -6  -3 1685.53   46.60 
   1  -6  -3 1676.63   46.40 
   1  -6  -3 1590.34   45.00 
   0  -6  -3   39.10    4.70 
   0  -6  -3   30.70    3.80 
   0  -6  -3   36.60    4.10 
  -1  -6  -3   29.20    4.50 
  -1  -6  -3   24.60    3.20 
  -1  -6  -3   18.00    5.00 
   1   6   3   33.10    5.20 
  -2  -6  -3    4.70    1.70 
  -2  -6  -3    3.20    1.80 
  -2  -6  -3    4.10    1.90 
   2   6   3    0.40    1.20 
  -3  -6  -3   53.09    5.80 
  -3  -6  -3   52.49    5.80 
  -3  -6  -3   55.29    4.80 
   3   6   3   50.89    5.00 
  -4  -6  -3   20.90    4.60 
  -4  -6  -3   16.10    3.00 
   4   6   3   20.20    3.70 
  -5  -6  -3   17.00    4.20 
  -5  -6  -3   18.30    3.50 
   5   6   3   14.50    3.30 
  -6  -6  -3   39.60    6.40 
   6   6   3   43.40    5.00 
  -7  -6  -3   20.20    4.70 
   7   6   3   14.80    3.70 
  -8  -6  -3   14.70    4.40 
   8   6   3   14.20    3.90 
  -9  -6  -3    7.20    3.00 
   9   6   3    1.50    2.50 
 -10  -6  -3   34.80   10.30 
  10   6   3   48.00    7.60 
 -11  -6  -3   -0.10    3.50 
  11   6   3   -2.90    2.70 
   5  -7  -3    5.20    2.80 
   4  -7  -3   -0.90    1.70 
   3  -7  -3    4.30    1.50 
   3  -7  -3    4.20    2.90 
   3  -7  -3    4.20    1.40 
   2  -7  -3   -1.20    1.30 
   2  -7  -3    6.30    2.10 
   1  -7  -3   -0.20    1.20 
   1  -7  -3    4.90    2.00 
   1  -7  -3   -1.10    1.50 
   0  -7  -3   27.40    4.30 
   0  -7  -3   27.00    4.70 
   0  -7  -3   17.80    3.90 
  -1  -7  -3   72.59    6.10 
  -1  -7  -3   69.89    7.20 
  -1  -7  -3   80.59    7.20 
   1   7   3   75.29    7.30 
  -2  -7  -3   10.40    3.30 
  -2  -7  -3   11.70    2.70 
   2   7   3   12.30    3.40 
  -3  -7  -3    0.30    1.20 
  -3  -7  -3   -1.90    1.10 
   3   7   3    2.20    1.50 
  -4  -7  -3  161.88   11.60 
   4   7   3  150.58    9.60 
   4   7   3  148.39   11.70 
  -5  -7  -3   62.89    7.00 
   5   7   3   61.09    5.90 
   5   7   3   58.59    7.10 
  -6  -7  -3    5.50    3.00 
   6   7   3    5.90    2.60 
  -7  -7  -3  124.09   11.20 
   7   7   3  136.19    9.50 
  -8  -7  -3    5.20    2.50 
   8   7   3    1.50    2.00 
  -9  -7  -3   15.80    4.50 
   9   7   3    5.70    3.20 
 -10  -7  -3   14.90    4.30 
  10   7   3   16.10    4.30 
 -11  -7  -3   16.60    6.30 
  11   7   3   11.50    4.70 
   4  -8  -3   -0.10    2.30 
   3  -8  -3    4.10    1.60 
   3  -8  -3    5.30    2.60 
   2  -8  -3   45.30    4.80 
   2  -8  -3   45.20    4.70 
   2  -8  -3   42.40    5.30 
   1  -8  -3   12.40    3.30 
   1  -8  -3   14.90    3.60 
   1  -8  -3    6.00    2.70 
   0  -8  -3    0.40    1.20 
   0  -8  -3    1.70    1.60 
  -1  -8  -3   27.20    4.90 
  -1  -8  -3   26.00    4.50 
  -2  -8  -3  227.38   14.40 
  -2  -8  -3  215.78   11.50 
   2   8   3  237.78   13.90 
  -3  -8  -3   19.60    4.70 
   3   8   3   20.60    4.80 
  -4  -8  -3  256.07   16.10 
   4   8   3  255.37   13.90 
   4   8   3  262.87   16.80 
  -5  -8  -3   20.00    5.20 
   5   8   3   18.70    5.00 
   5   8   3   26.40    4.90 
  -6  -8  -3   14.60    4.70 
   6   8   3   18.30    4.20 
   6   8   3   12.60    4.80 
  -7  -8  -3   44.80    8.00 
   7   8   3   58.59    6.30 
  -8  -8  -3   20.70    5.90 
   8   8   3   16.00    4.10 
  -9  -8  -3    9.10    3.50 
   9   8   3    3.80    2.70 
 -10  -8  -3   13.10    5.20 
  10   8   3   12.60    3.70 
 -11  -8  -3    9.00    4.30 
  11   8   3   -2.00    2.00 
   3  -9  -3   12.00    4.40 
   2  -9  -3    9.10    3.00 
   2  -9  -3    4.20    2.40 
   1  -9  -3   19.60    4.50 
   1  -9  -3   11.60    3.40 
   0  -9  -3    3.30    2.50 
   0  -9  -3    6.20    2.70 
  -1  -9  -3    5.40    2.30 
  -1  -9  -3    9.80    3.20 
  -2  -9  -3   59.89    6.00 
  -2  -9  -3   65.09    7.90 
   2   9   3   50.79    7.90 
  -3  -9  -3  228.48   12.50 
  -3  -9  -3  238.88   16.00 
   3   9   3  251.47   14.70 
  -4  -9  -3    7.10    3.10 
   4   9   3   -2.70    2.00 
  -5  -9  -3  133.19   12.40 
   5   9   3  148.79   10.50 
   5   9   3  139.09   13.00 
  -6  -9  -3  143.89   12.80 
   6   9   3  139.49   10.50 
   6   9   3  149.69   13.70 
  -7  -9  -3   -0.40    1.90 
   7   9   3    0.30    1.80 
  -8  -9  -3    0.10    3.00 
   8   9   3    0.10    2.10 
  -9  -9  -3    3.20    3.30 
   9   9   3    1.90    2.60 
 -10  -9  -3    7.30    4.60 
  10   9   3   14.40    4.20 
   1 -10  -3   25.60    5.10 
   1 -10  -3   36.30    6.10 
   0 -10  -3   22.20    4.70 
   0 -10  -3    9.50    4.00 
  -1 -10  -3    8.30    2.60 
  -1 -10  -3   10.50    3.80 
  -2 -10  -3   26.80    5.80 
  -2 -10  -3   33.70    5.40 
  -3 -10  -3    3.40    2.20 
  -3 -10  -3    5.20    3.90 
   3  10   3    9.00    3.40 
  -4 -10  -3    0.60    1.60 
  -4 -10  -3   -1.50    1.80 
   4  10   3    0.40    2.20 
  -5 -10  -3    0.30    2.60 
   5  10   3    1.20    2.40 
  -6 -10  -3   -3.20    2.60 
  -7 -10  -3    5.90    3.80 
   7  10   3    6.90    3.50 
  -8 -10  -3    1.60    3.70 
   8  10   3   10.50    3.50 
  -9 -10  -3    9.10    5.00 
   9  10   3    7.60    3.40 
  -1 -11  -3    2.90    2.60 
  -1 -11  -3   -0.10    3.20 
  -2 -11  -3    0.70    4.70 
  -2 -11  -3   11.10    3.30 
  -3 -11  -3    1.50    2.90 
  -3 -11  -3    3.40    2.00 
  -4 -11  -3   17.60    4.00 
  -4 -11  -3   12.90    5.00 
   4  11   3   21.90    5.20 
  -5 -11  -3    6.20    2.60 
  -5 -11  -3    1.10    4.10 
   5  11   3    6.00    3.20 
  -6 -11  -3    7.80    5.30 
   6  11   3   -1.30    2.70 
  -7 -11  -3   18.50    6.20 
   7  11   3   16.50    4.90 
  -8 -11  -3    2.80    3.70 
   8  11   3    4.60    3.60 
   4   9  -4    0.60    4.30 
   3   9  -4    9.30    4.90 
   1   9  -4   10.50    3.70 
   7   8  -4    4.60    4.70 
   6   8  -4   -0.60    2.80 
   5   8  -4    1.20    4.20 
   4   8  -4    2.80    2.90 
   3   8  -4    5.80    3.80 
   2   8  -4   72.79   11.10 
   1   8  -4   17.40    4.80 
   0   8  -4    2.90    4.00 
  -1   8  -4  146.79   13.00 
  -2   8  -4    2.30    3.50 
   8   7  -4    9.40    2.90 
   8   7  -4   -0.40    3.10 
   7   7  -4    4.30    3.50 
   7   7  -4   14.80    3.50 
   6   7  -4   19.40    2.80 
   6   7  -4   20.40    5.90 
   5   7  -4   10.80    1.70 
   5   7  -4   15.00    5.00 
   4   7  -4    8.90    4.30 
   3   7  -4   55.89    9.20 
   2   7  -4   16.00    5.30 
   1   7  -4    9.30    4.60 
   0   7  -4   -1.60    2.70 
   0  -7   4    6.00    1.20 
   0  -7   4    5.70    1.00 
  -1   7  -4   13.30    4.30 
   1  -7   4   22.20    3.90 
   1  -7   4   24.60    2.70 
  -2   7  -4   22.80    5.80 
   2  -7   4   33.30    3.70 
  -3   7  -4   11.40    4.80 
   3  -7   4   11.50    2.90 
   8   6  -4    4.80    2.30 
   8   6  -4    5.90    4.10 
   7   6  -4    4.00    2.10 
   7   6  -4    1.90    3.00 
   6   6  -4    4.10    1.80 
   6   6  -4    3.60    3.10 
  -6  -6   4    0.90    1.30 
   5   6  -4   36.70    7.60 
   5   6  -4   43.20    3.40 
  -5  -6   4   39.90    3.00 
   4   6  -4    2.40    1.70 
  -4  -6   4    2.70    0.70 
   3   6  -4  516.55   25.50 
   2   6  -4  210.88   15.00 
   1   6  -4   47.20    7.90 
   0   6  -4   11.70    4.00 
   0  -6   4   15.10    1.30 
   0  -6   4   11.30    1.90 
  -1   6  -4   22.60    5.00 
   1  -6   4   23.60    2.40 
   1  -6   4   22.20    2.50 
  -2   6  -4   93.99    9.10 
   2  -6   4   87.09    5.60 
   2  -6   4   93.19    6.60 
   3  -6   4    5.00    2.10 
  -4   6  -4   15.20    3.90 
   4  -6   4    8.70    2.80 
  -5   6  -4    2.80    4.60 
   5  -6   4    2.80    2.70 
   9   5  -4   11.40    4.80 
   9   5  -4    2.40    3.20 
   8   5  -4    7.30    3.30 
   8   5  -4    0.20    2.10 
   7   5  -4   10.80    3.30 
   7   5  -4    8.90    2.50 
   6   5  -4   -0.80    2.70 
   6   5  -4    0.80    1.40 
  -6  -5   4    1.60    1.10 
   5   5  -4    2.40    1.30 
   5   5  -4   -2.10    2.60 
  -5  -5   4   -0.20    0.90 
   4   5  -4  894.11   24.20 
   4   5  -4  935.01   35.80 
  -4  -5   4  918.01   23.70 
   3   5  -4  161.98   12.30 
   2   5  -4  137.79   11.00 
   1   5  -4  184.08   12.30 
   0   5  -4   14.40    3.80 
  -1   5  -4   35.20    6.00 
   1  -5   4   33.50    2.80 
   1  -5   4   29.20    2.60 
  -2   5  -4   -0.50    1.80 
   2  -5   4    2.60    1.60 
   2  -5   4   -1.60    1.10 
  -3   5  -4    6.00    2.80 
  -3   5  -4   11.60    2.30 
   3  -5   4   11.20    2.60 
   3  -5   4   10.20    2.60 
  -4   5  -4   42.10    6.10 
   4  -5   4   44.10    4.20 
   4  -5   4   47.80    5.00 
  -5   5  -4   49.50    5.50 
   5  -5   4   57.79    6.50 
   6  -5   4   55.49    7.10 
   9   4  -4   -0.90    3.50 
   9   4  -4    7.70    3.70 
   8   4  -4    2.20    2.50 
   8   4  -4    3.70    3.00 
   7   4  -4    8.00    2.90 
   7   4  -4    3.50    2.30 
   6   4  -4    2.30    2.10 
   6   4  -4   -1.10    1.10 
  -6  -4   4    1.70    1.20 
   5   4  -4  124.59    6.60 
   5   4  -4   98.59    9.60 
  -5  -4   4  107.09    5.90 
   4   4  -4   56.29    3.90 
   4   4  -4   58.79    6.90 
  -4  -4   4   59.49    3.60 
   3   4  -4  575.14   24.40 
   3   4  -4  531.35   14.70 
  -3  -4   4  558.34   14.50 
   2   4  -4  277.47   15.40 
   1   4  -4   10.90    3.20 
   0   4  -4   39.90    5.10 
  -1   4  -4  394.06   17.40 
   1  -4   4  365.96   15.80 
   1  -4   4  363.76   14.10 
   1  -4   4  381.36   11.20 
  -2   4  -4   12.90    3.10 
  -2   4  -4   10.30    1.90 
   2  -4   4   12.70    2.40 
   2  -4   4   12.40    2.60 
   2  -4   4    8.90    1.90 
  -3   4  -4   40.00    4.70 
  -3   4  -4   33.90    3.60 
   3  -4   4   31.90    3.70 
   3  -4   4   27.40    3.40 
  -4   4  -4  174.28   12.50 
   4  -4   4  189.78   12.60 
   4  -4   4  179.98    9.80 
  -5   4  -4  132.49    8.10 
   5  -4   4  131.99    6.80 
   5  -4   4  128.29    8.90 
  -6   4  -4    0.90    1.80 
   6  -4   4    1.20    2.60 
   7  -4   4   -2.00    2.70 
   9   3  -4    2.30    3.00 
   9   3  -4    5.20    2.80 
   8   3  -4    2.00    2.60 
   8   3  -4    1.20    2.50 
   7   3  -4   10.60    3.50 
   7   3  -4   15.70    4.50 
   6   3  -4   10.40    3.40 
   6   3  -4    8.00    2.60 
   5   3  -4    3.00    1.80 
   5   3  -4    0.00    1.10 
  -5  -3   4   -0.30    1.00 
   4   3  -4  316.67   11.40 
   4   3  -4  317.37   16.30 
  -4  -3   4  321.27   11.20 
   3   3  -4    2.40    1.10 
   3   3  -4    1.20    1.30 
  -3  -3   4    0.50    0.70 
   2   3  -4   30.40    5.00 
  -2  -3   4   36.10    4.30 
   1   3  -4   21.10    4.00 
  -1  -3   4   22.30    3.60 
   0   3  -4  296.57   14.10 
   0  -3   4  324.57   13.30 
  -1   3  -4  376.56   15.80 
  -1   3  -4  377.36   10.50 
   1  -3   4  368.86   10.60 
   1  -3   4  380.66   14.40 
   1  -3   4  381.26   11.50 
  -2   3  -4 1175.08   30.40 
  -2   3  -4 1143.49   35.20 
   2  -3   4 1201.18   30.80 
  -3   3  -4   62.39    5.30 
  -3   3  -4   60.79    4.30 
   3  -3   4   57.89    4.60 
   3  -3   4   70.69    4.80 
  -4   3  -4  376.46   15.10 
  -4   3  -4  376.56   14.40 
   4  -3   4  397.56   15.10 
   4  -3   4  387.86   13.60 
  -5   3  -4   10.10    2.60 
   5  -3   4   11.20    3.20 
   5  -3   4   11.40    2.10 
  -6   3  -4  186.68    8.30 
   6  -3   4  186.38   11.50 
   6  -3   4  176.18    7.70 
   7  -3   4   17.80    4.20 
   8  -3   4   29.00    5.70 
   9   2  -4    2.50    2.80 
   9   2  -4    8.10    3.20 
   8   2  -4   16.70    3.80 
   8   2  -4   11.00    3.70 
   7   2  -4    1.60    2.00 
   7   2  -4   -1.30    2.20 
   6   2  -4  149.59   10.70 
   6   2  -4  153.18    9.20 
   5   2  -4   67.49    5.40 
   5   2  -4   65.19    6.50 
  -5  -2   4   70.79    5.30 
   4   2  -4   11.70    2.40 
   4   2  -4    8.90    2.70 
  -4  -2   4    7.60    2.30 
  -4  -2   4   12.20    2.30 
   3   2  -4    6.30    1.60 
   3   2  -4    8.20    2.70 
  -3  -2   4    7.70    1.40 
  -3  -2   4    6.70    2.00 
   2   2  -4   17.20    3.40 
   2   2  -4   19.40    1.70 
  -2  -2   4   15.30    1.40 
  -2  -2   4   20.30    3.30 
   1   2  -4    0.30    0.80 
  -1  -2   4    2.00    1.80 
   0   2  -4  870.81   27.00 
   0  -2   4  855.01   25.70 
  -1   2  -4 1679.93   45.00 
  -1   2  -4 1660.13   39.10 
   1  -2   4 1564.04   41.40 
   1  -2   4 1698.73   43.60 
  -2   2  -4  328.07   10.30 
  -2   2  -4  350.16   13.40 
   2  -2   4  318.07   10.60 
   2  -2   4  336.17   12.30 
  -3   2  -4  105.49    6.50 
  -3   2  -4  108.99    5.60 
   3  -2   4  105.89    6.00 
   3  -2   4  116.39    6.10 
  -4   2  -4    8.10    1.90 
  -4   2  -4    9.20    2.20 
   4  -2   4    6.50    2.50 
   4  -2   4    5.40    1.70 
  -5   2  -4   70.49    4.90 
   5  -2   4   75.99    6.50 
   5  -2   4   70.89    4.60 
  -6   2  -4    0.40    1.00 
   6  -2   4   -0.60    2.10 
   6  -2   4    0.10    1.00 
   7  -2   4  103.89    8.70 
   8  -2   4    2.70    3.10 
   9  -2   4    5.30    4.10 
   9   1  -4    1.50    3.30 
   9   1  -4   -1.40    2.50 
  -9  -1   4   -0.70    2.90 
   8   1  -4   -2.80    1.90 
   7   1  -4  119.29    9.10 
   7   1  -4  123.39   10.80 
   6   1  -4   -0.60    1.40 
   6   1  -4    1.80    1.60 
  -6  -1   4    2.40    1.60 
   5   1  -4    2.30    1.60 
  -5  -1   4   -1.90    1.00 
  -5  -1   4   -0.60    1.10 
   4   1  -4  245.08   13.00 
   4   1  -4  257.97   10.60 
  -4  -1   4  250.27   10.30 
  -4  -1   4  251.77   10.90 
   3   1  -4    5.20    1.50 
   3   1  -4    5.50    1.90 
  -3  -1   4    3.70    1.50 
  -3  -1   4    4.60    1.30 
   2   1  -4  381.46   14.90 
   2   1  -4  393.86   11.50 
  -2  -1   4  378.96   13.80 
  -2  -1   4  370.66   11.50 
   1   1  -4    0.50    0.50 
   1   1  -4    0.20    0.30 
   1   1  -4    2.20    1.20 
  -1  -1   4    1.50    1.00 
   0   1  -4 1925.71   45.40 
   0   1  -4 1962.70   50.79 
   0   1  -4 1941.31   45.30 
   0  -1   4 1995.70   49.99 
  -1   1  -4  927.11   26.80 
  -1   1  -4  894.41   22.80 
   1  -1   4  943.61   26.20 
   1  -1   4  960.00   23.30 
  -2   1  -4 1597.64   39.60 
  -2   1  -4 1588.54   42.10 
   2  -1   4 1641.44   40.00 
   2  -1   4 1627.14   41.50 
  -3   1  -4  190.68    8.40 
  -3   1  -4  191.88    7.80 
   3  -1   4  205.28    8.30 
   3  -1   4  198.98    8.30 
  -4   1  -4  381.66   13.60 
  -4   1  -4  378.96   13.10 
   4  -1   4  409.16   14.50 
   4  -1   4  365.26   13.00 
  -5   1  -4   80.09    4.80 
  -5   1  -4   67.59    5.20 
   5  -1   4   85.69    5.20 
   5  -1   4   79.59    6.30 
  -6   1  -4  159.98    7.10 
   6  -1   4  133.99    9.10 
   6  -1   4  159.08    7.50 
  -7   1  -4  159.08    7.90 
  -7   1  -4  158.98    6.40 
   7  -1   4  134.49   10.10 
   8  -1   4    4.40    3.40 
   9  -1   4   26.90    6.10 
   9   0  -4    5.30    3.80 
   8   0  -4    9.60    3.00 
   8   0  -4   12.70    4.10 
   7   0  -4   47.40    5.30 
   7   0  -4   48.20    5.80 
   6   0  -4    6.60    2.20 
   6   0  -4   10.10    3.00 
  -6   0   4    7.30    1.80 
   5   0  -4   11.70    2.80 
   5   0  -4   13.70    3.10 
  -5   0   4   14.50    2.50 
   4   0  -4    3.80    1.60 
   4   0  -4    2.10    1.30 
  -4   0   4    4.30    1.50 
  -4   0   4    5.90    1.80 
   3   0  -4   11.30    2.40 
   3   0  -4   12.30    2.30 
  -3   0   4    9.80    2.00 
  -3   0   4   16.40    2.50 
   2   0  -4   11.10    1.90 
   2   0  -4   11.20    2.20 
   2   0  -4    9.60    2.20 
  -2   0   4    9.20    1.60 
  -2   0   4   12.60    2.30 
   1   0  -4  827.52   24.30 
   1   0  -4  842.02   21.90 
   1   0  -4  845.62   23.20 
  -1   0   4  855.61   23.90 
  -1   0   4  836.22   22.10 
   0   0  -4  192.58    6.60 
   0   0  -4  196.48    8.30 
   0   0  -4  185.98    6.20 
   0   0   4  188.98    7.90 
   0   0   4  191.38    7.00 
  -1   0  -4 3445.86   82.99 
  -1   0  -4 3493.05   80.49 
   1   0   4 3354.26   80.79 
   1   0   4 3476.45   82.89 
  -2   0  -4  664.43   19.60 
  -2   0  -4  682.23   18.50 
   2   0   4  697.73   18.70 
   2   0   4  661.93   19.60 
  -3   0  -4   11.30    2.00 
  -3   0  -4   15.10    1.90 
   3   0   4   12.30    2.10 
   3   0   4   14.10    2.30 
  -4   0  -4   86.39    4.80 
  -4   0  -4   85.39    5.30 
   4   0   4   87.99    5.20 
   4   0   4   80.29    5.60 
  -5   0  -4    0.10    1.00 
  -5   0  -4    3.60    1.20 
   5   0   4    2.20    1.90 
   5   0   4    4.00    1.50 
  -6   0  -4   -0.10    0.70 
   6   0   4   -0.40    1.60 
   6   0   4   -2.00    0.90 
  -7   0  -4   25.40    2.30 
  -7   0  -4   24.40    3.40 
   7   0   4   19.70    4.40 
   7   0   4   26.50    2.90 
  -8   0  -4   15.70    2.00 
   8   0   4   18.60    4.60 
   9   0   4   69.29    8.70 
  10   0   4    4.20    3.90 
   8  -1  -4   47.00    7.40 
   7  -1  -4   51.69    4.70 
   7  -1  -4   64.19    7.10 
  -7   1   4   59.79    4.10 
   6  -1  -4    2.30    1.50 
   6  -1  -4    4.10    1.60 
  -6   1   4    0.30    1.00 
   5  -1  -4   85.19    5.90 
   5  -1  -4   89.69    7.00 
  -5   1   4  103.49    5.50 
   4  -1  -4  306.17   12.90 
   4  -1  -4  292.67   11.90 
  -4   1   4  304.27   10.90 
   3  -1  -4   40.80    3.90 
   3  -1  -4   43.50    3.80 
  -3   1   4   44.80    3.40 
   2  -1  -4    0.80    0.80 
   2  -1  -4    2.00    0.90 
   2  -1  -4   -0.30    0.80 
  -2   1   4    0.10    0.50 
  -2   1   4    0.40    0.60 
   1  -1  -4  460.95   14.10 
   1  -1  -4  445.36   15.40 
   1  -1  -4  479.35   14.70 
  -1   1   4  451.55   14.30 
  -1   1   4  463.35   14.20 
   0  -1  -4  706.33   20.10 
   0  -1  -4  712.53   20.30 
   0  -1  -4  691.13   19.10 
   0   1   4  713.23   20.20 
   0   1   4  717.83   20.60 
  -1  -1  -4  504.25   14.70 
  -1  -1  -4  506.05   15.30 
   1   1   4  499.15   15.00 
   1   1   4  514.35   15.70 
  -2  -1  -4 3525.85   84.79 
  -2  -1  -4 3499.95   84.09 
   2   1   4 3654.23   84.59 
   2   1   4 3499.05   85.39 
  -3  -1  -4 1633.44   41.00 
  -3  -1  -4 1600.94   40.80 
   3   1   4 1573.64   41.60 
   3   1   4 1598.94   41.10 
  -4  -1  -4  210.28    8.30 
  -4  -1  -4  200.78    8.90 
   4   1   4  207.08    9.20 
   4   1   4  197.28    9.00 
  -5  -1  -4  306.17   10.80 
  -5  -1  -4  295.57   12.10 
   5   1   4  294.77   12.10 
   5   1   4  297.37   12.70 
  -6  -1  -4    4.20    1.30 
   6   1   4    3.60    2.20 
   6   1   4    4.00    1.70 
  -7  -1  -4    4.30    2.00 
  -7  -1  -4    8.20    1.80 
   7   1   4   10.70    2.00 
   7   1   4    6.00    3.10 
  -8  -1  -4  178.58    7.40 
  -8  -1  -4  191.48    9.40 
   8   1   4  178.78   11.90 
  -9  -1  -4    1.30    1.60 
  -9  -1  -4    2.50    0.90 
   9   1   4   -0.60    2.10 
  10   1   4    2.60    3.90 
   8  -2  -4    4.90    3.60 
   7  -2  -4   23.30    4.90 
   6  -2  -4    2.20    0.90 
   6  -2  -4    1.60    1.60 
  -6   2   4    2.40    1.10 
   5  -2  -4   25.90    4.60 
   5  -2  -4   26.90    2.80 
  -5   2   4   29.00    2.70 
   4  -2  -4   73.29    4.70 
   4  -2  -4   68.89    5.80 
  -4   2   4   66.49    4.30 
   3  -2  -4  846.22   28.90 
   3  -2  -4  822.42   23.50 
   3  -2  -4  837.62   25.90 
  -3   2   4  856.41   26.00 
  -3   2   4  838.32   23.50 
   2  -2  -4   58.69    5.50 
   2  -2  -4   59.89    4.60 
   2  -2  -4   71.59    4.20 
  -2   2   4   64.99    4.70 
  -2   2   4   70.29    4.30 
   1  -2  -4    8.10    1.60 
   1  -2  -4    7.40    1.70 
   1  -2  -4    7.00    2.00 
  -1   2   4   10.60    1.80 
  -1   2   4    4.40    1.30 
   0  -2  -4  178.28    7.30 
   0  -2  -4  178.88    7.30 
   0  -2  -4  172.48    8.00 
   0   2   4  186.68    8.60 
   0   2   4  173.28    7.60 
  -1  -2  -4  322.37   11.10 
  -1  -2  -4  315.67   11.00 
   1   2   4  313.57   11.40 
   1   2   4  307.97   11.40 
  -2  -2  -4 3066.49   73.89 
  -2  -2  -4 2997.60   73.09 
   2   2   4 3011.10   73.69 
   2   2   4 3052.39   74.69 
  -3  -2  -4   50.89    3.90 
  -3  -2  -4   60.19    4.20 
   3   2   4   66.69    4.40 
   3   2   4   59.19    4.50 
  -4  -2  -4 2822.52   69.69 
  -4  -2  -4 2778.72   69.69 
   4   2   4 2847.32   70.09 
   4   2   4 2806.12   71.09 
  -5  -2  -4   84.39    5.40 
  -5  -2  -4   79.29    5.70 
   5   2   4   91.69    6.20 
   5   2   4   88.49    6.20 
  -6  -2  -4    2.20    1.30 
  -6  -2  -4    0.60    1.30 
   6   2   4    4.80    1.60 
   6   2   4    0.70    1.80 
  -7  -2  -4   38.20    3.60 
  -7  -2  -4   43.80    4.90 
   7   2   4   47.00    6.60 
   7   2   4   39.30    4.40 
  -8  -2  -4    4.80    1.70 
  -8  -2  -4   11.40    2.30 
  -9  -2  -4   97.19    7.40 
  -9  -2  -4  105.49    5.80 
   9   2   4  107.39    9.50 
 -10  -2  -4    2.30    1.40 
  10   2   4    4.20    3.20 
  11   2   4   35.10    7.10 
   8  -3  -4    5.50    3.30 
   7  -3  -4   59.29    7.00 
   6  -3  -4    9.20    2.90 
   5  -3  -4    5.50    3.70 
  -5   3   4    7.80    1.40 
   4  -3  -4  143.29    8.90 
   4  -3  -4  121.39    5.80 
  -4   3   4  128.39    6.30 
   3  -3  -4  153.68    8.70 
   3  -3  -4  152.48    6.50 
  -3   3   4  149.39    7.10 
   2  -3  -4   15.40    2.90 
   2  -3  -4   14.40    1.80 
   2  -3  -4   19.00    3.60 
  -2   3   4   17.30    2.70 
  -2   3   4   19.50    3.20 
   1  -3  -4   67.19    4.10 
   1  -3  -4   68.29    4.80 
   1  -3  -4   72.39    5.80 
  -1   3   4   71.99    5.00 
  -1   3   4   64.89    4.50 
   0  -3  -4 1122.19   30.10 
   0  -3  -4 1106.89   30.40 
   0  -3  -4 1149.08   32.40 
   0   3   4 1125.19   32.90 
   0   3   4 1089.79   31.10 
  -1  -3  -4    6.30    1.60 
  -1  -3  -4    6.80    1.70 
   1   3   4    3.90    1.50 
   1   3   4    5.20    1.60 
  -2  -3  -4  956.70   27.20 
  -2  -3  -4  925.31   26.50 
   2   3   4  947.91   28.00 
   2   3   4  954.10   27.10 
  -3  -3  -4 2827.32   70.69 
  -3  -3  -4 2942.71   72.09 
   3   3   4 2794.82   72.79 
   3   3   4 2935.01   71.39 
  -4  -3  -4  113.49    6.60 
  -4  -3  -4  122.69    7.10 
   4   3   4  115.79    6.70 
   4   3   4  112.79    7.30 
  -5  -3  -4    1.70    1.50 
  -5  -3  -4    6.30    2.00 
  -5  -3  -4    3.10    1.90 
   5   3   4    3.00    1.80 
   5   3   4    3.40    1.80 
  -6  -3  -4    8.30    2.30 
  -6  -3  -4    1.90    1.90 
   6   3   4    8.40    2.70 
   6   3   4    6.10    2.10 
  -7  -3  -4   85.29    7.10 
  -7  -3  -4   95.69    7.80 
   7   3   4   75.99   12.20 
   7   3   4   87.39    7.20 
  -8  -3  -4   24.50    4.50 
  -8  -3  -4   21.30    3.70 
   8   3   4   25.00    4.80 
  -9  -3  -4    6.60    2.70 
  -9  -3  -4    1.70    1.60 
   9   3   4    6.50    3.10 
 -10  -3  -4    6.00    2.20 
 -10  -3  -4    9.70    3.90 
  10   3   4   17.80    4.50 
  11   3   4   -0.10    2.70 
   7  -4  -4    6.40    3.50 
   6  -4  -4    5.10    2.60 
   5  -4  -4   15.90    3.90 
   4  -4  -4   12.30    1.60 
   4  -4  -4   13.50    3.50 
   4  -4  -4   12.60    3.00 
   3  -4  -4   32.60    4.00 
   3  -4  -4   30.30    2.50 
  -3   4   4   30.00    3.30 
   2  -4  -4  200.18   10.00 
   2  -4  -4  190.08    7.70 
  -2   4   4  194.58    9.10 
   1  -4  -4   21.40    2.50 
   1  -4  -4   21.80    3.50 
   1  -4  -4   21.00    4.00 
  -1   4   4   19.00    3.30 
   0  -4  -4 2160.68   58.09 
   0  -4  -4 2208.38   55.49 
   0  -4  -4 2265.67   56.29 
   0   4   4 2180.68   59.09 
   0   4   4 2096.89   56.79 
  -1  -4  -4  544.35   18.90 
  -1  -4  -4  564.54   18.40 
   1   4   4  529.85   19.00 
   1   4   4  540.55   19.30 
  -2  -4  -4    2.10    1.10 
  -2  -4  -4    3.70    1.40 
   2   4   4    1.90    1.20 
   2   4   4    2.20    1.20 
  -3  -4  -4  759.72   24.50 
  -3  -4  -4  759.52   23.10 
   3   4   4  770.52   23.80 
   3   4   4  761.22   25.30 
  -4  -4  -4  918.21   30.00 
  -4  -4  -4  886.31   28.30 
  -4  -4  -4  911.21   26.80 
   4   4   4  895.41   27.30 
   4   4   4  926.31   29.70 
  -5  -4  -4   48.40    7.20 
  -5  -4  -4   55.59    6.20 
  -5  -4  -4   48.80    4.50 
   5   4   4   47.70    4.70 
  -6  -4  -4  163.98   10.70 
  -6  -4  -4  156.38    9.40 
   6   4   4  149.79    9.90 
   6   4   4  157.98    9.20 
  -7  -4  -4  135.39    9.60 
  -7  -4  -4  121.69    8.50 
   7   4   4  122.59    8.70 
  -8  -4  -4  283.77   13.90 
   8   4   4  291.87   14.80 
  -9  -4  -4   20.80    4.10 
   9   4   4   17.00    4.20 
 -10  -4  -4   33.30    5.10 
  10   4   4   28.70    6.10 
 -11  -4  -4   -1.50    2.30 
  11   4   4    3.30    3.10 
   6  -5  -4    5.20    2.50 
   5  -5  -4   10.80    3.00 
   4  -5  -4   -0.70    1.30 
   4  -5  -4   -0.40    0.70 
   3  -5  -4    7.00    2.20 
   3  -5  -4    5.10    1.20 
   3  -5  -4    4.60    1.60 
   2  -5  -4   34.30    4.30 
   2  -5  -4   31.40    2.90 
   2  -5  -4   34.00    3.90 
  -2   5   4   29.80    3.50 
   1  -5  -4   99.79    6.80 
   1  -5  -4   99.49    7.00 
   1  -5  -4  101.09    6.10 
  -1   5   4  103.39    6.80 
   0  -5  -4  124.59    7.30 
   0  -5  -4  132.69    8.60 
   0  -5  -4  117.59    8.00 
   0  -5  -4  119.39    7.30 
   0   5   4  123.29    9.00 
   0   5   4  126.69    8.10 
  -1  -5  -4  547.35   20.80 
  -1  -5  -4  552.74   18.60 
  -1  -5  -4  547.45   19.90 
  -1  -5  -4  546.05   19.40 
   1   5   4  553.54   20.80 
   1   5   4  551.84   20.30 
  -2  -5  -4   44.30    7.90 
  -2  -5  -4   45.50    5.10 
  -2  -5  -4   39.50    4.30 
   2   5   4   42.90    4.70 
   2   5   4   34.10    4.10 
  -3  -5  -4    2.40    1.40 
   3   5   4    0.80    1.00 
  -4  -5  -4  598.54   23.40 
  -4  -5  -4  601.34   22.30 
  -4  -5  -4  610.24   20.20 
   4   5   4  612.14   21.00 
   4   5   4  584.54   22.70 
  -5  -5  -4  265.07   14.30 
  -5  -5  -4  272.37   13.70 
  -5  -5  -4  265.07   11.90 
   5   5   4  259.77   13.90 
   5   5   4  279.57   12.70 
  -6  -5  -4  416.16   18.40 
   6   5   4  433.26   17.40 
  -7  -5  -4   11.30    3.40 
   7   5   4    6.20    2.70 
  -8  -5  -4  126.79    9.50 
   8   5   4  133.39    9.70 
  -9  -5  -4   64.39    6.70 
   9   5   4   68.39    7.10 
 -10  -5  -4   43.20    6.30 
  10   5   4   34.60    6.50 
 -11  -5  -4   32.60    6.10 
  11   5   4   37.90    6.60 
   6  -6  -4    3.60    2.80 
   5  -6  -4    3.10    2.80 
   4  -6  -4    0.10    1.70 
   3  -6  -4   -0.30    1.50 
   3  -6  -4    2.20    1.00 
   3  -6  -4   -0.20    1.30 
   2  -6  -4    1.80    1.00 
   2  -6  -4    3.70    1.90 
   2  -6  -4   -1.40    1.60 
   1  -6  -4  779.32   25.20 
   1  -6  -4  825.52   27.60 
   1  -6  -4  867.41   27.70 
   0  -6  -4  193.58   11.20 
   0  -6  -4  216.48   10.70 
   0  -6  -4  192.18   10.30 
   0   6   4  187.58   11.40 
  -1  -6  -4  360.76   15.50 
  -1  -6  -4  374.66   14.60 
  -1  -6  -4  345.77   16.20 
   1   6   4  340.57   15.80 
   1   6   4  343.17   16.40 
  -2  -6  -4   19.30    3.60 
  -2  -6  -4   28.20    4.80 
  -2  -6  -4   20.10    3.90 
   2   6   4   16.40    3.40 
   2   6   4   23.10    4.30 
  -3  -6  -4  170.68   11.20 
  -3  -6  -4  188.38   11.20 
  -3  -6  -4  182.78    9.70 
   3   6   4  170.88   11.00 
   3   6   4  174.98   10.30 
  -4  -6  -4  399.06   18.00 
  -4  -6  -4  372.96   15.30 
   4   6   4  403.26   16.40 
  -5  -6  -4   30.70    5.30 
   5   6   4   29.40    4.70 
  -6  -6  -4   15.90    4.00 
   6   6   4   22.30    4.10 
  -7  -6  -4  188.98   12.50 
   7   6   4  161.28   10.50 
  -8  -6  -4  309.87   17.30 
   8   6   4  344.57   16.80 
  -9  -6  -4   -1.60    2.00 
   9   6   4    0.00    1.40 
  10   6   4    8.10    3.80 
 -11  -6  -4   13.70    4.40 
  11   6   4   13.10    4.00 
   5  -7  -4    2.60    2.10 
   4  -7  -4    1.20    1.80 
   3  -7  -4    6.30    1.60 
   3  -7  -4    4.20    2.30 
   3  -7  -4    4.20    1.50 
   2  -7  -4   54.89    4.60 
   2  -7  -4   53.09    5.90 
   2  -7  -4   59.59    5.50 
   1  -7  -4   33.10    5.30 
   1  -7  -4   29.80    4.90 
   1  -7  -4   27.20    4.60 
   0  -7  -4 1191.98   35.60 
   0  -7  -4 1058.29   34.40 
   0  -7  -4 1116.89   36.40 
  -1  -7  -4   45.90    4.90 
  -1  -7  -4   47.20    5.50 
  -1  -7  -4   43.80    5.50 
   1   7   4   41.90    6.80 
  -2  -7  -4   90.09    7.80 
  -2  -7  -4   92.89    7.00 
   2   7   4   88.69    7.90 
  -3  -7  -4  250.27   14.10 
   3   7   4  233.58   12.90 
  -4  -7  -4   31.50    5.80 
   4   7   4   18.50    4.00 
  -5  -7  -4    8.30    3.00 
   5   7   4   10.00    2.90 
  -6  -7  -4   92.19    8.80 
   6   7   4   75.59    7.00 
  -7  -7  -4  396.06   20.70 
   7   7   4  422.16   18.90 
  -8  -7  -4   24.20    5.80 
   8   7   4   13.90    4.30 
  -9  -7  -4   68.29   10.00 
   9   7   4   89.19    8.50 
 -10  -7  -4   -3.70    2.40 
  10   7   4    1.20    2.30 
 -11  -7  -4   14.70    4.30 
  11   7   4    1.10    2.90 
   4  -8  -4    3.60    3.00 
   3  -8  -4   -0.60    2.10 
   3  -8  -4    0.40    1.20 
   2  -8  -4   23.10    4.70 
   2  -8  -4   23.20    3.60 
   2  -8  -4   17.20    4.10 
   1  -8  -4  313.17   18.20 
   1  -8  -4  308.97   15.30 
   1  -8  -4  260.87   13.50 
   0  -8  -4    2.10    1.60 
   0  -8  -4    0.10    1.50 
  -1  -8  -4   43.30    5.50 
  -1  -8  -4   33.80    4.50 
   1   8   4   37.10    6.50 
  -2  -8  -4  101.99    9.10 
  -2  -8  -4   89.09    7.20 
   2   8   4  116.19    9.50 
  -3  -8  -4   67.79    7.50 
   3   8   4   78.39    7.60 
  -4  -8  -4    2.90    2.50 
   4   8   4   -0.10    1.40 
  -5  -8  -4  155.98   12.30 
   5   8   4  158.08   10.90 
  -6  -8  -4  156.28   12.40 
   6   8   4  146.99   10.40 
  -7  -8  -4    8.60    3.60 
   7   8   4    4.30    2.50 
  -8  -8  -4   66.89    8.50 
   8   8   4   76.39    7.60 
  -9  -8  -4    7.30    3.70 
   9   8   4    6.60    2.60 
 -10  -8  -4   33.50    7.30 
  10   8   4   38.40    7.10 
 -11  -8  -4    2.80    3.00 
  11   8   4    3.00    3.40 
   3  -9  -4    1.30    2.80 
   2  -9  -4   51.49    5.40 
   2  -9  -4   53.59    6.70 
   1  -9  -4   87.49    8.50 
   1  -9  -4   95.29    7.60 
   0  -9  -4   -0.80    1.50 
   0  -9  -4    4.30    2.10 
  -1  -9  -4   -1.30    1.80 
  -1  -9  -4    3.00    1.80 
  -2  -9  -4    1.10    1.50 
  -2  -9  -4   -2.60    1.50 
   2   9   4    1.60    2.20 
  -3  -9  -4    1.30    1.70 
  -3  -9  -4   -1.30    2.20 
   3   9   4    4.20    2.80 
   4   9   4  314.37   17.10 
  -5  -9  -4   49.99    8.10 
   5   9   4   35.60    6.00 
  -6  -9  -4    1.30    2.40 
   6   9   4    0.70    2.00 
  -7  -9  -4   -0.90    2.40 
   7   9   4    0.30    2.30 
  -8  -9  -4    3.50    3.70 
   8   9   4    3.80    2.30 
  -9  -9  -4    4.20    3.30 
   9   9   4   -1.00    2.10 
 -10  -9  -4   -5.50    2.60 
  10   9   4    1.10    2.70 
   1 -10  -4   39.70    6.80 
   1 -10  -4   37.00    5.50 
   0 -10  -4   34.50    6.00 
   0 -10  -4   24.70    5.40 
  -1 -10  -4    6.10    2.90 
  -1 -10  -4    9.40    3.60 
  -2 -10  -4   12.30    4.20 
  -2 -10  -4    6.60    2.50 
  -3 -10  -4   39.40    4.90 
  -3 -10  -4   40.30    7.50 
   3  10   4   34.80    7.10 
  -4 -10  -4   42.40    5.60 
  -4 -10  -4   58.39    7.30 
   4  10   4   41.90    7.30 
  -5 -10  -4    9.50    3.80 
   5  10   4   11.90    3.30 
  -6 -10  -4   52.09    9.50 
   6  10   4   46.70    7.40 
  -7 -10  -4   34.20    7.30 
   7  10   4   30.70    6.10 
  -8 -10  -4   28.90    6.90 
   8  10   4   42.80    7.10 
  -9 -10  -4    8.10    9.10 
   9  10   4   14.90    4.60 
 -10 -10  -4   12.50    5.20 
  10  10   4   15.10    8.10 
  -1 -11  -4   23.70    5.40 
  -1 -11  -4   23.20    5.00 
  -2 -11  -4    2.70    3.10 
  -2 -11  -4    4.10    3.00 
  -3 -11  -4    8.10    3.30 
  -3 -11  -4   -1.90    2.10 
   3  11   4    2.80    3.40 
  -4 -11  -4   32.40    5.70 
  -4 -11  -4   37.90    8.00 
   4  11   4   48.80    8.70 
  -5 -11  -4   11.30    5.40 
  -5 -11  -4    6.00    2.70 
   5  11   4   12.20    4.50 
  -6 -11  -4   64.79   10.30 
   6  11   4   49.20    8.40 
  -7 -11  -4   13.20    6.60 
  -8 -11  -4    2.80    3.60 
   8  11   4   20.40    4.90 
  -4 -12  -4    2.60    4.80 
  -4 -12  -4   11.20    3.40 
   4  12   4    2.90    3.90 
  -5 -12  -4    3.80    4.40 
  -5 -12  -4    1.60    3.00 
   5  12   4    5.50    3.80 
  -6 -12  -4    3.50    3.40 
  -6 -12  -4   -1.30    2.20 
   6  12   4    3.50    3.70 
   5   8  -5   -6.20    3.40 
   4   8  -5    8.60    4.80 
   2   8  -5   -2.90    3.30 
   1   8  -5   20.60    5.70 
   0   8  -5    3.30    3.30 
   7   7  -5   12.00    5.90 
   6   7  -5    0.30    3.00 
   5   7  -5   25.50    7.20 
   4   7  -5    2.20    3.50 
   3   7  -5   12.50    4.60 
   2   7  -5   10.10    4.40 
   1   7  -5   13.30    4.50 
   0   7  -5    5.10    2.80 
  -1   7  -5    8.40    3.90 
  -2   7  -5  133.99   12.30 
  -3   7  -5   54.19    9.00 
   7   6  -5   26.90    6.80 
   7   6  -5   23.50    3.70 
   6   6  -5    0.40    1.40 
   6   6  -5    4.70    2.80 
   5   6  -5   -1.10    2.20 
  -5  -6   5    3.00    0.80 
   4   6  -5   33.70    6.70 
   3   6  -5   96.49   10.40 
   2   6  -5   18.80    5.20 
   1   6  -5  108.29   10.50 
   0   6  -5  201.28   14.50 
   1  -6   5   73.79    2.90 
  -2   6  -5   -1.00    2.30 
   2  -6   5    2.40    1.30 
   2  -6   5    0.30    1.40 
  -3   6  -5  125.09   10.60 
   3  -6   5  111.99    7.00 
  -4   6  -5   16.80    4.90 
   4  -6   5   16.10    3.20 
   8   5  -5   -2.30    2.40 
   8   5  -5    4.50    4.00 
   7   5  -5   29.20    7.10 
   7   5  -5   46.90    4.90 
   6   5  -5   47.70    6.00 
   6   5  -5   49.00    8.20 
   5   5  -5    1.20    1.20 
   5   5  -5    7.20    3.50 
  -5  -5   5    1.20    1.00 
   4   5  -5    1.50    0.70 
   4   5  -5    0.50    0.50 
   4   5  -5    2.70    2.70 
  -4  -5   5    0.80    0.50 
   3   5  -5    3.80    2.30 
   2   5  -5  164.78   12.60 
   1   5  -5   10.00    3.30 
   0   5  -5   25.40    5.40 
  -1   5  -5  330.07   17.70 
   1  -5   5  328.97    9.10 
  -2   5  -5    3.20    1.90 
   2  -5   5   -0.30    1.20 
   2  -5   5    2.90    1.40 
  -3   5  -5    0.30    1.80 
  -4   5  -5  158.98   10.80 
   4  -5   5  150.38    9.00 
  -5   5  -5   46.90    6.60 
   5  -5   5   53.99    6.10 
   6  -5   5   60.09    7.00 
   8   4  -5   44.40    8.70 
   8   4  -5   37.20    7.40 
   7   4  -5    2.20    2.10 
   7   4  -5   -5.70    2.10 
   6   4  -5   -1.40    2.60 
   6   4  -5    0.20    1.70 
  -6  -4   5    0.10    1.50 
   5   4  -5   24.00    3.00 
   5   4  -5   23.20    6.00 
  -5  -4   5   24.80    2.70 
   4   4  -5  149.19    6.30 
   4   4  -5  167.88   12.50 
  -4  -4   5  160.38    6.30 
   3   4  -5  107.69    9.80 
   2   4  -5  542.05   23.80 
   1   4  -5    2.30    2.10 
   0   4  -5  167.88   11.50 
  -1   4  -5  233.58   13.30 
   1  -4   5  206.68    6.00 
   1  -4   5  217.18    6.20 
  -2   4  -5   59.39    3.50 
  -2   4  -5   60.89    6.50 
   2  -4   5   58.59    4.10 
   2  -4   5   45.70    3.50 
  -3   4  -5    4.30    1.50 
  -3   4  -5    7.30    2.50 
   3  -4   5    4.60    1.80 
  -4   4  -5   10.50    2.50 
  -4   4  -5    7.50    3.10 
   4  -4   5    8.00    2.70 
  -5   4  -5    4.10    2.40 
   5  -4   5    6.20    1.90 
   5  -4   5    3.00    2.60 
  -6   4  -5   40.20    5.00 
   6  -4   5   30.40    5.40 
   7  -4   5   31.30    5.50 
   8   3  -5    6.60    3.10 
   8   3  -5   -0.70    2.70 
   7   3  -5   14.40    3.80 
   7   3  -5    8.90    4.20 
   6   3  -5   -1.50    1.40 
   5   3  -5   21.80    3.50 
   5   3  -5   15.00    4.20 
   4   3  -5    6.90    2.90 
   4   3  -5    7.20    2.00 
  -4  -3   5    7.50    1.50 
   3   3  -5 1887.11   47.50 
   3   3  -5 2012.00   58.39 
  -3  -3   5 2034.80   50.59 
   2   3  -5  149.49   10.60 
   1   3  -5   81.79    7.30 
   0   3  -5   41.50    4.90 
  -1   3  -5    1.40    1.40 
   1  -3   5    0.70    0.40 
   1  -3   5    0.50    0.40 
  -2   3  -5  227.48   11.90 
  -2   3  -5  211.68    7.50 
   2  -3   5  199.88    7.80 
   2  -3   5  216.18   10.30 
  -3   3  -5   65.89    4.30 
  -3   3  -5   62.89    5.70 
   3  -3   5   50.19    4.10 
   3  -3   5   58.39    4.70 
  -4   3  -5  134.09    7.40 
  -4   3  -5  145.59    8.90 
   4  -3   5  140.59    8.10 
   4  -3   5  146.49    7.90 
   5  -3   5   84.09    6.80 
   5  -3   5   79.19    5.70 
  -6   3  -5   93.39    6.60 
   6  -3   5   97.29    6.10 
   6  -3   5   84.39    7.40 
  -7   3  -5   48.40    4.10 
   7  -3   5   55.19    6.80 
   8  -3   5   -0.80    3.20 
   9   2  -5    1.40    2.80 
   9   2  -5   -1.50    3.60 
   8   2  -5    4.80    2.90 
   8   2  -5    6.80    3.20 
   7   2  -5    4.70    2.70 
   7   2  -5    4.30    2.70 
   6   2  -5   -0.80    1.50 
   6   2  -5    1.80    1.60 
   5   2  -5   38.10    4.20 
   5   2  -5   35.50    6.10 
  -5  -2   5   33.40    3.60 
   4   2  -5  643.64   25.20 
   4   2  -5  659.63   20.00 
  -4  -2   5  642.24   19.80 
   3   2  -5   92.29    4.90 
   3   2  -5  105.69    8.30 
   3   2  -5   94.89    5.70 
  -3  -2   5  101.39    5.00 
   2   2  -5  797.72   20.80 
   2   2  -5  845.62   28.40 
   2   2  -5  823.92   21.70 
   1   2  -5   24.40    4.30 
  -1  -2   5   23.00    3.60 
   0   2  -5  160.58    9.40 
   0  -2   5  141.09    8.10 
  -1   2  -5   38.00    4.40 
  -1   2  -5   45.20    1.90 
   1  -2   5   46.50    4.30 
   1  -2   5   43.80    2.10 
  -2   2  -5   53.29    3.10 
  -2   2  -5   49.40    4.90 
   2  -2   5   58.69    4.80 
   2  -2   5   62.29    3.60 
  -3   2  -5   -1.00    1.10 
  -3   2  -5    0.20    0.80 
   3  -2   5    0.90    1.40 
   3  -2   5   -0.50    0.90 
  -4   2  -5    0.90    1.50 
  -4   2  -5    0.50    1.20 
  -5   2  -5  199.28   10.00 
   5  -2   5  204.48   10.70 
   5  -2   5  201.58    9.40 
  -6   2  -5  258.37   11.30 
   6  -2   5  248.08   10.90 
   6  -2   5  251.97   13.20 
  -7   2  -5   13.80    2.40 
   7  -2   5   21.20    2.70 
   7  -2   5   12.50    3.50 
   8  -2   5   10.20    3.90 
   8   1  -5   -3.00    2.00 
   8   1  -5    3.10    2.80 
   7   1  -5   46.00    5.40 
   7   1  -5   35.00    6.10 
   6   1  -5   89.99    7.20 
   6   1  -5   89.39    8.20 
   5   1  -5    5.30    2.00 
   5   1  -5    6.20    2.50 
   4   1  -5   26.80    4.60 
   4   1  -5   34.10    5.40 
  -4  -1   5   25.40    4.50 
   3   1  -5  184.68   10.60 
   3   1  -5  189.58    8.00 
  -3  -1   5  195.18    8.10 
  -3  -1   5  191.68    9.60 
   2   1  -5   51.79    3.20 
   2   1  -5   53.69    3.80 
   2   1  -5   50.69    5.00 
  -2  -1   5   49.60    3.20 
  -2  -1   5   51.79    4.50 
   1   1  -5    4.30    0.90 
   1   1  -5    3.00    1.60 
   1   1  -5    3.60    0.70 
  -1  -1   5    3.30    1.40 
   0   1  -5  172.98    5.10 
   0   1  -5  162.48    5.00 
   0  -1   5  166.48    8.70 
  -1   1  -5  258.17    7.60 
  -1   1  -5  265.47   11.50 
   1  -1   5  259.27    8.00 
   1  -1   5  255.37   10.80 
  -2   1  -5   48.40    2.90 
  -2   1  -5   47.30    4.30 
   2  -1   5   48.70    3.10 
   2  -1   5   43.90    3.80 
  -3   1  -5  618.44   17.90 
  -3   1  -5  634.54   20.20 
   3  -1   5  598.14   18.30 
   3  -1   5  594.74   19.40 
  -4   1  -5   57.49    4.40 
  -4   1  -5   57.29    4.60 
   4  -1   5   53.79    4.80 
   4  -1   5   56.19    4.50 
  -5   1  -5  277.57   12.00 
  -5   1  -5  293.17   11.80 
   5  -1   5  288.67   11.90 
   5  -1   5  293.97   12.90 
  -6   1  -5  344.57   13.00 
   6  -1   5  338.87   13.40 
   6  -1   5  331.37   15.10 
  -7   1  -5   39.90    3.70 
   7  -1   5   33.20    5.60 
   7  -1   5   40.80    3.80 
  -8   1  -5   -2.60    1.80 
  -8   1  -5    1.20    1.20 
   8  -1   5    1.20    2.40 
   9  -1   5    2.20    2.90 
   8   0  -5    4.20    2.60 
   8   0  -5   -3.90    1.40 
   7   0  -5    2.20    2.00 
   7   0  -5   -1.20    1.90 
   6   0  -5   77.79    7.00 
   6   0  -5   94.89    7.70 
  -6   0   5   80.59    5.80 
   5   0  -5   42.50    4.80 
   5   0  -5   44.00    5.00 
  -5   0   5   50.09    4.30 
   4   0  -5   71.19    6.10 
   4   0  -5   66.59    5.20 
  -4   0   5   77.79    5.50 
  -4   0   5   74.29    5.40 
   3   0  -5  501.45   16.30 
   3   0  -5  484.75   18.50 
   3   0  -5  489.25   18.40 
  -3   0   5  491.85   17.00 
  -3   0   5  492.55   16.50 
   2   0  -5  604.54   19.80 
   2   0  -5  613.94   20.80 
   2   0  -5  631.44   18.20 
  -2   0   5  617.84   18.30 
  -2   0   5  592.14   22.00 
   1   0  -5   16.10    2.90 
   1   0  -5   17.60    2.10 
   1   0  -5   15.30    1.70 
  -1   0   5   17.00    2.80 
   0   0  -5  269.47   10.50 
   0   0  -5  295.97   11.70 
   0   0  -5  282.57    8.90 
   0   0   5  285.37   11.00 
   0   0   5  298.67   10.10 
  -1   0  -5  688.63   19.60 
  -1   0  -5  749.23   22.40 
   1   0   5  760.12   20.20 
   1   0   5  737.13   22.00 
  -2   0  -5  792.22   21.50 
  -2   0  -5  817.12   23.80 
   2   0   5  775.02   23.40 
   2   0   5  809.82   21.90 
  -3   0  -5  599.54   19.00 
  -3   0  -5  592.04   17.90 
   3   0   5  619.04   18.40 
   3   0   5  624.44   19.40 
  -4   0  -5  244.28   10.20 
  -4   0  -5  270.07   10.60 
   4   0   5  274.07   11.10 
   4   0   5  258.27   10.90 
  -5   0  -5   96.49    5.70 
  -5   0  -5  102.09    6.40 
   5   0   5  107.79    6.60 
   5   0   5   97.39    7.00 
  -6   0  -5   -0.40    0.70 
   6   0   5    0.60    1.90 
   6   0   5    1.20    1.20 
  -7   0  -5  167.78    7.60 
   7   0   5  148.69   10.50 
   7   0   5  161.68    8.80 
  -8   0  -5    0.20    1.20 
  -8   0  -5    0.30    2.00 
   8   0   5   -0.30    2.60 
   8   0   5   -2.50    1.30 
  -9   0  -5    0.90    1.20 
   9   0   5    1.50    2.60 
  10   0   5    0.60    3.20 
   8  -1  -5   30.00    6.50 
   7  -1  -5    4.30    2.40 
   7  -1  -5    2.10    2.10 
  -7   1   5   -2.60    1.70 
   6  -1  -5    6.30    3.00 
   6  -1  -5    2.20    1.80 
   5  -1  -5   25.60    4.10 
   5  -1  -5   26.40    4.50 
   4  -1  -5    1.70    1.50 
   4  -1  -5    7.60    2.20 
  -4   1   5    3.00    1.60 
   3  -1  -5  170.18   10.20 
   3  -1  -5  178.58    9.10 
   3  -1  -5  181.68    8.80 
  -3   1   5  175.18    8.20 
  -3   1   5  180.48    8.90 
   2  -1  -5   81.89    5.10 
   2  -1  -5   77.29    5.40 
   2  -1  -5   80.09    6.00 
  -2   1   5   78.69    5.00 
  -2   1   5   70.19    4.80 
   1  -1  -5  249.88   10.30 
   1  -1  -5  254.37    9.40 
   1  -1  -5  257.97   10.70 
  -1   1   5  238.18    9.90 
   0  -1  -5  274.07   10.40 
   0  -1  -5  296.07   11.20 
   0  -1  -5  283.37    9.70 
   0   1   5  302.47   11.30 
   0   1   5  276.67   10.90 
  -1  -1  -5  702.23   19.50 
  -1  -1  -5  694.53   20.80 
   1   1   5  681.13   20.10 
   1   1   5  685.73   20.90 
  -2  -1  -5  340.97   11.30 
  -2  -1  -5  341.67   12.30 
   2   1   5  354.16   11.80 
   2   1   5  327.27   12.40 
  -3  -1  -5  101.99    5.60 
  -3  -1  -5  101.49    5.70 
   3   1   5   95.99    6.10 
   3   1   5  101.09    5.60 
  -4  -1  -5  344.67   12.20 
  -4  -1  -5  317.17   12.30 
   4   1   5  331.07   12.70 
   4   1   5  336.87   13.10 
  -5  -1  -5  172.88    8.00 
  -5  -1  -5  176.38    8.90 
   5   1   5  181.58    9.40 
   5   1   5  180.68    9.30 
  -6  -1  -5   20.70    2.60 
   6   1   5   21.20    4.10 
   6   1   5   25.30    4.00 
  -7  -1  -5  223.28    9.20 
   7   1   5  194.98   12.00 
   7   1   5  223.78   11.10 
  -8  -1  -5   41.90    5.10 
  -8  -1  -5   36.90    3.40 
   8   1   5   35.30    6.20 
   8   1   5   45.20    4.90 
  -9  -1  -5   -3.90    2.30 
  -9  -1  -5   -0.10    1.10 
   9   1   5   -0.20    2.40 
   8  -2  -5    4.20    2.90 
   7  -2  -5   86.59    5.40 
   7  -2  -5   95.29    8.90 
   6  -2  -5   26.70    3.80 
   6  -2  -5   18.40    4.10 
  -6   2   5   23.50    3.20 
   5  -2  -5   22.40    3.40 
   5  -2  -5   21.60    4.30 
  -5   2   5   24.50    3.00 
   4  -2  -5  237.08   11.80 
   4  -2  -5  219.28   10.20 
  -4   2   5  243.18   10.00 
   3  -2  -5  157.38    8.60 
   3  -2  -5  151.48    7.70 
  -3   2   5  151.48    7.50 
   2  -2  -5  222.18    9.50 
   2  -2  -5  227.08   11.80 
   2  -2  -5  236.98   11.90 
  -2   2   5  234.98    9.70 
  -2   2   5  226.48   10.20 
   1  -2  -5   18.30    2.80 
   1  -2  -5   15.80    2.60 
   1  -2  -5   13.90    2.80 
  -1   2   5   13.00    2.30 
   0  -2  -5  147.89    6.90 
   0  -2  -5  141.79    7.40 
   0  -2  -5  142.79    6.70 
   0   2   5  142.99    7.90 
   0   2   5  144.99    7.30 
  -1  -2  -5  439.16   14.90 
  -1  -2  -5  472.85   15.40 
   1   2   5  466.85   15.80 
   1   2   5  457.25   15.60 
  -2  -2  -5   14.50    2.30 
  -2  -2  -5   22.30    2.50 
   2   2   5   15.20    2.50 
   2   2   5   15.60    2.80 
  -3  -2  -5   59.79    4.30 
  -3  -2  -5   59.89    4.40 
   3   2   5   54.99    4.60 
   3   2   5   55.39    4.20 
  -4  -2  -5  593.64   19.00 
  -4  -2  -5  608.84   19.10 
   4   2   5  579.84   19.20 
   4   2   5  593.34   20.30 
  -5  -2  -5   23.00    3.70 
  -5  -2  -5   17.40    3.00 
   5   2   5   24.30    3.90 
   5   2   5   20.20    3.60 
  -6  -2  -5  164.78    8.30 
   6   2   5  167.38    9.70 
   6   2   5  181.58   10.00 
  -7  -2  -5   73.19    5.30 
   7   2   5   72.29    6.70 
   7   2   5   69.59    6.70 
  -8  -2  -5   55.49    5.90 
  -8  -2  -5   60.59    6.30 
   8   2   5   54.39    7.20 
  -9  -2  -5   53.09    6.10 
  -9  -2  -5   36.40    4.30 
   9   2   5   40.80    6.80 
 -10  -2  -5   -0.80    1.30 
  10   2   5   -1.10    2.30 
   7  -3  -5   22.30    5.00 
   6  -3  -5   21.00    2.40 
   6  -3  -5   25.40    5.20 
   5  -3  -5    4.30    1.90 
   5  -3  -5    1.40    1.10 
  -5   3   5    3.10    1.50 
   4  -3  -5  161.58    8.10 
   4  -3  -5  199.88   11.20 
  -4   3   5  208.78    9.10 
   3  -3  -5  197.38    8.60 
   3  -3  -5  198.38   10.40 
  -3   3   5  201.88    9.30 
   2  -3  -5    1.10    1.20 
   2  -3  -5    1.50    1.50 
   2  -3  -5   -0.60    0.80 
  -2   3   5    1.70    1.20 
  -2   3   5    1.70    1.10 
   1  -3  -5   59.29    4.10 
   1  -3  -5   55.19    5.60 
   1  -3  -5   52.49    5.20 
  -1   3   5   56.19    4.50 
   0  -3  -5  148.09    7.20 
   0  -3  -5  155.98    8.50 
   0  -3  -5  160.68    7.60 
   0   3   5  144.79    8.60 
   0   3   5  146.79    7.90 
  -1  -3  -5   39.80    3.50 
  -1  -3  -5   38.00    3.60 
   1   3   5   38.30    3.90 
   1   3   5   41.50    3.90 
  -2  -3  -5   10.00    2.10 
  -2  -3  -5   10.90    2.20 
   2   3   5   12.60    2.50 
   2   3   5   11.80    2.40 
  -3  -3  -5  377.26   14.00 
  -3  -3  -5  356.36   13.20 
   3   3   5  372.56   14.80 
   3   3   5  369.96   13.80 
  -4  -3  -5  591.24   19.20 
  -4  -3  -5  596.54   19.90 
   4   3   5  554.04   20.60 
   4   3   5  613.64   19.80 
  -5  -3  -5   23.50    3.70 
  -5  -3  -5   27.50    3.60 
   5   3   5   22.80    3.70 
   5   3   5   24.40    4.10 
  -6  -3  -5   48.50    4.80 
   6   3   5   55.59    5.50 
   6   3   5   50.69    5.20 
  -7  -3  -5   -0.20    1.30 
  -7  -3  -5    0.20    1.70 
   7   3   5   -0.10    2.20 
   7   3   5    2.50    1.60 
  -8  -3  -5  119.99    7.50 
  -8  -3  -5  115.29    9.00 
   8   3   5  113.29    8.70 
   8   3   5  105.49    9.20 
  -9  -3  -5   27.60    5.50 
  -9  -3  -5   17.70    3.40 
   9   3   5   20.20    4.90 
 -10  -3  -5   20.40    3.30 
  10   3   5   22.70    5.20 
 -11  -3  -5   -3.40    1.80 
  11   3   5    0.60    2.80 
   7  -4  -5   -0.10    2.00 
   6  -4  -5   18.60    4.40 
   5  -4  -5    1.10    0.70 
   5  -4  -5   -2.00    1.10 
   4  -4  -5  255.87    9.90 
   4  -4  -5  246.18   16.60 
  -4   4   5  283.17   11.20 
   3  -4  -5  471.35   16.20 
   3  -4  -5  584.24   20.90 
  -3   4   5  558.84   18.60 
   2  -4  -5   50.39    3.70 
   2  -4  -5   50.69    4.80 
  -2   4   5   43.60    4.40 
   1  -4  -5   19.50    4.80 
   1  -4  -5   26.30    2.90 
   1  -4  -5   26.90    3.30 
  -1   4   5   25.10    3.20 
   0  -4  -5  188.68    8.70 
   0  -4  -5  200.48   10.50 
   0  -4  -5  180.18    9.00 
   0   4   5  196.88    9.80 
   0   4   5  183.28   10.70 
  -1  -4  -5    4.40    1.70 
  -1  -4  -5    1.20    1.00 
   1   4   5    2.40    1.50 
   1   4   5    1.20    1.30 
  -2  -4  -5  658.03   21.50 
  -2  -4  -5  669.63   21.70 
   2   4   5  676.53   23.00 
   2   4   5  648.54   22.10 
  -3  -4  -5   36.10    4.00 
  -3  -4  -5   47.40    4.10 
   3   4   5   43.70    4.70 
   3   4   5   42.30    4.30 
  -4  -4  -5  231.68   10.30 
  -4  -4  -5  190.18   12.60 
   4   4   5  213.38   10.40 
   4   4   5  224.88   11.80 
  -5  -4  -5  877.31   27.60 
  -5  -4  -5  907.21   28.70 
   5   4   5  913.41   28.20 
   5   4   5  875.81   29.90 
  -6  -4  -5  468.05   18.50 
  -6  -4  -5  495.45   20.70 
   6   4   5  473.25   18.60 
   6   4   5  476.05   20.10 
  -7  -4  -5   60.29    5.70 
   7   4   5   62.59    6.30 
   7   4   5   61.29    7.80 
  -8  -4  -5   39.80    4.60 
   8   4   5   40.10    5.30 
  -9  -4  -5   48.60    5.00 
   9   4   5   49.50    6.30 
 -10  -4  -5    2.40    2.00 
  10   4   5   -1.30    1.90 
 -11  -4  -5   11.90    3.50 
  11   4   5   11.00    4.20 
   6  -5  -5    9.30    3.90 
   5  -5  -5   50.69    6.40 
   4  -5  -5   19.30    2.10 
   4  -5  -5   25.20    4.80 
   4  -5  -5   20.90    3.00 
   3  -5  -5   29.10    2.90 
   3  -5  -5   28.80    4.90 
   3  -5  -5   37.50    4.00 
  -3   5   5   39.90    4.10 
   2  -5  -5   46.20    3.80 
   2  -5  -5   50.99    5.20 
  -2   5   5   51.09    4.90 
   1  -5  -5   88.89    5.70 
   1  -5  -5   96.39    6.90 
  -1   5   5   91.09    6.80 
   0  -5  -5   37.90    4.00 
   0  -5  -5   44.20    4.40 
   0   5   5   40.90    5.10 
   0   5   5   36.40    4.40 
  -1  -5  -5  677.23   22.20 
  -1  -5  -5  658.33   21.70 
  -1  -5  -5  641.24   22.90 
   1   5   5  626.44   26.50 
   1   5   5  678.63   24.30 
  -2  -5  -5   11.70    2.60 
  -2  -5  -5    8.40    2.40 
   2   5   5   10.70    2.80 
   2   5   5    8.70    2.60 
  -3  -5  -5   50.99    5.10 
  -3  -5  -5   49.60    4.60 
   3   5   5   42.70    4.80 
   3   5   5   49.99    5.30 
  -4  -5  -5  920.41   28.00 
  -4  -5  -5  919.11   29.90 
  -4  -5  -5  894.61   31.30 
   4   5   5  926.41   29.00 
   4   5   5  876.91   30.70 
  -5  -5  -5  107.19    9.00 
  -5  -5  -5  110.59    8.20 
   5   5   5  110.69    7.80 
   5   5   5  104.89    8.30 
  -6  -5  -5  300.67   14.90 
   6   5   5  325.47   14.90 
  -7  -5  -5  138.69    9.70 
   7   5   5  134.29    9.30 
  -8  -5  -5    2.80    2.70 
   8   5   5    8.70    3.20 
  -9  -5  -5   22.20    4.70 
   9   5   5   17.80    4.40 
 -10  -5  -5   13.20    3.40 
  10   5   5   17.40    4.60 
 -11  -5  -5    7.70    3.20 
  11   5   5   12.00    4.40 
   5  -6  -5   -1.10    1.50 
   4  -6  -5   97.49    8.60 
   4  -6  -5  105.89    4.70 
   3  -6  -5    0.00    0.90 
   3  -6  -5    3.60    1.70 
   3  -6  -5   -2.20    1.10 
   2  -6  -5   73.29    6.00 
   2  -6  -5   59.59    6.10 
   2  -6  -5   63.59    4.60 
  -2   6   5   71.19    5.90 
   1  -6  -5   45.50    5.00 
   1  -6  -5   38.40    5.60 
   1  -6  -5   47.20    5.20 
   0  -6  -5    0.70    1.00 
   0  -6  -5    2.20    1.20 
   0  -6  -5    2.00    1.60 
   0   6   5    2.80    1.90 
   0   6   5    1.80    2.00 
  -1  -6  -5   74.49    7.00 
  -1  -6  -5   69.79    5.80 
  -1  -6  -5   64.19    5.70 
   1   6   5   63.79    6.20 
   1   6   5   65.39    6.70 
  -2  -6  -5  442.66   18.30 
  -2  -6  -5  429.26   19.50 
   2   6   5  456.65   19.50 
   2   6   5  465.05   19.30 
  -3  -6  -5  472.75   22.30 
  -3  -6  -5  497.05   19.90 
   3   6   5  501.95   19.90 
   3   6   5  471.35   24.10 
  -4  -6  -5  113.79    8.60 
   4   6   5  113.99    8.20 
  -5  -6  -5   63.89    6.50 
   5   6   5   66.29    6.20 
  -6  -6  -5    7.70    3.20 
   6   6   5    5.80    2.50 
  -7  -6  -5  117.39    9.40 
   7   6   5  114.99    8.70 
  -8  -6  -5  109.19    9.40 
   8   6   5  104.09   13.50 
  -9  -6  -5   -1.10    1.80 
   9   6   5   -3.40    1.40 
 -10  -6  -5  142.79   17.70 
  10   6   5  141.89   11.50 
 -11  -6  -5    3.30    2.50 
  11   6   5    5.20    3.00 
   5  -7  -5    1.10    2.50 
   4  -7  -5    2.00    1.90 
   3  -7  -5   23.50    3.60 
   3  -7  -5   13.60    2.20 
   3  -7  -5   12.50    3.70 
   2  -7  -5    3.00    2.00 
   1  -7  -5    1.10    1.30 
   1  -7  -5   -4.60    1.80 
   1  -7  -5    0.10    0.90 
   0  -7  -5  272.97   15.00 
   0  -7  -5  305.87   13.90 
   0  -7  -5  266.47   13.60 
  -1  -7  -5  150.18    9.40 
  -1  -7  -5  169.48   10.50 
   1   7   5  164.98   11.70 
  -2  -7  -5   29.90    5.20 
  -2  -7  -5   27.00    4.50 
   2   7   5   30.70    5.70 
  -3  -7  -5   11.70    3.60 
   3   7   5   15.30    3.80 
  -4  -7  -5  123.89    9.80 
   4   7   5  141.59    9.80 
  -5  -7  -5   43.60    6.80 
   5   7   5   65.89    6.50 
  -6  -7  -5   69.79    7.70 
   6   7   5   77.29    7.10 
  -7  -7  -5    9.10    2.90 
   7   7   5   10.80    3.10 
  -8  -7  -5   -0.60    1.80 
   8   7   5    3.10    2.40 
  -9  -7  -5    6.10    2.70 
 -10  -7  -5   59.99    7.60 
  10   7   5   55.49    7.20 
 -11  -7  -5   40.80    6.70 
  11   7   5   36.50    7.00 
   4  -8  -5    2.70    2.60 
   3  -8  -5    8.50    3.20 
   2  -8  -5   -2.20    1.60 
   2  -8  -5   -0.80    1.30 
   2  -8  -5    2.70    2.10 
   1  -8  -5  193.38   11.90 
   1  -8  -5  180.28   10.30 
   0  -8  -5   18.60    4.00 
   0  -8  -5   17.90    3.90 
  -1  -8  -5   30.80    5.10 
  -1  -8  -5   31.40    5.70 
   1   8   5   28.20    6.20 
  -2  -8  -5   34.40    5.70 
  -2  -8  -5   34.40    5.40 
   2   8   5   38.40    6.80 
  -3  -8  -5    7.10    2.60 
   3   8   5    5.70    2.60 
  -4  -8  -5    1.60    2.10 
   4   8   5    1.60    1.60 
  -5  -8  -5   48.00    7.60 
   5   8   5   47.40    6.10 
  -6  -8  -5  212.68   14.60 
   6   8   5  228.68   13.60 
  -7  -8  -5   22.90    5.30 
   7   8   5   34.20    9.20 
  -8  -8  -5  117.29   11.10 
   8   8   5  113.89    9.80 
  -9  -8  -5   23.60    5.60 
   9   8   5   20.80    4.70 
 -10  -8  -5    0.00    3.30 
  10   8   5    0.00    2.20 
 -11  -8  -5   -1.10    3.20 
  11   8   5   -5.90    2.30 
   2  -9  -5    5.20    2.10 
   2  -9  -5   10.90    3.90 
   1  -9  -5   65.99    6.20 
   1  -9  -5   65.79    7.50 
   0  -9  -5   44.60    5.80 
   0  -9  -5   40.50    5.10 
  -1  -9  -5   67.39    7.40 
  -1  -9  -5   62.49    6.40 
  -2  -9  -5   18.50    4.00 
  -2  -9  -5   11.80    4.00 
   2   9   5    9.40    3.80 
  -3  -9  -5    9.70    2.90 
  -3  -9  -5    6.40    2.90 
   3   9   5   10.00    3.90 
   4   9   5   -1.20    1.60 
  -5  -9  -5   32.60    6.80 
   5   9   5   31.90    5.90 
  -6  -9  -5   22.60    5.60 
   6   9   5   19.40    5.60 
  -7  -9  -5  334.37   20.40 
   7   9   5  339.57   18.40 
  -8  -9  -5   64.69   10.30 
   8   9   5   71.19    7.90 
  -9  -9  -5    7.80    2.90 
   9   9   5   -2.50    2.00 
 -10  -9  -5    4.90    3.00 
  10   9   5   -0.20    1.90 
   1 -10  -5   22.60    4.20 
   0 -10  -5   46.00    6.80 
   0 -10  -5   30.20    5.70 
  -1 -10  -5    3.80    2.20 
  -1 -10  -5   -0.60    2.40 
  -2 -10  -5    1.50    2.00 
  -2 -10  -5    6.40    2.90 
   2  10   5   -0.40    2.40 
  -3 -10  -5    3.90    3.00 
  -3 -10  -5    0.90    2.30 
   3  10   5    4.70    3.60 
  -4 -10  -5    3.60    3.00 
  -4 -10  -5    5.50    2.00 
   4  10   5   -0.80    2.20 
  -5 -10  -5    0.70    3.10 
   5  10   5   -1.00    1.80 
  -6 -10  -5   31.50    6.90 
   6  10   5   15.10    5.20 
  -7 -10  -5   15.40    5.40 
   7  10   5   12.70    4.40 
  -8 -10  -5   -2.20    2.70 
   8  10   5   -1.10    2.00 
  -9 -10  -5    7.60    3.90 
   9  10   5   -4.60    2.70 
 -10 -10  -5    3.90    3.10 
  10  10   5    1.60    2.90 
  -1 -11  -5    7.80    3.00 
  -1 -11  -5    0.30    2.20 
  -2 -11  -5    5.40    2.60 
  -2 -11  -5   -6.40    2.30 
  -3 -11  -5    0.10    1.70 
  -3 -11  -5    4.30    2.60 
   3  11   5    2.50    3.40 
  -4 -11  -5    8.20    3.70 
  -4 -11  -5    3.20    2.20 
   4  11   5    1.10    2.80 
  -5 -11  -5   -1.10    2.30 
   5  11   5   -5.80    2.00 
  -6 -11  -5   44.90    8.70 
   6  11   5   47.90    8.70 
  -7 -11  -5    1.80    3.40 
   7  11   5    9.60    4.60 
  -8 -11  -5   11.30    4.30 
   8  11   5    6.40    3.80 
  -9 -11  -5    4.00    3.60 
   9  11   5    3.60    3.20 
  -4 -12  -5    9.50    3.50 
  -4 -12  -5   -7.90    3.60 
   4  12   5   12.30    4.80 
  -5 -12  -5    2.40    2.60 
  -5 -12  -5   -4.50    2.80 
  -6 -12  -5    9.60    5.00 
   6  12   5   -1.40    3.70 
   5   7  -6    0.90    4.10 
   4   7  -6   11.00    5.30 
   3   7  -6    4.60    3.50 
   2   7  -6   23.80    5.90 
   1   7  -6   10.30    4.00 
   0   7  -6   17.60    5.30 
  -1   7  -6    9.90    3.90 
  -2   7  -6   -1.70    3.40 
   6   6  -6    9.40    3.90 
   5   6  -6   -0.70    2.80 
   4   6  -6   47.80    8.70 
   3   6  -6   88.89   10.10 
   2   6  -6    0.40    2.90 
   1   6  -6    9.70    4.20 
   0   6  -6    0.00    2.60 
  -1   6  -6  135.29   12.40 
  -2   6  -6   -3.20    2.80 
  -3   6  -6    2.70    3.40 
   7   5  -6    0.90    1.90 
   7   5  -6    3.00    3.80 
   6   5  -6   15.20    4.60 
   6   5  -6    6.10    1.90 
   5   5  -6   96.59   10.90 
   5   5  -6   86.29    4.10 
   4   5  -6   -1.50    1.70 
   3   5  -6    0.40    2.60 
   2   5  -6   18.30    5.10 
   1   5  -6   23.30    5.40 
   0   5  -6  102.39    9.80 
  -2   5  -6   16.20    4.20 
   2  -5   6    9.00    1.50 
   2  -5   6   11.90    1.40 
  -3   5  -6   23.30    5.50 
   3  -5   6   22.40    2.90 
  -4   5  -6    8.00    3.30 
   4  -5   6    2.80    2.30 
  -5   5  -6   10.50    3.60 
   5  -5   6   -3.40    2.20 
   8   4  -6   -2.40    3.50 
   8   4  -6    2.60    2.70 
   7   4  -6   49.70    5.20 
   7   4  -6   37.40    7.60 
   6   4  -6   29.50    6.90 
   6   4  -6   39.00    4.20 
  -6  -4   6   42.90    4.10 
   5   4  -6    1.10    1.10 
   5   4  -6   -0.30    1.60 
  -5  -4   6   -1.80    0.90 
   4   4  -6   15.30    1.60 
   4   4  -6   10.30    3.90 
   3   4  -6  473.05   23.50 
   2   4  -6   10.60    3.70 
   1   4  -6  203.58   13.60 
   0   4  -6  616.04   26.10 
  -1   4  -6    5.00    2.40 
  -2   4  -6   27.30    5.40 
   2  -4   6   18.80    2.00 
   2  -4   6   20.40    1.70 
  -3   4  -6    8.00    1.90 
  -3   4  -6    7.40    3.70 
   3  -4   6    7.70    2.10 
   3  -4   6   12.10    2.40 
  -4   4  -6   63.79    7.00 
  -4   4  -6   73.49    5.30 
   4  -4   6   74.09    5.80 
  -5   4  -6    0.60    2.30 
   5  -4   6   -0.70    2.00 
  -6   4  -6   37.70    5.90 
   6  -4   6   40.10    6.10 
   8   3  -6    6.70    4.10 
   8   3  -6   16.90    4.30 
   7   3  -6   13.60    3.60 
   7   3  -6   -1.60    2.20 
   6   3  -6    5.80    2.80 
   6   3  -6    3.00    2.10 
   5   3  -6   -2.00    1.50 
   5   3  -6   -0.60    1.90 
   4   3  -6   77.79    8.50 
   4   3  -6   92.59    5.20 
   4   3  -6   95.39    5.80 
  -4  -3   6   92.89    5.00 
   3   3  -6  150.78    5.70 
   3   3  -6  147.59   11.40 
   3   3  -6  146.99    5.20 
   2   3  -6   22.70    4.90 
   1   3  -6   17.80    4.30 
   0   3  -6    9.00    2.90 
  -1   3  -6  490.35   20.80 
  -2   3  -6   38.50    5.00 
   2  -3   6   31.50    2.30 
  -3   3  -6  128.29    9.00 
  -3   3  -6  113.39    5.60 
   3  -3   6   85.19    5.40 
  -4   3  -6   35.60    5.60 
  -4   3  -6   28.10    3.30 
   4  -3   6   34.60    4.00 
  -5   3  -6   94.99    7.80 
   5  -3   6  104.29    7.50 
  -6   3  -6   48.40    5.60 
   6  -3   6   50.89    6.00 
  -7   3  -6   41.90    5.00 
   7  -3   6   41.00    6.80 
   8   2  -6   -0.60    2.70 
   8   2  -6   -1.00    2.10 
   7   2  -6    5.10    3.20 
   7   2  -6    3.20    2.50 
   6   2  -6   14.60    3.40 
   6   2  -6   14.50    4.10 
   5   2  -6   34.20    4.00 
   5   2  -6   27.90    5.50 
  -5  -2   6   31.60    3.50 
   4   2  -6  277.77   11.00 
   4   2  -6  265.97   15.30 
   4   2  -6  277.07   12.50 
  -4  -2   6  296.97   11.20 
   3   2  -6   19.60    4.50 
   3   2  -6   18.90    2.60 
   3   2  -6   22.70    2.60 
  -3  -2   6   20.40    2.20 
   2   2  -6   48.00    2.80 
   2   2  -6   45.70    2.60 
   2   2  -6   51.39    5.90 
   1   2  -6    3.30    1.60 
   0   2  -6  107.19    8.20 
  -1   2  -6  278.17   13.80 
  -2   2  -6   84.69    3.90 
  -2   2  -6   90.39    7.10 
   2  -2   6   82.19    4.10 
  -3   2  -6   20.80    3.90 
  -3   2  -6   17.50    2.20 
   3  -2   6   17.00    2.60 
  -4   2  -6  196.48   10.80 
  -4   2  -6  174.98   12.70 
   4  -2   6  193.18    9.80 
   4  -2   6  162.98   11.50 
  -5   2  -6   95.09    7.10 
   5  -2   6   90.79    6.50 
   5  -2   6   95.89    7.10 
  -6   2  -6   11.60    2.90 
   6  -2   6   12.70    3.20 
   6  -2   6    3.20    2.50 
  -7   2  -6    5.60    2.10 
   7  -2   6    6.00    3.10 
   8  -2   6    2.30    2.90 
   8   1  -6    3.30    2.90 
   8   1  -6    2.00    2.60 
   7   1  -6   14.70    4.10 
   7   1  -6   19.20    4.50 
   6   1  -6   -2.80    1.90 
   6   1  -6   -0.20    1.60 
   5   1  -6  125.59   10.00 
   5   1  -6  140.99    8.30 
   4   1  -6   29.00    5.10 
   4   1  -6   28.10    4.60 
   4   1  -6   25.50    3.20 
  -4  -1   6   24.10    3.10 
   3   1  -6  324.17   15.80 
   3   1  -6  323.07   13.40 
   3   1  -6  336.17   11.80 
  -3  -1   6  334.47   12.00 
   2   1  -6  498.85   14.90 
   2   1  -6  531.45   20.60 
   2   1  -6  506.35   16.30 
   1   1  -6   34.20    4.30 
   1   1  -6   39.10    2.60 
   1   1  -6   33.60    2.20 
   0   1  -6  587.44   15.00 
   0   1  -6  620.44   21.70 
   0  -1   6  544.05   23.40 
  -1   1  -6  113.79    7.60 
  -1   1  -6  104.79    4.10 
   1  -1   6  112.49    4.70 
   1  -1   6  107.79    6.80 
  -2   1  -6  344.77   14.50 
  -2   1  -6  320.97   10.30 
   2  -1   6  331.07   13.50 
   2  -1   6  358.86   11.20 
  -3   1  -6  123.19    7.90 
  -3   1  -6  138.49    6.20 
   3  -1   6  138.69    6.70 
   3  -1   6  132.19    7.60 
  -4   1  -6  237.18   11.20 
  -4   1  -6  233.08    9.80 
   4  -1   6  233.58   10.30 
   4  -1   6  234.58   10.90 
  -5   1  -6   75.59    5.90 
  -5   1  -6   72.59    5.80 
   5  -1   6   76.59    6.00 
   5  -1   6   76.29    6.20 
  -6   1  -6  283.27   12.40 
   6  -1   6  280.27   12.70 
   6  -1   6  289.27   13.90 
  -7   1  -6   31.10    5.00 
   7  -1   6   30.60    5.70 
  -8   1  -6    0.20    2.00 
   8  -1   6    2.50    2.40 
   9  -1   6    8.00    3.60 
   8   0  -6    1.30    3.00 
   8   0  -6    3.40    3.10 
   7   0  -6    0.00    2.50 
   7   0  -6   -0.60    1.70 
   6   0  -6    4.30    2.50 
   6   0  -6   12.00    3.20 
   5   0  -6    8.40    2.70 
   5   0  -6    4.20    1.90 
   4   0  -6  345.07   13.70 
   4   0  -6  312.17   15.30 
   3   0  -6   35.20    3.50 
   3   0  -6   30.20    7.30 
   3   0  -6   24.50    4.20 
  -3   0   6   26.20    3.20 
   2   0  -6  188.18    9.10 
   2   0  -6  174.58   10.00 
   2   0  -6  190.88    8.00 
  -2   0   6  177.08    9.10 
   1   0  -6    2.10    0.80 
   1   0  -6    0.80    1.10 
   1   0  -6    1.00    0.80 
  -1   0   6    1.30    1.00 
   0   0  -6  224.78    8.00 
   0   0  -6  208.68    7.50 
   0   0  -6  208.28   10.40 
   0   0   6  225.18    8.90 
   0   0   6  207.18    9.80 
  -1   0  -6   31.80    2.50 
  -1   0  -6   36.50    3.90 
   1   0   6   30.30    3.40 
   1   0   6   31.70    2.80 
  -2   0  -6  290.87   12.30 
  -2   0  -6  290.17    9.90 
   2   0   6  297.77   10.50 
   2   0   6  300.67   12.30 
  -3   0  -6   16.30    2.50 
  -3   0  -6   20.30    3.30 
   3   0   6   18.80    3.10 
   3   0   6   22.40    2.70 
  -4   0  -6  129.59    7.40 
  -4   0  -6  132.49    6.90 
   4   0   6  122.99    7.10 
   4   0   6  126.89    7.60 
  -5   0  -6   21.90    3.40 
  -5   0  -6   14.60    3.00 
   5   0   6   16.80    3.10 
   5   0   6   15.30    3.20 
  -6   0  -6   20.20    3.20 
   6   0   6   24.60    4.40 
   6   0   6   24.30    3.90 
   7   0   6  180.88   11.60 
   7   0   6  195.08   10.60 
  -8   0  -6    2.20    1.50 
   8   0   6    0.50    2.10 
   8   0   6   -1.50    1.90 
  -9   0  -6   31.10    3.70 
   9   0   6   26.50    5.60 
   8  -1  -6   13.50    4.20 
   7  -1  -6    0.70    2.30 
   7  -1  -6    4.00    3.10 
   6  -1  -6    5.60    2.20 
   6  -1  -6   -1.40    1.90 
   5  -1  -6    1.40    1.40 
   5  -1  -6    0.50    1.10 
   4  -1  -6    4.50    2.20 
   4  -1  -6    6.20    2.20 
  -4   1   6    4.60    1.80 
   3  -1  -6   43.00    4.10 
   3  -1  -6   29.20    4.70 
   3  -1  -6   32.60    4.10 
  -3   1   6   29.70    3.40 
  -3   1   6   38.50    3.90 
   2  -1  -6   27.20    3.40 
   2  -1  -6   18.70    2.90 
   2  -1  -6   26.20    4.30 
  -2   1   6   23.60    3.50 
  -2   1   6   27.90    3.10 
   1  -1  -6   68.09    5.30 
   1  -1  -6   68.49    5.10 
   1  -1  -6   64.39    4.30 
  -1   1   6   70.69    5.20 
   0  -1  -6 1188.98   33.70 
   0  -1  -6 1186.98   31.20 
   0  -1  -6 1161.18   32.10 
   0   1   6 1207.98   33.50 
   0   1   6 1192.98   33.60 
  -1  -1  -6  718.33   20.30 
  -1  -1  -6  667.43   24.70 
   1   1   6  708.63   21.20 
   1   1   6  694.03   22.00 
  -2  -1  -6 1662.33   39.90 
  -2  -1  -6 1302.97   49.90 
   2   1   6 1599.64   40.60 
   2   1   6 1582.04   42.30 
  -3  -1  -6 2164.38   54.79 
   3   1   6 2228.18   55.49 
   3   1   6 2151.68   56.99 
  -4  -1  -6   20.10    3.20 
  -4  -1  -6   19.60    3.40 
   4   1   6   25.10    3.20 
   4   1   6   23.40    3.00 
  -5  -1  -6  288.27   11.50 
  -5  -1  -6  266.57   11.70 
   5   1   6  260.57   12.00 
   5   1   6  271.17   12.50 
  -6  -1  -6   43.20    4.20 
   6   1   6   49.40    5.40 
   6   1   6   48.40    5.10 
  -7  -1  -6  335.47   12.90 
   7   1   6  312.97   15.30 
   7   1   6  320.57   14.70 
  -8  -1  -6   10.50    3.40 
  -8  -1  -6    9.30    2.20 
   8   1   6   13.80    3.90 
   8   1   6   21.60    3.60 
  -9  -1  -6   43.70    4.10 
   9   1   6   31.00    6.10 
  10   1   6   -1.30    2.50 
   7  -2  -6    2.20    2.10 
   7  -2  -6    0.90    1.90 
   6  -2  -6    5.20    2.10 
   6  -2  -6    3.30    2.70 
  -6   2   6   -2.80    2.00 
   5  -2  -6   -1.80    1.40 
  -5   2   6    0.60    1.40 
   4  -2  -6    1.00    1.10 
   4  -2  -6   -2.40    1.10 
  -4   2   6   -1.70    1.30 
   3  -2  -6    0.30    1.10 
   3  -2  -6    1.40    1.30 
  -3   2   6    2.70    1.30 
   2  -2  -6   13.50    3.10 
   2  -2  -6   15.10    2.80 
   2  -2  -6   11.50    2.50 
  -2   2   6   14.60    2.90 
  -2   2   6   16.10    2.80 
   1  -2  -6  633.04   19.40 
   1  -2  -6  573.54   20.60 
  -1   2   6  584.64   20.30 
   0  -2  -6  241.28   10.90 
   0  -2  -6  248.38    9.80 
   0  -2  -6  234.58   10.60 
   0   2   6  236.58   11.30 
  -1  -2  -6 2017.00   49.90 
  -1  -2  -6 1926.01   49.20 
   1   2   6 1991.10   50.59 
   1   2   6 1635.94   60.19 
  -2  -2  -6   11.20    2.10 
  -2  -2  -6   10.80    2.50 
   2   2   6   15.10    2.70 
  -3  -2  -6   29.50    5.80 
  -3  -2  -6   35.50    3.50 
   3   2   6   34.90    3.50 
   3   2   6   32.60    4.10 
  -4  -2  -6  498.75   17.70 
  -4  -2  -6  525.85   17.90 
   4   2   6  517.15   19.10 
   4   2   6  553.04   18.30 
  -5  -2  -6   64.59    5.00 
  -5  -2  -6   57.99    5.20 
   5   2   6   63.39    5.60 
   5   2   6   59.89    5.50 
  -6  -2  -6   95.79    6.20 
   6   2   6   88.39    7.10 
   6   2   6   87.89    7.20 
  -7  -2  -6   44.80    4.20 
   7   2   6   50.09    5.70 
   7   2   6   37.90    5.60 
  -8  -2  -6   24.00    3.00 
  -8  -2  -6   11.90    3.80 
   8   2   6   16.70    4.40 
   8   2   6   12.20    3.30 
  -9  -2  -6    3.20    3.20 
  -9  -2  -6    4.10    1.40 
   9   2   6    4.70    3.20 
   9   2   6    3.50    3.00 
 -10  -2  -6    6.60    2.40 
  10   2   6   13.80    4.20 
   7  -3  -6    2.50    2.20 
   6  -3  -6    7.40    2.50 
   6  -3  -6    9.70    2.30 
  -6   3   6   10.50    2.70 
   5  -3  -6   14.20    3.80 
   5  -3  -6   11.50    2.60 
  -5   3   6   16.50    3.00 
   4  -3  -6    3.20    1.50 
   4  -3  -6    0.20    1.50 
  -4   3   6    4.00    2.10 
   3  -3  -6  174.98    9.80 
   3  -3  -6  169.58    8.70 
  -3   3   6  167.88   13.60 
   2  -3  -6   96.49    6.60 
   2  -3  -6   96.09    6.10 
  -2   3   6   86.99    9.40 
   1  -3  -6   20.10    3.90 
   1  -3  -6   24.40    2.90 
   1  -3  -6   28.00    3.30 
  -1   3   6   22.20    4.10 
   0  -3  -6   58.19    4.50 
   0  -3  -6   57.09    4.50 
   0  -3  -6   49.30    8.70 
   0   3   6   49.20    5.60 
   0   3   6   60.09    5.90 
  -1  -3  -6   93.29    6.00 
  -1  -3  -6   94.39    6.20 
   1   3   6   97.29    6.90 
  -2  -3  -6  908.61   27.30 
   2   3   6  933.71   29.90 
   2   3   6  953.60   28.50 
  -3  -3  -6  523.45   18.20 
  -3  -3  -6  531.75   17.70 
   3   3   6  536.85   18.50 
   3   3   6  523.85   19.40 
  -4  -3  -6  435.36   15.80 
  -4  -3  -6  450.55   16.40 
   4   3   6  439.56   16.50 
   4   3   6  428.66   17.50 
  -5  -3  -6  192.68    9.80 
  -5  -3  -6  193.98    9.70 
   5   3   6  180.88   10.60 
   5   3   6  178.58    9.80 
  -6  -3  -6  566.14   19.80 
   6   3   6  550.94   21.70 
   6   3   6  548.85   20.60 
  -7  -3  -6   33.00    3.80 
   7   3   6   30.70    5.20 
   7   3   6   36.30    5.90 
  -8  -3  -6   41.90    4.70 
   8   3   6   40.30    6.50 
  -9  -3  -6    5.50    2.00 
   9   3   6    3.00    2.30 
 -10  -3  -6    9.60    2.60 
  10   3   6    6.60    3.50 
 -11  -3  -6   17.00    3.20 
  11   3   6   22.60    5.70 
   6  -4  -6   -1.20    1.80 
   5  -4  -6   23.40    4.60 
   5  -4  -6   19.90    2.80 
  -5   4   6   17.90    3.00 
   4  -4  -6    0.80    1.20 
   4  -4  -6    0.00    1.50 
  -4   4   6    2.70    1.80 
   3  -4  -6   27.50    4.70 
   3  -4  -6   26.00    3.00 
  -3   4   6   23.30    3.80 
   2  -4  -6    0.10    1.10 
   2  -4  -6    1.10    1.30 
  -2   4   6    2.30    1.80 
   1  -4  -6   27.10    3.30 
   1  -4  -6   30.10    3.80 
   0  -4  -6   80.59    5.90 
   0  -4  -6   97.89    7.10 
   0   4   6   86.89    7.40 
   0   4   6   93.79    6.90 
  -1  -4  -6  202.38    9.60 
  -1  -4  -6  177.78    9.80 
  -1  -4  -6  211.28    9.80 
   1   4   6  192.48   10.40 
   1   4   6  187.08   10.80 
  -2  -4  -6    7.80    2.30 
  -2  -4  -6   11.60    2.60 
   2   4   6    9.00    2.60 
   2   4   6   10.80    2.80 
  -3  -4  -6    7.80    2.00 
  -3  -4  -6    2.00    1.30 
   3   4   6    3.20    1.70 
   3   4   6    2.30    1.50 
  -4  -4  -6   12.70    2.90 
  -4  -4  -6    6.40    2.20 
   4   4   6   12.60    2.80 
   4   4   6   10.80    2.80 
  -5  -4  -6  348.47   14.80 
   5   4   6  323.17   15.80 
   5   4   6  353.36   15.00 
  -6  -4  -6   12.00    2.90 
   6   4   6    6.50    2.50 
  -7  -4  -6  134.69    8.90 
   7   4   6  133.69    9.40 
  -8  -4  -6   89.39    7.10 
   8   4   6   79.19    9.60 
  -9  -4  -6   25.50    4.30 
   9   4   6   31.60    6.10 
 -10  -4  -6    3.30    2.00 
  10   4   6    1.50    2.10 
 -11  -4  -6    6.00    2.50 
  11   4   6   12.40    4.00 
   6  -5  -6    2.10    2.50 
   5  -5  -6   27.70    5.80 
   5  -5  -6   29.90    2.60 
   4  -5  -6    3.30    1.90 
   4  -5  -6    2.10    1.60 
   4  -5  -6   -1.40    1.10 
  -4   5   6    1.00    1.90 
   3  -5  -6    0.70    1.20 
   3  -5  -6   -0.80    1.30 
  -3   5   6    0.90    1.70 
   2  -5  -6  102.99    7.90 
   2  -5  -6   92.49    9.30 
  -2   5   6  108.69    9.20 
   1  -5  -6   51.29    4.50 
   1  -5  -6   58.19    5.50 
  -1   5   6   52.69    5.50 
   0  -5  -6    4.10    1.70 
   0  -5  -6    4.30    1.80 
   0   5   6    7.70    2.90 
   0   5   6    0.40    1.40 
  -1  -5  -6  214.58   10.60 
  -1  -5  -6  222.88   10.80 
   1   5   6  207.38   11.70 
   1   5   6  233.38   12.80 
  -2  -5  -6  184.28    9.90 
  -2  -5  -6  184.08   10.10 
   2   5   6  196.28   11.30 
   2   5   6  184.88   10.80 
  -3  -5  -6    7.20    2.10 
  -3  -5  -6    4.10    2.00 
   3   5   6    4.30    2.10 
   3   5   6    9.50    2.80 
  -4  -5  -6   90.29    7.10 
   4   5   6   93.39    7.30 
  -5  -5  -6   34.00    5.20 
   5   5   6   35.30    4.50 
  -6  -5  -6  125.59    9.00 
   6   5   6  121.79    8.80 
  -7  -5  -6  251.47   13.40 
   7   5   6  236.88   13.20 
  -8  -5  -6    0.30    2.20 
   8   5   6    2.10    2.60 
  -9  -5  -6   25.80    4.80 
   9   5   6   22.10    4.80 
 -10  -5  -6   -0.60    1.60 
  10   5   6    0.90    1.70 
 -11  -5  -6    2.70    3.00 
  11   5   6    5.90    3.20 
   5  -6  -6    1.20    2.20 
   4  -6  -6   89.79    8.40 
   4  -6  -6   90.19    5.10 
   3  -6  -6    5.20    2.10 
   3  -6  -6    6.50    1.80 
   3  -6  -6    7.60    2.70 
  -3   6   6    4.00    2.40 
   2  -6  -6    9.90    2.90 
   2  -6  -6    7.40    2.00 
   2  -6  -6   10.80    3.30 
  -2   6   6   11.40    3.20 
   1  -6  -6    2.40    1.20 
   1  -6  -6    2.00    1.60 
   1  -6  -6    1.60    1.30 
  -1   6   6   -2.40    1.60 
   0  -6  -6   33.00    3.90 
   0  -6  -6   32.40    4.00 
   0   6   6   25.20    5.40 
   0   6   6   18.40    4.30 
  -1  -6  -6  240.68   12.00 
  -1  -6  -6  245.78   12.00 
   1   6   6  244.18   13.60 
   1   6   6  228.08   13.70 
  -2  -6  -6    3.60    1.80 
   2   6   6    0.70    1.70 
  -3  -6  -6  576.84   22.20 
   3   6   6  599.54   23.00 
  -4  -6  -6    8.30    2.80 
   4   6   6    6.80    2.50 
  -5  -6  -6    1.10    1.40 
   5   6   6    4.10    2.10 
  -6  -6  -6  106.69    8.70 
   6   6   6  105.59    8.40 
  -7  -6  -6   27.70    5.10 
   7   6   6   20.90    4.40 
  -8  -6  -6  131.99   10.40 
   8   6   6  127.89    9.80 
  -9  -6  -6   19.10    4.40 
   9   6   6   22.10    4.80 
 -10  -6  -6   21.20    4.90 
  10   6   6   27.80    5.80 
 -11  -6  -6    9.10    3.80 
  11   6   6   12.80    4.30 
   4  -7  -6    2.80    2.10 
   3  -7  -6    0.40    1.90 
   3  -7  -6   -1.60    1.10 
   2  -7  -6   41.90    4.10 
   2  -7  -6   42.40    5.50 
   2  -7  -6   42.80    6.00 
   1  -7  -6   59.39    5.20 
   1  -7  -6   51.09    7.30 
   1  -7  -6   47.60    5.50 
   0  -7  -6    0.40    1.40 
   0  -7  -6   -1.00    1.20 
  -1  -7  -6   68.49    5.90 
  -1  -7  -6   59.29    5.80 
   1   7   6   41.20    7.10 
  -2  -7  -6  200.58   11.20 
  -2  -7  -6  193.38   11.60 
   2   7   6  202.88   13.20 
  -3  -7  -6   87.49    7.80 
   3   7   6   98.39    8.40 
  -4  -7  -6  144.09   10.30 
   4   7   6  147.19   10.30 
  -5  -7  -6   30.70    5.60 
   5   7   6   24.50    5.10 
  -6  -7  -6   65.99    7.10 
   6   7   6   46.90    5.80 
  -7  -7  -6   -1.10    0.90 
   7   7   6    3.00    1.80 
   8   7   6   -0.50    1.60 
  -9  -7  -6    5.00    2.80 
   9   7   6   -0.10    1.90 
 -10  -7  -6   -1.60    2.20 
  10   7   6    0.30    2.20 
 -11  -7  -6   24.60    5.90 
  11   7   6   25.90    6.10 
   3  -8  -6    0.50    2.40 
   2  -8  -6    3.80    2.20 
   2  -8  -6    2.40    1.90 
   1  -8  -6   74.79    7.60 
   1  -8  -6   77.79    6.60 
   0  -8  -6   -1.50    1.50 
   0  -8  -6    0.90    1.40 
  -1  -8  -6    3.40    2.10 
  -2  -8  -6    8.20    2.90 
  -2  -8  -6   11.70    3.20 
   2   8   6   11.80    3.80 
  -3  -8  -6  258.77   14.80 
   3   8   6  238.88   15.00 
  -4  -8  -6  143.59   11.00 
   4   8   6  163.58   11.60 
  -5  -8  -6   40.20    6.90 
   5   8   6   50.89    6.40 
   6   8   6   24.60    4.90 
  -7  -8  -6   14.50    4.20 
   7   8   6   13.70    3.60 
  -8  -8  -6   12.30    4.30 
   8   8   6   24.30    5.00 
  -9  -8  -6   14.20    4.80 
   9   8   6   25.30    5.10 
 -10  -8  -6   10.50    4.80 
  10   8   6   16.70    4.80 
 -11  -8  -6   11.70    4.10 
  11   8   6    8.20    3.30 
   2  -9  -6   -3.60    1.60 
   2  -9  -6    5.80    1.80 
   1  -9  -6    4.20    2.20 
   1  -9  -6    3.90    2.00 
   0  -9  -6   53.49    5.90 
   0  -9  -6   42.20    6.70 
  -1  -9  -6    7.00    2.50 
  -2  -9  -6    4.60    2.00 
  -2  -9  -6    3.50    2.70 
   2   9   6   -0.10    3.00 
  -3  -9  -6  130.59   11.00 
  -3  -9  -6  124.79    9.40 
   3   9   6  124.69   11.30 
  -4  -9  -6  110.39   10.00 
   4   9   6  117.49   10.60 
  -5  -9  -6   37.90    7.00 
   5   9   6   28.60    5.90 
  -6  -9  -6    0.20    2.90 
   6   9   6    6.40    3.40 
  -7  -9  -6   78.79    8.90 
   7   9   6   60.19    7.30 
  -8  -9  -6    9.90    3.50 
   8   9   6    1.90    2.70 
  -9  -9  -6   17.30    4.90 
   9   9   6   10.60    3.90 
 -10  -9  -6   13.60    4.90 
  10   9   6   17.50    5.50 
   1 -10  -6   11.80    3.20 
   1 -10  -6    5.30    3.40 
   0 -10  -6    5.20    3.30 
  -1 -10  -6   -1.80    2.00 
  -1 -10  -6   -0.30    1.90 
  -2 -10  -6    0.90    2.50 
  -2 -10  -6    8.50    3.00 
   2  10   6    5.90    3.20 
  -3 -10  -6    6.20    2.80 
  -3 -10  -6    5.80    2.80 
   3  10   6    6.20    3.40 
  -4 -10  -6    3.30    2.10 
  -4 -10  -6    4.20    2.40 
   4  10   6   11.30    4.20 
  -5 -10  -6   72.19    8.70 
   5  10   6   64.39    8.10 
  -6 -10  -6   29.20    6.50 
   6  10   6   37.70    6.60 
  -7 -10  -6   22.90    5.90 
   7  10   6   32.60    6.70 
  -8 -10  -6    5.50    2.70 
   8  10   6    2.90    3.00 
  -9 -10  -6    2.40    2.80 
   9  10   6    4.40    2.60 
 -10 -10  -6    4.70    4.50 
  10  10   6    4.70    2.70 
  -1 -11  -6   16.30    4.30 
  -1 -11  -6   12.60    4.80 
  -2 -11  -6    7.80    4.00 
  -2 -11  -6   11.40    4.20 
  -3 -11  -6    5.50    3.00 
  -3 -11  -6   -3.10    1.70 
   3  11   6    1.20    2.50 
  -4 -11  -6    2.00    2.10 
  -4 -11  -6    4.70    3.40 
   4  11   6    7.10    3.40 
  -5 -11  -6    7.40    3.90 
   5  11   6    7.40    4.10 
  -6 -11  -6    3.20    3.30 
   6  11   6    2.50    3.00 
  -7 -11  -6    5.80    5.10 
   7  11   6    1.00    2.70 
  -8 -11  -6   26.70    6.80 
   8  11   6   16.90    5.00 
  -9 -11  -6    9.30    4.10 
   9  11   6    7.70    3.30 
  -4 -12  -6    1.50    3.30 
  -4 -12  -6    6.00    4.70 
   4  12   6   -3.80    3.90 
  -5 -12  -6    3.40    2.50 
  -5 -12  -6    4.70    3.60 
   5  12   6   -2.30    3.20 
  -6 -12  -6    6.50    4.20 
   6  12   6   14.20    4.80 
  -7 -12  -6   21.10    6.70 
   3   7  -7    2.30    3.10 
   2   7  -7   20.60    6.40 
   1   7  -7   41.00    8.60 
   0   7  -7    4.20    3.80 
   5   6  -7    3.70    3.60 
   4   6  -7    3.00    3.30 
   3   6  -7   24.10    7.10 
   2   6  -7   12.50    4.30 
   1   6  -7   30.30    6.60 
   0   6  -7   29.20    6.70 
  -1   6  -7   35.70    8.40 
  -2   6  -7    3.50    3.60 
   6   5  -7   10.20    6.70 
   5   5  -7    0.40    2.40 
   4   5  -7   56.89    9.40 
   3   5  -7   25.80    5.90 
   2   5  -7   23.20    5.80 
   1   5  -7   20.10    5.40 
   0   5  -7    3.30    2.70 
  -1   5  -7    2.70    2.80 
  -2   5  -7   57.99    8.90 
  -3   5  -7    7.80    4.30 
  -4   5  -7    4.10    4.40 
   7   4  -7   -0.20    2.40 
   7   4  -7    0.30    3.50 
   6   4  -7    4.40    2.30 
   6   4  -7    5.40    3.20 
   5   4  -7   18.40    2.80 
   5   4  -7   16.60    2.30 
   4   4  -7   13.30    4.10 
   3   4  -7   55.99    9.00 
   2   4  -7   55.29    8.80 
   1   4  -7   36.70    6.80 
   0   4  -7  174.98   13.00 
  -1   4  -7   19.80    4.40 
  -3   4  -7   -1.00    1.70 
  -3   4  -7    3.10    1.20 
   3  -4   7    0.70    1.40 
   3  -4   7    3.80    1.40 
  -4   4  -7   30.00    5.70 
  -5   4  -7   -3.20    2.50 
   5  -4   7    2.80    2.20 
   7   3  -7    1.40    3.90 
   7   3  -7    2.70    2.70 
   6   3  -7   15.60    3.40 
   6   3  -7   16.90    4.60 
   5   3  -7    5.00    2.60 
   5   3  -7    1.30    1.70 
   4   3  -7   15.30    2.30 
   4   3  -7   12.80    4.20 
   4   3  -7   18.90    2.80 
   3   3  -7    4.40    3.00 
   2   3  -7  274.97   20.60 
   1   3  -7  126.79   10.40 
   0   3  -7   29.80    5.60 
  -1   3  -7  350.76   18.10 
  -2   3  -7  202.48   12.90 
  -3   3  -7    6.40    3.30 
  -3   3  -7   16.50    2.00 
   3  -3   7   14.10    2.20 
  -4   3  -7  104.49    8.70 
   4  -3   7  103.49    7.80 
  -5   3  -7   -0.20    2.10 
   5  -3   7   -2.90    1.60 
  -6   3  -7   42.20    6.30 
   6  -3   7   47.10    5.30 
  -7   3  -7    3.10    3.30 
   7   2  -7    3.70    2.70 
   7   2  -7    0.00    2.40 
   6   2  -7   26.30    4.70 
   6   2  -7   22.70    5.60 
   5   2  -7   41.00    4.30 
   5   2  -7   35.10    6.90 
  -5  -2   7   35.30    4.50 
   4   2  -7    5.70    2.10 
   4   2  -7    3.80    1.80 
  -4  -2   7    8.50    1.80 
   3   2  -7  318.27   11.60 
   3   2  -7  319.87   10.70 
   3   2  -7  310.07   17.20 
   2   2  -7  453.95   12.40 
   2   2  -7  489.85   21.70 
   2   2  -7  432.36   14.10 
   1   2  -7  794.12   29.60 
   0   2  -7  296.67   15.50 
  -1   2  -7  140.59   10.00 
  -2   2  -7  219.08    6.80 
  -2   2  -7  216.98   12.50 
   2  -2   7  209.58    7.40 
  -3   2  -7    0.60    0.80 
  -3   2  -7    2.10    1.70 
   3  -2   7    1.10    0.90 
  -4   2  -7   81.19    5.10 
  -4   2  -7   93.89    7.70 
   4  -2   7   87.79    5.90 
  -5   2  -7    4.30    2.40 
   5  -2   7    6.50    2.50 
  -6   2  -7   30.60    5.10 
   6  -2   7   19.30    3.90 
  -7   2  -7    5.40    3.00 
   7  -2   7    4.60    2.60 
   8  -2   7   -0.40    2.80 
   7   1  -7    7.60    3.30 
   7   1  -7    6.20    3.00 
   6   1  -7   10.20    4.00 
   6   1  -7   15.60    3.70 
   5   1  -7   -0.30    1.80 
   5   1  -7    0.90    1.50 
   4   1  -7   59.59    5.80 
   4   1  -7   59.59    4.80 
   4   1  -7   59.99    6.70 
  -4  -1   7   63.09    5.10 
   3   1  -7  245.08   11.20 
   3   1  -7  238.78    9.60 
   3   1  -7  236.58   14.00 
   2   1  -7   13.90    1.80 
   2   1  -7   11.80    2.30 
   2   1  -7   10.70    3.30 
   1   1  -7  205.48   12.10 
   1   1  -7  192.88    6.60 
   0   1  -7  321.17   15.00 
   0   1  -7  280.97    8.80 
   0   1  -7  294.57    8.50 
  -1   1  -7    5.10    1.00 
  -1   1  -7    3.50    0.80 
  -1   1  -7    4.10    2.30 
   1  -1   7    3.30    1.00 
  -2   1  -7  214.98   11.70 
  -2   1  -7  221.78    7.70 
   2  -1   7  229.88    8.40 
  -3   1  -7  821.22   22.00 
  -3   1  -7  825.82   27.10 
   3  -1   7  713.03   22.40 
  -4   1  -7    3.40    1.40 
  -4   1  -7   -0.10    1.10 
   4  -1   7    3.60    1.60 
  -5   1  -7   13.30    3.30 
  -5   1  -7    9.90    3.60 
   5  -1   7   12.70    3.00 
  -6   1  -7  273.77   13.30 
   6  -1   7  287.37   13.80 
  -7   1  -7    9.90    2.90 
  -8   1  -7    5.30    2.70 
   8  -1   7    8.40    3.30 
   7   0  -7   -1.90    2.60 
   7   0  -7    3.60    2.60 
   6   0  -7    0.20    2.40 
   6   0  -7    1.60    2.10 
   5   0  -7    3.20    1.80 
   5   0  -7   -2.60    1.10 
   4   0  -7  230.28   10.90 
   4   0  -7  207.78   13.00 
   3   0  -7   78.09    7.50 
   3   0  -7   91.89    6.90 
   3   0  -7   83.89    5.70 
  -3   0   7   78.79    5.70 
   2   0  -7  753.72   21.70 
   2   0  -7  712.73   26.10 
   2   0  -7  719.73   23.30 
   1   0  -7  389.96   16.70 
   1   0  -7  380.96   12.40 
   1   0  -7  380.16   13.30 
   0   0  -7  127.29    5.60 
   0   0  -7  136.09    6.10 
   0   0  -7  139.39    8.80 
  -1   0  -7    0.70    1.20 
  -1   0  -7    8.60    1.60 
   1   0   7    0.80    0.80 
  -2   0  -7   60.29    5.40 
  -2   0  -7   55.49    3.90 
   2   0   7   64.59    4.30 
  -3   0  -7   29.60    3.10 
  -3   0  -7   34.30    4.00 
   3   0   7   30.10    3.20 
  -4   0  -7  369.56   15.30 
  -4   0  -7  376.66   13.60 
   4   0   7  392.96   14.50 
  -5   0  -7  509.35   17.60 
  -5   0  -7  493.65   18.40 
   5   0   7  478.65   18.10 
  -6   0  -7  267.87   12.40 
   6   0   7  254.07   12.80 
  -7   0  -7  127.09    8.00 
   7   0   7  120.09    9.10 
  -8   0  -7    0.00    1.70 
   8   0   7    5.00    2.60 
  -9   0  -7   10.20    3.30 
   9   0   7   11.60    4.30 
   7  -1  -7    5.80    2.80 
   7  -1  -7    9.20    3.30 
   6  -1  -7   -3.30    1.90 
   6  -1  -7   -1.70    1.60 
   5  -1  -7   15.30    3.80 
   4  -1  -7   13.50    3.20 
   4  -1  -7    9.80    2.90 
   3  -1  -7   77.99    6.90 
   3  -1  -7   86.89    6.10 
   2  -1  -7  155.98    9.20 
   2  -1  -7  140.39    9.00 
   2  -1  -7  147.49    8.20 
   1  -1  -7   82.29    5.90 
   1  -1  -7   88.19    6.70 
   1  -1  -7   77.69    5.00 
   0  -1  -7  405.06   13.40 
   0  -1  -7  409.26   16.10 
   0  -1  -7  399.96   14.20 
   0   1   7  404.06   15.40 
  -1  -1  -7  124.49    6.40 
  -1  -1  -7  135.39    8.00 
   1   1   7  139.39    7.40 
  -2  -1  -7    4.40    1.60 
  -2  -1  -7    1.60    1.20 
   2   1   7    0.40    1.90 
   2   1   7    2.40    1.40 
  -3  -1  -7   44.80    4.40 
  -3  -1  -7   40.80    3.80 
   3   1   7   48.00    4.10 
   3   1   7   38.40    6.20 
  -4  -1  -7    2.70    1.80 
  -4  -1  -7    0.20    2.40 
   4   1   7    1.70    1.40 
  -5  -1  -7  123.99    7.70 
  -5  -1  -7  118.79    7.50 
   5   1   7  130.39    8.10 
  -6  -1  -7  729.53   23.50 
   6   1   7  693.13   24.60 
  -7  -1  -7   50.39    4.80 
   7   1   7   35.50    5.70 
  -8  -1  -7    9.10    2.50 
   8   1   7    8.00    3.00 
  -9  -1  -7   25.90    3.80 
   9   1   7   20.30    5.10 
  10   1   7   -6.40    2.90 
   6  -2  -7    9.50    3.30 
   6  -2  -7    9.40    3.20 
   5  -2  -7   -1.00    1.40 
   5  -2  -7   -3.30    1.20 
   4  -2  -7    3.50    1.70 
   4  -2  -7    0.30    1.20 
   3  -2  -7  223.98   11.60 
   3  -2  -7  222.78   11.30 
   2  -2  -7    0.30    1.00 
   2  -2  -7    2.50    1.60 
   1  -2  -7  163.28    8.80 
   1  -2  -7  151.78    7.90 
   1  -2  -7  143.19    8.70 
  -1   2   7  131.39   10.00 
   0  -2  -7   28.80    3.30 
   0  -2  -7   32.20    3.30 
   0  -2  -7   31.80    3.80 
   0   2   7   25.60    3.30 
   0   2   7   31.50    4.10 
  -1  -2  -7  633.94   20.60 
  -1  -2  -7  660.23   21.90 
   1   2   7  682.63   22.30 
   1   2   7  657.53   22.40 
  -2  -2  -7  738.73   22.30 
  -2  -2  -7  718.53   23.40 
   2   2   7  746.63   23.60 
   2   2   7  749.33   24.70 
  -3  -2  -7   43.40    4.10 
  -3  -2  -7   43.10    4.20 
   3   2   7   45.80    4.70 
   3   2   7   45.20    4.40 
  -4  -2  -7   -0.10    1.60 
  -4  -2  -7   -0.50    0.90 
   4   2   7    0.20    1.30 
   4   2   7   -0.80    1.00 
  -5  -2  -7  667.73   23.30 
  -5  -2  -7  670.03   22.30 
   5   2   7  675.33   23.00 
  -6  -2  -7    9.40    2.50 
   6   2   7    7.90    2.70 
  -7  -2  -7  317.17   13.40 
   7   2   7  335.87   16.00 
  -8  -2  -7   25.10    3.90 
   8   2   7   24.00    4.90 
  -9  -2  -7    6.00    2.20 
   9   2   7    3.00    2.30 
 -10  -2  -7   10.30    2.80 
  10   2   7   14.70    4.00 
   6  -3  -7    7.60    2.80 
   6  -3  -7   14.70    3.90 
   5  -3  -7    5.20    2.00 
   5  -3  -7    1.00    1.80 
  -5   3   7    3.00    2.70 
   4  -3  -7   14.80    3.80 
   4  -3  -7   10.60    2.80 
   3  -3  -7   67.29    6.00 
   3  -3  -7   72.99    5.90 
  -3   3   7   63.29    6.20 
   2  -3  -7   97.49    7.00 
   2  -3  -7   92.59    6.50 
  -2   3   7   93.89    6.90 
   1  -3  -7   27.50    3.50 
   1  -3  -7   30.50    3.70 
  -1   3   7   30.90    3.80 
   0  -3  -7  256.47   11.10 
   0  -3  -7  241.08   11.00 
   0  -3  -7  250.97   12.10 
   0   3   7  249.08   13.00 
   0   3   7  249.97   12.10 
  -1  -3  -7  593.04   23.50 
  -1  -3  -7  707.93   22.20 
  -1  -3  -7  671.13   22.40 
   1   3   7  692.23   23.30 
  -2  -3  -7 1601.94   43.80 
  -2  -3  -7 1561.34   47.10 
   2   3   7 1586.94   45.40 
   2   3   7 1636.14   45.10 
  -3  -3  -7   17.50    3.10 
  -3  -3  -7   19.80    3.40 
   3   3   7   22.50    4.80 
   3   3   7   21.60    3.90 
  -4  -3  -7  334.67   14.10 
  -4  -3  -7  339.57   13.70 
   4   3   7  374.26   15.00 
  -5  -3  -7  388.36   15.50 
   5   3   7  391.16   16.30 
  -6  -3  -7   26.50    4.20 
   6   3   7   20.70    4.30 
  -7  -3  -7   68.19    5.80 
   7   3   7   69.09    6.60 
  -8  -3  -7    2.30    1.80 
   8   3   7   -0.90    2.40 
  -9  -3  -7  110.39    7.40 
   9   3   7  101.39    9.40 
 -10  -3  -7    8.80    2.60 
  10   3   7   13.50    3.70 
   6  -4  -7    0.70    2.00 
   5  -4  -7    3.70    2.50 
   5  -4  -7    1.90    2.30 
  -5   4   7    4.70    3.20 
   4  -4  -7    5.50    2.10 
   4  -4  -7    6.50    2.50 
  -4   4   7   10.70    3.00 
   3  -4  -7  101.89    8.00 
   3  -4  -7   91.69    6.40 
  -3   4   7  101.79    7.50 
   2  -4  -7   59.79    5.70 
   2  -4  -7   57.09    5.00 
  -2   4   7   65.89    6.00 
   1  -4  -7  336.17   14.40 
   1  -4  -7  331.47   13.40 
  -1   4   7  338.87   15.00 
   0  -4  -7   32.20    3.90 
   0  -4  -7   34.90    3.90 
   0   4   7   34.40    5.60 
   0   4   7   38.30    4.60 
  -1  -4  -7   93.09    6.50 
  -1  -4  -7  100.39    6.70 
  -1  -4  -7   97.39    7.10 
   1   4   7  101.69    8.00 
   1   4   7   88.99    7.30 
  -2  -4  -7   32.60    4.00 
  -2  -4  -7   42.60    4.40 
   2   4   7   34.80    5.30 
   2   4   7   40.10    4.70 
  -3  -4  -7  143.19    8.30 
  -3  -4  -7  156.38    8.90 
   3   4   7  157.58    9.40 
  -4  -4  -7  104.19    7.20 
  -4  -4  -7  102.89    7.10 
   4   4   7   94.09    7.10 
  -5  -4  -7   54.59    5.20 
   5   4   7   48.80    5.20 
  -6  -4  -7  671.33   23.60 
   6   4   7  648.44   24.00 
  -7  -4  -7   40.90    4.70 
   7   4   7   41.10    6.20 
  -8  -4  -7   18.30    3.90 
   8   4   7   25.20    5.10 
  -9  -4  -7    0.00    1.40 
   9   4   7   -1.60    2.00 
 -10  -4  -7   21.40    3.80 
  10   4   7    9.60    3.80 
 -11  -4  -7   12.00    3.30 
  11   4   7    8.20    4.10 
   5  -5  -7   -0.50    1.70 
   5  -5  -7    4.70    2.50 
   4  -5  -7   -1.60    1.50 
   4  -5  -7    0.40    1.20 
  -4   5   7    5.40    2.70 
   3  -5  -7   10.60    2.30 
   3  -5  -7   10.90    3.40 
  -3   5   7    6.90    3.40 
   2  -5  -7  175.78    9.00 
   2  -5  -7  158.38   10.30 
  -2   5   7  179.48   10.60 
   1  -5  -7   16.70    3.30 
   1  -5  -7   19.30    3.80 
  -1   5   7   16.40    3.90 
   0  -5  -7    0.40    1.10 
   0  -5  -7    1.10    1.20 
   0   5   7    0.30    1.70 
  -1  -5  -7  271.87   12.50 
  -1  -5  -7  283.37   12.80 
   1   5   7  274.07   14.80 
  -2  -5  -7   46.80    5.00 
   2   5   7   52.39    5.70 
  -3  -5  -7  159.18    9.60 
   3   5   7  148.69    9.80 
  -4  -5  -7    3.00    2.00 
   4   5   7    2.00    1.70 
  -5  -5  -7   40.60    4.90 
   5   5   7   54.49    5.70 
  -6  -5  -7  374.96   17.20 
   6   5   7  402.26   17.70 
  -7  -5  -7    1.30    1.80 
   7   5   7    6.70    2.70 
  -8  -5  -7   16.70    4.10 
   8   5   7   12.00    3.80 
  -9  -5  -7   -2.40    1.50 
   9   5   7    0.90    2.20 
 -10  -5  -7    3.20    2.50 
  10   5   7    2.00    2.60 
 -11  -5  -7   -0.60    2.50 
  11   5   7    8.30    3.80 
   5  -6  -7    9.40    3.70 
   4  -6  -7    1.40    1.90 
   4  -6  -7    4.10    2.40 
   3  -6  -7   19.70    3.20 
   3  -6  -7   21.40    4.50 
   3  -6  -7   20.20    3.90 
  -3   6   7   25.10    4.80 
   2  -6  -7   13.00    3.60 
   2  -6  -7   10.80    2.40 
   1  -6  -7   54.99    6.20 
   1  -6  -7   56.69    5.00 
   0  -6  -7    6.10    2.30 
   0  -6  -7    5.80    2.20 
  -1  -6  -7   17.10    3.60 
  -1  -6  -7   18.50    3.60 
   1   6   7   19.70    4.70 
  -2  -6  -7   54.59    5.50 
   2   6   7   49.10    6.00 
  -3  -6  -7  335.97   15.60 
   3   6   7  338.57   16.50 
  -4  -6  -7    5.40    1.90 
   4   6   7    4.50    2.30 
  -5  -6  -7   80.79    7.40 
   5   6   7   79.59    7.20 
  -6  -6  -7    2.70    1.80 
   6   6   7    0.70    1.60 
  -7  -6  -7   67.29    7.00 
   7   6   7   56.79    6.40 
  -8  -6  -7   55.89    6.50 
   8   6   7   64.49    7.10 
  -9  -6  -7   16.10    4.20 
   9   6   7   10.80    3.80 
 -10  -6  -7    3.90    2.40 
  10   6   7    4.00    2.50 
 -11  -6  -7   -0.10    2.90 
  11   6   7   -2.10    1.80 
   4  -7  -7    2.10    2.00 
   3  -7  -7    5.20    1.70 
   3  -7  -7    0.70    1.50 
   2  -7  -7   10.70    2.50 
   2  -7  -7   19.30    4.50 
   1  -7  -7   28.70    4.30 
   1  -7  -7   32.10    5.40 
   0  -7  -7   13.10    3.00 
   0  -7  -7   13.30    3.30 
  -1  -7  -7    8.20    2.70 
  -1  -7  -7    4.80    2.10 
   1   7   7    6.00    2.80 
  -2  -7  -7   19.10    4.00 
  -2  -7  -7   21.20    4.00 
   2   7   7   24.50    5.30 
  -3  -7  -7    9.80    3.10 
   3   7   7    1.00    2.10 
  -4  -7  -7    1.00    1.60 
   4   7   7    6.50    2.80 
  -5  -7  -7   60.79    6.70 
   5   7   7   55.79    6.40 
  -6  -7  -7   35.70    5.90 
   6   7   7   27.80    5.30 
  -7  -7  -7   27.40    5.80 
   7   7   7   25.40    5.10 
  -8  -7  -7    0.60    2.00 
   8   7   7   -0.40    1.70 
  -9  -7  -7    4.00    2.40 
   9   7   7   -0.40    1.70 
 -10  -7  -7    2.60    3.10 
  10   7   7   -0.70    2.00 
 -11  -7  -7   -3.20    2.20 
  11   7   7    3.60    3.10 
   3  -8  -7   -1.60    2.20 
   2  -8  -7    8.50    3.10 
   2  -8  -7    8.00    2.30 
   1  -8  -7   11.70    3.40 
   1  -8  -7    7.40    2.60 
   0  -8  -7   23.70    4.70 
   0  -8  -7   27.30    4.50 
  -1  -8  -7    8.20    3.00 
  -1  -8  -7    9.70    3.10 
   1   8   7   16.40    4.70 
  -2  -8  -7   13.20    3.80 
  -2  -8  -7   19.10    4.40 
   2   8   7   20.00    5.30 
  -3  -8  -7    3.70    2.30 
   3   8   7    0.20    1.50 
  -4  -8  -7   38.30    6.60 
   4   8   7   42.30    7.10 
  -5  -8  -7   84.19    9.10 
   5   8   7   82.69    8.40 
  -6  -8  -7   73.59    7.90 
   6   8   7   73.49    7.60 
  -7  -8  -7   -1.40    1.30 
   7   8   7    2.50    2.00 
  -8  -8  -7   47.40    7.70 
   8   8   7   41.30    6.80 
  -9  -8  -7    0.50    2.40 
   9   8   7    3.20    2.40 
 -10  -8  -7   20.20    5.20 
  10   8   7   18.10    4.70 
 -11  -8  -7    4.80    2.90 
  11   8   7   -1.60    2.40 
   2  -9  -7   -0.50    2.00 
   2  -9  -7   -3.10    1.40 
   1  -9  -7    7.30    2.80 
   1  -9  -7    4.50    2.00 
   0  -9  -7    4.00    2.20 
   0  -9  -7    3.80    2.60 
  -1  -9  -7    6.70    2.80 
  -1  -9  -7   12.60    3.40 
  -2  -9  -7    4.40    2.20 
   2   9   7   -2.00    1.60 
  -3  -9  -7   35.80    6.10 
  -3  -9  -7   44.40    7.10 
   3   9   7   48.10    8.00 
  -4  -9  -7   19.40    4.80 
   4   9   7   15.90    4.90 
  -5  -9  -7   78.49    8.50 
   5   9   7   77.79    8.20 
  -6  -9  -7   74.99    8.40 
   6   9   7   63.89    7.90 
  -7  -9  -7    1.30    2.80 
   7   9   7    1.00    2.30 
  -8  -9  -7    2.70    2.90 
   8   9   7   15.00    4.40 
  -9  -9  -7    7.20    3.20 
   9   9   7    1.90    2.80 
 -10  -9  -7    0.10    3.20 
  10   9   7    6.30    3.00 
   0 -10  -7   -4.00    1.90 
   0 -10  -7    3.60    3.20 
  -1 -10  -7    4.60    2.30 
  -1 -10  -7    0.60    1.80 
  -2 -10  -7   10.30    3.20 
  -2 -10  -7   19.40    5.10 
   2  10   7   21.00    5.10 
  -3 -10  -7    1.50    2.10 
  -3 -10  -7    5.90    2.70 
   3  10   7    7.30    4.10 
  -4 -10  -7   55.99    6.70 
  -4 -10  -7   42.30    7.60 
   4  10   7   55.09    8.90 
  -5 -10  -7    3.60    2.60 
   5  10   7   -2.30    1.70 
  -6 -10  -7   88.09   10.10 
   6  10   7   94.19    9.90 
  -7 -10  -7   -1.90    2.60 
   7  10   7    1.20    2.50 
  -8 -10  -7   30.60    6.60 
   8  10   7   36.90    7.10 
  -9 -10  -7   37.10   11.50 
   9  10   7   19.20    5.00 
 -10 -10  -7   -0.40    3.70 
  10  10   7   -1.20    3.10 
  -1 -11  -7   10.80    3.90 
  -1 -11  -7   -1.50    2.60 
  -2 -11  -7   -0.30    4.20 
  -3 -11  -7   21.10    4.90 
  -3 -11  -7   20.20    4.80 
   3  11   7   22.30    6.20 
  -4 -11  -7   -2.40    2.50 
  -4 -11  -7   -0.50    1.80 
   4  11   7    2.60    3.10 
  -5 -11  -7   13.90    4.70 
   5  11   7    7.10    3.70 
  -6 -11  -7   32.30    7.10 
   6  11   7   32.70    7.20 
   7  11   7   67.69    8.90 
  -8 -11  -7    4.80    3.00 
   8  11   7    0.40    3.40 
  -9 -11  -7    4.90    3.90 
   9  11   7    1.30    3.50 
  -4 -12  -7    1.80    3.60 
  -4 -12  -7    3.90    2.30 
   4  12   7    1.20    3.60 
  -5 -12  -7    1.50    3.20 
  -5 -12  -7    7.40    3.30 
   5  12   7    0.00    2.60 
  -6 -12  -7    2.30    3.40 
   6  12   7    0.90    3.10 
   3   6  -8   -5.10    2.40 
   2   6  -8    1.40    4.30 
   1   6  -8   36.10    8.10 
   0   6  -8    4.00    2.80 
   5   5  -8   -3.70    3.10 
   4   5  -8   14.70    5.10 
   3   5  -8   38.70    8.20 
   2   5  -8   29.30    7.20 
   1   5  -8   19.00    4.70 
   0   5  -8   19.50    5.50 
  -1   5  -8    8.50    4.00 
  -3   5  -8    2.00    3.30 
   6   4  -8   45.70    8.60 
   5   4  -8   18.20    5.50 
   4   4  -8    0.60    2.80 
   3   4  -8   27.70    6.20 
   2   4  -8    9.80    3.70 
   1   4  -8   74.09    8.90 
   0   4  -8    5.90    2.80 
  -1   4  -8   18.00    5.10 
  -2   4  -8    6.90    2.80 
  -3   4  -8    1.60    2.40 
  -4   4  -8    1.00    3.70 
  -5   4  -8   -3.80    3.40 
   6   3  -8   14.40    3.50 
   6   3  -8    1.90    4.00 
   5   3  -8   18.20    5.40 
   5   3  -8   23.70    3.20 
   4   3  -8   -0.30    2.20 
   4   3  -8    7.40    1.70 
   4   3  -8   -0.30    1.00 
   3   3  -8    5.40    2.50 
   2   3  -8   47.60    7.70 
   1   3  -8   17.90    4.60 
   0   3  -8    7.00    3.10 
  -1   3  -8   22.40    4.90 
  -2   3  -8    7.50    3.10 
  -3   3  -8   36.50    6.40 
   3  -3   8   43.50    2.80 
  -4   3  -8   16.80    2.80 
  -4   3  -8   21.70    5.30 
   4  -3   8   23.50    3.20 
   5  -3   8   -1.30    1.50 
  -6   3  -8   -3.60    2.10 
   6  -3   8    3.30    2.00 
   6   2  -8    4.60    3.40 
   6   2  -8    5.60    2.80 
   5   2  -8    5.30    2.20 
   5   2  -8    8.90    3.60 
   4   2  -8   27.00    4.00 
   4   2  -8   33.50    3.40 
   4   2  -8   26.60    5.70 
   3   2  -8    2.10    1.20 
   3   2  -8    3.80    1.40 
   3   2  -8    8.80    3.00 
   2   2  -8   -2.60    1.90 
   1   2  -8   39.70    6.60 
   0   2  -8  291.37   17.00 
  -1   2  -8   22.80    4.90 
  -2   2  -8   11.70    3.50 
  -3   2  -8    5.20    1.40 
  -3   2  -8    3.90    2.70 
   3  -2   8    7.20    1.70 
  -4   2  -8   -0.30    1.20 
  -4   2  -8    0.70    2.10 
   4  -2   8   -0.70    1.30 
  -5   2  -8   -5.40    2.10 
   5  -2   8    2.00    1.80 
  -6   2  -8   27.60    4.90 
   6  -2   8   17.80    3.90 
  -7   2  -8    4.70    3.10 
   7  -2   8    5.50    2.80 
   7   1  -8   -0.70    2.70 
   6   1  -8    4.70    2.60 
   6   1  -8   -1.30    2.80 
   5   1  -8    1.40    1.80 
   5   1  -8    0.70    1.70 
   4   1  -8    6.20    2.60 
   4   1  -8    0.20    1.90 
   4   1  -8   -0.70    1.20 
   3   1  -8    0.90    1.10 
   3   1  -8   -2.30    1.10 
   3   1  -8    4.20    1.70 
   2   1  -8    5.20    1.40 
   2   1  -8    5.90    1.60 
   2   1  -8   -1.20    2.00 
   1   1  -8  253.37    8.60 
   1   1  -8  246.48    8.10 
   1   1  -8  260.77   14.80 
   0   1  -8   47.30    5.80 
   0   1  -8   53.89    2.70 
   0   1  -8   51.89    3.40 
  -1   1  -8  178.98   11.60 
  -1   1  -8  180.98    5.80 
  -1   1  -8  177.88    5.80 
  -2   1  -8   50.69    6.00 
  -2   1  -8   54.29    3.10 
   2  -1   8   47.40    3.40 
  -3   1  -8  114.69    5.50 
  -3   1  -8  121.49    9.00 
   3  -1   8  104.09    6.00 
  -4   1  -8   56.59    4.20 
  -4   1  -8   49.50    5.70 
   4  -1   8   52.19    4.50 
  -5   1  -8    1.80    1.90 
   5  -1   8   -0.30    1.40 
  -6   1  -8   -1.30    2.10 
   6  -1   8    3.30    2.30 
  -7   1  -8    0.40    2.20 
   7  -1   8   -0.80    1.80 
  -8   1  -8   53.09    7.20 
   8  -1   8   64.39    6.70 
   7   0  -8   -0.70    2.20 
   6   0  -8    5.20    2.40 
   6   0  -8    8.80    3.40 
   5   0  -8   -0.40    1.30 
   5   0  -8   -4.00    1.70 
   4   0  -8  130.29   10.30 
   4   0  -8  121.39    7.70 
   3   0  -8   91.39    6.00 
   3   0  -8   91.09    7.30 
   3   0  -8   99.29    8.90 
   2   0  -8  307.27   12.80 
   2   0  -8  299.97   15.70 
   2   0  -8  291.87   11.20 
   1   0  -8   18.50    2.30 
   1   0  -8   20.00    2.50 
   1   0  -8   19.30    4.30 
   0   0  -8   41.90    3.10 
   0   0  -8   40.90    4.90 
   0   0  -8   42.00    3.20 
  -1   0  -8  135.99    9.20 
  -1   0  -8  132.99    5.70 
  -1   0  -8  124.59    5.70 
   1   0   8  111.89    6.30 
  -2   0  -8   47.00    3.50 
  -2   0  -8   44.20    5.10 
   2   0   8   38.10    3.50 
  -3   0  -8   10.90    3.20 
  -3   0  -8   12.50    2.30 
   3   0   8    9.80    2.10 
  -4   0  -8  104.19    7.90 
   4   0   8  104.89    7.30 
  -5   0  -8  203.58   11.50 
   5   0   8  211.58   10.70 
  -6   0  -8   41.40    5.10 
   6   0   8   46.20    5.30 
  -7   0  -8   10.20    3.00 
   7   0   8    8.60    3.30 
  -8   0  -8    7.60    2.70 
   8   0   8   10.80    3.70 
  -9   0  -8    8.50    3.60 
   9   0   8    8.70    4.00 
   6  -1  -8   -1.20    2.40 
   6  -1  -8    7.20    2.60 
   5  -1  -8    6.90    3.10 
   5  -1  -8    6.20    2.20 
   4  -1  -8   74.49    7.30 
   4  -1  -8   86.69    6.90 
   3  -1  -8  442.66   20.00 
   3  -1  -8  498.15   17.80 
   2  -1  -8  184.98   10.50 
   2  -1  -8  211.08    9.60 
   2  -1  -8  185.88   11.40 
   1  -1  -8   -0.20    1.00 
   1  -1  -8    2.10    1.50 
   1  -1  -8    0.70    1.50 
   0  -1  -8   32.30    3.20 
   0  -1  -8   32.30    4.20 
   0  -1  -8   32.00    3.40 
  -1  -1  -8   -1.00    0.70 
  -1  -1  -8   -0.90    0.90 
  -1  -1  -8    0.40    1.20 
   1   1   8    0.40    0.90 
  -2  -1  -8   11.60    2.30 
  -2  -1  -8   12.20    3.00 
   2   1   8   11.70    2.50 
  -3  -1  -8  360.26   15.30 
  -3  -1  -8  356.46   13.10 
   3   1   8  344.67   13.70 
  -4  -1  -8  481.75   16.80 
  -4  -1  -8  461.65   18.30 
   4   1   8  481.65   17.60 
  -5  -1  -8  277.37   13.10 
   5   1   8  270.17   12.70 
  -6  -1  -8  409.46   16.60 
   6   1   8  387.26   16.90 
  -7  -1  -8   14.20    3.30 
   7   1   8   20.90    4.30 
  -8  -1  -8   20.60    3.80 
   8   1   8   16.20    4.30 
  -9  -1  -8   11.90    3.30 
   9   1   8   17.00    4.50 
   6  -2  -8    3.90    2.80 
   6  -2  -8   -5.00    2.10 
   5  -2  -8    0.90    2.00 
   5  -2  -8    5.40    2.50 
   4  -2  -8  202.68   11.40 
   4  -2  -8  173.68   11.30 
   3  -2  -8   66.79    6.60 
   3  -2  -8   65.59    5.90 
   2  -2  -8   94.29    7.50 
   2  -2  -8  105.89    7.00 
   1  -2  -8   24.10    3.20 
   1  -2  -8   24.30    4.30 
   1  -2  -8   18.50    3.70 
   0  -2  -8  131.19    8.00 
   0  -2  -8  131.79    8.40 
   0   2   8  138.09   10.70 
  -1  -2  -8   24.60    4.10 
  -1  -2  -8   31.80    3.30 
  -1  -2  -8   30.10    3.50 
   1   2   8   29.60    3.90 
  -2  -2  -8    8.80    2.20 
  -2  -2  -8    4.10    2.00 
   2   2   8    6.50    2.20 
  -3  -2  -8  398.06   15.90 
   3   2   8  348.47   17.60 
  -4  -2  -8   28.10    4.50 
  -4  -2  -8   34.80    4.20 
   4   2   8   36.00    4.20 
  -5  -2  -8  482.25   18.40 
   5   2   8  466.45   18.40 
  -6  -2  -8  423.96   16.70 
   6   2   8  397.06   17.30 
  -7  -2  -8   89.69    6.70 
   7   2   8   75.49    7.40 
  -8  -2  -8   16.20    3.10 
   8   2   8   25.20    5.00 
  -9  -2  -8   11.30    3.10 
   9   2   8   10.50    4.00 
 -10  -2  -8   34.70    5.00 
  10   2   8   28.40    6.60 
   6  -3  -8    1.60    2.60 
   5  -3  -8   47.30    5.90 
   5  -3  -8   43.60    5.60 
   4  -3  -8   73.39    6.60 
   4  -3  -8   76.09    7.10 
   3  -3  -8    1.50    1.70 
   3  -3  -8    1.20    1.50 
   2  -3  -8   -0.90    1.00 
   2  -3  -8   -0.50    1.20 
   1  -3  -8   21.10    3.80 
   1  -3  -8   18.20    3.50 
   0  -3  -8  108.89    7.80 
   0  -3  -8  108.89    7.00 
   0  -3  -8  117.79    7.70 
   0   3   8  107.09    8.50 
  -1  -3  -8  208.68   10.10 
  -1  -3  -8  208.78   10.70 
  -1  -3  -8  232.98   11.30 
   1   3   8  207.58   11.70 
  -2  -3  -8    4.60    1.90 
  -2  -3  -8    7.50    2.30 
   2   3   8   10.20    2.90 
  -3  -3  -8   31.00    3.90 
  -3  -3  -8   32.10    3.90 
   3   3   8   39.70    4.50 
  -4  -3  -8  156.88    8.70 
  -4  -3  -8  165.88    9.40 
   4   3   8  155.38    9.40 
  -5  -3  -8  695.43   23.50 
   5   3   8  652.13   23.80 
  -6  -3  -8  310.77   13.90 
   6   3   8  297.57   14.60 
  -7  -3  -8   28.80    4.50 
   7   3   8   21.60    4.60 
  -8  -3  -8    8.70    2.60 
   8   3   8    5.00    2.70 
  -9  -3  -8    6.40    2.40 
   9   3   8    2.90    2.40 
 -10  -3  -8    1.40    2.10 
  10   3   8    1.50    2.00 
   5  -4  -8   -1.00    2.10 
   5  -4  -8    1.70    2.70 
   4  -4  -8   15.90    3.40 
   4  -4  -8    5.70    2.70 
   3  -4  -8   28.70    4.60 
   3  -4  -8   26.40    4.50 
   2  -4  -8   28.90    4.40 
   2  -4  -8   22.90    4.30 
   1  -4  -8   76.49    6.30 
   1  -4  -8   88.89    6.80 
   0  -4  -8   17.90    3.50 
   0  -4  -8   16.30    3.30 
   0   4   8   15.90    4.40 
  -1  -4  -8  304.57   13.40 
  -1  -4  -8  308.27   13.20 
   1   4   8  292.07   15.10 
  -2  -4  -8  206.98   10.80 
   2   4   8  199.68   11.70 
  -3  -4  -8   60.99    5.60 
   3   4   8   63.59    6.00 
  -4  -4  -8   73.89    6.20 
   4   4   8   64.79    6.20 
  -5  -4  -8   65.19    6.00 
   5   4   8   77.69    6.90 
  -6  -4  -8  148.09    9.30 
   6   4   8  122.19    9.10 
  -7  -4  -8   55.69    5.50 
   7   4   8   58.29    6.20 
  -8  -4  -8   61.29    5.90 
   8   4   8   59.79    7.10 
  -9  -4  -8    4.90    2.10 
   9   4   8    7.00    3.40 
 -10  -4  -8   38.30    6.00 
  10   4   8   57.69    7.00 
   5  -5  -8    8.90    3.20 
   4  -5  -8    2.40    1.70 
   4  -5  -8    1.20    2.00 
   3  -5  -8    2.30    1.50 
   3  -5  -8    2.70    1.90 
   2  -5  -8   -0.20    1.10 
   2  -5  -8    1.50    1.50 
   1  -5  -8  211.58   10.80 
   1  -5  -8  231.88   12.50 
   0  -5  -8    1.40    1.20 
   0  -5  -8    1.10    1.50 
   0   5   8    0.80    1.80 
  -1  -5  -8  305.47   13.80 
  -1  -5  -8  299.67   13.60 
   1   5   8  310.27   16.40 
  -2  -5  -8  193.38   10.60 
   2   5   8  200.18   12.50 
  -3  -5  -8    5.20    1.90 
   3   5   8    1.10    1.30 
  -4  -5  -8  123.39    8.60 
   4   5   8  125.59    9.20 
  -5  -5  -8  173.68   10.50 
   5   5   8  131.79    9.70 
  -6  -5  -8  294.37   14.90 
   6   5   8  329.37   16.00 
  -7  -5  -8   -1.40    1.50 
   7   5   8   -2.00    1.40 
  -8  -5  -8   56.59    6.30 
   8   5   8   68.59    7.00 
   9   5   8    3.90    3.00 
 -10  -5  -8    7.20    2.50 
  10   5   8    7.30    3.00 
 -11  -5  -8   -5.70    2.20 
   4  -6  -8    1.70    1.90 
   4  -6  -8    7.00    3.00 
   3  -6  -8    9.00    3.10 
   3  -6  -8   15.50    2.90 
   2  -6  -8    5.10    2.90 
   2  -6  -8    7.00    2.30 
   1  -6  -8   38.80    4.40 
   1  -6  -8   37.60    5.90 
   0  -6  -8  596.34   21.80 
   0  -6  -8  644.24   23.60 
  -1  -6  -8   20.40    3.80 
  -1  -6  -8   21.80    4.10 
   1   6   8   15.10    3.90 
  -2  -6  -8   11.10    3.10 
  -2  -6  -8    3.50    2.20 
   2   6   8    3.80    2.50 
  -3  -6  -8   74.69    6.60 
   3   6   8   68.99    7.10 
  -4  -6  -8    8.90    2.80 
   4   6   8    7.50    2.70 
  -5  -6  -8    8.40    2.80 
   5   6   8    8.00    3.00 
  -6  -6  -8   39.80    6.20 
   6   6   8   41.20    5.30 
  -7  -6  -8   40.50    6.30 
   7   6   8   39.10    6.30 
  -8  -6  -8   -1.10    1.50 
   8   6   8    1.40    1.80 
  -9  -6  -8    6.10    3.00 
   9   6   8    0.30    2.20 
 -10  -6  -8    9.30    3.40 
  10   6   8    8.80    3.60 
 -11  -6  -8   17.60    4.10 
  11   6   8   19.40    4.90 
   3  -7  -8   -1.40    1.60 
   2  -7  -8    9.50    2.60 
   2  -7  -8    7.90    3.10 
   1  -7  -8   81.09    7.60 
   1  -7  -8   75.39    6.10 
   0  -7  -8    2.90    1.60 
   0  -7  -8    1.50    1.70 
  -1  -7  -8  167.38   11.60 
  -1  -7  -8  185.48   10.80 
   1   7   8  195.78   14.90 
  -2  -7  -8    7.40    2.10 
  -2  -7  -8    6.70    2.60 
   2   7   8    8.60    3.30 
  -3  -7  -8   56.49    6.20 
   3   7   8   54.39    6.80 
  -4  -7  -8  135.09   10.00 
   4   7   8  124.69   10.20 
  -5  -7  -8   94.79    8.40 
   5   7   8   84.49    8.30 
  -7  -7  -8  130.99   10.50 
   7   7   8  138.09   11.00 
  -8  -7  -8    6.00    2.60 
   8   7   8    3.90    2.50 
  -9  -7  -8   14.70    4.00 
   9   7   8   14.10    4.50 
 -10  -7  -8    1.80    3.20 
  10   7   8    1.60    2.40 
 -11  -7  -8   -0.10    2.50 
  11   7   8    1.70    3.30 
   2  -8  -8    2.10    3.30 
   2  -8  -8   -2.40    1.60 
   1  -8  -8    3.10    1.80 
   1  -8  -8    4.70    2.20 
   0  -8  -8   19.00    4.40 
   0  -8  -8   14.80    3.70 
  -1  -8  -8    3.50    2.20 
  -1  -8  -8    4.30    2.00 
   1   8   8    0.20    2.30 
  -2  -8  -8    0.80    1.70 
  -2  -8  -8    2.30    1.60 
   2   8   8    2.80    2.30 
  -3  -8  -8    0.60    1.70 
   3   8   8   -3.10    1.40 
  -4  -8  -8  102.89   11.40 
   4   8   8   81.39    8.60 
  -5  -8  -8  131.99   10.70 
   5   8   8  129.09   10.80 
  -6  -8  -8    0.80    2.10 
   6   8   8    3.00    2.40 
  -7  -8  -8   -2.50    1.70 
   7   8   8   -0.30    1.80 
  -8  -8  -8  106.39   10.20 
   8   8   8   93.49    9.40 
  -9  -8  -8   -2.40    1.40 
   9   8   8   -4.20    1.60 
 -10  -8  -8   -0.40    2.10 
  10   8   8    4.70    3.10 
   1  -9  -8    6.10    2.00 
   1  -9  -8    0.20    2.30 
   0  -9  -8    5.50    2.90 
  -1  -9  -8    5.10    3.40 
  -1  -9  -8    1.00    1.70 
  -2  -9  -8   22.10    4.50 
  -2  -9  -8   16.40    4.40 
   2   9   8   28.50    6.30 
  -3  -9  -8    1.70    1.90 
  -3  -9  -8   -2.60    1.50 
   3   9   8   -1.60    1.90 
  -4  -9  -8   31.90    5.90 
   4   9   8   33.30    6.80 
  -5  -9  -8   70.99    8.00 
   5   9   8   76.59    8.60 
  -6  -9  -8    3.30    2.00 
   6   9   8    0.90    2.30 
  -7  -9  -8    7.50    3.00 
   7   9   8    7.00    3.20 
  -8  -9  -8    4.90    3.00 
   8   9   8    3.00    1.80 
  -9  -9  -8   -0.30    2.40 
   9   9   8    3.20    3.10 
 -10  -9  -8   22.10    5.70 
  10   9   8   17.00    5.20 
   0 -10  -8    3.10    2.50 
   0 -10  -8   -6.20    2.60 
  -1 -10  -8   -2.40    1.90 
  -1 -10  -8    2.30    2.50 
  -2 -10  -8    4.40    2.50 
  -2 -10  -8    4.70    2.80 
   2  10   8   13.20    3.60 
  -3 -10  -8   10.20    4.30 
  -3 -10  -8   12.90    3.90 
   3  10   8   23.80    6.00 
  -4 -10  -8    6.80    2.90 
  -4 -10  -8    5.70    2.80 
  -5 -10  -8    5.00    2.90 
   5  10   8    2.40    3.80 
  -6 -10  -8   11.00    3.40 
   6  10   8   11.20    4.20 
  -7 -10  -8   30.50    6.60 
   7  10   8   33.60    7.40 
  -8 -10  -8   17.60    5.20 
   8  10   8   24.40    6.00 
  -9 -10  -8    2.90    2.90 
   9  10   8   10.20    3.50 
  -2 -11  -8    8.10    3.00 
  -2 -11  -8    5.20    3.30 
  -3 -11  -8    1.40    3.10 
  -4 -11  -8    5.80    2.90 
  -4 -11  -8   -0.30    2.80 
   4  11   8    3.90    3.50 
  -5 -11  -8    3.00    3.30 
   5  11   8    0.90    2.00 
  -6 -11  -8    4.80    3.10 
   6  11   8    6.40    3.80 
  -7 -11  -8   28.80    5.90 
   7  11   8   15.30    5.30 
  -8 -11  -8    4.60    2.60 
   8  11   8   20.10    4.80 
   3   5  -9   24.20    7.40 
   2   5  -9   37.70    8.50 
   1   5  -9   -2.80    2.30 
   0   5  -9   18.50    5.80 
  -1   5  -9    6.90    3.00 
   4   4  -9   47.70    9.60 
   3   4  -9   21.30    5.60 
   2   4  -9   25.00    6.60 
   1   4  -9   50.69    9.00 
   0   4  -9   33.70    7.10 
  -1   4  -9   73.59    9.30 
  -2   4  -9   10.40    3.70 
  -3   4  -9   12.00    4.70 
   5   3  -9   -2.80    2.80 
   4   3  -9    4.80    3.40 
   3   3  -9   46.30    8.40 
   2   3  -9   10.60    4.00 
   1   3  -9   40.20    7.70 
   0   3  -9   22.30    4.70 
  -1   3  -9   82.99    9.10 
  -2   3  -9    4.40    3.10 
  -3   3  -9    7.10    3.00 
  -5   3  -9   10.10    3.50 
   5   2  -9   16.60    3.50 
   5   2  -9   23.40    5.40 
   4   2  -9    1.70    2.80 
   4   2  -9    2.40    1.70 
   3   2  -9   10.20    3.70 
   3   2  -9   18.40    2.10 
   3   2  -9   12.80    1.80 
   2   2  -9   64.19    8.20 
   1   2  -9  127.39   11.00 
   0   2  -9  105.79    9.80 
  -1   2  -9   -1.60    1.80 
  -2   2  -9   -1.50    1.60 
  -3   2  -9   21.80    4.80 
   3  -2   9   25.10    2.10 
  -4   2  -9    4.00    2.50 
  -4   2  -9    2.10    1.40 
   4  -2   9   -0.10    1.20 
  -5   2  -9   82.19    8.20 
   5  -2   9   68.09    5.90 
  -6   2  -9    5.80    3.50 
   6  -2   9    6.70    2.80 
   6   1  -9    9.50    3.00 
   6   1  -9    8.60    3.50 
   5   1  -9    1.50    2.50 
   5   1  -9    1.50    2.10 
   4   1  -9    5.10    2.70 
   4   1  -9    9.90    2.60 
   3   1  -9    7.70    3.30 
   3   1  -9   10.80    2.70 
   3   1  -9   11.40    2.30 
   2   1  -9    1.90    0.90 
   2   1  -9   -2.90    1.20 
   2   1  -9    1.20    1.20 
   1   1  -9    4.70    1.00 
   1   1  -9    2.90    2.30 
   0   1  -9   21.90    4.90 
   0   1  -9   22.10    1.50 
  -1   1  -9  409.26   19.60 
  -1   1  -9  375.66   10.10 
  -2   1  -9  166.98    5.80 
  -2   1  -9  168.18   11.80 
   2  -1   9  141.09    6.40 
  -3   1  -9  107.59   11.30 
  -3   1  -9  109.59    5.20 
   3  -1   9   97.39    5.70 
  -4   1  -9   36.50    9.70 
  -4   1  -9   30.30    3.20 
   4  -1   9   31.50    3.60 
  -5   1  -9   -0.60    2.50 
   5  -1   9    1.60    1.80 
  -6   1  -9   12.90    4.60 
   6  -1   9   16.10    3.50 
  -7   1  -9    7.00    4.90 
   7  -1   9    4.40    2.40 
   6   0  -9   -0.30    2.60 
   6   0  -9    4.70    2.70 
   5   0  -9   14.60    4.40 
   5   0  -9   22.10    3.80 
   4   0  -9    9.50    2.70 
   4   0  -9   12.10    3.80 
   3   0  -9   32.00    3.70 
   3   0  -9   24.20    5.40 
   2   0  -9   35.60    6.10 
   2   0  -9   44.50    3.80 
   1   0  -9  119.49    6.00 
   1   0  -9  107.49    6.20 
   1   0  -9  105.19   11.70 
   0   0  -9  451.25   13.90 
   0   0  -9  452.55   20.60 
   0   0  -9  447.96   14.30 
  -1   0  -9   10.50    3.20 
  -1   0  -9    5.80    1.50 
  -1   0  -9    4.90    1.70 
  -2   0  -9   56.09    6.20 
  -2   0  -9   61.69    4.10 
   2   0   9   61.99    4.70 
  -3   0  -9   15.40    2.50 
  -3   0  -9   17.30    4.00 
   3   0   9   11.40    2.60 
  -4   0  -9   -0.50    1.00 
  -4   0  -9    2.50    1.80 
   4   0   9   -3.90    1.60 
  -5   0  -9    3.90    1.90 
   5   0   9    1.70    2.00 
  -6   0  -9   13.20    3.60 
   6   0   9   13.20    3.50 
  -7   0  -9   49.50    6.00 
  -8   0  -9   11.70    3.20 
   8   0   9    3.40    2.90 
   6  -1  -9   -0.60    3.10 
   6  -1  -9   -0.80    2.40 
   5  -1  -9    3.00    3.10 
   5  -1  -9    5.90    2.50 
   4  -1  -9    5.30    2.10 
   4  -1  -9    0.90    2.70 
   3  -1  -9   50.09    5.00 
   3  -1  -9   54.19    6.60 
   2  -1  -9   65.89    5.20 
   2  -1  -9   54.59    6.20 
   1  -1  -9   44.20    4.30 
   1  -1  -9   39.90    6.20 
   1  -1  -9   44.90    4.50 
   0  -1  -9  357.16   12.90 
   0  -1  -9  366.26   13.70 
   0  -1  -9  343.67   16.70 
  -1  -1  -9   65.19    6.40 
  -1  -1  -9   69.09    4.80 
  -1  -1  -9   70.29    4.60 
   1   1   9   57.89    5.20 
  -2  -1  -9  144.89    7.20 
  -2  -1  -9  149.59    9.70 
   2   1   9  120.09    7.70 
  -3  -1  -9  189.08    9.00 
  -3  -1  -9  196.18   11.30 
   3   1   9  194.58   10.00 
  -4  -1  -9   38.20    4.00 
  -4  -1  -9   37.00    4.70 
   4   1   9   42.00    4.50 
  -5  -1  -9   35.50    5.50 
   5   1   9   30.00    4.70 
  -6  -1  -9    4.60    2.50 
   6   1   9    0.70    1.70 
  -7  -1  -9    3.00    2.00 
   7   1   9    1.50    2.30 
  -8  -1  -9   71.89    6.70 
   8   1   9   74.29    7.60 
  -9  -1  -9   -2.20    2.50 
   9   1   9    0.50    2.60 
   5  -2  -9    0.80    1.90 
   5  -2  -9   -5.00    2.00 
   4  -2  -9  111.39    8.30 
   3  -2  -9   46.10    5.20 
   3  -2  -9   39.30    6.00 
   2  -2  -9  250.17   13.90 
   2  -2  -9  257.17   12.10 
   1  -2  -9   58.89    6.30 
   1  -2  -9   82.19    6.00 
   0  -2  -9  462.05   19.50 
   0  -2  -9  492.25   17.30 
   0  -2  -9  514.75   18.60 
  -1  -2  -9  210.78    9.70 
  -1  -2  -9  215.78   11.90 
  -1  -2  -9  224.78   10.50 
   1   2   9  233.38   12.10 
  -2  -2  -9   24.00    4.30 
  -2  -2  -9   26.80    3.30 
   2   2   9   19.40    3.70 
  -3  -2  -9   86.69    6.10 
  -3  -2  -9   91.99    7.30 
   3   2   9   89.29    6.80 
  -4  -2  -9   37.50    4.30 
  -4  -2  -9   30.70    5.00 
   4   2   9   31.00    4.80 
  -5  -2  -9   77.79    6.70 
   5   2   9   85.69    6.90 
  -6  -2  -9  130.49    8.90 
   6   2   9  125.39    9.00 
  -7  -2  -9   14.80    3.50 
   7   2   9    9.60    3.00 
  -8  -2  -9    6.60    2.60 
   8   2   9    4.60    2.90 
  -9  -2  -9    0.70    1.90 
   9   2   9   -2.20    2.50 
   5  -3  -9   -1.10    2.20 
   5  -3  -9    6.20    2.90 
   4  -3  -9    7.30    3.10 
   4  -3  -9   10.10    3.30 
   3  -3  -9   50.09    5.80 
   3  -3  -9   65.09    8.20 
   2  -3  -9  385.06   16.50 
   2  -3  -9  368.06   17.00 
   1  -3  -9    4.40    1.70 
   1  -3  -9    1.60    1.00 
   0  -3  -9   91.49    7.30 
   0  -3  -9   88.29    6.30 
  -1  -3  -9  340.27   15.30 
  -1  -3  -9  348.27   14.00 
   1   3   9  337.77   16.30 
  -2  -3  -9  178.18    9.50 
  -2  -3  -9  183.18   10.50 
   2   3   9  171.18   10.70 
  -3  -3  -9   73.49    6.30 
  -3  -3  -9   72.29    7.30 
   3   3   9   59.79    6.10 
  -4  -3  -9   38.60    4.70 
   4   3   9   34.90    5.40 
  -5  -3  -9  732.13   25.30 
   5   3   9  697.73   25.60 
  -6  -3  -9    4.40    2.10 
   6   3   9    3.80    2.20 
  -7  -3  -9    9.40    2.70 
   7   3   9   14.10    3.40 
  -8  -3  -9   19.20    3.90 
   8   3   9   16.80    4.40 
  -9  -3  -9   -1.10    1.90 
   9   3   9    0.30    2.20 
 -10  -3  -9    2.70    2.60 
   5  -4  -9   36.20    9.50 
   5  -4  -9   35.60    5.60 
   4  -4  -9   11.00    3.30 
   4  -4  -9    9.60    3.50 
   3  -4  -9  255.07   14.00 
   3  -4  -9  258.47   13.50 
   2  -4  -9    8.40    2.60 
   1  -4  -9    3.40    1.80 
   1  -4  -9   -0.50    1.20 
   0  -4  -9    4.60    2.10 
   0  -4  -9    3.60    2.00 
  -1  -4  -9   64.29    5.50 
  -1  -4  -9   52.99    5.40 
   1   4   9   65.09    6.90 
  -2  -4  -9   82.79    6.90 
   2   4   9   83.19    7.80 
  -3  -4  -9  269.97   13.20 
   3   4   9  251.17   13.60 
  -4  -4  -9  507.05   20.10 
   4   4   9  517.55   21.10 
  -5  -4  -9  236.68   12.60 
   5   4   9  226.38   12.90 
  -6  -4  -9  459.45   19.10 
   6   4   9  469.15   20.20 
  -7  -4  -9    9.40    2.70 
   8   4   9    7.10    3.50 
  -9  -4  -9    9.80    2.90 
   9   4   9    1.90    2.80 
 -10  -4  -9   69.19    6.70 
   4  -5  -9   86.59    7.40 
   4  -5  -9   92.69    9.00 
   3  -5  -9   27.70    5.30 
   3  -5  -9   32.00    4.90 
   2  -5  -9   30.70    4.70 
   2  -5  -9   23.90    5.10 
   1  -5  -9   99.69    7.40 
   1  -5  -9   84.59    9.00 
   0  -5  -9    5.20    2.20 
   0  -5  -9    5.50    2.20 
  -1  -5  -9    2.00    1.60 
  -1  -5  -9    5.90    2.20 
   1   5   9    4.30    2.10 
  -2  -5  -9    1.40    1.50 
  -2  -5  -9    1.30    1.30 
   2   5   9    4.30    2.00 
  -3  -5  -9   86.59    7.00 
   3   5   9   70.59    7.30 
  -4  -5  -9   21.50    4.10 
   4   5   9   28.20    5.30 
  -5  -5  -9  840.42   28.90 
   5   5   9  806.22   29.70 
  -6  -5  -9    2.40    1.70 
   6   5   9    0.10    1.70 
   7   5   9   21.30    4.70 
  -8  -5  -9   30.60    5.20 
   8   5   9   21.70    4.60 
  -9  -5  -9    1.70    2.00 
   9   5   9    4.20    2.70 
 -10  -5  -9    5.40    2.40 
  10   5   9   11.90    6.50 
   4  -6  -9    5.00    2.80 
   4  -6  -9    2.90    2.60 
   3  -6  -9    1.40    2.10 
   3  -6  -9    6.70    2.60 
   2  -6  -9   -0.70    1.60 
   2  -6  -9   -0.20    2.00 
   1  -6  -9   17.40    3.30 
   1  -6  -9   17.10    4.00 
   0  -6  -9    3.80    1.70 
   0  -6  -9    3.80    2.00 
  -1  -6  -9   61.79    6.10 
  -1  -6  -9   50.39    5.60 
   1   6   9   76.59    8.30 
  -2  -6  -9    8.10    2.70 
  -2  -6  -9   12.90    3.50 
   2   6   9   11.30    4.10 
  -3  -6  -9    5.30    2.30 
   3   6   9   10.60    3.40 
  -4  -6  -9   17.70    3.90 
   4   6   9   16.00    4.30 
  -5  -6  -9   28.00    5.10 
   5   6   9   45.50    5.90 
  -6  -6  -9  225.08   16.30 
   6   6   9  219.38   21.10 
  -7  -6  -9   23.60    4.70 
   7   6   9   29.60    5.90 
  -8  -6  -9   70.09    7.20 
   8   6   9   49.80    6.60 
  -9  -6  -9   19.00    4.40 
   9   6   9   11.30    4.20 
 -10  -6  -9   17.30    4.60 
   3  -7  -9   13.50    4.60 
   2  -7  -9   -0.40    1.70 
   2  -7  -9    5.10    2.90 
   1  -7  -9   14.60    3.40 
   1  -7  -9   13.60    4.00 
   0  -7  -9   41.40    4.80 
   0  -7  -9   37.80    6.30 
  -1  -7  -9  103.99    8.00 
  -1  -7  -9  104.99    8.60 
   1   7   9  102.29   10.40 
  -2  -7  -9    6.00    2.50 
  -2  -7  -9    7.30    2.70 
   2   7   9    9.60    3.20 
  -3  -7  -9    2.00    1.80 
  -4  -7  -9  119.49   17.90 
  -5  -7  -9    6.50    2.80 
   5   7   9    5.70    2.80 
  -6  -7  -9  146.89   10.90 
   6   7   9  139.29   11.00 
  -7  -7  -9    4.20    2.60 
   7   7   9    0.40    1.80 
  -8  -7  -9    4.20    2.30 
   8   7   9    4.30    2.70 
  -9  -7  -9    5.60    2.90 
   9   7   9    2.80    2.90 
 -10  -7  -9    3.70    2.70 
  10   7   9    4.00    2.80 
   2  -8  -9    5.90    3.30 
   2  -8  -9    6.50    2.80 
   1  -8  -9    3.20    1.70 
   1  -8  -9   -1.80    1.80 
   0  -8  -9   13.30    3.90 
   0  -8  -9   16.30    4.40 
  -1  -8  -9    9.70    3.20 
  -1  -8  -9   14.40    3.80 
   1   8   9   18.80    5.10 
  -2  -8  -9    3.40    2.40 
  -2  -8  -9    3.10    2.20 
   2   8   9   -0.20    2.60 
  -3  -8  -9    3.10    2.50 
  -3  -8  -9    2.20    1.70 
   3   8   9   -0.40    2.00 
  -4  -8  -9   25.30    5.40 
   4   8   9   27.90    6.10 
  -5  -8  -9   73.49    7.60 
   5   8   9   67.19    8.00 
  -6  -8  -9    2.00    2.60 
   6   8   9    1.30    2.60 
  -7  -8  -9    5.40    2.60 
   7   8   9   10.80    3.70 
  -8  -8  -9    5.40    3.30 
   8   8   9    2.30    2.20 
  -9  -8  -9    2.90    2.40 
 -10  -8  -9    3.20    3.10 
  10   8   9    8.10    3.20 
   1  -9  -9    4.40    2.20 
   1  -9  -9    3.80    2.40 
   0  -9  -9   15.50    3.60 
  -1  -9  -9    2.60    2.40 
  -1  -9  -9    6.50    2.90 
  -2  -9  -9    8.30    2.90 
  -2  -9  -9    4.60    2.60 
   2   9   9   15.10    4.80 
  -3  -9  -9    5.70    2.90 
  -3  -9  -9    5.20    2.70 
   3   9   9   -1.20    2.50 
  -4  -9  -9    4.40    2.70 
   4   9   9   10.70    4.10 
  -5  -9  -9    1.30    2.30 
   5   9   9    8.00    3.10 
  -6  -9  -9    2.60    2.40 
   6   9   9    2.80    2.40 
  -7  -9  -9   40.20    6.90 
   7   9   9   28.30    6.60 
  -8  -9  -9    9.60    3.50 
   8   9   9   15.10    4.40 
  -9  -9  -9    2.30    2.60 
   9   9   9   -1.80    4.50 
 -10  -9  -9    5.00    2.80 
  10   9   9    5.70    3.20 
  -1 -10  -9    4.30    2.40 
  -1 -10  -9   -1.20    1.80 
  -2 -10  -9   10.40    3.60 
  -2 -10  -9   10.60    3.80 
   2  10   9   10.40    4.20 
  -3 -10  -9   21.60    5.30 
  -3 -10  -9   15.70    4.00 
   3  10   9    6.20    4.00 
  -4 -10  -9   23.20    5.50 
  -4 -10  -9   27.20    5.50 
   4  10   9   24.00    6.50 
   5  10   9    1.80    2.40 
  -6 -10  -9    4.20    3.10 
   6  10   9    0.30    3.10 
  -7 -10  -9    7.90    3.10 
   7  10   9   12.60    4.30 
  -9 -10  -9   14.30    4.20 
   9  10   9    5.30    3.90 
  -2 -11  -9    1.60    2.80 
  -2 -11  -9    3.80    3.10 
  -3 -11  -9    9.00    3.70 
  -3 -11  -9    4.50    3.30 
   3  11   9    6.10    3.30 
  -4 -11  -9   25.20    5.90 
  -4 -11  -9   14.10    4.40 
   4  11   9   14.20    5.40 
  -5 -11  -9   32.50    6.80 
  -5 -11  -9   34.90    7.60 
   5  11   9   34.80    7.20 
  -6 -11  -9   16.80    5.20 
   6  11   9   18.80    5.50 
  -7 -11  -9    8.20    4.60 
   7  11   9    1.50    3.50 
  -8 -11  -9   16.20    5.40 
   8  11   9    2.10    3.70 
   2   4 -10   10.80    4.90 
   1   4 -10   -0.20    3.10 
   0   4 -10   11.40    4.80 
  -1   4 -10    2.60    3.60 
   3   3 -10   49.00    9.40 
   2   3 -10    9.60    4.70 
   1   3 -10    5.30    3.40 
   0   3 -10   13.40    5.10 
  -1   3 -10    0.50    2.70 
  -2   3 -10    4.80    3.10 
  -3   3 -10    8.20    4.30 
  -4   3 -10   15.20    4.90 
   4   2 -10   42.10    8.20 
   3   2 -10   18.50    5.00 
   2   2 -10   -2.00    2.30 
   1   2 -10    4.00    3.20 
   0   2 -10   62.59    8.10 
  -1   2 -10   21.90    5.00 
  -2   2 -10   11.40    3.70 
  -3   2 -10    4.10    3.10 
  -4   2 -10   37.10    6.90 
  -5   2 -10    0.20    2.40 
   5   1 -10   22.30    4.30 
   4   1 -10   -1.90    1.70 
   4   1 -10    2.20    2.10 
   3   1 -10   14.90    2.50 
   3   1 -10   19.80    5.60 
   2   1 -10    9.00    3.30 
   2   1 -10    9.50    1.90 
   2   1 -10    5.40    1.50 
   1   1 -10   11.20    1.40 
   1   1 -10   16.80    4.40 
   0   1 -10    8.60    3.20 
  -1   1 -10   51.09    8.00 
  -2   1 -10   10.70    1.00 
  -2   1 -10    9.30    3.40 
  -3   1 -10    4.40    1.30 
  -3   1 -10    2.40    1.90 
   3  -1  10    5.20    1.60 
  -4   1 -10   11.40    3.90 
  -4   1 -10    8.60    2.10 
   4  -1  10   17.30    2.80 
  -5   1 -10   42.10    7.10 
   5  -1  10   33.00    4.10 
  -6   1 -10    7.60    3.10 
   6  -1  10    6.20    2.50 
   5   0 -10    5.70    2.60 
   5   0 -10   -5.70    3.20 
   4   0 -10   31.20    6.80 
   4   0 -10   32.40    4.20 
   3   0 -10    9.60    3.70 
   3   0 -10    8.20    2.20 
   2   0 -10    5.50    2.20 
   2   0 -10   10.10    3.30 
   1   0 -10    1.60    1.90 
   1   0 -10   -0.50    0.80 
   1   0 -10    2.70    1.50 
   0   0 -10   16.90    2.40 
   0   0 -10   16.90    4.10 
   0   0 -10   18.20    2.10 
  -1   0 -10    6.50    2.70 
  -1   0 -10    7.50    1.60 
  -1   0 -10    4.40    1.20 
  -2   0 -10   -1.10    1.40 
  -2   0 -10   -0.50    1.10 
  -2   0 -10   -1.80    0.80 
   2   0  10   -0.20    1.20 
  -3   0 -10   26.10    5.40 
  -3   0 -10   25.90    2.90 
   3   0  10   23.80    3.70 
  -4   0 -10    9.30    3.20 
  -4   0 -10    6.80    2.20 
   4   0  10   10.30    2.60 
  -5   0 -10   76.09    7.70 
   5   0  10   71.89    6.20 
  -6   0 -10    2.70    2.50 
   6   0  10    0.90    1.70 
  -7   0 -10   20.70    4.50 
   7   0  10   20.30    4.40 
   5  -1 -10   -0.20    3.00 
   5  -1 -10   -1.90    2.10 
   4  -1 -10   40.30    7.10 
   4  -1 -10   41.50    5.00 
   3  -1 -10   64.09    7.90 
   3  -1 -10   58.09    5.40 
   2  -1 -10   15.70    4.00 
   2  -1 -10   14.70    3.00 
   1  -1 -10    0.90    1.90 
   1  -1 -10   -0.10    1.10 
   1  -1 -10    3.20    2.40 
   0  -1 -10   -1.20    1.20 
   0  -1 -10    0.50    1.60 
   0  -1 -10    1.10    2.40 
  -1  -1 -10    3.50    2.30 
  -1  -1 -10    1.30    1.40 
  -1  -1 -10    2.70    1.30 
  -2  -1 -10  156.88   11.10 
  -2  -1 -10  198.08    8.70 
  -2  -1 -10  174.88    8.30 
   2   1  10  180.88    9.80 
  -3  -1 -10   -0.40    1.20 
  -3  -1 -10    3.40    1.80 
   3   1  10    1.00    2.30 
  -4  -1 -10   61.29    6.60 
  -4  -1 -10   72.39    5.60 
   4   1  10   64.19    5.90 
  -5  -1 -10   -0.40    1.70 
   5   1  10   -0.10    1.70 
  -6  -1 -10    5.20    2.20 
   6   1  10    1.80    1.70 
  -7  -1 -10    6.20    2.80 
   7   1  10    5.20    2.70 
  -8  -1 -10   79.29    7.80 
   8   1  10   71.59    7.80 
   5  -2 -10    1.20    2.40 
   5  -2 -10    3.90    2.80 
   4  -2 -10    3.80    3.10 
   4  -2 -10   -2.70    1.70 
   3  -2 -10   10.90    3.70 
   3  -2 -10    9.90    3.00 
   2  -2 -10    1.30    1.40 
   2  -2 -10    1.70    1.90 
   1  -2 -10  152.18   11.00 
   1  -2 -10  163.28    9.00 
   0  -2 -10    4.00    2.30 
   0  -2 -10    2.00    1.40 
  -1  -2 -10   61.49    5.10 
  -1  -2 -10   64.49    5.30 
  -1  -2 -10   69.39    7.00 
   1   2  10   71.09    6.60 
  -2  -2 -10  143.59    7.80 
  -2  -2 -10  119.59    7.50 
  -2  -2 -10  105.19   11.10 
   2   2  10  141.39    9.20 
  -3  -2 -10    0.40    1.60 
  -3  -2 -10    1.70    1.80 
   3   2  10   -2.10    1.50 
  -4  -2 -10    8.50    2.90 
   4   2  10    0.00    1.90 
  -5  -2 -10   18.40    4.10 
   5   2  10   23.50    4.50 
  -6  -2 -10   36.70    5.80 
   6   2  10   44.40    5.40 
  -7  -2 -10   11.60    3.20 
   7   2  10    3.80    2.70 
  -8  -2 -10   -0.50    1.90 
   8   2  10   -1.40    2.00 
  -9  -2 -10   21.80    4.60 
   9   2  10   34.50    6.20 
   4  -3 -10    2.80    2.50 
   4  -3 -10   -2.40    2.50 
   3  -3 -10   47.00    7.10 
   3  -3 -10   48.40    5.80 
   2  -3 -10   23.10    4.60 
   2  -3 -10   18.40    3.90 
   1  -3 -10   10.10    3.20 
   1  -3 -10   16.30    3.40 
   0  -3 -10  374.06   15.40 
  -1  -3 -10  149.09    8.70 
  -1  -3 -10  138.49   11.70 
   1   3  10  133.59   10.10 
  -2  -3 -10  288.17   12.80 
  -2  -3 -10  280.07   15.40 
   2   3  10  290.97   14.90 
  -3  -3 -10   60.09    6.50 
   3   3  10   51.49    5.80 
   4   3  10    2.30    2.20 
  -5  -3 -10    1.30    1.70 
   5   3  10    2.90    1.90 
  -6  -3 -10   51.69    5.70 
   6   3  10   53.89    6.20 
  -7  -3 -10   86.19    7.70 
   7   3  10   96.59    8.40 
  -8  -3 -10    4.10    1.80 
   8   3  10    4.80    2.80 
  -9  -3 -10    1.10    2.20 
   9   3  10    1.10    2.70 
   4  -4 -10    6.40    2.70 
   4  -4 -10    8.60    3.00 
   3  -4 -10   18.90    4.40 
   3  -4 -10   17.90    4.30 
   2  -4 -10   24.50    4.80 
   2  -4 -10   29.60    5.10 
   1  -4 -10   42.20    5.00 
   1  -4 -10   41.80    7.50 
   0  -4 -10  156.98    9.80 
   0  -4 -10  147.89   14.90 
  -1  -4 -10  138.79   10.00 
  -1  -4 -10  140.99    8.90 
   1   4  10  137.89   10.60 
  -2  -4 -10    1.70    1.70 
  -2  -4 -10    1.20    1.40 
   2   4  10    3.40    2.60 
  -3  -4 -10   97.69    8.30 
   3   4  10   97.49    8.50 
   4   4  10   -0.20    1.50 
  -5  -4 -10   19.60    4.10 
   5   4  10   10.60    3.20 
  -6  -4 -10   12.20    3.20 
   6   4  10   13.00    3.90 
  -7  -4 -10    2.20    1.90 
   7   4  10    3.40    2.30 
  -8  -4 -10   56.49    6.30 
   8   4  10   55.09    7.20 
  -9  -4 -10   47.10    5.70 
   9   4  10   58.69    7.20 
   3  -5 -10    0.00    2.60 
   3  -5 -10    0.20    2.30 
   2  -5 -10   11.90    3.30 
   2  -5 -10    6.00    2.60 
   1  -5 -10    1.60    1.90 
   1  -5 -10    5.50    1.90 
   0  -5 -10   -3.00    2.20 
  -1  -5 -10   42.00    5.20 
  -1  -5 -10   49.40   10.00 
   1   5  10   47.90    7.70 
  -2  -5 -10   69.19    6.60 
  -2  -5 -10   76.89   13.00 
   2   5  10   83.89    8.60 
  -3  -5 -10    0.20    1.90 
   3   5  10    2.90    2.40 
  -4  -5 -10   39.80    4.90 
   4   5  10   28.70    5.40 
  -5  -5 -10  298.97   15.10 
   5   5  10  274.17   15.80 
  -6  -5 -10   18.70    4.00 
  -7  -5 -10   97.19    8.20 
   7   5  10   99.79    9.40 
  -8  -5 -10   18.30    4.00 
   8   5  10   15.30    4.10 
  -9  -5 -10    3.10    2.50 
   9   5  10   -0.20    2.40 
 -10  -5 -10    0.80    2.50 
  10   5  10   -0.60    2.70 
   3  -6 -10   49.00    5.90 
   3  -6 -10   70.59    7.50 
   2  -6 -10   14.50    3.60 
   2  -6 -10    8.00    3.40 
   1  -6 -10   26.60    4.60 
   1  -6 -10   43.00    5.50 
   0  -6 -10    2.60    1.50 
   0  -6 -10    2.50    1.80 
  -1  -6 -10   94.79    7.70 
  -1  -6 -10   85.29    7.90 
   1   6  10   87.99    9.30 
  -2  -6 -10    0.50    0.80 
  -2  -6 -10    1.50    2.80 
  -3  -6 -10   11.00    3.10 
   3   6  10    6.30    3.40 
  -4  -6 -10  283.67   14.60 
   4   6  10  244.08   15.40 
  -5  -6 -10  328.17   16.30 
   5   6  10  313.57   21.40 
  -6  -6 -10   58.89    6.60 
   6   6  10   78.69    8.10 
  -7  -6 -10    6.50    2.80 
   7   6  10    3.10    2.90 
  -8  -6 -10   45.00    5.60 
   8   6  10   36.40    6.70 
  -9  -6 -10    4.40    2.40 
   9   6  10    5.60    3.00 
 -10  -6 -10   22.70    4.90 
  10   6  10   23.70    6.00 
   2  -7 -10    0.50    1.60 
   2  -7 -10    1.20    2.20 
   1  -7 -10    1.20    2.20 
   1  -7 -10    2.20    1.90 
   0  -7 -10    8.00    3.50 
  -1  -7 -10   -1.10    1.20 
  -1  -7 -10    2.70    2.10 
   1   7  10    1.70    2.80 
  -2  -7 -10   12.20    3.20 
  -2  -7 -10   15.60    3.90 
   2   7  10    1.90    3.50 
  -3  -7 -10   23.60    4.50 
  -3  -7 -10   18.00    4.10 
   3   7  10   13.70    4.00 
  -4  -7 -10  134.69   10.20 
   4   7  10  134.09   11.20 
  -5  -7 -10  163.78   11.40 
   5   7  10  167.08   12.60 
  -6  -7 -10   20.60    4.80 
   6   7  10   21.70    4.60 
  -7  -7 -10    3.80    2.80 
   7   7  10    1.30    2.10 
  -8  -7 -10    5.10    3.30 
   8   7  10    9.10    3.60 
  -9  -7 -10   12.20    3.60 
   9   7  10   22.10    5.10 
 -10  -7 -10    5.80    2.90 
  10   7  10    8.00    3.70 
   1  -8 -10   -3.80    1.80 
   1  -8 -10    0.10    1.90 
   0  -8 -10   55.79    6.40 
   0  -8 -10   59.89    7.40 
  -1  -8 -10    1.50    1.60 
  -1  -8 -10    2.50    2.20 
  -2  -8 -10    2.90    1.90 
   2   8  10    0.70    2.20 
  -3  -8 -10   27.60    5.50 
  -3  -8 -10   35.10    6.20 
   3   8  10   36.30    7.60 
  -4  -8 -10   22.70    4.90 
   4   8  10   23.40    5.40 
  -5  -8 -10   14.30    3.90 
   5   8  10   12.20    4.60 
  -6  -8 -10   65.99    7.50 
   6   8  10   56.09    7.40 
  -7  -8 -10    0.20    2.20 
   7   8  10    1.70    2.20 
  -8  -8 -10    8.60    3.20 
   8   8  10   11.00    3.70 
  -9  -8 -10   11.10    3.70 
 -10  -8 -10   -3.70    2.30 
  10   8  10   -2.80    2.10 
   0  -9 -10    3.00    2.20 
   0  -9 -10    2.80    2.70 
  -1  -9 -10   48.90    9.10 
  -1  -9 -10   43.70    5.60 
  -2  -9 -10   -1.60    2.90 
  -2  -9 -10    5.20    3.30 
   2   9  10    9.10    3.80 
  -3  -9 -10    6.90    2.90 
  -3  -9 -10    7.70    3.20 
   3   9  10    9.00    3.50 
  -4  -9 -10   35.80    6.30 
   4   9  10   34.70    7.10 
  -5  -9 -10   20.00    5.20 
   5   9  10   25.80    5.90 
  -6  -9 -10   20.70    5.00 
   6   9  10   17.40    5.00 
  -7  -9 -10    7.40    3.30 
   7   9  10    4.30    2.90 
  -8  -9 -10    7.60    3.70 
   8   9  10   17.90    5.20 
  -9  -9 -10   -6.40    2.20 
   9   9  10   -1.90    2.40 
  -1 -10 -10    0.20    2.70 
  -1 -10 -10    0.90    3.00 
  -2 -10 -10    7.10    3.50 
  -2 -10 -10    3.60    3.10 
   2  10  10    8.80    4.90 
  -3 -10 -10   -0.60    2.30 
   3  10  10    5.00    6.00 
  -4 -10 -10   -3.30    1.90 
  -4 -10 -10   -0.50    2.10 
   4  10  10   -0.80    2.50 
   5  10  10   10.30    3.70 
  -6 -10 -10   38.50    7.40 
   6  10  10   39.40    7.70 
  -7 -10 -10   -0.10    4.60 
  -8 -10 -10    2.70    3.30 
   8  10  10   -5.20    3.00 
  -9 -10 -10   -2.00    2.30 
   9  10  10   -2.70    1.80 
  -4 -11 -10    1.50    2.50 
  -4 -11 -10    3.10    3.30 
   4  11  10   10.00    4.70 
  -5 -11 -10    7.70    3.60 
  -5 -11 -10    8.80    3.70 
   5  11  10    9.80    4.60 
  -6 -11 -10   46.50    8.60 
   6  11  10   44.40    8.60 
  -7 -11 -10    4.50    3.20 
   7  11  10   -2.20    3.60 
   0   3 -11    7.10    3.00 
  -1   3 -11   -2.50    3.40 
   2   2 -11    8.10    4.20 
   1   2 -11  104.59   11.30 
   0   2 -11    5.70    3.70 
  -1   2 -11    9.50    6.00 
  -2   2 -11    6.60    3.40 
  -3   2 -11   25.50    5.90 
  -4   2 -11    1.30    2.80 
   3   1 -11    8.10    4.10 
   2   1 -11   81.79   17.50 
   1   1 -11   -4.40    2.90 
   0   1 -11   15.30    4.60 
  -1   1 -11    3.40    2.60 
  -2   1 -11   -2.90    1.60 
  -3   1 -11   43.00    7.50 
  -4   1 -11   52.89    8.30 
  -5   1 -11    8.90    3.20 
   3   0 -11    2.70    2.10 
   3   0 -11   -2.40    3.00 
   2   0 -11   24.40    5.80 
   2   0 -11   24.90    3.60 
   1   0 -11    4.50    2.90 
   1   0 -11    1.60    1.10 
   1   0 -11    6.20    2.30 
   0   0 -11    6.70    3.00 
   0   0 -11    4.10    1.60 
   0   0 -11    4.20    1.30 
  -1   0 -11    7.50    1.50 
  -1   0 -11    5.60    2.80 
  -1   0 -11    7.30    1.90 
  -2   0 -11    2.30    1.00 
  -2   0 -11    1.70    1.70 
  -2   0 -11    3.00    1.40 
  -3   0 -11    2.60    1.50 
  -3   0 -11   -0.40    2.00 
  -3   0 -11    4.20    1.40 
   3   0  11    4.20    1.90 
  -4   0 -11    7.20    3.60 
  -4   0 -11    2.30    2.20 
   4   0  11   10.10    2.90 
  -5   0 -11    1.10    2.40 
   5   0  11    3.50    2.00 
  -6   0 -11   30.50    6.20 
   6   0  11   31.20    5.00 
   4  -1 -11   -2.80    3.20 
   4  -1 -11   -0.80    2.40 
   3  -1 -11    0.60    1.80 
   3  -1 -11    0.10    2.90 
   2  -1 -11    4.10    2.50 
   2  -1 -11    0.30    1.40 
   1  -1 -11   45.90    7.30 
   1  -1 -11   39.80    4.10 
   0  -1 -11    9.30    2.20 
   0  -1 -11   10.00    3.10 
   0  -1 -11   13.30    2.70 
  -1  -1 -11   21.50    2.80 
  -1  -1 -11   27.80    5.60 
  -2  -1 -11    8.40    3.10 
  -2  -1 -11    8.20    2.00 
  -3  -1 -11   46.70    6.00 
  -3  -1 -11   35.40    4.20 
   3   1  11   39.20    5.00 
  -4  -1 -11    0.40    2.30 
  -4  -1 -11   -0.70    2.00 
   4   1  11    2.00    2.20 
  -5  -1 -11   25.50    5.50 
   5   1  11   22.70    4.30 
  -6  -1 -11    3.90    2.30 
   6   1  11    2.00    1.70 
  -7  -1 -11    6.50    3.20 
   7   1  11    4.90    3.10 
   4  -2 -11   22.70    4.30 
   4  -2 -11   15.40    4.80 
   3  -2 -11    0.90    2.20 
   3  -2 -11    0.50    2.50 
   2  -2 -11   13.50    3.30 
   2  -2 -11    5.10    3.60 
   1  -2 -11    7.00    2.40 
   1  -2 -11   15.00    4.00 
   0  -2 -11    0.40    1.40 
   0  -2 -11    1.20    1.60 
  -1  -2 -11   21.20    3.30 
  -1  -2 -11   22.00    4.90 
  -2  -2 -11    5.60    2.50 
  -2  -2 -11    8.00    2.20 
   2   2  11    5.70    2.70 
  -3  -2 -11   28.30    5.30 
   3   2  11   21.00    4.20 
  -4  -2 -11    3.60    2.20 
   4   2  11    1.20    2.10 
  -5  -2 -11   14.90    3.80 
   5   2  11   15.60    3.50 
  -6  -2 -11   11.20    3.00 
   6   2  11   12.30    3.30 
  -7  -2 -11   41.70    6.60 
   7   2  11   47.80    6.10 
  -8  -2 -11   20.50    4.60 
   8   2  11   13.40    4.00 
   3  -3 -11    8.30    3.10 
   3  -3 -11   -2.00    2.80 
   2  -3 -11   -0.40    1.90 
   2  -3 -11    2.40    2.20 
   1  -3 -11   38.30    6.30 
   1  -3 -11   39.40    5.00 
   0  -3 -11   78.39    6.30 
   0  -3 -11   92.99    8.30 
  -1  -3 -11   21.20    3.80 
  -1  -3 -11   22.70    4.50 
   1   3  11   20.50    4.60 
  -2  -3 -11    3.20    2.10 
  -2  -3 -11    5.20    2.10 
   2   3  11   -1.70    1.80 
  -3  -3 -11   10.50    3.10 
   3   3  11   17.00    3.90 
  -4  -3 -11   83.49    7.90 
   4   3  11   90.19    7.80 
  -5  -3 -11   -0.60    1.60 
   5   3  11    3.60    2.20 
  -6  -3 -11    6.90    2.40 
   6   3  11    8.20    3.20 
  -7  -3 -11   25.70    5.00 
   7   3  11   29.30    5.80 
  -8  -3 -11   36.60    5.90 
   8   3  11   34.80    6.20 
   3  -4 -11    6.30    3.10 
   3  -4 -11   -0.40    2.30 
   2  -4 -11   44.50    5.50 
   2  -4 -11   40.00    6.40 
   1  -4 -11   30.20    4.90 
   1  -4 -11   24.60    5.00 
   0  -4 -11    4.40    2.50 
   0  -4 -11    9.30    3.30 
  -1  -4 -11   60.49    6.70 
  -1  -4 -11   63.69    6.00 
   1   4  11   60.29    7.30 
  -2  -4 -11   30.60    4.80 
  -2  -4 -11   27.50    5.10 
   2   4  11   22.60    5.30 
  -3  -4 -11   16.90    3.70 
   3   4  11   11.40    3.90 
  -4  -4 -11    1.00    1.70 
   4   4  11   10.90    3.40 
  -5  -4 -11   53.89    6.20 
   5   4  11   57.19    6.70 
  -6  -4 -11    0.40    1.80 
   6   4  11    2.90    2.30 
  -7  -4 -11   11.00    3.60 
   7   4  11    5.70    3.40 
  -8  -4 -11    0.30    1.90 
   8   4  11   -1.70    1.80 
  -9  -4 -11    2.10    2.30 
   9   4  11   -0.10    2.50 
   3  -5 -11   19.60    4.50 
   2  -5 -11   28.70    5.20 
   2  -5 -11   26.60    5.00 
   1  -5 -11   52.99    6.20 
   1  -5 -11   51.09    7.40 
   0  -5 -11   73.49    7.40 
   0  -5 -11   79.19    7.30 
  -1  -5 -11   42.70    6.40 
  -1  -5 -11   32.50    6.80 
   1   5  11   57.69    7.50 
  -2  -5 -11   68.49    6.40 
  -2  -5 -11   69.69    6.90 
   2   5  11   58.09    7.10 
  -3  -5 -11   81.69    7.40 
   3   5  11   67.59    7.60 
  -4  -5 -11   19.10    4.20 
   4   5  11   16.50    4.40 
  -5  -5 -11   17.20    3.80 
   5   5  11   14.40    5.90 
  -6  -5 -11   23.00    4.90 
   6   5  11   35.40    6.10 
  -7  -5 -11   18.50    4.40 
   7   5  11   13.70    4.20 
  -8  -5 -11   25.10    4.80 
   8   5  11   23.30    5.60 
   9   5  11   -2.10    2.10 
   2  -6 -11   11.20    3.60 
   2  -6 -11    9.80    3.20 
   1  -6 -11   13.60    3.90 
   1  -6 -11   12.20    3.90 
   0  -6 -11   25.80    5.00 
   0  -6 -11   34.80    5.80 
  -1  -6 -11   28.60    5.10 
  -1  -6 -11   26.60    4.80 
   1   6  11   19.80    5.60 
  -2  -6 -11   11.90    3.50 
  -2  -6 -11    6.90    2.90 
   2   6  11   13.70    4.40 
  -3  -6 -11   70.99    6.90 
  -3  -6 -11   69.79    6.90 
   3   6  11   78.89    8.40 
  -4  -6 -11   21.20    4.50 
   4   6  11   19.00    4.70 
  -5  -6 -11   -2.00    1.30 
   5   6  11    0.30    2.70 
  -6  -6 -11   18.10    4.00 
   6   6  11   15.80    3.80 
  -7  -6 -11   -2.40    1.50 
   7   6  11    3.10    2.30 
  -8  -6 -11   -0.50    2.00 
   8   6  11   -0.80    2.20 
  -9  -6 -11   11.40    3.50 
   9   6  11    5.80    3.20 
   1  -7 -11    3.20    3.10 
   1  -7 -11    0.10    3.60 
   0  -7 -11   17.90    4.50 
   0  -7 -11   17.10    4.10 
  -1  -7 -11    1.90    1.90 
  -1  -7 -11    3.10    2.40 
  -2  -7 -11   54.79    6.60 
  -2  -7 -11   49.00    5.70 
   2   7  11   46.60    8.50 
  -3  -7 -11   -1.00    1.50 
  -3  -7 -11   -0.10    1.70 
   3   7  11   -3.30    1.80 
  -4  -7 -11   21.80    4.50 
   4   7  11   16.50    4.70 
  -5  -7 -11   80.29    7.90 
   5   7  11   76.59    8.80 
   6   7  11    0.40    2.60 
  -7  -7 -11    5.00    2.70 
   7   7  11    8.20    3.20 
  -8  -7 -11   -0.10    2.00 
   8   7  11   -0.20    1.80 
  -9  -7 -11    5.20    3.20 
   9   7  11    6.40    3.50 
   0  -8 -11    5.10    2.50 
   0  -8 -11    2.80    2.70 
  -1  -8 -11   22.70    4.50 
  -1  -8 -11   11.50    3.90 
  -2  -8 -11    0.60    2.10 
   2   8  11    0.00    2.90 
  -3  -8 -11   -3.20    1.50 
  -3  -8 -11    0.40    1.60 
   3   8  11    6.50    2.70 
  -4  -8 -11    4.80    2.60 
   4   8  11   -0.40    3.00 
  -5  -8 -11   84.99    8.50 
   5   8  11   81.39    9.00 
  -6  -8 -11    0.50    2.50 
   6   8  11   -2.40    2.60 
  -7  -8 -11    0.00    1.80 
   7   8  11    1.60    2.40 
  -8  -8 -11   35.20    6.30 
   8   8  11   36.40    7.30 
  -9  -8 -11    4.40    2.80 
   9   8  11    3.10    2.90 
  -1  -9 -11   22.10    5.00 
  -1  -9 -11   22.60    5.40 
  -2  -9 -11   28.80    5.20 
   2   9  11   23.20   11.20 
  -3  -9 -11    1.90    2.30 
  -3  -9 -11    1.20    2.10 
   3   9  11    0.70    2.30 
  -4  -9 -11   79.19    8.70 
  -4  -9 -11   77.79    8.50 
   4   9  11   71.09    9.40 
  -5  -9 -11   -4.20    1.50 
   5   9  11    1.10    2.20 
  -6  -9 -11   -2.00    2.00 
   6   9  11    3.10    3.00 
  -7  -9 -11   -0.40    2.50 
   7   9  11   -2.00    2.30 
  -8  -9 -11   11.30    4.40 
   8   9  11   11.20    4.80 
  -9  -9 -11    2.00    3.30 
   9   9  11    5.70    3.00 
  -2 -10 -11   14.70    4.60 
  -2 -10 -11   13.10    4.10 
  -3 -10 -11    2.20    2.30 
  -3 -10 -11   -0.60    2.60 
   3  10  11    1.10    2.90 
  -4 -10 -11    4.60    2.90 
  -4 -10 -11    8.00    3.80 
   4  10  11    4.70    3.90 
  -5 -10 -11   29.70    7.90 
   5  10  11   26.70    6.30 
  -6 -10 -11   12.20    4.70 
   6  10  11   19.90    5.30 
  -7 -10 -11   56.99    9.10 
   7  10  11   42.80    8.30 
  -8 -10 -11   -4.30    2.90 
   8  10  11    0.80    2.40 
   1   1 -12    4.50    3.90 
   0   1 -12    6.70    3.90 
  -1   1 -12   14.50    5.10 
  -2   1 -12   49.40    8.00 
  -3   1 -12   16.00    4.90 
   2   0 -12   13.10    5.20 
   1   0 -12   18.70    5.40 
   0   0 -12   23.60    5.90 
  -1   0 -12    8.80    6.00 
  -2   0 -12   17.50    2.20 
  -2   0 -12   21.40    5.40 
  -3   0 -12   23.80    2.70 
  -3   0 -12   17.50    4.80 
  -4   0 -12    2.90    2.80 
  -5   0 -12   -3.70    3.60 
   2  -1 -12   11.70    4.60 
   2  -1 -12    5.10    2.70 
   1  -1 -12   -0.40    3.30 
   1  -1 -12    3.70    1.70 
   0  -1 -12    1.90    1.70 
   0  -1 -12   -2.30    1.20 
  -1  -1 -12    9.60    3.60 
  -2  -1 -12    1.20    2.40 
  -3  -1 -12   -2.60    2.10 
  -3  -1 -12    3.00    1.50 
   3   1  12    1.80    2.10 
  -4  -1 -12   -0.40    1.40 
   4   1  12   -1.70    2.10 
  -5  -1 -12    2.40    2.90 
   5   1  12    4.80    2.70 
  -6  -1 -12   18.10    5.60 
   6   1  12   34.40    5.80 
   2  -2 -12   29.60    4.80 
   2  -2 -12   26.20    5.80 
   1  -2 -12   17.50    4.50 
   1  -2 -12   12.30    2.90 
   0  -2 -12    3.90    2.70 
   0  -2 -12    1.10    1.50 
  -1  -2 -12   15.00    4.10 
  -2  -2 -12   13.30    3.90 
  -2  -2 -12    6.10    2.20 
   2   2  12    7.00    2.80 
  -3  -2 -12   -1.70    1.90 
  -3  -2 -12    3.60    1.60 
   3   2  12    3.40    2.50 
  -4  -2 -12    6.20    2.40 
   4   2  12    5.70    2.50 
  -5  -2 -12   53.19    6.70 
   5   2  12   58.49    6.40 
  -6  -2 -12    3.40    2.60 
   6   2  12    3.00    2.70 
  -7  -2 -12    3.20    3.30 
   7   2  12   -2.00    2.60 
   2  -3 -12    0.60    2.30 
   2  -3 -12    1.90    2.40 
   1  -3 -12    6.60    3.00 
   1  -3 -12    4.50    3.60 
   0  -3 -12   42.30    4.80 
   0  -3 -12   35.10    6.40 
  -1  -3 -12    7.90    3.30 
  -1  -3 -12    0.00    1.80 
  -2  -3 -12   24.40    4.10 
  -2  -3 -12   24.00    4.80 
   2   3  12   18.70    4.50 
  -3  -3 -12   25.20    4.40 
  -3  -3 -12   23.00    4.80 
   3   3  12   21.20    4.90 
  -4  -3 -12   -1.70    1.30 
   4   3  12    5.10    2.90 
  -5  -3 -12   17.60    4.30 
   5   3  12   15.90    4.20 
  -6  -3 -12    2.20    2.40 
   6   3  12    6.10    3.10 
  -7  -3 -12    5.10    1.90 
   7   3  12    0.90    2.40 
   2  -4 -12   -0.90    2.30 
   2  -4 -12   -1.30    1.80 
   1  -4 -12    3.40    2.30 
   1  -4 -12    7.20    3.10 
   0  -4 -12   18.20    3.90 
   0  -4 -12   10.00    3.20 
  -1  -4 -12    0.80    1.80 
  -1  -4 -12    0.70    1.80 
  -2  -4 -12   -2.40    1.20 
  -2  -4 -12   -2.00    0.90 
   2   4  12   -4.00    2.00 
  -3  -4 -12   21.00    4.10 
  -3  -4 -12   25.20    5.20 
   3   4  12   20.00    5.20 
  -4  -4 -12    4.10    2.20 
   4   4  12    6.60    3.00 
  -5  -4 -12   15.40    4.30 
   5   4  12   21.10    7.80 
  -6  -4 -12    1.00    2.00 
   6   4  12    1.70    2.30 
  -7  -4 -12   15.70    4.30 
   7   4  12    9.00    3.80 
  -8  -4 -12    5.70    3.30 
   8   4  12    6.80    3.80 
   2  -5 -12    8.40    3.40 
   1  -5 -12    2.60    2.40 
   1  -5 -12    0.20    2.30 
   0  -5 -12    3.70    2.60 
   0  -5 -12    0.20    2.10 
  -1  -5 -12    1.60    1.90 
  -1  -5 -12   -1.20    1.70 
  -2  -5 -12   19.80    4.60 
   2   5  12   19.00    5.20 
  -3  -5 -12   38.80    6.30 
  -3  -5 -12   45.50    5.60 
   3   5  12   33.40    7.00 
  -4  -5 -12    4.90    2.20 
   4   5  12   -1.00    2.70 
  -5  -5 -12    4.60    2.80 
   5   5  12    2.30    2.60 
  -6  -5 -12    3.40    2.00 
   6   5  12    8.80    3.00 
  -7  -5 -12   17.50    3.90 
   7   5  12   13.90    4.20 
  -8  -5 -12    1.60    2.50 
   8   5  12    1.10    3.30 
   1  -6 -12   -2.10    2.10 
   1  -6 -12    1.10    2.50 
   0  -6 -12    1.80    1.70 
   0  -6 -12   -2.80    1.50 
  -1  -6 -12    5.80    2.40 
  -1  -6 -12    1.90    1.70 
  -2  -6 -12   -1.90    2.10 
  -2  -6 -12   -1.80    1.30 
   2   6  12    4.70    2.60 
  -3  -6 -12    7.70    2.80 
  -3  -6 -12    5.80    2.40 
   3   6  12    4.20    2.90 
  -4  -6 -12   -1.90    1.80 
   4   6  12    6.30    3.00 
  -5  -6 -12   20.80    4.90 
   5   6  12   33.00    6.20 
  -6  -6 -12   14.40    3.90 
   6   6  12   22.50    5.40 
  -7  -6 -12   40.00    6.40 
   7   6  12   31.20    6.30 
  -8  -6 -12   37.70    6.70 
   8   6  12   45.60    7.80 
   0  -7 -12   -0.50    2.70 
   0  -7 -12    1.40    2.10 
  -1  -7 -12   20.80    5.20 
  -1  -7 -12   27.40    5.20 
  -2  -7 -12    4.70    2.30 
  -2  -7 -12    2.90    2.50 
   2   7  12    3.60    2.60 
  -3  -7 -12   -0.30    1.80 
  -3  -7 -12   -1.10    1.40 
   3   7  12    0.80    2.70 
  -4  -7 -12    1.50    2.30 
   4   7  12    8.90    3.80 
  -5  -7 -12   93.59    9.20 
   5   7  12   92.89    9.90 
  -6  -7 -12    3.20    1.90 
   6   7  12   -1.10    2.30 
  -7  -7 -12    0.10    2.10 
   7   7  12   -1.30    2.40 
  -8  -7 -12   24.20    6.20 
   8   7  12   30.40    6.30 
  -1  -8 -12   -1.70    1.70 
  -1  -8 -12    3.80    2.20 
  -2  -8 -12    5.10    3.30 
  -2  -8 -12   13.40    3.90 
   2   8  12   14.20    4.90 
  -3  -8 -12   17.90    4.70 
  -3  -8 -12   27.90    5.20 
   3   8  12   19.20    5.20 
  -4  -8 -12   88.39    8.40 
  -4  -8 -12   64.19    7.40 
   4   8  12   53.59   10.00 
  -5  -8 -12   14.00    3.90 
   5   8  12    9.80    4.60 
  -6  -8 -12   37.90    6.60 
   6   8  12   25.70    6.60 
  -7  -8 -12    0.20    2.10 
   7   8  12    0.30    3.20 
  -8  -8 -12   34.80    6.40 
   8   8  12   40.20    7.70 
  -2  -9 -12   16.40    7.00 
  -2  -9 -12    7.10    3.20 
   2   9  12   10.00    5.30 
  -3  -9 -12   31.30    6.30 
   3   9  12   19.80    6.00 
  -4  -9 -12   23.00    6.40 
   4   9  12   23.00    6.90 
  -5  -9 -12    7.90    4.20 
   5   9  12   20.00    8.20 
  -6  -9 -12    2.20    2.10 
   6   9  12   -1.10    2.40 
  -7  -9 -12   -0.90    2.50 
   7   9  12    5.40    3.70 
  -8  -9 -12    1.40    2.70 
   8   9  12   -6.00    2.30 
  -5 -10 -12   36.40    7.40 
  -5 -10 -12   38.50    6.90 
   5  10  12   42.70    8.70 
  -6 -10 -12    4.60    2.60 
   6  10  12   -1.50    2.90 
   0  -1 -13    4.60    3.10 
  -1  -1 -13   16.20    5.00 
  -2  -1 -13   10.40    4.50 
  -3  -1 -13   13.60    4.00 
  -4  -1 -13   58.49    7.50 
   0  -2 -13    0.70    2.60 
   0  -2 -13    3.10    2.10 
  -1  -2 -13   -1.90    1.50 
  -1  -2 -13    1.50    2.80 
  -2  -2 -13    8.70    2.50 
  -2  -2 -13    5.30    3.50 
  -3  -2 -13    8.80    2.50 
  -3  -2 -13    9.60    3.70 
   3   2  13   11.60    3.60 
  -4  -2 -13    1.80    2.10 
   4   2  13    2.60    2.30 
  -5  -2 -13   17.20    4.50 
   1  -3 -13    6.80    2.50 
   0  -3 -13    1.50    2.30 
   0  -3 -13   -0.70    2.40 
  -1  -3 -13   -0.30    2.30 
  -1  -3 -13   -3.60    1.50 
  -2  -3 -13   21.40    4.00 
   2   3  13   33.60    5.60 
  -3  -3 -13    9.10    2.80 
  -3  -3 -13    6.00    5.80 
   3   3  13   19.10    4.60 
  -4  -3 -13    5.10    4.50 
   4   3  13   -5.60    2.40 
  -5  -3 -13    5.70    4.00 
  -6  -3 -13    7.20    3.60 
   6   3  13   13.40    4.30 
   0  -4 -13    1.10    2.10 
   0  -4 -13    1.30    2.20 
  -1  -4 -13    4.70    2.30 
  -1  -4 -13    1.80    2.90 
  -2  -4 -13    8.00    2.80 
  -2  -4 -13    3.50    2.00 
   2   4  13    3.00    3.00 
  -3  -4 -13    6.80    3.00 
  -3  -4 -13    4.40    2.20 
   3   4  13   -0.80    2.60 
  -4  -4 -13    9.10    3.50 
   4   4  13   18.60    4.70 
  -5  -4 -13   11.70    4.70 
   5   4  13   32.50    6.40 
  -6  -4 -13   38.20    6.80 
   6   4  13   32.30    6.20 
  -7  -4 -13   -3.50    2.30 
   7   4  13    3.00    3.10 
   0  -5 -13    6.30    3.90 
   0  -5 -13    5.00    2.90 
  -1  -5 -13   -3.90    1.80 
  -1  -5 -13   -1.60    1.90 
  -2  -5 -13   80.49    8.40 
  -2  -5 -13   79.89    7.90 
   2   5  13  100.49   10.40 
  -3  -5 -13   21.90    5.20 
  -3  -5 -13   29.30    5.30 
   3   5  13   21.60    5.50 
  -4  -5 -13    2.60    2.80 
   4   5  13    4.80    3.00 
  -5  -5 -13   15.60    4.50 
   5   5  13   13.90    4.60 
  -6  -5 -13    1.90    2.90 
   6   5  13    8.40    3.90 
  -7  -5 -13    0.10    2.70 
   7   5  13   -0.10    2.80 
  -1  -6 -13   59.89    6.90 
  -2  -6 -13    2.50    2.40 
  -2  -6 -13   -0.40    2.30 
   2   6  13    2.20    3.20 
  -3  -6 -13   23.70    4.90 
  -3  -6 -13   25.00    4.80 
   3   6  13   15.40    5.40 
  -4  -6 -13   35.00    5.80 
  -4  -6 -13   24.50    5.60 
   4   6  13   25.00    5.60 
   5   6  13   -0.80    3.50 
  -6  -6 -13   17.40    4.80 
   6   6  13   17.60    5.30 
  -7  -6 -13    3.40    2.70 
   7   6  13   -2.90    2.80 
  -1  -7 -13    3.00    4.10 
  -1  -7 -13   -2.80    1.80 
  -2  -7 -13   33.60    6.40 
  -2  -7 -13   30.10    6.90 
   2   7  13   35.60    8.00 
  -3  -7 -13   10.90    4.70 
  -3  -7 -13   18.20    3.90 
   3   7  13    9.60    4.50 
  -4  -7 -13    0.00    2.20 
  -4  -7 -13    0.90    2.40 
   4   7  13    2.10    3.50 
  -5  -7 -13    5.40    2.60 
   5   7  13    5.00    3.00 
  -6  -7 -13   46.40    7.50 
   6   7  13   52.89    9.00 
  -7  -7 -13   85.49    9.20 
   7   7  13   75.39   16.20 
  -3  -8 -13    8.70    3.10 
  -3  -8 -13    5.80    3.20 
   3   8  13   -1.10    3.50 
  -4  -8 -13   10.00    3.90 
  -4  -8 -13    8.40    3.30 
  -5  -8 -13    2.40    2.70 
  -6  -8 -13    2.00    2.40 
   6   8  13    2.30    3.40 
  -7  -8 -13   26.40    5.80 
   7   8  13   27.30    6.80 
  -5  -9 -13   13.90    4.40 
  -3  -4 -14   17.00    3.80 
  -3  -4 -14   22.80    5.10 
  -4  -4 -14   32.70    5.50 
  -4  -4 -14   41.10    7.10 
   4   4  14   36.70    6.20 
  -3  -5 -14    1.70    2.00 
  -3  -5 -14    5.50    2.20 
   3   5  14   -3.90    2.40 
  -4  -5 -14   -0.90    2.20 
  -4  -5 -14    8.20    3.00 
  -5  -5 -14    1.70    2.80 
   5   5  14    0.70    3.10 
  -3  -6 -14    1.80    3.00 
  -3  -6 -14   -1.10    2.40 
   3   6  14    9.40    5.80 
  -4  -6 -14    8.60    3.50 
  -4  -6 -14    2.20    2.60 
   4   6  14    9.10    4.10 
  -5  -6 -14    2.30    2.20 
   5   6  14    1.90    3.80 
   0   0   0    0.00    0.00 
  
_computing_structure_solution     'SHELXT 2014/5 (Sheldrick, 2014)' 
;
_shelx_hkl_checksum              63224
loop_
_space_group_symop_operation_xyz
'x, y, z'
'-x, -y, -z'
loop_
_atom_site_label
_atom_site_type_symbol
_atom_site_fract_x
_atom_site_fract_y
_atom_site_fract_z
_atom_site_U_iso_or_equiv
_atom_site_adp_type
_atom_site_occupancy
_atom_site_site_symmetry_order
_atom_site_calc_flag
_atom_site_refinement_flags_posn
_atom_site_refinement_flags_adp
O1 O 0.56967(18) 0.20380(19) 0.61375(14) 0.0749(5) Uani 1 1 d . .
O2 O 0.2893(2) 0.48668(18) -0.01991(16) 0.0879(5) Uani 1 1 d . .
O3 O 0.37538(18) 0.21019(16) 0.03411(14) 0.0703(4) Uani 1 1 d . .
N1 N 0.39945(16) 0.23243(16) 0.48174(13) 0.0459(4) Uani 1 1 d . .
C1 C 0.2843(2) 0.16530(19) 0.58516(16) 0.0441(4) Uani 1 1 d . .
C2 C 0.2877(2) 0.0911(2) 0.72426(17) 0.0558(5) Uani 1 1 d . .
H2 H 0.3754 0.0775 0.7618 0.067 Uiso 1 1 calc R U
C3 C 0.1568(3) 0.0377(2) 0.80554(18) 0.0627(5) Uani 1 1 d . .
H3 H 0.1571 -0.0122 0.8990 0.075 Uiso 1 1 calc R U
C4 C 0.0264(3) 0.0568(2) 0.75149(19) 0.0600(5) Uani 1 1 d . .
H4 H -0.0601 0.0203 0.8084 0.072 Uiso 1 1 calc R U
C5 C 0.0235(2) 0.1304(2) 0.61243(17) 0.0515(4) Uani 1 1 d . .
H5 H -0.0644 0.1431 0.5757 0.062 Uiso 1 1 calc R U
C6 C 0.1525(2) 0.18467(19) 0.52918(16) 0.0431(4) Uani 1 1 d . .
C7 C 0.17509(19) 0.27220(18) 0.37866(15) 0.0418(4) Uani 1 1 d . .
C8 C 0.3421(2) 0.3011(2) 0.34901(16) 0.0457(4) Uani 1 1 d . .
H8 H 0.4281 0.2563 0.2785 0.055 Uiso 1 1 calc R U
C9 C 0.2446(2) 0.4929(2) 0.29985(19) 0.0580(5) Uani 1 1 d . .
H9A H 0.2431 0.5499 0.3572 0.070 Uiso 1 1 calc R U
H9B H 0.2817 0.5465 0.2050 0.070 Uiso 1 1 calc R U
C10 C 0.0776(2) 0.46840(19) 0.32405(17) 0.0486(4) Uani 1 1 d . .
H10 H -0.0097 0.5153 0.3930 0.058 Uiso 1 1 calc R U
C11 C 0.0092(2) 0.5029(2) 0.19855(18) 0.0539(5) Uani 1 1 d . .
H11A H 0.0242 0.6016 0.1267 0.065 Uiso 1 1 calc R U
H11B H -0.1108 0.5216 0.2210 0.065 Uiso 1 1 calc R U
C12 C 0.1122(2) 0.3455(2) 0.15304(17) 0.0504(4) Uani 1 1 d . .
H12 H 0.0384 0.3301 0.1133 0.061 Uiso 1 1 calc R U
C13 C 0.1516(2) 0.2000(2) 0.28696(16) 0.0473(4) Uani 1 1 d . .
H13A H 0.0584 0.1604 0.3287 0.057 Uiso 1 1 calc R U
H13B H 0.2543 0.1066 0.2703 0.057 Uiso 1 1 calc R U
C14 C 0.2665(2) 0.3591(2) 0.04808(17) 0.0546(5) Uani 1 1 d . .
C15 C 0.5260(3) 0.2095(3) -0.0664(2) 0.0862(7) Uani 1 1 d . .
H15A H 0.4945 0.2691 -0.1557 0.129 Uiso 1 1 calc R U
H15B H 0.6007 0.0954 -0.0609 0.129 Uiso 1 1 calc R U
H15C H 0.5831 0.2635 -0.0495 0.129 Uiso 1 1 calc R U
C16 C 0.5330(2) 0.2506(2) 0.50056(19) 0.0534(5) Uani 1 1 d . .
C17 C 0.6344(3) 0.3297(3) 0.3756(2) 0.0720(6) Uani 1 1 d . .
H17A H 0.6842 0.2616 0.3167 0.108 Uiso 1 1 calc R U
H17B H 0.7228 0.3384 0.4011 0.108 Uiso 1 1 calc R U
H17C H 0.5615 0.4401 0.3288 0.108 Uiso 1 1 calc R U
loop_
_atom_site_aniso_label
_atom_site_aniso_U_11
_atom_site_aniso_U_22
_atom_site_aniso_U_33
_atom_site_aniso_U_23
_atom_site_aniso_U_13
_atom_site_aniso_U_12
O1 0.0736(9) 0.0948(11) 0.0615(9) -0.0085(8) -0.0315(7) -0.0367(8)
O2 0.1131(13) 0.0626(9) 0.0703(10) -0.0103(8) 0.0082(9) -0.0426(9)
O3 0.0750(9) 0.0599(8) 0.0621(9) -0.0170(7) 0.0063(7) -0.0270(7)
N1 0.0440(8) 0.0494(8) 0.0404(8) -0.0080(6) -0.0129(6) -0.0157(6)
C1 0.0442(9) 0.0409(8) 0.0407(9) -0.0107(7) -0.0093(7) -0.0107(7)
C2 0.0599(11) 0.0585(10) 0.0435(10) -0.0097(8) -0.0171(8) -0.0175(9)
C3 0.0763(13) 0.0673(12) 0.0368(9) -0.0075(8) -0.0085(9) -0.0287(10)
C4 0.0652(12) 0.0644(11) 0.0466(10) -0.0136(9) 0.0009(8) -0.0310(10)
C5 0.0553(10) 0.0508(10) 0.0483(10) -0.0122(8) -0.0089(8) -0.0223(8)
C6 0.0476(9) 0.0376(8) 0.0408(9) -0.0108(7) -0.0098(7) -0.0128(7)
C7 0.0456(9) 0.0394(8) 0.0384(8) -0.0077(7) -0.0110(7) -0.0154(7)
C8 0.0502(10) 0.0485(9) 0.0375(8) -0.0104(7) -0.0103(7) -0.0184(7)
C9 0.0750(13) 0.0462(9) 0.0569(11) -0.0019(8) -0.0274(9) -0.0277(9)
C10 0.0540(10) 0.0418(9) 0.0451(9) -0.0114(7) -0.0152(7) -0.0111(7)
C11 0.0567(11) 0.0497(10) 0.0499(10) -0.0082(8) -0.0221(8) -0.0133(8)
C12 0.0586(11) 0.0542(10) 0.0431(9) -0.0109(8) -0.0186(8) -0.0219(8)
C13 0.0555(10) 0.0469(9) 0.0431(9) -0.0119(7) -0.0109(7) -0.0222(8)
C14 0.0725(12) 0.0542(10) 0.0390(9) -0.0078(8) -0.0182(8) -0.0253(9)
C15 0.0870(16) 0.0838(15) 0.0663(14) -0.0209(12) 0.0131(12) -0.0334(13)
C16 0.0475(10) 0.0529(10) 0.0562(11) -0.0127(8) -0.0170(8) -0.0141(8)
C17 0.0582(12) 0.0875(15) 0.0712(14) -0.0120(11) -0.0144(10) -0.0370(11)
loop_
_atom_type_symbol
_atom_type_description
_atom_type_scat_dispersion_real
_atom_type_scat_dispersion_imag
_atom_type_scat_source
C C 0.0033 0.0016 'International Tables Vol C Tables 4.2.6.8 and 6.1.1.4'
H H 0.0000 0.0000 'International Tables Vol C Tables 4.2.6.8 and 6.1.1.4'
N N 0.0061 0.0033 'International Tables Vol C Tables 4.2.6.8 and 6.1.1.4'
O O 0.0106 0.0060 'International Tables Vol C Tables 4.2.6.8 and 6.1.1.4'
loop_
_geom_angle_atom_site_label_1
_geom_angle_atom_site_label_2
_geom_angle_atom_site_label_3
_geom_angle
C14 O3 C15 116.58(16)
C16 N1 C1 126.27(14)
C16 N1 C8 123.55(14)
C1 N1 C8 109.78(13)
C2 C1 C6 120.72(16)
C2 C1 N1 129.10(15)
C6 C1 N1 110.18(13)
C3 C2 C1 118.07(17)
C3 C2 H2 121.0
C1 C2 H2 121.0
C4 C3 C2 121.61(17)
C4 C3 H3 119.2
C2 C3 H3 119.2
C3 C4 C5 120.26(18)
C3 C4 H4 119.9
C5 C4 H4 119.9
C6 C5 C4 119.27(17)
C6 C5 H5 120.4
C4 C5 H5 120.4
C5 C6 C1 120.07(15)
C5 C6 C7 129.50(15)
C1 C6 C7 110.40(14)
C6 C7 C13 117.80(13)
C6 C7 C8 103.82(12)
C13 C7 C8 118.53(13)
C6 C7 C10 118.57(13)
C13 C7 C10 105.94(12)
C8 C7 C10 89.29(12)
N1 C8 C9 115.59(14)
N1 C8 C7 105.81(12)
C9 C8 C7 90.26(12)
N1 C8 H8 114.2
C9 C8 H8 114.2
C7 C8 H8 114.2
C10 C9 C8 91.00(12)
C10 C9 H9A 113.5
C8 C9 H9A 113.5
C10 C9 H9B 113.5
C8 C9 H9B 113.5
H9A C9 H9B 110.8
C11 C10 C9 117.28(15)
C11 C10 C7 106.40(13)
C9 C10 C7 89.40(12)
C11 C10 H10 113.7
C9 C10 H10 113.7
C7 C10 H10 113.7
C10 C11 C12 105.98(13)
C10 C11 H11A 110.5
C12 C11 H11A 110.5
C10 C11 H11B 110.5
C12 C11 H11B 110.5
H11A C11 H11B 108.7
C14 C12 C11 112.88(15)
C14 C12 C13 114.63(14)
C11 C12 C13 104.05(13)
C14 C12 H12 108.3
C11 C12 H12 108.3
C13 C12 H12 108.3
C7 C13 C12 105.72(13)
C7 C13 H13A 110.6
C12 C13 H13A 110.6
C7 C13 H13B 110.6
C12 C13 H13B 110.6
H13A C13 H13B 108.7
O2 C14 O3 122.38(18)
O2 C14 C12 125.54(18)
O3 C14 C12 112.02(15)
O3 C15 H15A 109.5
O3 C15 H15B 109.5
H15A C15 H15B 109.5
O3 C15 H15C 109.5
H15A C15 H15C 109.5
H15B C15 H15C 109.5
O1 C16 N1 122.18(17)
O1 C16 C17 121.11(17)
N1 C16 C17 116.71(16)
C16 C17 H17A 109.5
C16 C17 H17B 109.5
H17A C17 H17B 109.5
C16 C17 H17C 109.5
H17A C17 H17C 109.5
H17B C17 H17C 109.5
loop_
_geom_bond_atom_site_label_1
_geom_bond_atom_site_label_2
_geom_bond_distance
O1 C16 1.225(2)
O2 C14 1.193(2)
O3 C14 1.332(2)
O3 C15 1.444(2)
N1 C16 1.364(2)
N1 C1 1.415(2)
N1 C8 1.4732(19)
C1 C2 1.388(2)
C1 C6 1.399(2)
C2 C3 1.385(3)
C2 H2 0.9300
C3 C4 1.375(3)
C3 H3 0.9300
C4 C5 1.387(2)
C4 H4 0.9300
C5 C6 1.381(2)
C5 H5 0.9300
C6 C7 1.497(2)
C7 C13 1.523(2)
C7 C8 1.548(2)
C7 C10 1.574(2)
C8 C9 1.540(2)
C8 H8 0.9800
C9 C10 1.537(2)
C9 H9A 0.9700
C9 H9B 0.9700
C10 C11 1.527(2)
C10 H10 0.9800
C11 C12 1.537(2)
C11 H11A 0.9700
C11 H11B 0.9700
C12 C14 1.508(3)
C12 C13 1.540(2)
C12 H12 0.9800
C13 H13A 0.9700
C13 H13B 0.9700
C15 H15A 0.9600
C15 H15B 0.9600
C15 H15C 0.9600
C16 C17 1.494(3)
C17 H17A 0.9600
C17 H17B 0.9600
C17 H17C 0.9600
loop_
_geom_hbond_atom_site_label_D
_geom_hbond_atom_site_label_H
_geom_hbond_atom_site_label_A
_geom_hbond_distance_DH
_geom_hbond_distance_HA
_geom_hbond_distance_DA
_geom_hbond_angle_DHA
_geom_hbond_site_symmetry_A
C15 H15A O1 0.96 2.64 3.404(3) 136.7 1_554
C2 H2 O1 0.93 2.36 2.894(2) 116.5 .
loop_
_geom_torsion_atom_site_label_1
_geom_torsion_atom_site_label_2
_geom_torsion_atom_site_label_3
_geom_torsion_atom_site_label_4
_geom_torsion
C16 N1 C1 C2 -6.1(3)
C8 N1 C1 C2 -178.93(16)
C16 N1 C1 C6 173.02(15)
C8 N1 C1 C6 0.14(18)
C6 C1 C2 C3 -0.3(3)
N1 C1 C2 C3 178.69(16)
C1 C2 C3 C4 0.1(3)
C2 C3 C4 C5 0.2(3)
C3 C4 C5 C6 -0.2(3)
C4 C5 C6 C1 0.0(2)
C4 C5 C6 C7 -177.67(16)
C2 C1 C6 C5 0.3(2)
N1 C1 C6 C5 -178.87(14)
C2 C1 C6 C7 178.35(14)
N1 C1 C6 C7 -0.81(18)
C5 C6 C7 C13 -47.8(2)
C1 C6 C7 C13 134.39(15)
C5 C6 C7 C8 178.92(16)
C1 C6 C7 C8 1.10(16)
C5 C6 C7 C10 82.1(2)
C1 C6 C7 C10 -95.77(16)
C16 N1 C8 C9 -74.5(2)
C1 N1 C8 C9 98.64(16)
C16 N1 C8 C7 -172.57(14)
C1 N1 C8 C7 0.55(16)
C6 C7 C8 N1 -0.97(15)
C13 C7 C8 N1 -133.84(14)
C10 C7 C8 N1 118.34(13)
C6 C7 C8 C9 -117.72(13)
C13 C7 C8 C9 109.40(15)
C10 C7 C8 C9 1.58(12)
N1 C8 C9 C10 -109.33(15)
C7 C8 C9 C10 -1.62(13)
C8 C9 C10 C11 -106.60(15)
C8 C9 C10 C7 1.60(12)
C6 C7 C10 C11 -137.86(15)
C13 C7 C10 C11 -2.79(17)
C8 C7 C10 C11 116.76(14)
C6 C7 C10 C9 103.80(16)
C13 C7 C10 C9 -121.14(14)
C8 C7 C10 C9 -1.59(12)
C9 C10 C11 C12 79.63(18)
C7 C10 C11 C12 -18.38(18)
C10 C11 C12 C14 -92.46(17)
C10 C11 C12 C13 32.43(18)
C6 C7 C13 C12 158.33(14)
C8 C7 C13 C12 -75.23(17)
C10 C7 C13 C12 22.86(17)
C14 C12 C13 C7 89.49(17)
C11 C12 C13 C7 -34.27(17)
C15 O3 C14 O2 1.2(3)
C15 O3 C14 C12 178.57(17)
C11 C12 C14 O2 -18.0(3)
C13 C12 C14 O2 -136.9(2)
C11 C12 C14 O3 164.79(14)
C13 C12 C14 O3 45.9(2)
C1 N1 C16 O1 2.2(3)
C8 N1 C16 O1 174.15(16)
C1 N1 C16 C17 -178.23(16)
C8 N1 C16 C17 -6.3(2)
