#------------------------------------------------------------------------------
#$Date: 2019-11-03 16:28:43 +0200 (Sun, 03 Nov 2019) $
#$Revision: 221872 $
#$URL: file:///home/coder/svn-repositories/cod/cif/4/12/88/4128807.cif $
#------------------------------------------------------------------------------
#
# This file is available in the Crystallography Open Database (COD),
# http://www.crystallography.net/
#
# All data on this site have been placed in the public domain by the
# contributors.
#
data_4128807
loop_
_publ_author_name
'Spielmann, Kim'
'Xiang, Ming'
'Schwartz, Leyah A.'
'Krische, Michael J.'
_publ_section_title
;
 Direct Conversion of Primary Alcohols to 1,2-Amino Alcohols:
 Enantioselective Iridium-Catalyzed Carbonyl Reductive Coupling of
 Phthalimido-Allene via Hydrogen Auto-Transfer.
;
_journal_issue                   36
_journal_name_full               'Journal of the American Chemical Society'
_journal_page_first              14136
_journal_page_last               14141
_journal_paper_doi               10.1021/jacs.9b08715
_journal_volume                  141
_journal_year                    2019
_chemical_absolute_configuration ad
_chemical_formula_moiety         'C19 H17 N O3'
_chemical_formula_sum            'C19 H17 N O3'
_chemical_formula_weight         307.33
_space_group_crystal_system      triclinic
_space_group_IT_number           1
_space_group_name_Hall           'P 1'
_space_group_name_H-M_alt        'P 1'
_atom_sites_solution_hydrogens   mixed
_audit_creation_method           SHELXL-2016/6
_cell_angle_alpha                86.249(2)
_cell_angle_beta                 76.166(2)
_cell_angle_gamma                79.110(2)
_cell_formula_units_Z            2
_cell_length_a                   7.6636(2)
_cell_length_b                   9.5929(2)
_cell_length_c                   10.8499(2)
_cell_measurement_reflns_used    23704
_cell_measurement_temperature    100(2)
_cell_measurement_theta_max      75.5
_cell_measurement_theta_min      4.19
_cell_volume                     760.39(3)
_computing_cell_refinement
'CrysAlisPro V 1.171.40.37a, Rigaku Oxford Diffraction'
_computing_data_collection
'CrysAlisPro V 1.171.40.37a, Rigaku Oxford Diffraction'
_computing_data_reduction
'CrysAlisPro V 1.171.40.37a, Rigaku Oxford Diffraction'
_computing_molecular_graphics    'XP SHELXTL/PC, Siemens Analytical'
_computing_publication_material  'Shelxl-2016/6, Sheldrick, G. M.'
_computing_structure_refinement  'Shelxl-2016/6, Sheldrick, G. M.'
_computing_structure_solution
;

SHELXT. Sheldrick, G. M. (2015). Acta Cryst. A71, 3-8. 
;
_diffrn_ambient_temperature      100(2)
_diffrn_measured_fraction_theta_full 0.997
_diffrn_measured_fraction_theta_max 0.982
_diffrn_measurement_device_type  'Agilent SuperNova with an Atlas S2 CCD'
_diffrn_measurement_method       \w-scans
_diffrn_radiation_type           CuK\a
_diffrn_radiation_wavelength     1.54184
_diffrn_reflns_av_R_equivalents  0.0395
_diffrn_reflns_av_unetI/netI     0.0245
_diffrn_reflns_Laue_measured_fraction_full 0.997
_diffrn_reflns_Laue_measured_fraction_max 0.982
_diffrn_reflns_limit_h_max       9
_diffrn_reflns_limit_h_min       -9
_diffrn_reflns_limit_k_max       12
_diffrn_reflns_limit_k_min       -11
_diffrn_reflns_limit_l_max       13
_diffrn_reflns_limit_l_min       -13
_diffrn_reflns_number            26510
_diffrn_reflns_point_group_measured_fraction_full 0.932
_diffrn_reflns_point_group_measured_fraction_max 0.905
_diffrn_reflns_theta_full        67.684
_diffrn_reflns_theta_max         75.699
_diffrn_reflns_theta_min         4.197
_diffrn_source                   'sealed microfocus tube'
_exptl_absorpt_coefficient_mu    0.738
_exptl_absorpt_correction_T_max  1.00
_exptl_absorpt_correction_T_min  0.534
_exptl_absorpt_correction_type   'gaussian and multi-scan'
_exptl_absorpt_process_details
;
CrysAlisPro 1.171.40.37a (Rigaku Oxford Diffraction, 2019)
Numerical absorption correction based on gaussian integration over
			a multifaceted crystal model
Empirical absorption correction using spherical harmonics,
 implemented in SCALE3 ABSPACK scaling algorithm.
;
_exptl_crystal_colour            colorless
_exptl_crystal_density_diffrn    1.342
_exptl_crystal_description       prism
_exptl_crystal_F_000             324
_exptl_crystal_size_max          0.34
_exptl_crystal_size_mid          0.12
_exptl_crystal_size_min          0.065
_refine_diff_density_max         0.175
_refine_diff_density_min         -0.218
_refine_diff_density_rms         0.045
_refine_ls_abs_structure_details
;
 Flack x determined using 2500 quotients [(I+)-(I-)]/[(I+)+(I-)]
 (Parsons, Flack and Wagner, Acta Cryst. B69 (2013) 249-259).
;
_refine_ls_abs_structure_Flack   0.04(10)
_refine_ls_extinction_method     none
_refine_ls_goodness_of_fit_ref   1.048
_refine_ls_hydrogen_treatment    mixed
_refine_ls_matrix_type           full
_refine_ls_number_parameters     433
_refine_ls_number_reflns         5735
_refine_ls_number_restraints     3
_refine_ls_restrained_S_all      1.048
_refine_ls_R_factor_all          0.0367
_refine_ls_R_factor_gt           0.0357
_refine_ls_shift/su_max          0.000
_refine_ls_shift/su_mean         0.000
_refine_ls_structure_factor_coef Fsqd
_refine_ls_weighting_details
'w=1/[\s^2^(Fo^2^)+(0.0562P)^2^+0.2440P] where P=(Fo^2^+2Fc^2^)/3'
_refine_ls_weighting_scheme      calc
_refine_ls_wR_factor_gt          0.0952
_refine_ls_wR_factor_ref         0.0961
_reflns_Friedel_coverage         0.843
_reflns_Friedel_fraction_full    0.868
_reflns_Friedel_fraction_max     0.828
_reflns_number_gt                5638
_reflns_number_total             5735
_reflns_threshold_expression     'I > 2\s(I)'
_cod_data_source_file            ja9b08715_si_002.cif
_cod_data_source_block           shelx
_cod_database_code               4128807
_shelx_shelxl_version_number     2016/6
_shelx_space_group_comment
;
The symmetry employed for this shelxl refinement is uniquely defined
by the following loop, which should always be used as a source of
symmetry information in preference to the above space-group names.
They are only intended as comments.
;
_shelx_res_file
;
TITL ks-121_a.res in P1 colorless prisms
    shelx.res
    created by SHELXL-2016/6 at 09:08:06 on 28-May-2019
REM Old TITL KS-121 in P-1
REM SHELXT solution in P1
REM R1 0.105, Rweak 0.025, Alpha 0.000, Orientation as input
REM Flack x = 0.087 ( 0.130 ) from Parsons' quotients
REM Formula found by SHELXT: C36 N2 O8
CELL 1.54184 7.6636 9.5929 10.8499 86.249 76.166 79.11
ZERR 2 0.0002 0.0002 0.0002 0.002 0.002 0.002
LATT -1
SFAC C H N O
UNIT 38 34 2 6

L.S. 9
htab o6 o2
htab o3 o4
PLAN  20
BOND $H
conf
temp -173
list 4
fmap 2 53
acta
omit -8 -7 1
omit -4 -9 3
omit -7 -9 -2
omit -8 -8 -1
OMIT -3 0 11
OMIT -4 0 9
OMIT -3 -2 11
OMIT -1 -12 0
OMIT -7 -8 1
OMIT -7 -8 2
OMIT -7 -9 1
REM <olex2.extras>
REM <HklSrc "%.\\KS-121absrint.hkl">
REM </olex2.extras>

WGHT    0.056200    0.244000
FVAR      11.41222
O1    4    0.570842    0.890011    0.115593    11.00000    0.02601    0.02202 =
         0.02103    0.00198   -0.00456   -0.00868
O2    4    0.346160    0.510927    0.330659    11.00000    0.03198    0.02349 =
         0.01807    0.00135   -0.00313   -0.01028
O3    4    0.520794    0.801873    0.565597    11.00000    0.02482    0.02368 =
         0.01817   -0.00409   -0.00896    0.00045
AFIX 147
H3    2    0.574822    0.728470    0.596569    11.00000   -1.50000
AFIX   0
N1    3    0.473053    0.708275    0.250084    11.00000    0.01827    0.01859 =
         0.01335   -0.00200   -0.00193   -0.00418
C1    1    0.489482    0.792223    0.137521    11.00000    0.01774    0.01735 =
         0.01519   -0.00141   -0.00027   -0.00048
C2    1    0.390273    0.731327    0.057413    11.00000    0.01428    0.01892 =
         0.01670   -0.00337   -0.00078   -0.00014
C3    1    0.363312    0.773395   -0.062315    11.00000    0.01982    0.02211 =
         0.01599   -0.00181   -0.00147    0.00142
AFIX  43
H3A   2    0.406996    0.853610   -0.105991    11.00000   -1.20000
AFIX   0
C4    1    0.268120    0.691197   -0.115465    11.00000    0.01918    0.02811 =
         0.01688   -0.00495   -0.00512    0.00295
AFIX  43
H4    2    0.246792    0.716076   -0.197477    11.00000   -1.20000
AFIX   0
C5    1    0.204186    0.574103   -0.050954    11.00000    0.01731    0.02946 =
         0.02192   -0.00901   -0.00483   -0.00055
AFIX  43
H5    2    0.140978    0.520247   -0.090012    11.00000   -1.20000
AFIX   0
C6    1    0.231205    0.533980    0.070632    11.00000    0.01929    0.02273 =
         0.02242   -0.00586   -0.00229   -0.00307
AFIX  43
H6A   2    0.187082    0.454405    0.115276    11.00000   -1.20000
AFIX   0
C7    1    0.324920    0.615480    0.122494    11.00000    0.01632    0.01944 =
         0.01706   -0.00361   -0.00154   -0.00061
C8    1    0.378428    0.599603    0.246820    11.00000    0.01946    0.01839 =
         0.01526   -0.00351   -0.00003   -0.00201
C9    1    0.562026    0.731319    0.351399    11.00000    0.01876    0.01914 =
         0.01512   -0.00007   -0.00360   -0.00581
AFIX  13
H9    2    0.620627    0.816790    0.326114    11.00000   -1.20000
AFIX   0
C10   1    0.712321    0.606920    0.360995    11.00000    0.02309    0.02101 =
         0.01349   -0.00288   -0.00187   -0.00112
AFIX  43
H10   2    0.683062    0.514305    0.372236    11.00000   -1.20000
AFIX   0
C11   1    0.883075    0.620998    0.354460    11.00000    0.02483    0.02619 =
         0.02225   -0.00436   -0.00603    0.00107
H11A  2    0.971794    0.532151    0.361930    11.00000    0.02261
H11B  2    0.922899    0.714184    0.339216    11.00000    0.02824
C12   1    0.424782    0.762473    0.480266    11.00000    0.01992    0.01836 =
         0.01477   -0.00141   -0.00442   -0.00338
AFIX  13
H12   2    0.373199    0.675492    0.513584    11.00000   -1.20000
AFIX   0
C13   1    0.270025    0.886152    0.471633    11.00000    0.02258    0.02172 =
         0.01685   -0.00027   -0.00349    0.00068
AFIX  23
H13A  2    0.320976    0.974366    0.449276    11.00000   -1.20000
H13B  2    0.212154    0.868529    0.403129    11.00000   -1.20000
AFIX   0
C14   1    0.126402    0.906184    0.595377    11.00000    0.01973    0.01875 =
         0.01635   -0.00041   -0.00378    0.00226
C15   1   -0.024565    0.840742    0.618370    11.00000    0.02159    0.02835 =
         0.02223   -0.00659   -0.00619   -0.00302
AFIX  43
H15   2   -0.040146    0.783741    0.554793    11.00000   -1.20000
AFIX   0
C16   1   -0.153560    0.856959    0.732698    11.00000    0.02128    0.02990 =
         0.02784   -0.00265   -0.00136   -0.00771
AFIX  43
H16   2   -0.255751    0.810347    0.746968    11.00000   -1.20000
AFIX   0
C17   1   -0.134520    0.940795    0.826475    11.00000    0.02409    0.02406 =
         0.01936   -0.00184   -0.00018    0.00122
AFIX  43
H17   2   -0.223552    0.952629    0.904521    11.00000   -1.20000
AFIX   0
C18   1    0.016021    1.006933    0.804696    11.00000    0.02632    0.02399 =
         0.02106   -0.00684   -0.00282   -0.00103
AFIX  43
H18   2    0.030468    1.064816    0.868042    11.00000   -1.20000
AFIX   0
C19   1    0.146148    0.988951    0.690451    11.00000    0.02455    0.02040 =
         0.02451   -0.00430   -0.00364   -0.00558
AFIX  43
H19   2    0.249909    1.033643    0.676969    11.00000   -1.20000
AFIX   0
O4    4    0.648930    0.541632    0.686354    11.00000    0.02069    0.02130 =
         0.01844    0.00098   -0.00261   -0.00369
O5    4    0.435877    0.138457    0.855551    11.00000    0.02881    0.02155 =
         0.02450    0.00231   -0.00586   -0.00813
O6    4    0.502257    0.233564    0.426090    11.00000    0.03650    0.04130 =
         0.02167   -0.01367   -0.01461    0.01597
AFIX 147
H6    2    0.443216    0.316295    0.422112    11.00000   -1.50000
AFIX   0
N2    3    0.524974    0.338286    0.743912    11.00000    0.01821    0.01691 =
         0.01541   -0.00139   -0.00369   -0.00355
C20   1    0.617631    0.444150    0.760861    11.00000    0.01485    0.01722 =
         0.01488   -0.00307    0.00022   -0.00021
C21   1    0.669399    0.411764    0.884042    11.00000    0.01493    0.02017 =
         0.01417   -0.00361   -0.00046    0.00073
C22   1    0.760277    0.486166    0.945697    11.00000    0.01627    0.02219 =
         0.01884   -0.00356   -0.00226   -0.00182
AFIX  43
H22   2    0.802923    0.569907    0.909573    11.00000   -1.20000
AFIX   0
C23   1    0.785978    0.431521    1.063977    11.00000    0.01959    0.02836 =
         0.01870   -0.00553   -0.00430   -0.00156
AFIX  43
H23   2    0.847176    0.479469    1.109860    11.00000   -1.20000
AFIX   0
C24   1    0.723811    0.308327    1.115986    11.00000    0.02264    0.02738 =
         0.01572   -0.00099   -0.00313    0.00246
AFIX  43
H24   2    0.743227    0.274234    1.196702    11.00000   -1.20000
AFIX   0
C25   1    0.633789    0.233955    1.052322    11.00000    0.01879    0.02124 =
         0.01778    0.00102   -0.00075   -0.00091
AFIX  43
H25   2    0.592296    0.149382    1.087239    11.00000   -1.20000
AFIX   0
C26   1    0.607691    0.289463    0.935386    11.00000    0.01650    0.01836 =
         0.01684   -0.00298   -0.00131    0.00107
C27   1    0.512403    0.239544    0.846181    11.00000    0.01651    0.01628 =
         0.01603   -0.00150    0.00049   -0.00135
C28   1    0.449747    0.335761    0.631647    11.00000    0.01871    0.01909 =
         0.01565   -0.00234   -0.00417   -0.00123
AFIX  13
H28   2    0.467849    0.426008    0.582779    11.00000   -1.20000
AFIX   0
C29   1    0.246573    0.339543    0.669850    11.00000    0.02148    0.02252 =
         0.01772   -0.00531   -0.00099   -0.00515
AFIX  43
H29   2    0.201364    0.269605    0.728579    11.00000   -1.20000
AFIX   0
C30   1    0.129002    0.435819    0.625188    11.00000    0.01876    0.03686 =
         0.02356   -0.00273   -0.00369   -0.00357
H30A  2   -0.007256    0.438102    0.654391    11.00000    0.02334
H30B  2    0.170119    0.508831    0.563961    11.00000    0.03638
C31   1    0.558091    0.213189    0.542623    11.00000    0.02133    0.02145 =
         0.01526   -0.00377   -0.00468   -0.00057
AFIX  13
H31   2    0.529087    0.120927    0.582759    11.00000   -1.20000
AFIX   0
C32   1    0.764266    0.211241    0.523030    11.00000    0.01913    0.02251 =
         0.01678   -0.00449   -0.00290   -0.00219
AFIX  23
H32A  2    0.782630    0.309906    0.528279    11.00000   -1.20000
H32B  2    0.806159    0.156079    0.594191    11.00000   -1.20000
AFIX   0
C33   1    0.885077    0.150147    0.399820    11.00000    0.01949    0.01848 =
         0.01598   -0.00166   -0.00433    0.00165
C34   1    0.847994    0.039727    0.338288    11.00000    0.02080    0.02250 =
         0.02498   -0.00439   -0.00409   -0.00134
AFIX  43
H34   2    0.745932   -0.003823    0.376170    11.00000   -1.20000
AFIX   0
C35   1    0.958907   -0.007213    0.222086    11.00000    0.03174    0.02384 =
         0.02260   -0.00758   -0.00821    0.00391
AFIX  43
H35   2    0.930714   -0.081334    0.180499    11.00000   -1.20000
AFIX   0
C36   1    1.110215    0.053221    0.166440    11.00000    0.02936    0.02861 =
         0.01805   -0.00242    0.00031    0.00886
AFIX  43
H36   2    1.183759    0.022431    0.085982    11.00000   -1.20000
AFIX   0
C37   1    1.153722    0.158832    0.228771    11.00000    0.02052    0.02695 =
         0.02944    0.00219    0.00293    0.00063
AFIX  43
H37   2    1.260005    0.198130    0.192831    11.00000   -1.20000
AFIX   0
C38   1    1.040880    0.207186    0.344447    11.00000    0.02105    0.02165 =
         0.02450   -0.00256   -0.00207   -0.00206
AFIX  43
H38   2    1.070621    0.280323    0.386342    11.00000   -1.20000

AFIX   0
HKLF 4




REM  ks-121_a.res in P1 colorless prisms
REM R1 =  0.0357 for    5638 Fo > 4sig(Fo)  and  0.0367 for all    5735 data
REM    433 parameters refined using      3 restraints

END

WGHT      0.0572      0.2150

REM Highest difference peak  0.175,  deepest hole -0.218,  1-sigma level  0.045
Q1    1   0.5195  0.5616  0.5392  11.00000  0.05    0.18
Q2    1   0.6516  0.6766  0.3520  11.00000  0.05    0.16
Q3    1   0.5430  0.9394  0.4076  11.00000  0.05    0.16
Q4    1   0.6556  0.4215  0.8267  11.00000  0.05    0.16
Q5    1   0.4748  1.0101  0.4921  11.00000  0.05    0.16
Q6    1   0.1600  0.7091  0.4670  11.00000  0.05    0.15
Q7    1   0.0261  0.3803 -0.0955  11.00000  0.05    0.15
Q8    1   0.5908  0.8107  0.3037  11.00000  0.05    0.15
Q9    1   0.3395  0.8245  0.4656  11.00000  0.05    0.15
Q10   1   1.0450  0.2687  1.0417  11.00000  0.05    0.15
Q11   1   0.3598  0.5995  0.1683  11.00000  0.05    0.15
Q12   1   0.2905  0.9977  0.6958  11.00000  0.05    0.15
Q13   1   0.2699  1.1078  0.5385  11.00000  0.05    0.14
Q14   1   0.3545  0.2545  0.4400  11.00000  0.05    0.14
Q15   1   0.7733  0.7195  0.5787  11.00000  0.05    0.14
Q16   1   0.5141  0.2753  0.5850  11.00000  0.05    0.14
Q17   1  -0.0800  0.3987  0.7466  11.00000  0.05    0.14
Q18   1   0.3475  1.1070  0.6436  11.00000  0.05    0.13
Q19   1   1.3247  0.3062  0.1361  11.00000  0.05    0.13
Q20   1   0.3350  0.5635  0.0820  11.00000  0.05    0.13
;
_shelx_res_checksum              25146
_shelx_hkl_file
;
  -9  -6  -4 129.285 36.0915   4
  -9  -6  -3 2695.69 120.904   4
  -9  -6  -2 1001.43 71.9585   4
  -9  -5  -5 361.916 53.7089   4
  -9  -5  -4 1181.60 90.8765   4
  -9  -5  -3 1009.72 85.9702   4
  -9  -5  -2 117.866 41.1537   4
  -9  -5  -2 155.711 48.3669   6
  -9  -5  -1 1186.77 84.3387   4
  -9  -5  -1 1305.23 103.214   6
  -9  -5   0 4689.71 177.247   6
  -9  -4  -6 171.819 39.7518   4
  -9  -4  -5 1143.44 92.8704   4
  -9  -4  -4 11113.5 306.320   4
  -9  -4  -3 37.5771 35.6293   6
  -9  -4  -3-25.4792 40.7718   4
  -9  -4  -2 2294.60 135.072   4
  -9  -4  -2 2290.90 145.902   6
  -9  -4  -1 3079.81 146.811   4
  -9  -4  -1 3096.77 170.935  46
  -9  -4  -1 3249.00 171.680   6
  -9  -4   0 1367.07 107.919   6
  -9  -4   0 1224.30 107.535  46
  -9  -4   1 9339.14 265.494  46
  -9  -4   1 10251.1 259.591   6
  -9  -3  -6 773.893 73.3728   4
  -9  -3  -5 3601.20 168.632   4
  -9  -3  -4 7256.48 253.071   4
  -9  -3  -3 3159.75 164.201   4
  -9  -3  -3 2890.99 161.340   6
  -9  -3  -2 722.833 92.4945   6
  -9  -3  -2 804.008 87.6472   4
  -9  -3  -1 84.1114 50.1143  46
  -9  -3  -1 134.799 55.6627   6
  -9  -3  -1 96.3464 43.6511   4
  -9  -3   0 6724.30 247.520  46
  -9  -3   0 7578.85 256.944   6
  -9  -3   1 16430.6 359.202   6
  -9  -3   1 15853.6 371.778  46
  -9  -2  -7 1348.19 97.7281  36
  -9  -2  -6 1718.10 115.873  36
  -9  -2  -6 1482.81 100.873   4
  -9  -2  -5 665.352 79.7335  36
  -9  -2  -5 612.484 78.7200   4
  -9  -2  -4 24008.1 501.453   4
  -9  -2  -3 7272.03 259.601   6
  -9  -2  -3 7961.06 268.258   4
  -9  -2  -2 7455.66 275.033   6
  -9  -2  -2 7380.97 257.819   4
  -9  -2  -1 19648.2 454.706   6
  -9  -2  -1 19305.9 409.053   4
  -9  -2   0 5851.12 191.846   4
  -9  -2   0 5342.76 217.210  46
  -9  -2   1 5966.66 207.254   6
  -9  -2   1 5260.37 201.087  46
  -9  -1  -7 4910.88 172.195  36
  -9  -1  -6 3982.26 165.775  36
  -9  -1  -6 3507.37 145.962   4
  -9  -1  -5 3998.73 172.531  36
  -9  -1  -5 4431.24 184.694   4
  -9  -1  -4 9027.59 281.999   4
  -9  -1  -3 5622.84 218.228   4
  -9  -1  -3 5006.96 209.179   6
  -9  -1  -2 4493.76 209.878   6
  -9  -1  -2 4643.40 197.189   4
  -9  -1  -1 10510.2 291.872   4
  -9  -1  -1 11009.1 326.874   6
  -9  -1   0 571.714 77.4616   6
  -9  -1   0 417.611 53.1031   4
  -9  -1   1 517.669 64.4896   6
  -9   0  -6 3969.71 150.622  36
  -9   0  -5 1333.10 96.7888   4
  -9   0  -5 1060.20 78.3775  36
  -9   0  -4 3825.30 170.776   4
  -9   0  -3 2060.42 126.813   4
  -9   0  -3 1637.69 112.178   6
  -9   0  -2 629.628 73.6744   4
  -9   0  -2 593.024 78.1092   6
  -9   0  -1 6418.82 212.340   4
  -9   0  -1 6612.68 240.220   6
  -9   0   0 628.713 72.5858   6
  -9   0   1 1016.59 78.3442   6
  -9   1  -5 16214.3 329.113   4
  -9   1  -4 3567.17 172.722   2
  -9   1  -4 3553.93 169.997  27
  -9   1  -4 3543.71 150.755   4
  -9   1  -3 5961.50 222.624   2
  -9   1  -2 179.632 51.0459   2
  -9   1  -2 138.308 42.5165   6
  -9   1  -2 200.738 46.4105   4
  -9   1  -1 2712.12 135.946   6
  -9   1  -1 1986.89 103.643   4
  -9   1   0 3235.24 138.773   6
  -9   2  -3 237.827 39.0344   4
  -9   2  -3 308.601 48.0585   2
  -8  -8  -5 351.917 74.7088  38
  -8  -8  -4 4399.31 163.985   4
  -8  -8  -4 1172.99 129.916  38
  -8  -8  -3 4836.99 174.480   4
  -8  -8  -2 4272.41 161.712   4
  -8  -8  -1 6377.43 193.234   4
  -8  -7  -7 1293.35 124.548  38
  -8  -7  -6 932.205 74.5801   4
  -8  -7  -6 475.333 96.0533  38
  -8  -7  -5 3574.38 162.639   4
  -8  -7  -4 812.474 91.3502   4
  -8  -7  -4 940.892 137.830  38
  -8  -7  -3 1412.19 167.502  38
  -8  -7  -3 1452.68 114.763   4
  -8  -7  -2 71.7427 49.9468   4
  -8  -7  -1 694.208 93.6219   6
  -8  -7  -1 552.802 74.8082   4
  -8  -7   0 424.388 59.4727   4
  -8  -7   1 7071.78 272.145  38
  -8  -6  -8 2325.01 160.465  38
  -8  -6  -7 800.736 114.928  38
  -8  -6  -6 2428.08 136.735   4
  -8  -6  -6 2099.07 194.462  38
  -8  -6  -5 5447.49 228.545   4
  -8  -6  -4 3228.82 181.701   4
  -8  -6  -3 1050.65 119.149   6
  -8  -6  -3 1109.03 164.640  38
  -8  -6  -3 1136.95 115.389   4
  -8  -6  -2 345.242 106.430  38
  -8  -6  -2 450.415 91.9870   6
  -8  -6  -2 355.828 71.4675   4
  -8  -6  -1 3649.30 217.377   6
  -8  -6  -1 3173.40 175.789   4
  -8  -6  -1 3880.65 233.862  46
  -8  -6   0 1621.35 144.738   6
  -8  -6   0 1400.82 110.694   4
  -8  -6   0 1639.17 155.755  46
  -8  -6   1 2195.52 153.656   6
  -8  -6   1 2133.65 160.397  46
  -8  -6   2 363.507 66.9894   6
  -8  -6   2 452.017 77.6134  46
  -8  -5  -9 1392.37 92.0356  35
  -8  -5  -8 7398.87 311.840  38
  -8  -5  -8 8752.48 272.049  35
  -8  -5  -7 410.130 73.5478  35
  -8  -5  -7 434.950 100.726  38
  -8  -5  -6 1585.09 124.038   4
  -8  -5  -6 1361.69 163.187  38
  -8  -5  -5 594.717 96.9339  35
  -8  -5  -5 840.720 139.024  38
  -8  -5  -5 819.384 99.9048   4
  -8  -5  -4 2970.33 250.426  38
  -8  -5  -4 3285.40 200.181   4
  -8  -5  -3 5776.60 263.866   4
  -8  -5  -3 5211.56 335.979  38
  -8  -5  -2 4769.65 237.131   4
  -8  -5  -2 4944.20 266.651   6
  -8  -5  -2 5181.95 290.244  46
  -8  -5  -1 3181.71 226.981  46
  -8  -5  -1 3532.38 229.483   6
  -8  -5  -1 3447.21 197.186   4
  -8  -5   0 8576.54 363.853  46
  -8  -5   0 9047.35 306.461   4
  -8  -5   0 9333.75 353.922   6
  -8  -5   1 4300.30 188.469   4
  -8  -5   1 4102.51 251.474  47
  -8  -5   1 5334.28 270.298  46
  -8  -5   1 4934.56 240.099   6
  -8  -5   2 15682.9 415.257   6
  -8  -5   2 15783.6 453.770  47
  -8  -5   2 17037.1 458.190  46
  -8  -5   3 4306.61 207.670  47
  -8  -5   3 4164.27 197.083  46
  -8  -4  -9 11698.8 290.204  35
  -8  -4  -9 10490.3 271.181  26
  -8  -4  -8 2768.64 151.456  26
  -8  -4  -8 2952.66 161.144  35
  -8  -4  -7 1944.88 179.587  38
  -8  -4  -7 2311.86 155.303  35
  -8  -4  -7 2489.50 170.297  36
  -8  -4  -6 953.537 109.790  35
  -8  -4  -6 1187.15 158.708  38
  -8  -4  -6 1132.00 112.182   4
  -8  -4  -6 1060.00 120.342  36
  -8  -4  -5 4629.82 232.318   4
  -8  -4  -5 4548.64 249.692  36
  -8  -4  -5 3825.79 277.683  38
  -8  -4  -4 18592.1 501.905   4
  -8  -4  -4 18372.2 525.238  36
  -8  -4  -3 1856.64 182.768  46
  -8  -4  -3 2177.91 169.173   4
  -8  -4  -3 2126.76 178.109   6
  -8  -4  -3 1541.59 183.300  38
  -8  -4  -2 46.0547 63.5428   4
  -8  -4  -2 116.124 82.2532   6
  -8  -4  -2 46.7795 69.5188  46
  -8  -4  -1 34925.7 725.957   4
  -8  -4  -1 35167.0 790.596   6
  -8  -4   0 26485.2 587.440   4
  -8  -4   0 24308.4 658.769  46
  -8  -4   0 26300.8 654.339   6
  -8  -4   0 26624.2 694.071  47
  -8  -4   1 17637.9 499.649   6
  -8  -4   1 16423.0 416.544   4
  -8  -4   1 16509.3 517.392  47
  -8  -4   2 15878.7 477.763  47
  -8  -4   2 15903.5 470.271  46
  -8  -4   3 387.019 82.3441  47
  -8  -4   3 345.033 69.2042   6
  -8  -4   3 478.099 82.4498  46
  -8  -4   4 10218.0 281.061  46
  -8  -4   4 9739.99 288.157  47
  -8  -3  -9 11635.3 292.346  26
  -8  -3  -9 11637.7 296.582  35
  -8  -3  -8 5257.21 230.952  36
  -8  -3  -8 4864.40 206.875  26
  -8  -3  -8 5140.19 213.211  35
  -8  -3  -7 562.374 79.9725  26
  -8  -3  -7 521.779 95.0255  36
  -8  -3  -7 529.682 80.1301  35
  -8  -3  -6 24239.4 561.441   4
  -8  -3  -6 25961.3 613.515  36
  -8  -3  -5 7032.35 297.660   4
  -8  -3  -5 7319.37 321.654  36
  -8  -3  -4 1789.42 162.738   4
  -8  -3  -4 2032.32 179.524  36
  -8  -3  -3 6544.10 296.765   4
  -8  -3  -3 6269.29 296.779  36
  -8  -3  -3 6863.64 324.853   6
  -8  -3  -2 22886.4 631.298   6
  -8  -3  -2 22987.0 580.521   4
  -8  -3  -2 23023.1 644.591  46
  -8  -3  -1 2467.79 204.526   6
  -8  -3  -1 2454.55 209.544  46
  -8  -3  -1 2537.85 182.089   4
  -8  -3   0 4146.55 222.234   4
  -8  -3   0 3988.41 261.547  46
  -8  -3   0 4372.73 262.196   6
  -8  -3   1 11783.5 440.493  46
  -8  -3   1 12005.2 363.542   4
  -8  -3   1 12692.7 431.653   6
  -8  -3   2 264.322 88.1646  47
  -8  -3   2 347.044 88.8060  46
  -8  -3   2 329.434 84.5856   6
  -8  -3   3 4389.46 228.735  46
  -8  -3   3 3986.67 220.666  47
  -8  -3   4 465.458 75.3619  47
  -8  -3   4 696.023 82.4647  46
  -8  -2  -9 1191.41 90.0519  35
  -8  -2  -9 1120.25 88.0994  26
  -8  -2  -8 6394.22 255.943  36
  -8  -2  -8 5585.65 216.215  35
  -8  -2  -8 6134.66 265.939  37
  -8  -2  -8 5753.19 220.771  26
  -8  -2  -7 2626.15 156.675   4
  -8  -2  -7 3122.89 195.028  36
  -8  -2  -7 3105.02 209.074  37
  -8  -2  -6 7790.56 328.495  36
  -8  -2  -6 6966.30 287.784   4
  -8  -2  -6 7741.28 337.364  37
  -8  -2  -5 8241.01 330.708   4
  -8  -2  -5 8834.33 367.150  37
  -8  -2  -5 8797.52 353.452  36
  -8  -2  -4 17942.3 575.363   2
  -8  -2  -4 17890.3 536.959  37
  -8  -2  -4 17510.2 510.819   4
  -8  -2  -4 18596.3 532.013  36
  -8  -2  -4 18361.9 565.887  27
  -8  -2  -3 1021.63 146.923   2
  -8  -2  -3 1088.19 131.583   4
  -8  -2  -3 1092.11 150.872  27
  -8  -2  -3 1291.10 138.022  36
  -8  -2  -3 1055.72 136.707   6
  -8  -2  -2 4252.29 263.701  46
  -8  -2  -2 3894.14 256.260   6
  -8  -2  -2 4039.17 267.481   2
  -8  -2  -2 3971.67 236.178   4
  -8  -2  -1 6821.75 305.143   4
  -8  -2  -1 7041.12 345.870  46
  -8  -2  -1 6994.13 338.049   6
  -8  -2   0 4025.35 226.728   4
  -8  -2   0 3897.21 257.157  46
  -8  -2   0 3813.04 251.856  47
  -8  -2   0 4367.25 259.465   6
  -8  -2   1 2301.67 189.261   6
  -8  -2   1 2290.10 189.536  47
  -8  -2   1 2522.10 204.089  46
  -8  -2   1 2228.09 165.501   4
  -8  -2   2 196.986 78.1174  47
  -8  -2   2 256.574 81.5998  46
  -8  -2   2 206.606 70.4994   6
  -8  -2   3 202.066 69.8919  47
  -8  -2   3 199.029 71.8759  46
  -8  -2   3 259.851 68.6716   6
  -8  -2   4 2811.77 133.725   6
  -8  -2   4 2911.50 164.178  47
  -8  -1  -9 3604.22 176.585  37
  -8  -1  -9 3881.19 175.120  36
  -8  -1  -8 5400.88 238.212  36
  -8  -1  -8 5320.85 244.935  37
  -8  -1  -7 7800.81 322.496  37
  -8  -1  -7 7562.78 304.915  36
  -8  -1  -6 10360.7 389.410  37
  -8  -1  -6 9900.09 345.233   4
  -8  -1  -6 9955.51 387.181  27
  -8  -1  -6 10473.8 373.496  36
  -8  -1  -5 1169.08 150.312   2
  -8  -1  -5 1015.21 126.214  36
  -8  -1  -5 996.912 131.603  37
  -8  -1  -5 1095.24 142.158  27
  -8  -1  -5 1155.44 129.939   4
  -8  -1  -4 577.514 113.857   2
  -8  -1  -4 653.130 111.230   4
  -8  -1  -4 449.508 90.1050  36
  -8  -1  -4 520.327 96.7659  37
  -8  -1  -4 494.248 108.556  27
  -8  -1  -3 13954.6 496.281   2
  -8  -1  -3 13118.4 435.545  36
  -8  -1  -3 13030.4 438.567   4
  -8  -1  -3 13696.4 490.120  27
  -8  -1  -3 14098.6 474.297   6
  -8  -1  -2 11406.6 450.020   2
  -8  -1  -2 12026.6 442.073   6
  -8  -1  -2 12043.8 411.157   4
  -8  -1  -2 11674.7 448.165  27
  -8  -1  -1 7405.61 320.219   4
  -8  -1  -1 7800.61 359.095   6
  -8  -1  -1 7965.23 356.966  27
  -8  -1  -1 7784.88 361.910   2
  -8  -1  -1 6830.70 330.668  46
  -8  -1   0 4444.66 264.811   2
  -8  -1   0 4543.63 268.451   6
  -8  -1   0 4640.89 239.779   4
  -8  -1   0 4429.42 267.453  46
  -8  -1   1 598.115 103.636   6
  -8  -1   1 711.722 113.958  46
  -8  -1   1 629.248 101.925  47
  -8  -1   1 522.997 86.4383   4
  -8  -1   2 2632.20 179.874   6
  -8  -1   2 2655.73 190.733  46
  -8  -1   2 2150.10 166.624  47
  -8  -1   3 1723.78 142.384  47
  -8  -1   3 1653.74 133.311   6
  -8  -1   3 1940.72 153.019  46
  -8  -1   4 2959.74 160.769  46
  -8  -1   4 2444.85 143.078  47
  -8   0  -9 4440.41 179.491  36
  -8   0  -9 4611.29 189.481  37
  -8   0  -8 7494.78 278.400  37
  -8   0  -8 7585.57 267.430  36
  -8   0  -7 1259.52 124.555  36
  -8   0  -7 1147.54 128.781  37
  -8   0  -6 25894.5 576.476   4
  -8   0  -6 27207.8 651.839  27
  -8   0  -6 26645.1 634.672  37
  -8   0  -6 28030.5 627.983  36
  -8   0  -6 24872.2 624.551   2
  -8   0  -5 595.674 97.0139   4
  -8   0  -5 568.095 112.203   2
  -8   0  -5 633.488 109.811  27
  -8   0  -5 603.945 96.7891  36
  -8   0  -5 633.576 103.760  37
  -8   0  -4 553.438 101.505  37
  -8   0  -4 556.085 124.354  34
  -8   0  -4 626.238 103.227   4
  -8   0  -4 519.790 94.0928  36
  -8   0  -4 641.121 115.662  27
  -8   0  -4 665.047 120.660   2
  -8   0  -3 835.977 125.101   6
  -8   0  -3 960.792 123.841   4
  -8   0  -3 797.102 104.280  36
  -8   0  -3 781.465 142.742  34
  -8   0  -3 801.625 129.082  27
  -8   0  -3 887.768 132.344   2
  -8   0  -2 3499.50 237.096   6
  -8   0  -2 3267.73 214.889   4
  -8   0  -2 3353.00 237.062   2
  -8   0  -2 3099.00 244.069  34
  -8   0  -2 3411.64 237.913  27
  -8   0  -1 14330.5 476.194   6
  -8   0  -1 14074.4 466.732  27
  -8   0  -1 13585.5 473.791   2
  -8   0  -1 12967.5 419.773   4
  -8   0   0 21501.7 588.186   2
  -8   0   0 22466.1 600.666   6
  -8   0   0 22529.0 576.300  27
  -8   0   0 21674.6 586.072  46
  -8   0   1 4133.29 235.373   6
  -8   0   1 3832.37 221.006   2
  -8   0   1 4097.75 242.425  46
  -8   0   2 2088.41 171.363  46
  -8   0   2 2472.64 170.197   6
  -8   0   3 1997.58 151.297  46
  -8   0   3 2012.77 140.050   6
  -8   0   4 3592.67 168.777  46
  -8   1  -9 8503.80 228.632  36
  -8   1  -9 8398.15 236.893  37
  -8   1  -8 721.706 85.3058  37
  -8   1  -8 778.017 83.6868  36
  -8   1  -7 1180.80 123.143  37
  -8   1  -7 1089.07 113.558  27
  -8   1  -7 1235.25 118.506  36
  -8   1  -6 138.459 63.0792  37
  -8   1  -6 68.4188 52.4856   2
  -8   1  -6 160.456 61.2028  36
  -8   1  -6 146.297 54.6861   4
  -8   1  -6 63.7381 63.3154  27
  -8   1  -5 2919.01 222.550  34
  -8   1  -5 2962.98 209.533  27
  -8   1  -5 2665.94 198.506   2
  -8   1  -5 2922.69 195.818  37
  -8   1  -5 2575.83 181.855  36
  -8   1  -5 2834.90 182.610   4
  -8   1  -4 5928.07 297.684  27
  -8   1  -4 5506.37 256.505  36
  -8   1  -4 5051.50 258.383  37
  -8   1  -4 5636.80 264.347   4
  -8   1  -4 5548.70 312.027  34
  -8   1  -4 5961.53 295.543   2
  -8   1  -3 2339.35 193.919   2
  -8   1  -3 2282.61 192.106  27
  -8   1  -3 1997.70 197.621  34
  -8   1  -3 2119.74 172.923   6
  -8   1  -3 2172.12 167.623   4
  -8   1  -2 643.064 110.351   2
  -8   1  -2 794.196 108.508   4
  -8   1  -2 842.451 122.194  27
  -8   1  -2 724.154 116.157   6
  -8   1  -2 579.275 116.190  34
  -8   1  -1 51.4918 60.8491  34
  -8   1  -1 66.3424 61.7455   2
  -8   1  -1 45.9798 58.0581   4
  -8   1  -1 82.3876 74.4930   6
  -8   1  -1 49.1841 57.9523  27
  -8   1   0 2302.43 172.837  46
  -8   1   0 2339.81 168.107  27
  -8   1   0 2308.73 181.289   6
  -8   1   0 2314.63 179.488   2
  -8   1   1 976.946 118.608   6
  -8   1   1 774.222 108.517  46
  -8   1   1 719.820 87.7409   4
  -8   1   1 870.151 104.538   2
  -8   1   2 1714.36 136.655   6
  -8   1   2 1493.95 136.299  46
  -8   1   3 6985.73 256.189  46
  -8   1   3 6806.16 233.214   6
  -8   2  -8 2160.58 116.967  36
  -8   2  -8 2199.49 125.457  37
  -8   2  -7 391.365 65.3096  27
  -8   2  -7 426.832 72.6635  37
  -8   2  -7 404.114 66.0178  36
  -8   2  -6 25318.7 527.396  36
  -8   2  -6 24218.3 536.162   2
  -8   2  -6 23543.4 486.187   4
  -8   2  -6 24956.1 551.057  37
  -8   2  -6 25517.1 562.335  27
  -8   2  -5 2239.03 183.647  34
  -8   2  -5 2139.34 157.787  37
  -8   2  -5 2211.92 149.934  36
  -8   2  -5 2075.48 165.842  27
  -8   2  -5 2221.77 168.216   2
  -8   2  -5 2195.90 146.839   4
  -8   2  -4 3480.00 229.372  34
  -8   2  -4 3569.67 215.706  27
  -8   2  -4 3554.52 217.325   2
  -8   2  -4 3113.35 183.130  37
  -8   2  -4 2998.55 169.747  36
  -8   2  -4 3252.77 187.795   4
  -8   2  -3 3976.97 233.345  27
  -8   2  -3 3377.63 195.451   4
  -8   2  -3 3685.38 212.911   6
  -8   2  -3 3795.32 248.317  34
  -8   2  -3 3882.18 230.869   2
  -8   2  -2 16454.3 485.416  27
  -8   2  -2 14851.9 421.287   4
  -8   2  -2 16640.8 473.444   6
  -8   2  -2 15814.0 498.341  34
  -8   2  -2 15880.2 472.565   2
  -8   2  -1 3570.95 212.898   6
  -8   2  -1 3265.39 208.030   2
  -8   2  -1 2924.92 202.500  34
  -8   2  -1 3190.10 204.976  33
  -8   2  -1 3534.42 208.182  27
  -8   2   0 268.926 63.6723   4
  -8   2   0 184.414 69.8442  33
  -8   2   0 163.939 54.4073  27
  -8   2   0 235.332 73.4490   6
  -8   2   0 195.134 62.2507   2
  -8   2   1 27574.2 568.263  46
  -8   2   1 29023.2 566.961   2
  -8   2   2 1108.32 99.1809   6
  -8   2   2 942.318 94.3838  46
  -8   2   3 663.131 69.2403  46
  -8   3  -7 5428.36 176.009  36
  -8   3  -7 5832.29 194.368  37
  -8   3  -6 3163.19 144.474  36
  -8   3  -6 2721.40 139.627   2
  -8   3  -6 3377.37 169.463  27
  -8   3  -6 2626.45 122.607   4
  -8   3  -6 3339.13 160.940  37
  -8   3  -5 10902.3 308.101  37
  -8   3  -5 12199.3 352.526   2
  -8   3  -5 12582.5 383.534  34
  -8   3  -5 11337.1 309.082   4
  -8   3  -5 12824.1 360.987  27
  -8   3  -5 9844.47 273.219  36
  -8   3  -4 5174.09 254.167  34
  -8   3  -4 5571.57 243.721  27
  -8   3  -4 5530.35 247.879   2
  -8   3  -3 4378.40 221.041   2
  -8   3  -3 4638.48 226.036  27
  -8   3  -3 4534.76 241.052  34
  -8   3  -2 6853.82 293.099  34
  -8   3  -2 6976.06 274.765  27
  -8   3  -2 6706.04 274.821   2
  -8   3  -2 7160.89 275.630   6
  -8   3  -1 19895.8 481.891   6
  -8   3  -1 19804.2 482.472   2
  -8   3  -1 20254.8 470.653  27
  -8   3  -1 19310.9 483.705  34
  -8   3   0 409.348 76.7731  33
  -8   3   0 555.391 75.5941   2
  -8   3   0 242.205 51.9086   4
  -8   3   0 351.346 57.0370  27
  -8   3   0 509.136 79.7015   6
  -8   3   1 336.023 61.8674   6
  -8   3   2 2877.33 131.724   6
  -8   4  -5 5238.62 191.245  27
  -8   4  -5 5247.41 205.668  34
  -8   4  -4 180.547 42.9061   4
  -8   4  -4 316.939 57.5123  27
  -8   4  -4 274.633 57.5600  34
  -8   4  -4 245.303 54.6505   2
  -8   4  -3 7063.44 241.227   2
  -8   4  -3 7057.38 257.102  34
  -8   4  -3 7236.81 244.870  27
  -8   4  -2 3169.53 157.336  27
  -8   4  -2 2691.25 142.097   6
  -8   4  -2 2975.25 162.847  34
  -8   4  -2 3164.70 161.041   2
  -8   4  -1 25215.9 461.966  27
  -8   4  -1 23665.3 467.145  34
  -8   4   0 1871.29 112.850   6
  -7  -9  -5 3234.32 206.238  38
  -7  -9  -4 4532.70 259.281  38
  -7  -9  -3 2418.58 198.520  38
  -7  -9  -2 9610.68 322.123   4
  -7  -9   1 10368.4 336.089  38
  -7  -8  -8 409.115 74.8103  38
  -7  -8  -7 1112.47 132.918  38
  -7  -8  -6 1487.36 166.353  38
  -7  -8  -6 6499.30 247.701   4
  -7  -8  -5 4473.61 291.117  38
  -7  -8  -5 5875.80 228.025   4
  -7  -8  -4 82.7668 52.0682   4
  -7  -8  -4 191.891 100.906  38
  -7  -8  -3 603.809 135.387  38
  -7  -8  -3 595.165 87.0692   4
  -7  -8  -2 3493.62 185.726   4
  -7  -8  -1 1391.55 121.871   4
  -7  -8   0 2564.51 153.298   4
  -7  -8   2 13667.6 446.252  38
  -7  -7  -9 5130.47 240.578  38
  -7  -7  -8 2497.93 193.548  38
  -7  -7  -8 2585.80 155.328  35
  -7  -7  -7 8288.17 306.030  35
  -7  -7  -7 7172.58 360.527  38
  -7  -7  -6 2551.76 153.262   4
  -7  -7  -6 2410.88 235.263  38
  -7  -7  -6 2236.30 172.688  35
  -7  -7  -5 4.12914 93.8884  38
  -7  -7  -5 0.07114 48.9333   4
  -7  -7  -4 1146.59 186.797  38
  -7  -7  -4 1278.17 127.049   4
  -7  -7  -3 1033.45 130.982   6
  -7  -7  -3 1323.00 196.134  38
  -7  -7  -3 1018.73 125.287   4
  -7  -7  -2 3195.09 198.147   4
  -7  -7  -2 2723.34 266.886  38
  -7  -7  -2 2737.42 213.092   6
  -7  -7  -1 2658.76 211.212   6
  -7  -7  -1 2711.20 182.127   4
  -7  -7   0 14913.5 470.923   6
  -7  -7   0 13040.1 393.441   4
  -7  -7   1 2332.45 195.944  46
  -7  -7   1 1822.62 130.277   4
  -7  -7   2 577.708 100.876   6
  -7  -7   3 9539.27 379.841  38
  -7  -6 -10 913.442 77.0947  35
  -7  -6 -10 876.753 97.7647  38
  -7  -6  -9 7875.00 265.586  35
  -7  -6  -9 7842.86 336.988  38
  -7  -6  -8 2919.29 237.926  38
  -7  -6  -8 3472.25 195.334  35
  -7  -6  -7 217.282 77.7912  35
  -7  -6  -7 236.869 107.969  38
  -7  -6  -7 165.327 70.3241  26
  -7  -6  -6 630.901 154.234  38
  -7  -6  -6 380.416 76.3245   4
  -7  -6  -6 404.166 96.5132  35
  -7  -6  -5 3339.05 229.495  35
  -7  -6  -5 3400.04 298.831  38
  -7  -6  -5 3675.45 217.482   4
  -7  -6  -4 14944.1 458.295   4
  -7  -6  -4 13100.4 597.614  38
  -7  -6  -3 1388.41 216.555  38
  -7  -6  -3 1630.21 161.086   4
  -7  -6  -3 1485.20 163.711   6
  -7  -6  -2 1186.98 174.028  46
  -7  -6  -2 1380.36 213.812  38
  -7  -6  -2 1566.21 171.008   6
  -7  -6  -2 1537.51 154.289   4
  -7  -6  -1 8686.33 347.660   4
  -7  -6  -1 9472.30 430.568  46
  -7  -6  -1 8813.48 385.403   6
  -7  -6   0 14066.7 438.930   4
  -7  -6   0 15189.4 502.767   6
  -7  -6   0 15578.6 542.538  46
  -7  -6   1 39599.9 873.951  46
  -7  -6   1 37926.5 812.690   6
  -7  -6   2 2006.73 173.166   6
  -7  -6   2 2203.72 196.782  47
  -7  -6   2 1893.82 183.434  46
  -7  -6   3 11022.8 389.218  46
  -7  -6   3 10393.6 358.754   6
  -7  -6   4 928.768 109.906  47
  -7  -6   4 1034.90 107.383  46
  -7  -5 -10 5303.36 256.105  38
  -7  -5 -10 5527.47 205.749  35
  -7  -5  -9 2737.19 168.350  35
  -7  -5  -9 2843.76 168.674  26
  -7  -5  -9 3080.43 229.170  38
  -7  -5  -8 204.334 100.641  38
  -7  -5  -8 83.9986 59.7499  26
  -7  -5  -8 83.8082 63.7888  35
  -7  -5  -7 2632.32 250.349  38
  -7  -5  -7 2958.38 205.685  36
  -7  -5  -7 2738.59 197.645  35
  -7  -5  -7 2851.62 201.450  26
  -7  -5  -6 15288.3 488.672  36
  -7  -5  -6 13795.9 433.999   4
  -7  -5  -6 14601.2 474.808  35
  -7  -5  -6 14436.1 605.502  38
  -7  -5  -5 31236.1 710.753   4
  -7  -5  -5 31750.5 749.245  35
  -7  -5  -5 32639.2 756.757  36
  -7  -5  -4 993.432 138.917  36
  -7  -5  -4 816.333 174.766  38
  -7  -5  -4 1057.71 144.174  35
  -7  -5  -4 1132.54 140.634   4
  -7  -5  -3 4387.89 275.786   6
  -7  -5  -3 4365.98 257.892   4
  -7  -5  -3 3879.01 345.188  38
  -7  -5  -2 17772.7 531.668   4
  -7  -5  -2 16788.5 715.200  38
  -7  -5  -2 17155.5 578.780   6
  -7  -5  -1 7069.82 327.767   4
  -7  -5  -1 6577.35 436.781  38
  -7  -5  -1 7671.27 396.053  46
  -7  -5  -1 7060.05 360.067   6
  -7  -5   0 4399.17 254.762   4
  -7  -5   0 4246.08 280.918   6
  -7  -5   0 3748.07 326.172  38
  -7  -5   0 4156.03 292.101  46
  -7  -5   1 10587.9 377.640   4
  -7  -5   1 10362.8 445.277  46
  -7  -5   2 1603.11 166.758   6
  -7  -5   2 1399.77 170.654  46
  -7  -5   2 1036.75 136.735  51
  -7  -5   2 1317.22 120.331   4
  -7  -5   2 1596.05 178.171  47
  -7  -5   3 31298.4 701.200   6
  -7  -5   3 31772.1 744.116  46
  -7  -5   4 227.442 78.1323  51
  -7  -5   4 367.423 77.7356   6
  -7  -5   4 308.701 84.3211  47
  -7  -5   4 319.860 76.5942  46
  -7  -5   5 6841.33 263.126  47
  -7  -5   5 5444.46 216.138  46
  -7  -4 -11 4764.54 165.248  35
  -7  -4 -10 3849.86 233.484  38
  -7  -4 -10 3601.92 177.369  35
  -7  -4 -10 3712.53 178.224  26
  -7  -4  -9 1879.97 146.706  36
  -7  -4  -9 1847.24 147.937  35
  -7  -4  -9 1889.96 147.225  26
  -7  -4  -9 1822.42 182.932  38
  -7  -4  -8 6574.27 295.615  36
  -7  -4  -8 6413.31 294.753  26
  -7  -4  -8 6670.69 295.383  35
  -7  -4  -8 6851.08 373.843  38
  -7  -4  -7 15377.5 609.493  38
  -7  -4  -7 13629.2 457.745  35
  -7  -4  -7 14607.8 477.801  36
  -7  -4  -7 14531.7 468.758  26
  -7  -4  -6 4506.03 261.021  26
  -7  -4  -6 4241.29 242.974   4
  -7  -4  -6 4407.93 270.561  36
  -7  -4  -6 4272.78 257.583  35
  -7  -4  -6 4661.59 344.317  38
  -7  -4  -5 3533.92 245.465  35
  -7  -4  -5 3735.02 321.243  38
  -7  -4  -5 3941.77 246.833  26
  -7  -4  -5 3356.00 229.278   4
  -7  -4  -5 3419.62 245.601  36
  -7  -4  -4 22938.2 635.272  35
  -7  -4  -4 22541.8 638.991  36
  -7  -4  -3 1400.58 182.911  46
  -7  -4  -3 1510.29 177.364   6
  -7  -4  -3 1128.78 153.207  36
  -7  -4  -3 1844.39 243.113  38
  -7  -4  -3 1238.47 151.520   4
  -7  -4  -2 1888.15 179.405   4
  -7  -4  -2 1758.07 187.980   6
  -7  -4  -2 1689.14 176.928  36
  -7  -4  -2 2245.53 219.963  46
  -7  -4  -2 1848.26 241.125  38
  -7  -4  -1 5382.43 403.522  38
  -7  -4  -1 5728.27 346.707  46
  -7  -4  -1 5218.76 314.053   6
  -7  -4   0 4554.30 359.507  38
  -7  -4   0 5544.69 322.314   6
  -7  -4   0 5529.66 302.920   4
  -7  -4   1 6326.96 303.459   4
  -7  -4   1 6598.48 347.700   6
  -7  -4   1 7173.21 380.430  47
  -7  -4   1 6913.96 369.677  46
  -7  -4   2 11112.8 462.061  46
  -7  -4   2 9852.56 349.919   4
  -7  -4   2 10566.3 435.688   6
  -7  -4   3 483.418 116.061  51
  -7  -4   3 604.812 118.174  47
  -7  -4   3 493.537 97.6163   6
  -7  -4   3 745.700 134.428  46
  -7  -4   4 17719.6 523.839  47
  -7  -4   4 16371.0 460.985   6
  -7  -4   4 16875.1 509.789  46
  -7  -4   5 59.0823 40.1325   6
  -7  -4   5 88.6422 67.5256  51
  -7  -4   5 80.2616 59.5436  47
  -7  -4   5 77.8278 53.2128  46
  -7  -4   6 1025.19 96.8919  47
  -7  -3 -11 2086.38 116.184  35
  -7  -3 -11 2120.47 115.499  26
  -7  -3 -10 1022.33 94.4084  36
  -7  -3 -10 1129.37 105.498  35
  -7  -3 -10 1203.80 136.364  38
  -7  -3 -10 1298.96 110.359  26
  -7  -3  -9 871.813 136.868  38
  -7  -3  -9 758.590 103.838  36
  -7  -3  -9 830.924 105.775  26
  -7  -3  -9 690.570 103.434  35
  -7  -3  -8 8874.04 370.042  37
  -7  -3  -8 8391.62 347.861  36
  -7  -3  -8 8359.78 343.058  26
  -7  -3  -8 8297.52 340.989  35
  -7  -3  -8 9278.09 440.365  38
  -7  -3  -7 4659.85 267.889  26
  -7  -3  -7 4884.79 293.967  37
  -7  -3  -7 4600.43 262.917  35
  -7  -3  -7 4682.22 270.867  36
  -7  -3  -7 4685.72 331.794  38
  -7  -3  -6 21240.6 613.793  36
  -7  -3  -6 23425.8 785.681  38
  -7  -3  -6 21873.8 609.519  35
  -7  -3  -6 22009.6 649.584  37
  -7  -3  -6 21663.8 601.610  26
  -7  -3  -5 34533.2 831.044  36
  -7  -3  -5 34728.1 804.239  35
  -7  -3  -5 35918.7 810.975  26
  -7  -3  -5 32804.6 974.532  38
  -7  -3  -5 36247.1 870.913  37
  -7  -3  -4 20000.6 641.062  37
  -7  -3  -4 20243.6 608.754  36
  -7  -3  -4 19244.4 640.101   2
  -7  -3  -4 20299.5 647.385  27
  -7  -3  -4 18211.3 721.381  38
  -7  -3  -3 19560.1 609.358  36
  -7  -3  -3 19149.3 639.107  27
  -7  -3  -3 20348.9 651.650  46
  -7  -3  -3 19566.6 623.963  37
  -7  -3  -3 19819.9 621.797   6
  -7  -3  -3 20024.2 642.232   2
  -7  -3  -2 3719.94 277.937  27
  -7  -3  -2 3263.20 265.823  46
  -7  -3  -2 3541.84 267.380   2
  -7  -3  -2 3711.18 271.203   6
  -7  -3  -2 3689.40 257.290  36
  -7  -3  -1 5438.09 338.315  46
  -7  -3  -1 5603.60 347.298   2
  -7  -3  -1 5587.86 304.773  36
  -7  -3  -1 5758.20 334.904   6
  -7  -3   0 12076.7 506.857  46
  -7  -3   0 11873.7 483.983   6
  -7  -3   0 11763.2 504.272  47
  -7  -3   1 3846.23 284.556  47
  -7  -3   1 4247.80 279.396   6
  -7  -3   1 4052.19 290.143  46
  -7  -3   2 8027.10 394.729  46
  -7  -3   2 7173.83 306.060   4
  -7  -3   2 8011.38 374.595   6
  -7  -3   3 1523.15 165.536   6
  -7  -3   3 1548.34 178.995  46
  -7  -3   3 1986.62 196.733  47
  -7  -3   4 13115.5 429.459   6
  -7  -3   4 13733.0 465.177  47
  -7  -3   4 12937.8 444.645  51
  -7  -3   4 13460.9 466.627  46
  -7  -3   5 7045.72 296.437  51
  -7  -3   5 7192.06 256.387   6
  -7  -3   6 2999.65 148.123  46
  -7  -3   6 3000.62 171.618  47
  -7  -2 -11 998.534 82.3754  35
  -7  -2 -11 966.795 80.4480  26
  -7  -2 -10 4347.92 206.075  26
  -7  -2 -10 3980.96 191.780  36
  -7  -2 -10 4291.37 201.362  35
  -7  -2  -9 1850.59 157.194  26
  -7  -2  -9 1763.60 149.413  36
  -7  -2  -9 1941.57 166.329  37
  -7  -2  -9 1775.13 149.762  35
  -7  -2  -9 1860.22 181.828  38
  -7  -2  -8 8626.47 353.382  36
  -7  -2  -8 8497.31 345.011  26
  -7  -2  -8 8597.49 341.765  35
  -7  -2  -8 8411.34 408.425  38
  -7  -2  -8 8341.78 366.861  37
  -7  -2  -7 147.726 94.9032  38
  -7  -2  -7 71.5080 69.0821  36
  -7  -2  -7 142.404 74.4600  35
  -7  -2  -7 55.7073 69.0822  37
  -7  -2  -7 148.375 72.7171  26
  -7  -2  -6 7896.34 383.992   2
  -7  -2  -6 7873.13 393.396  27
  -7  -2  -6 7653.68 385.390  37
  -7  -2  -6 8295.23 362.565  35
  -7  -2  -6 7900.19 367.872  36
  -7  -2  -6 7770.38 352.669  26
  -7  -2  -5 18406.6 619.673   2
  -7  -2  -5 17525.3 548.918   4
  -7  -2  -5 19278.9 596.663  36
  -7  -2  -5 19311.2 624.418  27
  -7  -2  -5 18189.0 612.550  37
  -7  -2  -4 3864.33 278.855  27
  -7  -2  -4 4103.71 287.401   2
  -7  -2  -4 3651.79 273.126  37
  -7  -2  -4 3682.01 263.231  36
  -7  -2  -3 3999.17 290.072   2
  -7  -2  -3 4538.89 292.254   6
  -7  -2  -3 3976.86 261.667   4
  -7  -2  -3 4349.95 290.128  37
  -7  -2  -3 4266.71 283.298  36
  -7  -2  -3 4107.72 288.198  27
  -7  -2  -2 15103.5 564.100  46
  -7  -2  -2 14284.8 502.101  36
  -7  -2  -2 14921.4 543.950   6
  -7  -2  -2 13317.7 480.856   4
  -7  -2  -2 13875.6 539.674   2
  -7  -2  -2 13772.4 538.006  27
  -7  -2  -1 14706.2 549.359  27
  -7  -2  -1 12458.2 472.528   4
  -7  -2  -1 13927.2 541.578   2
  -7  -2  -1 13426.8 527.877   6
  -7  -2  -1 15515.5 570.013  46
  -7  -2   0 5312.86 337.101  46
  -7  -2   0 6225.00 357.703  47
  -7  -2   0 5595.86 331.413  27
  -7  -2   0 5265.25 328.128   2
  -7  -2   0 5841.12 337.453   6
  -7  -2   1 1055.03 156.178   2
  -7  -2   1 1056.71 141.578   4
  -7  -2   1 1220.19 165.351  47
  -7  -2   1 1170.17 157.946   6
  -7  -2   1 1251.89 173.851  46
  -7  -2   2 13176.8 430.625   4
  -7  -2   2 14565.6 522.046   6
  -7  -2   2 13931.6 531.661  46
  -7  -2   2 15164.2 541.562  47
  -7  -2   3 488.240 103.280   6
  -7  -2   3 392.946 117.334  51
  -7  -2   3 535.833 124.912  46
  -7  -2   3 571.820 115.880  47
  -7  -2   4 3403.59 215.724   6
  -7  -2   4 3722.83 246.712  46
  -7  -2   4 3522.49 232.525  47
  -7  -2   5 176.293 81.8459  51
  -7  -2   5 93.0891 72.5095  47
  -7  -2   5 147.700 68.5452  46
  -7  -2   5 73.9780 45.3369   6
  -7  -2   6 9177.65 286.067  46
  -7  -2   6 6832.42 262.161  47
  -7  -1 -11 826.374 75.6564  35
  -7  -1 -11 913.018 77.5567  26
  -7  -1 -10 189.950 55.8796  36
  -7  -1 -10 141.329 58.6976  37
  -7  -1 -10 144.045 51.3083  26
  -7  -1 -10 161.426 52.7822  35
  -7  -1  -9 2922.24 190.735  26
  -7  -1  -9 3152.02 191.754  35
  -7  -1  -9 3007.76 208.584  37
  -7  -1  -9 2932.84 194.754  36
  -7  -1  -8 18567.0 564.803  37
  -7  -1  -8 18979.0 532.053  26
  -7  -1  -8 19800.8 531.567  35
  -7  -1  -8 18454.2 542.051  36
  -7  -1  -7 30561.2 703.536  35
  -7  -1  -7 29012.1 722.712  36
  -7  -1  -7 28280.5 746.448  37
  -7  -1  -7 28496.7 697.023  26
  -7  -1  -6 757.976 135.495  37
  -7  -1  -6 731.268 118.632   4
  -7  -1  -6 884.394 139.750  27
  -7  -1  -6 885.115 128.099  26
  -7  -1  -6 888.419 137.541  36
  -7  -1  -6 810.111 136.741   2
  -7  -1  -6 840.599 118.552  35
  -7  -1  -5 18717.6 660.218  34
  -7  -1  -5 18357.3 561.709   4
  -7  -1  -5 18447.7 617.952  27
  -7  -1  -5 19234.8 624.997   2
  -7  -1  -5 19176.5 607.232  36
  -7  -1  -5 19473.3 629.947  37
  -7  -1  -4 2583.57 232.350  37
  -7  -1  -4 2283.66 203.001   4
  -7  -1  -4 2598.36 221.461  36
  -7  -1  -4 2394.78 245.583  34
  -7  -1  -4 2527.61 230.856   2
  -7  -1  -4 2470.81 224.182  27
  -7  -1  -3 4726.54 308.093  37
  -7  -1  -3 4726.61 311.419   2
  -7  -1  -3 5083.56 349.090  34
  -7  -1  -3 5008.37 317.259  27
  -7  -1  -3 4890.96 306.244   6
  -7  -1  -3 5247.12 307.602  36
  -7  -1  -2 21835.8 735.724  34
  -7  -1  -2 19704.7 605.454   4
  -7  -1  -2 22170.9 678.262   6
  -7  -1  -2 20848.5 622.770  36
  -7  -1  -2 22561.8 702.742  27
  -7  -1  -2 21470.9 675.310   2
  -7  -1  -1 4730.53 305.394  47
  -7  -1  -1 5465.42 329.133   6
  -7  -1  -1 5226.94 329.762  46
  -7  -1  -1 5213.82 326.115  27
  -7  -1  -1 5281.11 351.596  34
  -7  -1  -1 5397.73 331.870   2
  -7  -1  -1 4979.63 295.432   4
  -7  -1   0 12758.6 498.502   6
  -7  -1   0 12517.3 508.777  46
  -7  -1   0 12219.7 458.719   4
  -7  -1   0 12091.3 503.881   2
  -7  -1   0 10652.7 461.997  47
  -7  -1   0 12743.2 506.964  27
  -7  -1   1 8429.47 401.247   6
  -7  -1   1 8602.36 421.334  46
  -7  -1   1 9156.40 415.927  47
  -7  -1   1 8394.09 392.896  27
  -7  -1   1 8447.23 413.235   2
  -7  -1   2 6868.35 366.916  46
  -7  -1   2 6934.82 352.784  47
  -7  -1   2 6341.16 331.162   2
  -7  -1   2 6991.18 358.166   6
  -7  -1   3 9498.43 412.569  46
  -7  -1   3 8715.95 394.840  47
  -7  -1   3 9235.73 384.988   6
  -7  -1   4 239.999 74.2487   6
  -7  -1   4 307.693 98.5818  46
  -7  -1   4 411.918 105.322  47
  -7  -1   5 224.444 75.5237  47
  -7  -1   5 168.069 51.2607   6
  -7  -1   5 279.565 79.2381  46
  -7  -1   6 3038.45 163.996  46
  -7  -1   6 2028.97 143.729  47
  -7   0 -11 3146.17 133.005  26
  -7   0 -11 2904.55 122.757  35
  -7   0 -10 136.246 49.9107  26
  -7   0 -10 68.2270 39.7066  35
  -7   0 -10 160.578 57.2518  37
  -7   0 -10 167.201 49.1245  36
  -7   0  -9 1216.49 138.520  37
  -7   0  -9 1341.40 131.052  36
  -7   0  -9 1157.59 115.499  35
  -7   0  -9 1116.76 121.428  26
  -7   0  -8 15917.6 456.967  35
  -7   0  -8 15260.9 468.090  26
  -7   0  -8 15535.7 503.800  37
  -7   0  -8 15738.9 486.132  36
  -7   0  -7 6548.60 326.545  27
  -7   0  -7 6402.16 338.030  37
  -7   0  -7 6367.32 325.004  36
  -7   0  -7 6752.65 311.316  26
  -7   0  -7 6467.29 297.111  35
  -7   0  -6 28122.3 737.603   2
  -7   0  -6 26705.3 736.413  27
  -7   0  -6 26880.5 748.926  37
  -7   0  -6 27331.4 786.123  34
  -7   0  -6 29760.9 700.229   4
  -7   0  -6 26712.9 725.467  36
  -7   0  -5 10923.0 453.256  36
  -7   0  -5 10666.0 465.698  27
  -7   0  -5 11190.0 472.940  37
  -7   0  -5 10650.4 457.760   2
  -7   0  -5 10248.0 413.735   4
  -7   0  -5 10967.9 494.122  34
  -7   0  -4 7831.08 394.983   2
  -7   0  -4 7432.52 351.825   4
  -7   0  -4 7071.16 382.708  37
  -7   0  -4 7138.05 405.267  34
  -7   0  -4 7711.02 378.092  36
  -7   0  -4 7181.00 378.167  27
  -7   0  -3 6183.32 345.610   6
  -7   0  -3 5927.47 319.171   4
  -7   0  -3 6130.96 381.631  34
  -7   0  -3 5599.43 339.025  37
  -7   0  -3 5980.66 352.564  27
  -7   0  -3 6462.73 344.902  36
  -7   0  -3 6378.02 363.212   2
  -7   0  -2 1724.82 209.289  34
  -7   0  -2 1641.87 188.742   2
  -7   0  -2 1743.66 195.162  27
  -7   0  -2 1673.79 171.782   4
  -7   0  -2 1754.57 196.790   6
  -7   0  -1 22215.3 729.495  34
  -7   0  -1 22288.6 696.636   2
  -7   0  -1 23596.1 711.365  27
  -7   0  -1 22293.4 683.000   6
  -7   0  -1 22563.0 684.559  46
  -7   0  -1 20455.1 663.579  33
  -7   0  -1 21236.3 620.480   4
  -7   0   0 720.918 129.477   4
  -7   0   0 797.979 146.917  34
  -7   0   0 878.948 144.431   6
  -7   0   0 802.032 138.698  27
  -7   0   0 806.362 145.329  33
  -7   0   0 920.827 146.460   2
  -7   0   0 867.061 143.591  46
  -7   0   1 2715.68 224.979  27
  -7   0   1 3157.50 238.181  47
  -7   0   1 2967.00 243.490   2
  -7   0   1 3147.19 248.840   6
  -7   0   1 2950.69 246.320  46
  -7   0   1 3249.08 260.123  33
  -7   0   2 10690.5 436.446  47
  -7   0   2 11992.0 475.817  33
  -7   0   2 12105.4 465.074   6
  -7   0   2 11400.0 437.041   2
  -7   0   2 11906.1 474.906  46
  -7   0   3 156.588 79.8297  47
  -7   0   3 206.956 92.0229  46
  -7   0   3 150.643 74.2449   6
  -7   0   4 5588.70 274.144   6
  -7   0   4 6095.75 305.787  46
  -7   0   5 1891.33 158.394  46
  -7   0   5 1579.17 137.107  47
  -7   0   6 966.860 93.4963  46
  -7   0   6 680.961 82.3608  47
  -7   1 -10 3988.01 185.127  37
  -7   1 -10 3722.69 167.407  26
  -7   1 -10 3855.00 174.601  36
  -7   1  -9 668.383 99.0773  37
  -7   1  -9 576.636 85.3527  26
  -7   1  -9 661.530 93.8633  36
  -7   1  -9 639.744 81.4406  35
  -7   1  -8 9459.57 319.456  35
  -7   1  -8 10028.4 384.691  37
  -7   1  -8 8971.64 337.353  26
  -7   1  -8 9510.92 367.822  36
  -7   1  -7 9609.37 362.483  26
  -7   1  -7 10751.7 411.100  27
  -7   1  -7 11127.8 431.226  37
  -7   1  -7 10863.9 452.967  34
  -7   1  -7 10940.9 412.358  36
  -7   1  -6 16897.9 551.238  36
  -7   1  -6 17375.8 557.115   2
  -7   1  -6 17307.6 572.314  37
  -7   1  -6 18108.6 586.492  27
  -7   1  -6 18468.4 616.366  34
  -7   1  -6 16382.1 502.910   4
  -7   1  -5 23741.1 700.554  37
  -7   1  -5 24063.6 680.683  36
  -7   1  -5 24913.1 704.586   2
  -7   1  -5 24700.6 707.066  27
  -7   1  -5 22922.5 626.194   4
  -7   1  -5 24466.2 737.918  34
  -7   1  -4 1745.35 207.284  34
  -7   1  -4 1613.59 185.301   2
  -7   1  -4 1918.77 204.246  27
  -7   1  -4 1514.39 173.513  36
  -7   1  -4 1634.28 184.451  37
  -7   1  -3 8221.51 404.959   2
  -7   1  -3 7822.02 400.385  27
  -7   1  -3 8629.49 398.455   6
  -7   1  -3 8074.36 377.850  36
  -7   1  -3 7897.58 390.139  37
  -7   1  -3 7499.60 423.454  34
  -7   1  -2 14308.2 579.021  34
  -7   1  -2 14346.1 544.172  27
  -7   1  -2 13981.0 533.146   2
  -7   1  -2 13619.4 522.034   6
  -7   1  -2 12649.3 508.577  33
  -7   1  -1 11248.3 474.400   6
  -7   1  -1 11461.2 483.011  27
  -7   1  -1 11348.9 478.592   2
  -7   1  -1 11333.3 507.359  34
  -7   1  -1 10997.6 469.806  33
  -7   1   0 49993.4 1067.70  46
  -7   1   0 53054.9 1101.09  33
  -7   1   0 50581.0 1081.65  27
  -7   1   0 51704.7 1073.07   6
  -7   1   0 51421.4 1087.07   2
  -7   1   0 49772.4 1116.70  34
  -7   1   1 1317.72 164.241  33
  -7   1   1 1223.48 158.862   2
  -7   1   1 1299.73 163.459  46
  -7   1   1 1231.29 152.394  27
  -7   1   1 1166.18 158.812   6
  -7   1   1 1007.36 130.679   4
  -7   1   2 3509.84 245.473   6
  -7   1   2 3516.95 251.477  33
  -7   1   2 3462.87 249.339  46
  -7   1   2 3331.87 226.854   2
  -7   1   3 18267.2 543.412  33
  -7   1   3 19129.6 543.825   6
  -7   1   3 17045.7 497.066  47
  -7   1   3 18993.9 568.201  46
  -7   1   4 4365.28 225.704   6
  -7   1   4 4403.23 231.082  47
  -7   1   4 4841.23 260.657  46
  -7   1   5 7231.09 285.113  46
  -7   1   5 6203.14 247.281  47
  -7   1   6 1803.80 115.779  46
  -7   2 -10 4302.08 170.253  37
  -7   2 -10 4178.96 161.653  36
  -7   2  -9 316.330 72.7441  37
  -7   2  -9 328.202 61.4357  26
  -7   2  -9 347.758 70.0845  36
  -7   2  -8 2627.67 165.461  26
  -7   2  -8 2946.43 190.550  36
  -7   2  -8 2781.38 194.648  37
  -7   2  -7 5010.98 267.497  27
  -7   2  -7 5015.96 288.562  34
  -7   2  -7 4859.95 260.113  36
  -7   2  -7 4785.30 278.325  37
  -7   2  -6 8612.47 379.580  27
  -7   2  -6 8699.63 336.362   4
  -7   2  -6 9025.30 411.605  34
  -7   2  -6 8644.40 386.261  37
  -7   2  -6 8820.06 370.484   2
  -7   2  -6 9067.06 379.391  36
  -7   2  -5 2484.80 211.553   2
  -7   2  -5 2739.58 239.545  34
  -7   2  -5 2595.82 220.690  27
  -7   2  -5 2522.01 216.881  37
  -7   2  -5 2537.49 205.569  36
  -7   2  -4 4848.07 315.746  34
  -7   2  -4 4677.90 273.027   6
  -7   2  -4 4310.60 277.369  33
  -7   2  -4 4892.34 299.149   2
  -7   2  -4 4625.26 293.209  37
  -7   2  -4 4629.60 298.305  27
  -7   2  -4 4914.20 285.586  36
  -7   2  -3 2073.05 195.128  37
  -7   2  -3 2107.00 223.703  34
  -7   2  -3 2157.49 187.704  36
  -7   2  -3 2095.72 201.091  33
  -7   2  -3 2401.37 204.882   6
  -7   2  -3 2212.23 210.073   2
  -7   2  -3 2332.11 219.388  27
  -7   2  -2 3328.14 274.574  34
  -7   2  -2 3507.32 253.979   6
  -7   2  -2 3340.70 256.657  33
  -7   2  -2 3419.23 254.326   2
  -7   2  -2 3680.18 267.730  27
  -7   2  -1 4773.56 298.892  27
  -7   2  -1 4697.14 319.537  34
  -7   2  -1 4860.20 301.355  33
  -7   2  -1 4865.30 304.316   2
  -7   2  -1 4703.98 295.449   6
  -7   2   0 8557.28 412.555  34
  -7   2   0 9092.39 409.602   6
  -7   2   0 8952.60 401.236  27
  -7   2   0 8556.52 381.414  46
  -7   2   0 8581.90 394.430  33
  -7   2   0 8903.55 404.055   2
  -7   2   1 27799.0 711.295   6
  -7   2   1 27119.7 709.150  46
  -7   2   1 26264.5 703.579  33
  -7   2   1 27264.7 702.529   2
  -7   2   1 28641.2 695.642  27
  -7   2   2 3870.70 248.426  46
  -7   2   2 3497.90 218.632   2
  -7   2   2 3789.29 242.460   6
  -7   2   2 3552.41 239.910  33
  -7   2   3 762.196 117.690  46
  -7   2   3 800.393 113.052  33
  -7   2   3 763.685 111.800   6
  -7   2   4 1220.24 127.892  46
  -7   2   4 1278.69 116.972   6
  -7   2   4 1022.76 109.876  33
  -7   2   5 2818.64 160.853  46
  -7   3  -9 2898.67 144.358  36
  -7   3  -9 2855.53 151.628  37
  -7   3  -8 525.003 85.1806  37
  -7   3  -8 564.415 81.2655  36
  -7   3  -7 1886.78 164.259  37
  -7   3  -7 1750.61 160.802  34
  -7   3  -7 1864.03 150.352  27
  -7   3  -7 1914.56 154.406  36
  -7   3  -6 13427.6 430.868   2
  -7   3  -6 13824.1 453.480  27
  -7   3  -6 13478.6 476.397  34
  -7   3  -6 13542.2 460.022  37
  -7   3  -6 13400.2 434.683  36
  -7   3  -5 2465.09 201.568  27
  -7   3  -5 2604.58 195.253  36
  -7   3  -5 2448.39 197.303   2
  -7   3  -5 2483.42 218.562  34
  -7   3  -5 2401.53 199.080  37
  -7   3  -4 4107.54 239.125   6
  -7   3  -4 4096.99 242.820  36
  -7   3  -4 4404.89 279.484  27
  -7   3  -4 4054.31 260.024  37
  -7   3  -4 4407.43 269.352   2
  -7   3  -4 4283.10 288.169  34
  -7   3  -3 2383.30 209.545  27
  -7   3  -3 1900.61 174.687  37
  -7   3  -3 2553.24 199.300   6
  -7   3  -3 2222.32 200.240   2
  -7   3  -3 2258.39 195.197  33
  -7   3  -3 2459.70 228.233  34
  -7   3  -2 19774.5 594.578   2
  -7   3  -2 18805.3 628.090  34
  -7   3  -2 19964.5 594.614  33
  -7   3  -2 20033.9 607.866  27
  -7   3  -2 19658.2 585.547   6
  -7   3  -1 132.130 75.1645  34
  -7   3  -1 187.342 85.3158  33
  -7   3  -1 176.879 86.7621   6
  -7   3  -1 135.166 74.8437  27
  -7   3  -1 114.559 74.8168   2
  -7   3   0 1297.04 157.487   6
  -7   3   0 1289.46 157.695  34
  -7   3   0 1387.81 157.232   2
  -7   3   0 1302.54 148.395  27
  -7   3   0 1307.48 154.834  33
  -7   3   1 3471.26 230.455   6
  -7   3   1 3200.90 205.620  27
  -7   3   1 3193.89 224.138  33
  -7   3   1 3217.29 216.076   2
  -7   3   1 3223.94 213.854  46
  -7   3   2 4489.86 227.173   2
  -7   3   2 4981.05 262.108  33
  -7   3   2 4796.23 258.125   6
  -7   3   2 4582.81 251.027  46
  -7   3   3 3175.70 197.336  46
  -7   3   3 3187.47 195.625  33
  -7   3   3 3168.57 187.044   6
  -7   3   4 4651.46 200.631  33
  -7   3   4 4658.30 187.073   6
  -7   3   5 606.089 67.8096  46
  -7   4  -8 221.969 47.4704  36
  -7   4  -8 220.515 53.0561  37
  -7   4  -7 2074.57 147.421  34
  -7   4  -7 2263.93 148.050  36
  -7   4  -7 2233.75 153.963  37
  -7   4  -7 1994.69 130.710  27
  -7   4  -6 7612.55 298.068  27
  -7   4  -6 7462.27 281.087   2
  -7   4  -6 7140.91 296.040  37
  -7   4  -6 7442.74 316.023  34
  -7   4  -6 7363.24 285.306  36
  -7   4  -5 283.656 70.8189  36
  -7   4  -5 329.550 79.7593   2
  -7   4  -5 313.248 76.2221  37
  -7   4  -5 360.769 89.4209  27
  -7   4  -5 330.160 87.8058  34
  -7   4  -4 1789.98 158.228  37
  -7   4  -4 1791.01 147.415  36
  -7   4  -4 1995.81 175.272  27
  -7   4  -4 1778.05 177.145  34
  -7   4  -4 1633.75 138.981   6
  -7   4  -4 1974.15 172.762   2
  -7   4  -3 6760.63 321.312  27
  -7   4  -3 6906.21 303.723  33
  -7   4  -3 6117.76 280.025  37
  -7   4  -3 7223.76 326.281   2
  -7   4  -3 6761.77 338.764  34
  -7   4  -3 7141.89 309.048   6
  -7   4  -2 1677.91 157.636   6
  -7   4  -2 1570.28 175.454  34
  -7   4  -2 1497.78 157.044  27
  -7   4  -2 1530.29 152.958  33
  -7   4  -2 1686.27 162.852   2
  -7   4  -1 15713.1 519.363  34
  -7   4  -1 15436.9 479.888   6
  -7   4  -1 16212.6 490.942  33
  -7   4  -1 16320.3 496.481  27
  -7   4  -1 15937.8 492.952   2
  -7   4   0 22808.5 582.183  33
  -7   4   0 22918.8 605.728  34
  -7   4   0 22707.2 579.233   2
  -7   4   0 22341.9 566.957  27
  -7   4   0 22211.4 569.573   6
  -7   4   1 4868.88 237.671   2
  -7   4   1 4514.34 236.698   6
  -7   4   1 3953.35 201.679  27
  -7   4   1 4986.18 251.172  33
  -7   4   1 4036.79 217.112  34
  -7   4   1 3991.47 205.545  46
  -7   4   2 1775.27 144.339   6
  -7   4   2 2038.83 155.025  33
  -7   4   2 1854.12 139.299  46
  -7   4   3 10316.4 308.055  46
  -7   4   3 10320.6 316.293  33
  -7   4   4 3922.51 161.759  46
  -7   5  -7 8970.60 234.958  36
  -7   5  -7 10199.5 266.423  37
  -7   5  -6 8666.28 266.212  27
  -7   5  -6 8134.27 244.147  36
  -7   5  -6 8909.06 278.550  37
  -7   5  -6 9188.40 292.574  34
  -7   5  -5 6712.54 275.199  34
  -7   5  -5 6071.72 240.271  37
  -7   5  -5 6776.69 261.187  27
  -7   5  -5 6587.34 251.794   2
  -7   5  -4 752.085 88.0722  37
  -7   5  -4 837.669 101.315  27
  -7   5  -4 893.346 112.801  34
  -7   5  -4 834.251 101.846   2
  -7   5  -3 692.883 96.3157  27
  -7   5  -3 637.602 95.8089   2
  -7   5  -3 664.285 104.462  34
  -7   5  -3 515.603 79.1307   6
  -7   5  -2 368.458 74.0853  33
  -7   5  -2 441.493 84.5530  27
  -7   5  -2 457.788 95.3005  34
  -7   5  -2 420.029 80.0818   6
  -7   5  -2 356.229 82.2930   2
  -7   5  -1 1548.01 146.256  34
  -7   5  -1 1709.28 139.968  27
  -7   5  -1 1539.98 135.533   2
  -7   5  -1 1677.30 140.714  33
  -7   5  -1 1625.77 139.529   6
  -7   5   0 3985.75 205.739  33
  -7   5   0 3692.98 203.293  34
  -7   5   0 3614.94 194.117   2
  -7   5   0 3750.54 188.877  27
  -7   5   0 3473.89 192.596   6
  -7   5   1 96.4566 50.8690   6
  -7   5   1 2.69109 29.2811   4
  -7   5   1 45.4698 46.2324  33
  -7   5   1 56.7774 36.5254   2
  -7   5   2 4680.61 195.441  33
  -7   5   2 4059.45 174.152   6
  -7   6  -4 3814.70 164.000   2
  -7   6  -4 3898.62 169.859  27
  -7   6  -4 3966.10 179.530  34
  -7   6  -3 1483.26 109.749  27
  -7   6  -3 1517.12 116.036  34
  -7   6  -3 1477.77 109.628   2
  -7   6  -2 991.500 87.8078   6
  -7   6  -2 1224.64 107.272  34
  -7   6  -2 1263.69 101.300  27
  -7   6  -2 1217.89 99.4575   2
  -7   6  -1 220.404 52.6718  34
  -7   6  -1 264.085 52.6764   2
  -7   6  -1 257.409 48.5393  27
  -7   6  -1 236.464 50.1789   6
  -7   6  -1 204.956 44.2427  33
  -7   6   0 2471.72 128.336  33
  -6 -10  -4 2841.50 155.926   4
  -6 -10  -3 937.054 131.662   4
  -6 -10  -3 1050.70 122.538  25
  -6 -10  -2 2140.83 162.348   4
  -6 -10  -2 1075.09 129.616  25
  -6 -10  -1 574.844 110.200  25
  -6 -10   0 1070.90 125.248  25
  -6  -9  -7 5629.35 274.432  38
  -6  -9  -7 6685.88 244.486  48
  -6  -9  -6 2146.76 134.455   4
  -6  -9  -6 2746.63 215.095  38
  -6  -9  -6 2730.37 176.229  48
  -6  -9  -5 7636.66 314.133  48
  -6  -9  -5 7116.53 371.740  38
  -6  -9  -4 4462.55 308.158  38
  -6  -9  -4 5387.91 303.669  25
  -6  -9  -3 5445.09 352.933  38
  -6  -9  -3 6112.24 345.809  25
  -6  -9  -2 1161.25 178.771  38
  -6  -9  -2 1330.88 174.881  25
  -6  -9  -1 709.297 143.765  25
  -6  -9   0 1829.57 205.476  25
  -6  -9   0 15235.8 440.056   4
  -6  -9   1 7680.25 380.373  25
  -6  -9   2 4462.09 268.714  25
  -6  -8  -9 2153.10 158.053  38
  -6  -8  -9 2323.77 126.232  48
  -6  -8  -8 6815.06 328.864  38
  -6  -8  -8 7516.66 270.309  48
  -6  -8  -7 4759.40 299.773  38
  -6  -8  -7 5068.45 243.759  48
  -6  -8  -6 7757.11 334.710  48
  -6  -8  -6 7493.85 415.032  38
  -6  -8  -5 2810.67 179.465   4
  -6  -8  -5 2332.48 190.610  48
  -6  -8  -5 2225.37 249.457  38
  -6  -8  -4 2241.89 170.237   4
  -6  -8  -4 2078.64 244.543  38
  -6  -8  -4 2289.24 196.378  48
  -6  -8  -3 10665.9 539.422  38
  -6  -8  -3 11574.0 508.535  25
  -6  -8  -3 12013.0 391.578   4
  -6  -8  -2 3955.51 338.664  38
  -6  -8  -2 4744.94 249.670   4
  -6  -8  -2 4842.62 337.974  25
  -6  -8  -1 3495.92 294.559  25
  -6  -8  -1 3357.97 203.723   4
  -6  -8  -1 3156.62 285.847  38
  -6  -8   0 3797.83 214.379   4
  -6  -8   0 3290.77 283.855  25
  -6  -8   1 387.073 125.440  25
  -6  -8   2 11414.7 361.295   4
  -6  -8   2 1817.58 210.413  25
  -6  -8   3 3134.87 250.326  25
  -6  -8   4 2046.58 186.427  25
  -6  -7 -10 2456.18 169.426  38
  -6  -7 -10 2266.27 121.141  48
  -6  -7  -9 7475.65 273.526  35
  -6  -7  -9 7348.86 266.697  48
  -6  -7  -9 7557.59 349.902  38
  -6  -7  -9 7246.30 265.922  41
  -6  -7  -8 8795.09 328.642  41
  -6  -7  -8 8764.92 325.507  48
  -6  -7  -8 8760.33 415.827  38
  -6  -7  -8 8579.98 326.853  35
  -6  -7  -7 710.745 146.814  38
  -6  -7  -7 803.187 120.735  35
  -6  -7  -7 797.884 115.689  41
  -6  -7  -7 934.300 124.157  48
  -6  -7  -6 6707.25 323.597  35
  -6  -7  -6 7415.12 338.281  48
  -6  -7  -6 6395.32 416.379  38
  -6  -7  -6 7362.83 289.542   4
  -6  -7  -5 11015.3 549.449  38
  -6  -7  -5 11797.7 400.632   4
  -6  -7  -5 11572.3 438.256  35
  -6  -7  -5 11647.3 446.381  48
  -6  -7  -4 9206.83 357.706   4
  -6  -7  -4 8725.14 395.869  48
  -6  -7  -4 8331.38 481.824  38
  -6  -7  -3 18423.1 580.159   6
  -6  -7  -3 18581.3 526.624   4
  -6  -7  -3 16939.5 574.092  48
  -6  -7  -2 12406.8 423.562   4
  -6  -7  -2 11715.0 591.833  38
  -6  -7  -1 13750.2 454.000   4
  -6  -7  -1 14450.1 521.276   6
  -6  -7  -1 14709.6 545.907  46
  -6  -7  -1 13070.1 596.086  25
  -6  -7   0 33027.8 972.356  25
  -6  -7   0 32959.6 720.999   4
  -6  -7   0 34208.8 812.878   6
  -6  -7   0 32476.3 844.644  46
  -6  -7   1 19921.4 634.437  46
  -6  -7   1 19456.8 733.040  25
  -6  -7   1 18871.5 520.003   4
  -6  -7   1 20708.7 605.073   6
  -6  -7   2 3020.56 238.511  46
  -6  -7   2 2630.73 171.993   4
  -6  -7   2 2844.92 272.686  25
  -6  -7   2 2860.61 216.758   6
  -6  -7   3 2916.46 209.765   6
  -6  -7   3 2873.41 265.401  25
  -6  -7   3 2992.46 221.480  46
  -6  -7   3 2437.09 207.784  47
  -6  -7   4 15162.4 554.556  38
  -6  -7   5 140.699 88.8474  25
  -6  -6 -11 1643.39 129.639  38
  -6  -6 -10 4719.46 268.233  38
  -6  -6 -10 4195.70 189.702  48
  -6  -6 -10 4148.30 192.238  41
  -6  -6 -10 4224.87 195.232  35
  -6  -6  -9 8343.92 402.262  38
  -6  -6  -9 8220.44 306.375  48
  -6  -6  -9 8324.77 316.091  35
  -6  -6  -9 8382.88 314.234  26
  -6  -6  -9 8870.06 323.947  41
  -6  -6  -8 3834.28 229.691  48
  -6  -6  -8 4093.20 237.235  35
  -6  -6  -8 3894.37 234.083  26
  -6  -6  -8 3921.62 233.234  41
  -6  -6  -8 3958.49 297.113  38
  -6  -6  -7 10808.5 414.168  48
  -6  -6  -7 10548.9 509.743  38
  -6  -6  -7 11007.3 416.168  41
  -6  -6  -7 10820.6 412.518  26
  -6  -6  -7 10920.8 411.756  35
  -6  -6  -6 470.894 101.101  48
  -6  -6  -6 628.395 157.423  38
  -6  -6  -6 601.667 119.176  26
  -6  -6  -6 670.377 117.400  35
  -6  -6  -6 484.640 90.3348   4
  -6  -6  -6 532.619 113.352  41
  -6  -6  -5 893.001 133.775  48
  -6  -6  -5 836.527 135.286  35
  -6  -6  -5 650.961 127.979  26
  -6  -6  -5 940.599 126.074   4
  -6  -6  -5 958.681 182.951  38
  -6  -6  -4 8641.16 397.493  48
  -6  -6  -4 9065.06 375.284   4
  -6  -6  -4 8221.06 385.706  35
  -6  -6  -4 8739.99 511.028  38
  -6  -6  -3 10565.7 566.705  38
  -6  -6  -3 9879.72 434.396  48
  -6  -6  -3 10566.5 413.062   4
  -6  -6  -3 10602.8 440.918   6
  -6  -6  -2 537.553 119.397  35
  -6  -6  -2 535.482 119.944   6
  -6  -6  -2 550.396 106.104   4
  -6  -6  -2 414.144 127.333  46
  -6  -6  -2 384.174 155.432  38
  -6  -6  -1 4027.93 255.671   4
  -6  -6  -1 4362.92 313.172  46
  -6  -6  -1 4492.44 290.007   6
  -6  -6   0 691.347 129.827   6
  -6  -6   0 719.446 122.173   4
  -6  -6   0 730.542 147.251  46
  -6  -6   0 712.759 150.137  47
  -6  -6   0 747.926 189.413  38
  -6  -6   1 34909.8 884.688  46
  -6  -6   1 33248.4 1014.59  25
  -6  -6   1 32368.7 735.634   4
  -6  -6   1 33513.0 824.775   6
  -6  -6   2 15021.0 654.087  25
  -6  -6   2 15333.6 533.780   6
  -6  -6   2 14710.9 555.848  47
  -6  -6   2 14106.8 436.294   4
  -6  -6   2 15450.0 561.282  46
  -6  -6   3 7592.28 347.630   6
  -6  -6   3 7077.71 437.301  25
  -6  -6   3 7317.56 367.785  47
  -6  -6   3 7572.03 371.809  46
  -6  -6   4 8549.08 349.749   6
  -6  -6   4 8419.26 365.741  46
  -6  -6   4 8668.47 380.128  47
  -6  -6   5 982.330 119.268  47
  -6  -6   5 641.317 100.637  51
  -6  -6   5 899.500 158.973  25
  -6  -6   5 763.419 99.3647  46
  -6  -6   6 596.633 82.9020  51
  -6  -5 -11 4962.56 192.003  35
  -6  -5 -11 5086.47 252.906  38
  -6  -5 -10 6394.45 252.528  48
  -6  -5 -10 6394.12 266.271  41
  -6  -5 -10 6523.35 264.376  35
  -6  -5 -10 6967.36 270.913  26
  -6  -5  -9 8358.25 325.668  48
  -6  -5  -9 9024.93 340.106  26
  -6  -5  -9 8601.73 342.727  41
  -6  -5  -9 8001.95 326.964  35
  -6  -5  -8 1394.72 152.571  26
  -6  -5  -8 1344.38 150.702  35
  -6  -5  -8 1211.82 141.504  48
  -6  -5  -8 1336.37 148.853  41
  -6  -5  -8 1240.46 143.911  36
  -6  -5  -7 1510.76 167.614  41
  -6  -5  -7 1635.75 171.618  26
  -6  -5  -7 1689.94 168.542  48
  -6  -5  -7 1659.53 172.574  36
  -6  -5  -7 1616.66 168.335  35
  -6  -5  -6 20220.2 608.143  48
  -6  -5  -6 20270.9 606.964  26
  -6  -5  -6 20247.9 608.362  36
  -6  -5  -6 19552.3 595.505  35
  -6  -5  -6 21697.9 787.996  38
  -6  -5  -6 20767.1 571.145   4
  -6  -5  -5 1914.94 186.066  35
  -6  -5  -5 1566.80 222.921  38
  -6  -5  -5 1761.52 184.895  26
  -6  -5  -5 1772.61 183.884  36
  -6  -5  -5 1734.73 166.514   4
  -6  -5  -4 22803.8 628.513   4
  -6  -5  -4 24327.7 683.413  26
  -6  -5  -4 23982.6 668.856  36
  -6  -5  -4 23584.3 851.038  38
  -6  -5  -4 24714.1 682.686  35
  -6  -5  -3 10678.7 478.979  46
  -6  -5  -3 10145.4 566.290  38
  -6  -5  -3 10763.6 457.779   6
  -6  -5  -3 11159.1 451.600  36
  -6  -5  -2 50867.5 1008.55   4
  -6  -5  -2 48654.9 1310.19  38
  -6  -5  -2 49306.6 1060.37  35
  -6  -5  -1 41242.3 881.829   4
  -6  -5  -1 41860.0 962.844   6
  -6  -5   0 42759.7 976.011   6
  -6  -5   0 44305.4 923.777   4
  -6  -5   1 16800.5 574.178   6
  -6  -5   1 16709.4 516.093   4
  -6  -5   1 18411.1 626.626  46
  -6  -5   1 14709.0 683.665  38
  -6  -5   1 14141.3 560.662  47
  -6  -5   2 1082.75 131.100   4
  -6  -5   2 1050.01 162.755  46
  -6  -5   2 914.712 147.436  51
  -6  -5   2 1334.34 178.167  47
  -6  -5   2 1031.08 145.537   6
  -6  -5   2 975.591 205.976  25
  -6  -5   3 12906.0 512.577  47
  -6  -5   3 12589.5 608.038  25
  -6  -5   3 13003.6 480.736   6
  -6  -5   3 11440.3 449.412  51
  -6  -5   3 12350.9 499.482  46
  -6  -5   4 4696.94 355.179  25
  -6  -5   4 4438.44 284.625  47
  -6  -5   4 4639.48 267.639   6
  -6  -5   4 3813.04 250.679  51
  -6  -5   4 4680.72 288.756  46
  -6  -5   5 3141.94 280.071  25
  -6  -5   5 2364.22 187.179  51
  -6  -5   5 3258.88 226.409  47
  -6  -5   5 3128.02 214.454  46
  -6  -5   6 8491.05 319.223  47
  -6  -5   6 8674.73 317.145  51
  -6  -5   7 512.989 75.9344  51
  -6  -4 -12 209.468 54.8750  38
  -6  -4 -11 424.393 72.4340  41
  -6  -4 -11 423.980 71.5232  35
  -6  -4 -11 384.632 58.7487  48
  -6  -4 -11 487.212 72.6558  26
  -6  -4 -10 1154.94 121.781  35
  -6  -4 -10 1049.13 116.645  26
  -6  -4 -10 1237.07 125.042  41
  -6  -4 -10 1083.38 112.604  48
  -6  -4  -9 6224.36 286.702  48
  -6  -4  -9 6738.63 310.051  41
  -6  -4  -9 7009.38 314.343  26
  -6  -4  -9 6847.09 295.762  36
  -6  -4  -9 6759.46 311.403  35
  -6  -4  -8 1901.63 175.771  36
  -6  -4  -8 2108.33 186.312  35
  -6  -4  -8 1937.00 180.708  26
  -6  -4  -8 1969.25 175.916  48
  -6  -4  -8 1712.38 175.368  41
  -6  -4  -7 1917.00 196.059  37
  -6  -4  -7 1848.36 184.660  36
  -6  -4  -7 2043.72 198.840  26
  -6  -4  -7 1765.78 187.389  35
  -6  -4  -6 45400.0 952.556  35
  -6  -4  -6 44148.9 950.927  26
  -6  -4  -6 42434.6 932.120  36
  -6  -4  -6 42344.1 964.336  37
  -6  -4  -5 12415.4 473.381  35
  -6  -4  -5 13592.2 635.151  38
  -6  -4  -5 11981.8 464.709  36
  -6  -4  -5 10688.6 423.432   4
  -6  -4  -5 11950.5 465.735  26
  -6  -4  -5 12305.9 483.979  37
  -6  -4  -4 89902.2 1487.22  35
  -6  -4  -4 92813.5 1496.80  26
  -6  -4  -4 92931.0 1491.28  36
  -6  -4  -4 87878.0 2878.00   3
  -6  -4  -4 95034.9 1563.95  37
  -6  -4  -3 1141.95 149.260   4
  -6  -4  -3 1387.49 159.338  35
  -6  -4  -3 1662.13 231.831  38
  -6  -4  -3 1394.37 164.767  36
  -6  -4  -3 1314.49 160.627   6
  -6  -4  -3 1011.82 161.236  46
  -6  -4  -3 1212.01 337.850   3
  -6  -4  -2 1754.92 198.052  46
  -6  -4  -2 966.933 168.701  47
  -6  -4  -2 1403.56 157.911  35
  -6  -4  -2 1734.31 179.928  36
  -6  -4  -2 1348.34 345.528   3
  -6  -4  -2 2108.65 203.001   6
  -6  -4  -2 1670.87 239.290  38
  -6  -4  -1 567.099 118.680  46
  -6  -4  -1 725.666 257.464   3
  -6  -4  -1 528.949 105.245   4
  -6  -4  -1 547.298 121.112   6
  -6  -4  -1 672.073 121.036  36
  -6  -4  -1 440.694 144.426  38
  -6  -4  -1 489.381 122.068  47
  -6  -4   0 3350.13 269.621  46
  -6  -4   0 3442.06 560.813   3
  -6  -4   0 3307.16 263.052   6
  -6  -4   0 3319.71 323.992  38
  -6  -4   0 3640.20 274.871  47
  -6  -4   1 12255.8 509.802  46
  -6  -4   1 13263.1 508.352   6
  -6  -4   1 11421.3 599.584  38
  -6  -4   2 11815.0 479.122   6
  -6  -4   2 11960.9 496.653  47
  -6  -4   2 11280.9 419.846   4
  -6  -4   2 12864.8 522.239  46
  -6  -4   3 3267.78 260.935  47
  -6  -4   3 3925.67 270.522   6
  -6  -4   3 3854.34 289.477  46
  -6  -4   4 2225.23 209.562  47
  -6  -4   4 2484.81 223.179  46
  -6  -4   4 2559.84 281.901  25
  -6  -4   4 2013.47 185.559   6
  -6  -4   5 5128.29 284.195  51
  -6  -4   5 5412.44 303.942  47
  -6  -4   5 4946.16 262.621   6
  -6  -4   6 17413.9 492.370  51
  -6  -4   6 17299.3 473.401  46
  -6  -4   7 14890.7 395.592  47
  -6  -3 -12 577.137 62.3443  26
  -6  -3 -12 579.759 63.7767  35
  -6  -3 -11 3176.31 175.297  35
  -6  -3 -11 3145.59 172.560  26
  -6  -3 -11 2809.75 161.764  41
  -6  -3 -10 3834.09 215.064  41
  -6  -3 -10 3995.97 225.661  26
  -6  -3 -10 3759.51 223.173  35
  -6  -3  -9 4542.33 255.118  36
  -6  -3  -9 5149.97 285.930  37
  -6  -3  -9 5074.03 274.624  35
  -6  -3  -9 5035.52 278.193  26
  -6  -3  -9 4959.28 267.706  41
  -6  -3  -8 10683.4 423.528  35
  -6  -3  -8 10473.3 932.913  17
  -6  -3  -8 10220.3 415.471  26
  -6  -3  -8 10308.3 437.378  37
  -6  -3  -8 9952.66 411.547  36
  -6  -3  -7 16281.7 1152.22  17
  -6  -3  -7 15722.1 534.482  36
  -6  -3  -7 16445.6 543.488  35
  -6  -3  -7 15063.5 531.422  26
  -6  -3  -7 15493.8 552.088  37
  -6  -3  -6 2843.35 228.420  35
  -6  -3  -6 2794.39 227.683  36
  -6  -3  -6 2675.92 230.193  37
  -6  -3  -6 2876.24 228.700  26
  -6  -3  -6 2425.00 197.870   4
  -6  -3  -5 3278.46 259.375   2
  -6  -3  -5 2680.40 488.926   3
  -6  -3  -5 3421.51 263.933  27
  -6  -3  -5 3443.80 248.194  26
  -6  -3  -5 3127.38 238.425  36
  -6  -3  -5 3302.98 255.984  37
  -6  -3  -5 3516.73 252.038  35
  -6  -3  -4 5934.07 347.777   2
  -6  -3  -4 5568.76 336.791  37
  -6  -3  -4 5251.99 304.099  35
  -6  -3  -4 5737.74 346.506  27
  -6  -3  -4 5515.86 692.075   3
  -6  -3  -4 5959.80 323.430  36
  -6  -3  -4 4980.26 293.381  26
  -6  -3  -4 5833.29 410.587  38
  -6  -3  -3 9574.51 444.005  46
  -6  -3  -3 10497.8 461.973   2
  -6  -3  -3 10420.9 462.400  27
  -6  -3  -3 9348.74 428.068   6
  -6  -3  -3 10258.5 435.414  36
  -6  -3  -3 8316.82 382.851  35
  -6  -3  -3 10113.3 912.533   3
  -6  -3  -3 10257.9 539.915  38
  -6  -3  -3 9695.22 449.911  37
  -6  -3  -2 11982.3 490.599   2
  -6  -3  -2 12085.8 491.068   6
  -6  -3  -2 12990.5 513.798  27
  -6  -3  -2 11779.9 500.496  46
  -6  -3  -2 12692.1 1002.36   3
  -6  -3  -2 12312.4 476.622  36
  -6  -3  -2 10864.9 462.439  37
  -6  -3  -2 10531.6 564.193  38
  -6  -3  -1 7847.52 399.909   2
  -6  -3  -1 6542.37 446.713  38
  -6  -3  -1 7774.57 806.211   3
  -6  -3  -1 8072.53 401.972   6
  -6  -3  -1 7135.06 356.103  36
  -6  -3  -1 8119.08 403.468  27
  -6  -3  -1 8026.70 412.480  46
  -6  -3   0 2490.89 468.003   3
  -6  -3   0 1951.32 252.309  38
  -6  -3   0 2771.84 245.809   2
  -6  -3   0 3057.36 245.700   6
  -6  -3   0 3061.52 248.446  27
  -6  -3   0 3111.81 259.787  46
  -6  -3   1 3999.23 292.832  46
  -6  -3   1 3804.37 279.323  47
  -6  -3   1 3758.99 270.841   6
  -6  -3   1 3196.40 530.327   3
  -6  -3   2 3365.43 261.751  47
  -6  -3   2 3938.18 277.771   6
  -6  -3   2 3847.96 287.354  46
  -6  -3   3 17331.9 615.623  46
  -6  -3   3 16633.6 572.769   6
  -6  -3   4 8545.76 401.756  47
  -6  -3   4 8844.40 424.317  46
  -6  -3   4 7738.63 366.601   6
  -6  -3   5 964.195 141.958  51
  -6  -3   5 1206.83 150.410  46
  -6  -3   5 1104.26 132.242   6
  -6  -3   6 958.105 127.683  47
  -6  -3   6 925.492 131.473  51
  -6  -3   6 986.856 125.966  46
  -6  -3   7 1218.19 124.282  51
  -6  -3   7 1053.56 118.187  47
  -6  -2 -12 134.311 40.3493  35
  -6  -2 -12 132.180 40.7031  26
  -6  -2 -11 12.5125 43.7393  35
  -6  -2 -11 65.7450 42.8908  41
  -6  -2 -11 87.7478 53.6222  26
  -6  -2 -10 1924.53 152.165  36
  -6  -2 -10 2182.03 172.801  35
  -6  -2 -10 2057.47 159.005  41
  -6  -2 -10 2089.42 169.108  37
  -6  -2 -10 1879.33 165.561  26
  -6  -2  -9 4809.30 282.368  37
  -6  -2  -9 4708.69 271.235  36
  -6  -2  -9 4890.94 282.775  26
  -6  -2  -8 627.873 128.163  26
  -6  -2  -8 542.018 115.790  37
  -6  -2  -8 501.061 132.055  35
  -6  -2  -8 496.500 249.859  17
  -6  -2  -8 606.018 115.984  36
  -6  -2  -7 25474.3 735.560  37
  -6  -2  -7 25968.4 713.753  36
  -6  -2  -7 27321.7 1477.41  17
  -6  -2  -7 25030.9 719.860  26
  -6  -2  -6 97321.7 2796.20  17
  -6  -2  -6 91804.4 1539.32  36
  -6  -2  -6 105357. 1617.05  35
  -6  -2  -6 79714.0 1512.50   2
  -6  -2  -6 97169.4 1581.61  26
  -6  -2  -6 88422.5 1550.88  37
  -6  -2  -6 81055.2 1427.10   4
  -6  -2  -6 94394.1 1604.40  27
  -6  -2  -5 63449.5 1205.13  36
  -6  -2  -5 63287.9 1249.40  27
  -6  -2  -5 63632.5 1258.48   2
  -6  -2  -5 54357.9 2210.90   3
  -6  -2  -5 57775.5 1135.54   4
  -6  -2  -5 67245.2 1222.18  35
  -6  -2  -5 63677.7 1250.84  37
  -6  -2  -5 59587.4 1185.06  26
  -6  -2  -4 2329.15 202.010  35
  -6  -2  -4 2574.01 248.468  34
  -6  -2  -4 2605.89 235.683  37
  -6  -2  -4 2709.43 226.871  36
  -6  -2  -4 2664.56 237.305   2
  -6  -2  -4 2483.16 212.111   4
  -6  -2  -4 2781.07 499.373   3
  -6  -2  -4 2603.17 233.630  27
  -6  -2  -3 6613.81 749.360   3
  -6  -2  -3 6464.64 362.948   2
  -6  -2  -3 6479.68 388.188  34
  -6  -2  -3 5735.70 334.649   6
  -6  -2  -3 5870.28 341.957  37
  -6  -2  -3 6306.63 340.088  36
  -6  -2  -3 6117.02 349.077  27
  -6  -2  -2 6066.61 345.045  27
  -6  -2  -2 5385.38 336.487  46
  -6  -2  -2 4577.93 308.601  37
  -6  -2  -2 6227.66 345.782   2
  -6  -2  -2 5678.69 367.879  34
  -6  -2  -2 5741.98 332.883   6
  -6  -2  -2 5407.15 311.629  36
  -6  -2  -2 6389.59 709.830   3
  -6  -2  -1 8307.47 451.151  34
  -6  -2  -1 10824.8 935.989   3
  -6  -2  -1 9893.50 450.843  27
  -6  -2  -1 7547.74 372.354  36
  -6  -2  -1 9966.76 450.070   2
  -6  -2  -1 9997.14 439.229   6
  -6  -2  -1 9446.97 443.095  46
  -6  -2   0 3765.73 281.700  27
  -6  -2   0 3861.90 281.794   6
  -6  -2   0 4266.77 294.087  47
  -6  -2   0 4040.80 290.702   2
  -6  -2   0 4214.22 587.233   3
  -6  -2   0 3892.41 290.443  46
  -6  -2   0 3752.32 261.065   4
  -6  -2   1 33728.5 844.878   6
  -6  -2   1 27622.1 1531.93   3
  -6  -2   1 31946.4 855.326   2
  -6  -2   1 28439.5 799.751  27
  -6  -2   1 35666.0 878.641  47
  -6  -2   1 33057.0 870.482  46
  -6  -2   1 25802.8 1465.87  56
  -6  -2   1 31073.1 867.263  33
  -6  -2   2 4036.98 290.934  46
  -6  -2   2 4616.84 300.157  47
  -6  -2   2 3728.43 273.265   2
  -6  -2   2 4177.51 285.967   6
  -6  -2   3 4878.30 326.023  46
  -6  -2   3 4738.89 304.309   6
  -6  -2   3 4548.04 307.795  51
  -6  -2   4 194.157 77.7231   6
  -6  -2   4 206.159 110.320  51
  -6  -2   4 278.980 100.631  46
  -6  -2   4 434.552 120.766  47
  -6  -2   5 2812.59 231.377  46
  -6  -2   5 2367.58 190.379   6
  -6  -2   6 982.658 137.457  47
  -6  -2   6 880.315 125.970  46
  -6  -2   6 812.863 131.241  51
  -6  -2   7 619.670 106.539  51
  -6  -2   7 655.571 88.2969  46
  -6  -2   7 539.051 101.082  47
  -6  -2   8 862.112 86.9427  51
  -6  -2   8 797.256 84.3697  47
  -6  -1 -12 1710.96 107.276  35
  -6  -1 -12 1658.94 105.478  26
  -6  -1 -11 1029.95 108.120  35
  -6  -1 -11 966.814 108.149  26
  -6  -1 -10 8670.43 349.330  26
  -6  -1 -10 8585.27 329.185  36
  -6  -1 -10 8804.31 348.251  37
  -6  -1  -9 4005.79 268.634  37
  -6  -1  -9 4460.53 269.228  35
  -6  -1  -9 4258.54 258.200  36
  -6  -1  -9 4260.94 267.308  26
  -6  -1  -8 16344.8 1157.09  17
  -6  -1  -8 18703.4 587.716  36
  -6  -1  -8 18261.9 593.271  26
  -6  -1  -8 18577.7 586.530  35
  -6  -1  -8 18149.4 602.020  37
  -6  -1  -7 48365.6 1999.73  17
  -6  -1  -7 47775.8 1054.14  26
  -6  -1  -7 50560.8 1051.47  35
  -6  -1  -7 47123.5 1059.07  37
  -6  -1  -7 49074.6 1041.14  36
  -6  -1  -6 739.209 263.484  17
  -6  -1  -6 794.642 136.871  26
  -6  -1  -6 689.300 122.902   2
  -6  -1  -6 522.912 108.670   4
  -6  -1  -6 653.495 118.268  35
  -6  -1  -6 613.361 127.038  37
  -6  -1  -6 562.348 142.267  34
  -6  -1  -6 690.500 133.563  27
  -6  -1  -6 787.517 133.701  36
  -6  -1  -5 452.983 103.793   2
  -6  -1  -5 363.141 104.404  27
  -6  -1  -5 421.140 116.845  34
  -6  -1  -5 448.839 109.889  36
  -6  -1  -5 249.214 101.597  35
  -6  -1  -5 196.510 156.786   3
  -6  -1  -5 631.964 132.544  37
  -6  -1  -5 463.153 109.854  26
  -6  -1  -5 535.460 110.089   4
  -6  -1  -4 1489.61 176.528  27
  -6  -1  -4 1539.25 181.645   2
  -6  -1  -4 1253.53 153.399   4
  -6  -1  -4 1542.43 178.430  36
  -6  -1  -4 1484.69 198.126  34
  -6  -1  -4 1609.49 189.576  37
  -6  -1  -4 1670.19 420.344   3
  -6  -1  -3 1586.22 180.427  36
  -6  -1  -3 1684.43 184.808   6
  -6  -1  -3 1715.56 207.075  34
  -6  -1  -3 1866.17 426.153   3
  -6  -1  -3 1748.12 187.028   2
  -6  -1  -3 1447.80 182.162  37
  -6  -1  -3 1678.33 174.675   4
  -6  -1  -3 1747.43 190.323  27
  -6  -1  -2 25629.5 789.241  34
  -6  -1  -2 21762.4 701.179  33
  -6  -1  -2 21011.2 648.375  36
  -6  -1  -2 18935.8 659.424  37
  -6  -1  -2 23851.4 698.137   2
  -6  -1  -2 22203.1 635.968   4
  -6  -1  -2 24130.9 1407.00   3
  -6  -1  -2 23161.1 702.913   6
  -6  -1  -2 25038.2 728.252  27
  -6  -1  -1 15948.1 584.460  46
  -6  -1  -1 16086.1 640.098  34
  -6  -1  -1 18375.7 620.495   2
  -6  -1  -1 18497.6 1230.91   3
  -6  -1  -1 17826.8 603.995   6
  -6  -1  -1 18132.3 625.274  27
  -6  -1  -1 14983.3 533.915   4
  -6  -1   0 4245.84 300.512   2
  -6  -1   0 3576.64 278.476  46
  -6  -1   0 3694.11 285.682  33
  -6  -1   0 3361.45 295.381  34
  -6  -1   0 3812.66 283.146  27
  -6  -1   0 3744.22 276.323   6
  -6  -1   0 3516.26 263.676  47
  -6  -1   1 2989.67 245.476   6
  -6  -1   1 2625.57 241.591   2
  -6  -1   1 2193.91 449.964   3
  -6  -1   1 2465.06 229.436  27
  -6  -1   1 2818.23 252.120  46
  -6  -1   1 2914.87 255.378  33
  -6  -1   1 3251.75 251.408  47
  -6  -1   1 2413.32 441.366  56
  -6  -1   2 3155.78 251.522   2
  -6  -1   2 3538.69 278.656  46
  -6  -1   2 3492.48 278.766  33
  -6  -1   2 3570.23 269.878   6
  -6  -1   2 2987.68 249.932  51
  -6  -1   2 3230.96 255.724  47
  -6  -1   3 28173.9 805.761  33
  -6  -1   3 29600.3 825.537  46
  -6  -1   3 28811.2 779.900  47
  -6  -1   3 27098.6 756.217  51
  -6  -1   4 8327.05 384.630   6
  -6  -1   4 8003.51 403.917  46
  -6  -1   5 17766.9 568.850  47
  -6  -1   5 17882.0 535.232   6
  -6  -1   5 18463.5 599.385  46
  -6  -1   6 1871.85 169.366  47
  -6  -1   6 2005.71 178.236  46
  -6  -1   7 5210.07 243.037  46
  -6  -1   8 6410.66 225.462  47
  -6   0 -12 879.216 74.6735  26
  -6   0 -12 857.999 73.8160  35
  -6   0 -11 4327.20 208.201  26
  -6   0 -10 636.057 100.565  35
  -6   0 -10 602.112 98.3424  36
  -6   0 -10 634.586 104.207  37
  -6   0 -10 600.063 104.465  26
  -6   0  -9 5781.98 301.375  35
  -6   0  -9 5449.32 306.210  26
  -6   0  -9 5685.85 316.174  37
  -6   0  -9 5720.13 304.175  36
  -6   0  -8 4056.81 279.648  26
  -6   0  -8 4224.42 281.315  36
  -6   0  -8 4036.96 272.499  35
  -6   0  -8 3914.21 277.955  37
  -6   0  -7 41672.3 1952.00  20
  -6   0  -7 34856.0 876.617  27
  -6   0  -7 36841.4 923.344  37
  -6   0  -7 38251.1 911.663  36
  -6   0  -7 37578.3 909.576  26
  -6   0  -7 38847.6 900.290  35
  -6   0  -7 36817.3 956.353  34
  -6   0  -7 31298.7 1573.73  17
  -6   0  -6 6304.08 348.901  36
  -6   0  -6 5458.18 304.131   4
  -6   0  -6 6237.56 360.893  26
  -6   0  -6 6685.40 364.771  27
  -6   0  -6 6392.57 390.094  34
  -6   0  -6 5933.13 335.823  35
  -6   0  -6 6166.84 360.912  37
  -6   0  -6 6142.81 347.069   2
  -6   0  -5 49280.2 1104.46  27
  -6   0  -5 52274.7 1171.21  34
  -6   0  -5 49988.2 1124.47  37
  -6   0  -5 50313.4 1100.18  36
  -6   0  -5 55794.6 2186.98  20
  -6   0  -5 42880.4 1013.38  26
  -6   0  -5 51208.6 1100.27   2
  -6   0  -5 43311.4 2003.96   3
  -6   0  -4 13883.9 1054.65  20
  -6   0  -4 13069.6 529.042  27
  -6   0  -4 13853.8 536.249  36
  -6   0  -4 13242.3 543.957  37
  -6   0  -4 12694.2 547.996  34
  -6   0  -4 12604.4 1077.58   3
  -6   0  -4 13531.1 531.919   2
  -6   0  -3 5376.68 327.182  36
  -6   0  -3 5248.90 320.109   6
  -6   0  -3 5550.18 344.943  27
  -6   0  -3 5832.59 718.153   3
  -6   0  -3 5428.97 362.889  34
  -6   0  -3 4950.93 332.487  37
  -6   0  -3 5491.19 333.186   2
  -6   0  -3 5246.22 336.382  33
  -6   0  -2 825.551 139.770  37
  -6   0  -2 848.264 135.173  36
  -6   0  -2 908.274 142.372  27
  -6   0  -2 931.043 143.486   2
  -6   0  -2 897.368 156.547  34
  -6   0  -2 765.928 136.047   6
  -6   0  -2 959.491 317.481   3
  -6   0  -2 951.978 149.491  33
  -6   0  -1 14815.5 572.931  27
  -6   0  -1 13490.9 538.388  46
  -6   0  -1 15129.5 561.983   2
  -6   0  -1 15070.3 557.233   6
  -6   0  -1 15311.2 1148.26   3
  -6   0  -1 15056.9 611.307  34
  -6   0  -1 14621.1 553.799  33
  -6   0   0 1375.23 201.320  34
  -6   0   0 1825.40 193.231   6
  -6   0   0 1474.49 379.521   3
  -6   0   0 1718.97 196.364  33
  -6   0   0 1704.74 195.069  46
  -6   0   0 1658.79 193.743  27
  -6   0   0 1965.64 211.419   2
  -6   0   1 2827.42 247.498  27
  -6   0   1 2785.24 499.709   3
  -6   0   1 3539.64 274.539  46
  -6   0   1 3612.50 271.271   6
  -6   0   1 3258.77 249.240  47
  -6   0   1 3301.12 267.284   2
  -6   0   1 3002.84 262.135  33
  -6   0   2 67021.7 1317.37   2
  -6   0   2 72722.9 1380.01   6
  -6   0   2 64495.3 1282.53  51
  -6   0   2 76317.9 1422.60  33
  -6   0   2 71588.7 1320.22  47
  -6   0   2 72073.6 1398.59  46
  -6   0   3 14832.8 558.509  33
  -6   0   3 14425.3 536.775   6
  -6   0   3 14050.4 524.831  47
  -6   0   3 14964.8 561.649  46
  -6   0   4 8780.37 395.146   6
  -6   0   4 8981.34 399.615  33
  -6   0   4 8340.21 407.658  46
  -6   0   5 7837.60 340.339   6
  -6   0   5 8106.37 382.881  46
  -6   0   6 935.770 132.787  47
  -6   0   6 788.562 122.505  51
  -6   0   6 1087.19 136.133  46
  -6   0   7 52.0776 55.8897  47
  -6   0   7 93.9957 54.0338  46
  -6   1 -11 1561.87 122.017  26
  -6   1 -11 1699.84 120.717  35
  -6   1 -10 295.284 77.5422  37
  -6   1 -10 171.326 63.5189  36
  -6   1 -10 216.153 72.6723  26
  -6   1 -10 185.805 70.0011  35
  -6   1  -9 2721.75 215.757  37
  -6   1  -9 2588.44 206.367  26
  -6   1  -9 2567.47 197.573  35
  -6   1  -9 2694.35 208.468  36
  -6   1  -8 11368.3 452.215  36
  -6   1  -8 11077.2 998.013  20
  -6   1  -8 11227.5 464.153  37
  -6   1  -8 10913.2 446.818  26
  -6   1  -8 10126.4 419.329  35
  -6   1  -7 23352.4 723.781  34
  -6   1  -7 21326.9 674.756  37
  -6   1  -7 21581.6 645.417  35
  -6   1  -7 21771.5 669.077  26
  -6   1  -7 22997.0 678.852  36
  -6   1  -7 23098.9 1444.06  20
  -6   1  -7 21134.5 647.153  27
  -6   1  -6 2248.55 225.614  37
  -6   1  -6 2338.09 466.214  20
  -6   1  -6 2315.13 216.170   2
  -6   1  -6 2680.76 250.540  34
  -6   1  -6 2403.45 223.659  36
  -6   1  -6 2394.32 233.030  27
  -6   1  -6 2368.10 226.947  26
  -6   1  -5 14794.8 1132.12  20
  -6   1  -5 12584.9 544.911  34
  -6   1  -5 12892.5 527.971  27
  -6   1  -5 12711.2 537.907  37
  -6   1  -5 13200.9 527.129   2
  -6   1  -5 13543.1 531.483  36
  -6   1  -4 1561.36 195.724  37
  -6   1  -4 1233.52 179.416  34
  -6   1  -4 1119.66 343.358   3
  -6   1  -4 1197.67 164.736  33
  -6   1  -4 1167.87 338.100  20
  -6   1  -4 1312.07 178.210  27
  -6   1  -4 1400.26 187.163  36
  -6   1  -4 1241.73 168.322   2
  -6   1  -3 1221.39 164.195  36
  -6   1  -3 1200.99 168.858  27
  -6   1  -3 1177.44 178.828  34
  -6   1  -3 1010.05 157.494   2
  -6   1  -3 1053.35 168.062  37
  -6   1  -3 990.349 316.181   3
  -6   1  -3 1058.80 153.284   6
  -6   1  -3 1045.35 156.895  33
  -6   1  -3 1281.43 336.291  20
  -6   1  -2 25661.3 1367.31  20
  -6   1  -2 24195.7 747.669  27
  -6   1  -2 23232.0 722.688  33
  -6   1  -2 21425.6 674.079  36
  -6   1  -2 24347.2 722.242   2
  -6   1  -2 26131.7 742.844   6
  -6   1  -2 24290.3 1486.54   3
  -6   1  -2 21226.3 699.355  37
  -6   1  -2 24994.9 797.853  34
  -6   1  -1 5432.85 331.042   6
  -6   1  -1 5141.02 358.471  34
  -6   1  -1 5285.82 333.849   2
  -6   1  -1 5329.40 343.660  27
  -6   1  -1 5052.20 699.170   3
  -6   1  -1 5190.52 324.273  33
  -6   1   0 1807.84 201.207  46
  -6   1   0 1798.42 204.415  27
  -6   1   0 1942.68 438.982   3
  -6   1   0 2027.64 211.021   2
  -6   1   0 2061.06 213.757  33
  -6   1   0 1972.50 204.758   6
  -6   1   0 1742.13 212.602  34
  -6   1   1 30305.6 815.482   6
  -6   1   1 32057.6 855.447   2
  -6   1   1 32207.1 862.074  33
  -6   1   1 30604.7 841.547  46
  -6   1   1 29366.5 821.486  27
  -6   1   2 2039.33 205.599   2
  -6   1   2 2171.21 199.544  47
  -6   1   2 1916.65 204.355  46
  -6   1   2 2019.43 215.659  33
  -6   1   2 1948.67 203.428   6
  -6   1   3 364.477 120.113  51
  -6   1   3 475.129 117.407  46
  -6   1   3 377.538 108.879  47
  -6   1   3 723.399 129.795  29
  -6   1   3 485.222 120.954  33
  -6   1   3 553.128 120.409   6
  -6   1   4 1329.02 179.155  51
  -6   1   4 1760.56 180.474  33
  -6   1   4 1530.86 171.091   6
  -6   1   4 1721.06 187.575  46
  -6   1   4 1217.03 161.083  47
  -6   1   5 1206.57 146.632  47
  -6   1   5 1299.31 139.160   6
  -6   1   5 1618.34 172.127  46
  -6   1   6 5548.75 280.390  46
  -6   1   7 5026.70 227.723  47
  -6   1   7 5561.21 237.423  46
  -6   2 -11 7140.36 225.176  35
  -6   2 -11 8551.97 254.036  26
  -6   2 -10 1372.93 121.522  36
  -6   2 -10 1356.83 121.779  35
  -6   2 -10 1500.68 137.099  37
  -6   2 -10 1411.21 130.616  26
  -6   2  -9 2249.89 189.977  37
  -6   2  -9 2301.18 184.203  36
  -6   2  -9 2160.01 170.170  35
  -6   2  -9 2123.31 177.104  26
  -6   2  -8 625.047 117.754  26
  -6   2  -8 801.958 121.746  35
  -6   2  -8 691.513 129.723  37
  -6   2  -8 907.833 136.842  36
  -6   2  -7 51420.3 1069.65  26
  -6   2  -7 52978.7 1119.88  37
  -6   2  -7 53425.1 1144.63  34
  -6   2  -7 52898.7 1071.64  27
  -6   2  -7 53418.3 2226.49  20
  -6   2  -7 56204.6 1105.84  36
  -6   2  -7 50008.3 1021.53  35
  -6   2  -6 3388.67 254.602   2
  -6   2  -6 3034.81 256.323  37
  -6   2  -6 2881.45 239.521  26
  -6   2  -6 3815.60 592.051  20
  -6   2  -6 3366.27 259.154  27
  -6   2  -6 2726.31 235.564  36
  -6   2  -6 3193.63 269.487  34
  -6   2  -5 2329.25 224.064  27
  -6   2  -5 2024.48 441.177  20
  -6   2  -5 2147.71 224.289  37
  -6   2  -5 2209.43 230.030  34
  -6   2  -5 2207.55 210.228   2
  -6   2  -5 2102.56 212.552  36
  -6   2  -4 19674.4 691.935  34
  -6   2  -4 20406.0 662.474   2
  -6   2  -4 19812.8 662.521  27
  -6   2  -4 18805.9 636.802  33
  -6   2  -4 19123.6 651.856  36
  -6   2  -4 20100.0 684.287  37
  -6   2  -3 54258.2 1144.03  36
  -6   2  -3 51823.3 1134.18  27
  -6   2  -3 50385.7 1153.76  37
  -6   2  -3 51596.7 1119.63   2
  -6   2  -3 51750.2 1123.78  33
  -6   2  -3 56187.4 2170.29  20
  -6   2  -3 49172.7 1162.61  34
  -6   2  -2 20422.1 657.322   2
  -6   2  -2 19865.7 655.502  33
  -6   2  -2 20453.3 679.217  27
  -6   2  -2 19435.0 662.451  37
  -6   2  -2 20637.1 721.261  34
  -6   2  -1 10797.2 477.546  33
  -6   2  -1 11703.4 537.858  34
  -6   2  -1 11286.8 503.050  27
  -6   2  -1 10799.8 476.798   2
  -6   2   0 15515.8 572.936  46
  -6   2   0 15931.3 574.888  33
  -6   2   0 17367.0 619.541  27
  -6   2   0 17302.6 610.802   2
  -6   2   0 16549.9 640.117  34
  -6   2   1 29775.9 821.711  33
  -6   2   1 31868.6 831.838   6
  -6   2   1 31547.0 842.259   2
  -6   2   1 31980.1 846.064  27
  -6   2   1 31833.2 844.054  46
  -6   2   1 29208.1 857.600  34
  -6   2   2 8045.37 379.490  29
  -6   2   2 7794.26 387.619   2
  -6   2   2 7450.85 394.088  33
  -6   2   2 8567.65 412.869   6
  -6   2   3 7001.80 372.088  46
  -6   2   3 6785.78 354.150   6
  -6   2   3 5873.82 321.642  29
  -6   2   3 6792.52 359.538  33
  -6   2   4 1988.21 187.472   6
  -6   2   4 2228.03 196.439  33
  -6   2   4 1754.69 169.528  47
  -6   2   4 2029.88 184.607  29
  -6   2   4 2182.61 204.843  46
  -6   2   5 1393.40 137.607   6
  -6   2   5 1456.93 144.096  33
  -6   2   5 1400.41 158.358  46
  -6   2   6 10974.2 378.344  46
  -6   2   6 10528.4 348.386  29
  -6   2   6 9860.21 338.162  47
  -6   2   7 7491.97 251.370  47
  -6   2   7 8686.57 277.172  46
  -6   3 -10 6010.77 233.478  37
  -6   3 -10 6000.10 230.026  26
  -6   3 -10 6032.91 229.971  36
  -6   3 -10 5552.44 206.460  35
  -6   3  -9 3402.74 217.001  37
  -6   3  -9 3193.34 183.855  35
  -6   3  -9 3190.38 199.764  26
  -6   3  -9 3637.97 211.203  36
  -6   3  -8 334.557 85.6757  26
  -6   3  -8 257.246 81.2174  36
  -6   3  -8 256.315 70.2502  35
  -6   3  -8 283.738 93.8706  37
  -6   3  -7 2813.25 229.280  37
  -6   3  -7 2819.51 232.764  34
  -6   3  -7 2821.64 215.635  26
  -6   3  -7 2750.07 210.897  27
  -6   3  -7 2443.43 206.084  36
  -6   3  -6 3626.14 567.001  20
  -6   3  -6 3506.47 258.533  27
  -6   3  -6 3959.92 260.591   2
  -6   3  -6 3424.76 270.280  34
  -6   3  -6 3340.64 244.312  26
  -6   3  -6 3532.93 263.375  36
  -6   3  -6 3747.09 273.882  37
  -6   3  -5 9357.13 445.057  37
  -6   3  -5 9335.88 430.588  36
  -6   3  -5 9072.53 453.532  34
  -6   3  -5 9976.41 448.274  27
  -6   3  -5 9936.93 938.877  20
  -6   3  -5 10199.0 440.129   2
  -6   3  -4 2259.09 445.387  20
  -6   3  -4 2272.50 221.452  27
  -6   3  -4 1949.73 206.992  36
  -6   3  -4 2191.05 229.136  34
  -6   3  -4 2326.30 229.502  37
  -6   3  -4 2589.65 231.519   2
  -6   3  -3 21933.1 686.744  27
  -6   3  -3 22061.3 721.058  34
  -6   3  -3 22018.0 676.348  33
  -6   3  -3 21790.6 677.189  36
  -6   3  -3 21660.4 702.838  37
  -6   3  -3 23018.5 696.382   2
  -6   3  -3 21564.3 1331.31  20
  -6   3  -2 19047.9 630.917  33
  -6   3  -2 20210.8 702.067  34
  -6   3  -2 19495.6 633.910   2
  -6   3  -2 17885.6 627.633  37
  -6   3  -2 19804.9 658.378  27
  -6   3  -1 7296.75 397.185  27
  -6   3  -1 7747.48 397.571   2
  -6   3  -1 7140.29 376.613  33
  -6   3  -1 7322.59 419.159  34
  -6   3   0 10100.8 453.360   2
  -6   3   0 9880.21 440.063  33
  -6   3   0 8797.76 415.145  46
  -6   3   0 9810.46 457.760  27
  -6   3   0 9818.37 482.266  34
  -6   3   1 5829.26 339.701   2
  -6   3   1 5679.44 355.678  34
  -6   3   1 5285.03 320.583  33
  -6   3   1 5711.80 334.835  27
  -6   3   1 4594.46 283.674  29
  -6   3   1 5498.22 326.820  46
  -6   3   2 5658.80 328.752  46
  -6   3   2 5836.12 333.179  33
  -6   3   2 5551.41 304.922  29
  -6   3   2 5874.18 334.787   6
  -6   3   2 5470.50 312.736   2
  -6   3   3 9346.45 415.284  46
  -6   3   3 8943.20 398.445   6
  -6   3   3 9599.60 409.787  33
  -6   3   3 8279.30 362.010  29
  -6   3   4 6040.61 290.974  29
  -6   3   4 5657.80 309.448  46
  -6   3   4 5622.75 291.204  33
  -6   3   4 5684.40 288.913   6
  -6   3   5 1588.44 153.670  46
  -6   3   5 1528.44 136.234  33
  -6   3   6 3866.30 190.658  29
  -6   3   6 4052.63 207.766  46
  -6   3   7 1037.73 83.3917  46
  -6   4 -10 745.765 67.8373  36
  -6   4  -9 4503.49 219.287  37
  -6   4  -9 4524.23 203.483  26
  -6   4  -9 4793.78 215.395  36
  -6   4  -8 6183.69 276.304  36
  -6   4  -8 5585.75 253.244  26
  -6   4  -8 5834.19 281.207  37
  -6   4  -7 993.527 140.434  37
  -6   4  -7 758.476 105.393  26
  -6   4  -7 928.457 117.229  27
  -6   4  -7 1005.48 132.680  34
  -6   4  -7 878.291 127.669  36
  -6   4  -6 378.638 98.6213  36
  -6   4  -6 345.834 89.2359  27
  -6   4  -6 401.287 83.7044   2
  -6   4  -6 414.593 103.434  37
  -6   4  -6 356.651 101.696  34
  -6   4  -5 19911.4 647.458  34
  -6   4  -5 19323.0 598.280  36
  -6   4  -5 19455.9 597.306   2
  -6   4  -5 19776.2 617.055  27
  -6   4  -5 18972.1 620.305  37
  -6   4  -4 1835.33 206.922  34
  -6   4  -4 1678.03 183.457  27
  -6   4  -4 1829.23 189.874   2
  -6   4  -4 1861.70 199.512  37
  -6   4  -4 1728.04 393.155  20
  -6   4  -4 1749.25 185.372  36
  -6   4  -3 3252.83 256.146  27
  -6   4  -3 3239.06 256.598  37
  -6   4  -3 3474.13 257.713   2
  -6   4  -3 3227.33 242.980  36
  -6   4  -3 3158.33 237.116  33
  -6   4  -3 3145.37 265.211  34
  -6   4  -2 1442.39 193.325  34
  -6   4  -2 1505.25 178.569   2
  -6   4  -2 1423.31 171.285  37
  -6   4  -2 1517.08 172.859  33
  -6   4  -2 1623.55 189.825  27
  -6   4  -1 389.491 110.206   2
  -6   4  -1 412.329 113.200  27
  -6   4  -1 339.690 97.0763  33
  -6   4  -1 366.914 115.634  34
  -6   4   0 15770.1 553.611   2
  -6   4   0 15024.8 547.460  27
  -6   4   0 14964.5 578.219  34
  -6   4   0 14614.1 528.476  33
  -6   4   1 881.714 126.699  29
  -6   4   1 1155.45 150.241  33
  -6   4   1 1050.68 141.322   2
  -6   4   1 1047.82 140.592  46
  -6   4   1 984.957 138.616  27
  -6   4   1 1076.54 155.152  34
  -6   4   2 3362.89 222.724  29
  -6   4   2 3428.51 240.595   6
  -6   4   2 3816.62 242.678   2
  -6   4   2 3385.53 242.718  46
  -6   4   2 3925.68 253.918  33
  -6   4   3 1676.53 164.804   6
  -6   4   3 1624.25 163.662  46
  -6   4   3 1556.29 162.129  33
  -6   4   3 1930.18 165.218  29
  -6   4   4 7160.04 303.532  33
  -6   4   4 7112.73 290.044   6
  -6   4   4 6559.76 284.335  29
  -6   4   4 6422.88 301.792  46
  -6   4   5 10657.3 351.237  46
  -6   4   5 10724.2 328.696  29
  -6   4   5 9639.16 312.599  33
  -6   4   6 8808.51 269.466  46
  -6   5  -9 3250.50 144.811  36
  -6   5  -9 3182.28 146.143  37
  -6   5  -8 3367.68 187.913  37
  -6   5  -8 3620.31 181.475  36
  -6   5  -7 12854.0 376.838  27
  -6   5  -7 12692.1 392.538  34
  -6   5  -7 15236.2 446.757  37
  -6   5  -7 16387.6 454.623  36
  -6   5  -6 3236.73 213.467  36
  -6   5  -6 3146.69 205.744  27
  -6   5  -6 2960.86 215.294  37
  -6   5  -6 2990.64 189.959   2
  -6   5  -6 3290.43 223.522  34
  -6   5  -5 5057.71 296.417  34
  -6   5  -5 5102.45 278.379  27
  -6   5  -5 5200.78 287.660  37
  -6   5  -5 4859.89 267.290  36
  -6   5  -5 5207.05 275.262   2
  -6   5  -4 2585.85 209.218  27
  -6   5  -4 2267.85 185.694  36
  -6   5  -4 2393.79 198.649   2
  -6   5  -4 2271.02 211.545  34
  -6   5  -4 2321.93 200.267  37
  -6   5  -3 10248.8 420.012  37
  -6   5  -3 10598.9 433.933  27
  -6   5  -3 11057.2 463.344  34
  -6   5  -3 11095.5 429.695   2
  -6   5  -3 10033.7 389.255  33
  -6   5  -3 11114.6 406.350  36
  -6   5  -2 3586.94 253.845  27
  -6   5  -2 3463.77 236.892  33
  -6   5  -2 3275.26 259.791  34
  -6   5  -2 3552.44 245.313   2
  -6   5  -1 2330.98 205.537  27
  -6   5  -1 1999.91 184.843  33
  -6   5  -1 2180.42 196.484   2
  -6   5  -1 2325.62 218.112  34
  -6   5   0 2454.81 201.641  27
  -6   5   0 2628.15 203.964  33
  -6   5   0 2211.06 207.893  34
  -6   5   0 2479.36 202.426   2
  -6   5   1 219.561 78.8454  34
  -6   5   1 224.480 75.4512  27
  -6   5   1 210.860 75.3972   2
  -6   5   1 205.168 68.5179  46
  -6   5   1 224.177 79.5971  33
  -6   5   2 6033.79 293.203   6
  -6   5   2 5605.81 258.204  29
  -6   5   2 6031.13 275.665   2
  -6   5   2 6119.90 295.080  33
  -6   5   3 32739.0 694.843  33
  -6   5   3 31984.7 670.804   6
  -6   5   3 32770.8 692.072  46
  -6   5   3 31577.2 640.728  29
  -6   5   4 23032.0 519.255  46
  -6   5   4 23397.1 513.283  33
  -6   5   4 22767.3 482.471  29
  -6   6  -8 4001.34 147.237  36
  -6   6  -8 4116.26 156.180  37
  -6   6  -7 18274.7 423.550  37
  -6   6  -7 19244.3 417.257  36
  -6   6  -6 1651.54 115.054   2
  -6   6  -6 2059.56 150.869  37
  -6   6  -6 2071.82 141.690  27
  -6   6  -6 2080.82 142.989  36
  -6   6  -6 1843.62 142.356  34
  -6   6  -5 8047.21 314.554  27
  -6   6  -5 7790.38 311.609  37
  -6   6  -5 7914.86 327.142  34
  -6   6  -5 8150.07 303.207   2
  -6   6  -5 8423.01 303.438  36
  -6   6  -4 3520.98 218.711  27
  -6   6  -4 3189.94 188.061  36
  -6   6  -4 3640.40 215.811  37
  -6   6  -4 3570.44 213.998   2
  -6   6  -4 3408.89 227.079  34
  -6   6  -3 2894.34 198.933   2
  -6   6  -3 2647.59 187.768  37
  -6   6  -3 3064.94 207.505  27
  -6   6  -3 3020.32 219.882  34
  -6   6  -2 33663.8 740.877  27
  -6   6  -2 32548.1 767.011  34
  -6   6  -2 32281.0 688.248  33
  -6   6  -2 33503.9 725.239   2
  -6   6  -1 660.840 106.300   2
  -6   6  -1 644.654 100.847  33
  -6   6  -1 718.364 121.807  34
  -6   6  -1 570.280 101.310  27
  -6   6   0 209.230 72.6213   2
  -6   6   0 103.217 55.1312  27
  -6   6   0 156.912 62.6851  33
  -6   6   0 143.503 63.1650  34
  -6   6   1 671.394 99.8693  34
  -6   6   1 761.215 92.6499  27
  -6   6   1 787.902 99.8130   2
  -6   6   1 658.527 97.8149  33
  -6   6   2 6690.57 263.056   6
  -6   6   2 6233.34 239.656  46
  -6   6   2 6185.23 231.862   2
  -6   6   3 17488.3 412.923  46
  -6   6   3 17676.3 408.474   6
  -6   6   4 16632.0 355.188  33
  -6   7  -5 2457.13 133.979  37
  -6   7  -5 2618.53 143.069  34
  -6   7  -5 2204.00 118.347   2
  -6   7  -5 2719.61 143.344  27
  -6   7  -4 10995.2 337.573  34
  -6   7  -4 10934.1 313.208   2
  -6   7  -4 11083.0 323.460  27
  -6   7  -3 266.614 51.2793  37
  -6   7  -3 436.545 70.6442   2
  -6   7  -3 435.616 76.3589  27
  -6   7  -3 422.303 78.3375  34
  -6   7  -2 9255.77 304.368   2
  -6   7  -2 9355.61 308.765  27
  -6   7  -2 8894.57 320.485  34
  -6   7  -1 821.613 92.7762  27
  -6   7  -1 787.103 92.1576   2
  -6   7  -1 690.932 80.4373  33
  -6   7  -1 733.456 95.0229  34
  -6   7   0 1682.15 124.810  33
  -6   7   0 1589.41 114.814  27
  -6   7   0 1555.36 126.604  34
  -6   7   0 1547.70 117.416   2
  -6   7   1 964.797 81.0720   2
  -6   7   1 1131.52 97.6064  33
  -6   7   2 2140.40 113.727   6
  -6   7   2 4126.05 164.165  33
  -5 -11  -3 1751.70 129.001   4
  -5 -11  -3 1302.16 131.404  25
  -5 -11  -2 5505.02 208.062   4
  -5 -11  -2 1944.43 161.176  25
  -5 -11  -1 5672.13 204.692   4
  -5 -11  -1 1605.03 151.692  25
  -5 -11   0 10418.5 233.613   4
  -5 -11   0 2113.98 166.296  25
  -5 -10  -6 405.054 77.4941  48
  -5 -10  -6 356.109 83.0267  25
  -5 -10  -5 1161.78 121.770   4
  -5 -10  -5 1344.75 152.455  25
  -5 -10  -4 269.340 66.6437  40
  -5 -10  -4 219.304 97.8967  25
  -5 -10  -3 2404.37 180.850   4
  -5 -10  -3 2168.29 196.308  38
  -5 -10  -2 920.162 151.684  25
  -5 -10  -1 6802.38 281.013   4
  -5 -10  -1 5911.54 339.850  25
  -5 -10   0 13661.8 380.101   4
  -5 -10   0 13926.4 517.937  25
  -5 -10   1 295.909 102.742  25
  -5 -10   2 4741.46 200.230   4
  -5 -10   2 5744.20 275.865  38
  -5 -10   3 496.807 98.5840  25
  -5  -9  -9 4947.05 176.103  48
  -5  -9  -8-8.29095 51.4903  41
  -5  -9  -8 0.51986 46.4842  48
  -5  -9  -7 8215.51 358.891  38
  -5  -9  -7 10845.3 352.240  48
  -5  -9  -6 10312.1 372.415  48
  -5  -9  -6 8421.52 401.916  38
  -5  -9  -5 5162.44 279.433  48
  -5  -9  -5 4986.10 321.428  25
  -5  -9  -5 4220.30 304.521  38
  -5  -9  -4 5193.86 339.233  25
  -5  -9  -4 4656.96 264.909  40
  -5  -9  -4 4397.51 322.059  38
  -5  -9  -4 5168.78 290.253  48
  -5  -9  -3 10579.3 444.973  48
  -5  -9  -3 10196.9 509.846  38
  -5  -9  -3 10938.1 437.792  40
  -5  -9  -2 1709.14 218.102  38
  -5  -9  -2 1698.46 223.432  25
  -5  -9  -1 879.888 163.627  38
  -5  -9  -1 726.441 161.621  25
  -5  -9   0 319.647 128.781  25
  -5  -9   1 632.424 155.786  25
  -5  -9   2 1087.00 187.442  25
  -5  -9   3 49.1142 111.650  25
  -5  -9   4 104.628 86.1899  25
  -5  -9   5 665.991 107.589  25
  -5  -8 -10 1639.18 103.302  48
  -5  -8  -9 1906.72 165.455  38
  -5  -8  -9 2279.63 147.580  48
  -5  -8  -9 2195.66 149.690  41
  -5  -8  -8 550.966 112.073  38
  -5  -8  -8 612.674 99.8414  41
  -5  -8  -8 637.790 100.907  48
  -5  -8  -7 1061.27 130.770  48
  -5  -8  -7 956.333 160.824  38
  -5  -8  -7 1166.69 140.981  41
  -5  -8  -7 747.471 129.261  25
  -5  -8  -7 1022.32 128.498  35
  -5  -8  -6 7047.57 347.681  41
  -5  -8  -6 7211.33 418.032  38
  -5  -8  -6 6940.23 334.575  48
  -5  -8  -5 797.778 150.934  41
  -5  -8  -5 669.593 154.300  25
  -5  -8  -5 934.678 140.951  35
  -5  -8  -5 1111.70 186.268  38
  -5  -8  -5 1027.54 146.234  48
  -5  -8  -4 5476.19 399.219  38
  -5  -8  -4 6158.02 337.056  48
  -5  -8  -4 6578.47 405.267  25
  -5  -8  -4 6275.67 294.269   4
  -5  -8  -3 20340.6 735.713  25
  -5  -8  -3 18701.8 616.009  48
  -5  -8  -3 20464.3 546.781   4
  -5  -8  -2 19955.2 540.399   4
  -5  -8  -2 20545.7 758.497  25
  -5  -8  -2 17048.9 733.857  38
  -5  -8  -2 17072.4 600.277  40
  -5  -8  -2 18236.1 620.040  48
  -5  -8  -1 5411.57 274.231   4
  -5  -8  -1 5123.50 390.929  25
  -5  -8  -1 5468.16 402.790  38
  -5  -8  -1 4821.67 324.435  40
  -5  -8   0 5403.82 399.571  38
  -5  -8   0 5745.96 410.438  25
  -5  -8   0 6187.02 291.699   4
  -5  -8   1 664.497 123.573   4
  -5  -8   1 514.902 161.233  25
  -5  -8   2 3667.55 341.740  25
  -5  -8   2 14109.4 442.367   4
  -5  -8   3 656.131 162.392  25
  -5  -8   4 11519.0 495.244  38
  -5  -8   4 1077.01 188.856  25
  -5  -8   5 3816.51 276.085  25
  -5  -8   6 1460.56 157.504  25
  -5  -7 -11 4940.57 172.028  41
  -5  -7 -11 4477.24 162.982  48
  -5  -7 -10 4019.83 195.959  41
  -5  -7 -10 3873.91 238.987  38
  -5  -7 -10 3768.60 188.388  48
  -5  -7  -9 1467.48 140.409  48
  -5  -7  -9 1191.81 121.452  35
  -5  -7  -9 1392.74 139.614  41
  -5  -7  -9 1332.17 172.394  38
  -5  -7  -8 8611.30 356.596  48
  -5  -7  -8 8252.43 338.720  35
  -5  -7  -8 8873.53 366.147  41
  -5  -7  -8 8953.61 448.921  38
  -5  -7  -7 8624.56 383.386  41
  -5  -7  -7 8368.80 358.175  26
  -5  -7  -7 8021.31 354.136  35
  -5  -7  -7 8971.49 383.980  48
  -5  -7  -6 19671.4 611.062  41
  -5  -7  -6 18558.5 585.931  48
  -5  -7  -6 18446.4 508.875   4
  -5  -7  -6 18115.7 568.725  35
  -5  -7  -5 9969.82 388.172   4
  -5  -7  -5 10377.7 543.106  38
  -5  -7  -5 10111.4 441.653  41
  -5  -7  -5 9697.43 425.748  48
  -5  -7  -5 10710.4 429.413  35
  -5  -7  -4 15118.6 545.353  48
  -5  -7  -4 15171.6 681.402  38
  -5  -7  -4 15250.2 525.539  35
  -5  -7  -4 16220.3 572.811  41
  -5  -7  -4 15803.1 640.351  25
  -5  -7  -4 16246.0 498.370   4
  -5  -7  -3 6429.92 313.240   4
  -5  -7  -3 6306.76 339.788  35
  -5  -7  -3 7166.16 373.666  48
  -5  -7  -3 7347.35 449.950  25
  -5  -7  -3 7431.43 370.120   6
  -5  -7  -3 5691.21 423.623  38
  -5  -7  -2 15817.5 714.272  38
  -5  -7  -2 17037.3 599.399  48
  -5  -7  -2 15900.7 500.416   4
  -5  -7  -2 17352.5 710.436  25
  -5  -7  -2 18045.2 597.040   6
  -5  -7  -1 70154.1 1550.18  25
  -5  -7  -1 68034.1 1198.34   4
  -5  -7  -1 65718.8 1563.04  38
  -5  -7   0 31438.7 994.988  25
  -5  -7   0 29773.3 706.587   4
  -5  -7   0 31914.7 803.483   6
  -5  -7   0 28450.7 819.831  46
  -5  -7   0 31314.0 1017.43  38
  -5  -7   1 9816.17 461.602  46
  -5  -7   1 8858.39 528.003  25
  -5  -7   1 9654.62 424.440   6
  -5  -7   1 9171.96 364.578   4
  -5  -7   2 17491.6 606.186  46
  -5  -7   2 16208.7 548.732   6
  -5  -7   2 16860.4 722.956  25
  -5  -7   2 15119.4 463.797   4
  -5  -7   3 29310.5 962.866  25
  -5  -7   3 27759.2 760.348  46
  -5  -7   3 30416.1 747.867   6
  -5  -7   4 2039.39 246.436  25
  -5  -7   5 2200.99 167.125  51
  -5  -7   5 2648.41 267.223  25
  -5  -7   6 4525.70 210.936  51
  -5  -6 -11 6211.61 227.329  48
  -5  -6 -11 6542.09 296.407  38
  -5  -6 -11 6553.58 235.090  41
  -5  -6 -10 4128.35 221.315  48
  -5  -6 -10 4219.68 211.062  35
  -5  -6 -10 4402.19 232.033  41
  -5  -6  -9 4924.11 254.600  35
  -5  -6  -9 5060.94 276.068  41
  -5  -6  -9 5127.08 271.652  48
  -5  -6  -9 5304.82 263.686  26
  -5  -6  -8 2718.63 205.625  35
  -5  -6  -8 2676.78 214.558  48
  -5  -6  -8 2644.85 215.813  41
  -5  -6  -8 2648.26 203.208  26
  -5  -6  -7 20764.3 604.755  35
  -5  -6  -7 22111.0 657.502  41
  -5  -6  -7 21839.8 613.002  26
  -5  -6  -7 21430.8 635.543  48
  -5  -6  -6 10374.0 441.086  48
  -5  -6  -6 10167.7 442.911  41
  -5  -6  -6 9803.51 403.637  26
  -5  -6  -6 9857.90 410.566  35
  -5  -6  -6 11403.7 584.634  38
  -5  -6  -5 25348.6 721.251  41
  -5  -6  -5 25083.0 672.149  26
  -5  -6  -5 25060.0 869.626  38
  -5  -6  -5 22959.0 648.343  35
  -5  -6  -5 25703.4 715.434  48
  -5  -6  -5 23426.2 624.453   4
  -5  -6  -4 55429.2 1040.30   4
  -5  -6  -4 53091.7 1062.79  35
  -5  -6  -4 51993.5 1112.49  41
  -5  -6  -4 57960.3 1151.22  48
  -5  -6  -4 55236.1 1348.92  38
  -5  -6  -3 40466.9 904.127  35
  -5  -6  -3 38409.3 913.159   6
  -5  -6  -3 42810.1 1163.42  38
  -5  -6  -3 37279.2 928.546  41
  -5  -6  -3 40293.0 1757.06   1
  -5  -6  -3 39710.8 940.233  48
  -5  -6  -3 42320.4 874.379   4
  -5  -6  -2 9491.71 834.463   1
  -5  -6  -2 9286.82 437.027  48
  -5  -6  -2 9041.21 523.269  38
  -5  -6  -2 9900.39 390.092   4
  -5  -6  -2 10542.5 442.441   6
  -5  -6  -2 8534.89 502.045  25
  -5  -6  -1 7662.59 486.641  25
  -5  -6  -1 9465.33 450.414  48
  -5  -6  -1 9260.26 534.493  38
  -5  -6  -1 10497.2 397.244   4
  -5  -6  -1 10799.7 452.955   6
  -5  -6  -1 8872.76 808.700   1
  -5  -6   0 9471.86 533.533  25
  -5  -6   0 7844.10 796.554   1
  -5  -6   0 7571.10 487.601  38
  -5  -6   0 9595.99 419.866   6
  -5  -6   0 9862.63 461.692  46
  -5  -6   0 9473.50 384.265   4
  -5  -6   1 613.145 264.420   1
  -5  -6   1 912.846 161.944  47
  -5  -6   1 936.915 141.113   6
  -5  -6   1 923.725 192.621  38
  -5  -6   1 1163.93 213.953  25
  -5  -6   1 1064.41 157.219  46
  -5  -6   1 1010.55 134.363   4
  -5  -6   2 21281.3 832.889  25
  -5  -6   2 21952.2 656.957   6
  -5  -6   2 16897.0 741.458  38
  -5  -6   2 21520.4 581.415   4
  -5  -6   2 18507.0 655.827  47
  -5  -6   2 22108.4 700.912  46
  -5  -6   3 9034.57 409.206   6
  -5  -6   3 9234.28 438.007  46
  -5  -6   3 8284.16 522.527  25
  -5  -6   3 8581.67 386.134  51
  -5  -6   4 52867.0 1051.44   6
  -5  -6   4 55936.5 1118.91  46
  -5  -6   4 54018.6 1108.44  47
  -5  -6   4 52668.6 1337.72  25
  -5  -6   4 51228.3 1029.98  51
  -5  -6   5 2442.98 188.582   6
  -5  -6   5 2223.78 187.391  51
  -5  -6   5 1823.15 176.954  47
  -5  -6   5 2298.49 282.287  25
  -5  -6   6 9843.00 362.997  51
  -5  -6   6 9283.24 488.246  25
  -5  -6   7 107.587 58.0959  51
  -5  -5 -12 234.835 65.9342  38
  -5  -5 -12 122.819 39.9316  48
  -5  -5 -12 185.967 47.3685  41
  -5  -5 -11 2088.37 152.336  41
  -5  -5 -11 2049.38 149.337  48
  -5  -5 -11 2041.44 137.289  35
  -5  -5 -10 1122.09 131.659  48
  -5  -5 -10 1019.88 120.189  35
  -5  -5 -10 1052.73 134.079  41
  -5  -5 -10 1057.24 123.177  26
  -5  -5  -9 5433.52 280.962  26
  -5  -5  -9 5130.24 290.968  41
  -5  -5  -9 5034.58 273.238  35
  -5  -5  -9 5262.34 288.432  48
  -5  -5  -8 4469.20 285.327  48
  -5  -5  -8 4080.01 279.048  41
  -5  -5  -8 3978.54 257.786  35
  -5  -5  -8 4676.49 274.560  26
  -5  -5  -7 24654.9 666.493  36
  -5  -5  -7 24246.9 665.985  35
  -5  -5  -7 25636.7 720.001  41
  -5  -5  -7 25254.0 712.751  48
  -5  -5  -6 24669.1 679.625  36
  -5  -5  -6 25371.1 682.062  26
  -5  -5  -6 24021.5 667.632  35
  -5  -5  -6 24904.0 723.706  41
  -5  -5  -6 26569.6 733.222  48
  -5  -5  -5 81479.4 1340.57  26
  -5  -5  -5 76103.3 1323.33  36
  -5  -5  -5 64140.1 1198.39   4
  -5  -5  -5 67733.6 1313.41  41
  -5  -5  -5 76076.5 1359.05  48
  -5  -5  -5 75939.4 1299.27  35
  -5  -5  -4 6325.66 316.822   4
  -5  -5  -4 6526.04 659.573   1
  -5  -5  -4 6677.43 340.480  36
  -5  -5  -4 6136.86 340.369  48
  -5  -5  -4 7220.25 345.906  35
  -5  -5  -4 7622.45 459.107  38
  -5  -5  -4 5407.23 332.313  41
  -5  -5  -4 7350.23 353.004  26
  -5  -5  -4 7757.61 784.672   3
  -5  -5  -3 30155.2 750.632  36
  -5  -5  -3 30908.5 761.215  35
  -5  -5  -3 28456.8 712.597   4
  -5  -5  -3 28430.9 758.877   6
  -5  -5  -3 34667.5 1002.63  38
  -5  -5  -3 26967.4 744.106  48
  -5  -5  -3 31493.5 1427.39   1
  -5  -5  -3 32368.4 767.730  26
  -5  -5  -3 33428.2 1607.53   3
  -5  -5  -2 2445.00 207.858   6
  -5  -5  -2 2039.33 179.590   4
  -5  -5  -2 2378.27 392.858   1
  -5  -5  -2 3131.06 248.471  46
  -5  -5  -2 2460.78 207.682  35
  -5  -5  -2 2136.29 408.086   3
  -5  -5  -2 2388.40 201.785  36
  -5  -5  -2 2215.17 258.774  38
  -5  -5  -1 6113.39 427.403  38
  -5  -5  -1 6864.49 369.239  46
  -5  -5  -1 5609.52 317.359  35
  -5  -5  -1 7733.57 750.620   3
  -5  -5  -1 6929.28 353.362   6
  -5  -5  -1 6479.34 316.755   4
  -5  -5   0 6437.06 339.776   6
  -5  -5   0 4972.99 394.292  38
  -5  -5   0 5559.40 614.987   1
  -5  -5   0 4317.25 369.981  25
  -5  -5   0 6264.48 679.445   3
  -5  -5   0 5608.72 337.667  46
  -5  -5   1 16453.6 722.637  38
  -5  -5   1 14509.4 561.531  46
  -5  -5   1 13542.3 654.414  25
  -5  -5   1 15276.8 531.757   6
  -5  -5   1 14013.9 477.372   4
  -5  -5   1 13802.8 986.745   1
  -5  -5   1 14421.7 558.420  47
  -5  -5   2 13993.3 520.348   6
  -5  -5   2 11634.5 999.211  56
  -5  -5   2 11065.1 459.273  51
  -5  -5   2 14631.5 681.248  25
  -5  -5   2 11744.9 430.003   4
  -5  -5   2 8656.88 537.031  38
  -5  -5   2 11656.2 503.188  47
  -5  -5   2 14295.6 560.890  46
  -5  -5   3 18170.0 782.544  25
  -5  -5   3 18763.4 645.876  47
  -5  -5   3 19780.8 620.364  51
  -5  -5   4 9063.52 433.446  46
  -5  -5   4 9307.82 436.671  47
  -5  -5   4 9158.50 403.434   6
  -5  -5   4 8217.32 388.214  51
  -5  -5   5 31932.1 774.669  51
  -5  -5   5 31177.4 784.174  46
  -5  -5   5 29276.9 775.107  47
  -5  -5   5 29739.4 977.188  25
  -5  -5   5 31782.2 961.989  38
  -5  -5   5 32028.5 751.684   6
  -5  -5   6 1235.43 147.072  51
  -5  -5   6 1428.14 235.373  25
  -5  -5   6 1306.67 152.012  47
  -5  -5   7 9185.63 342.836  51
  -5  -5   7 7921.45 304.588  47
  -5  -5   8 212.649 61.3104  51
  -5  -4 -12 796.848 75.4116  35
  -5  -4 -12 1085.57 95.0264  48
  -5  -4 -12 1005.90 93.4419  41
  -5  -4 -11 6346.04 262.293  26
  -5  -4 -11 6735.25 279.914  48
  -5  -4 -11 6143.91 258.025  35
  -5  -4 -11 6270.27 274.832  41
  -5  -4 -10 1128.38 134.261  35
  -5  -4 -10 1076.29 138.949  41
  -5  -4 -10 1157.73 133.613  26
  -5  -4 -10 1345.62 146.179  48
  -5  -4  -9 6113.75 329.677  41
  -5  -4  -9 5553.00 297.487  26
  -5  -4  -9 6219.79 335.686  48
  -5  -4  -9 5911.52 695.157  17
  -5  -4  -9 5531.89 304.496  35
  -5  -4  -8 2753.93 481.919  17
  -5  -4  -8 3358.75 259.688  48
  -5  -4  -8 2746.86 223.295  26
  -5  -4  -8 2921.44 220.654  36
  -5  -4  -8 2865.49 236.593  41
  -5  -4  -8 3089.31 232.104  35
  -5  -4  -7 5718.10 335.802  41
  -5  -4  -7 5783.29 318.139  35
  -5  -4  -7 5427.00 309.894  36
  -5  -4  -7 5635.17 324.807  37
  -5  -4  -7 6032.75 701.909  17
  -5  -4  -7 5251.15 301.701  26
  -5  -4  -6 9266.38 422.539  48
  -5  -4  -6 8960.82 398.497  35
  -5  -4  -6 9783.27 427.810  37
  -5  -4  -6 7858.55 391.299  41
  -5  -4  -6 9431.82 405.548  26
  -5  -4  -6 9442.75 408.474  36
  -5  -4  -5 16956.6 563.779  37
  -5  -4  -5 14426.6 532.019  48
  -5  -4  -5 17264.6 553.884  26
  -5  -4  -5 16842.1 551.367  36
  -5  -4  -5 13480.5 473.682   4
  -5  -4  -5 16712.4 544.887  35
  -5  -4  -4 15121.1 1032.98   3
  -5  -4  -4 13342.2 497.540  37
  -5  -4  -4 13241.0 874.539   1
  -5  -4  -4 13187.9 473.419  36
  -5  -4  -3 2254.93 398.309   3
  -5  -4  -3 2300.62 376.378   1
  -5  -4  -2 23563.5 1144.06   1
  -5  -4  -2 25593.8 1295.95   3
  -5  -4  -1 3471.23 479.692   3
  -5  -4  -1 3360.82 448.818   1
  -5  -4   0 6136.63 643.664   3
  -5  -4   1 5598.67 415.502  38
  -5  -4   1 6852.50 348.047   6
  -5  -4   1 6793.63 692.899   3
  -5  -4   1 6324.31 351.549  46
  -5  -4   1 5275.82 319.844  47
  -5  -4   1 7263.32 722.860  56
  -5  -4   2 20562.7 629.891   6
  -5  -4   2 16800.5 737.818  38
  -5  -4   2 20671.5 1251.70  56
  -5  -4   2 20020.6 656.144  46
  -5  -4   2 19403.3 631.761  47
  -5  -4   2 18231.3 766.597  25
  -5  -4   2 15511.3 507.022   4
  -5  -4   2 17545.8 578.246  51
  -5  -4   3 7981.57 404.169  47
  -5  -4   3 6798.85 756.305   9
  -5  -4   3 7465.04 402.858  46
  -5  -4   3 8023.08 393.946   6
  -5  -4   3 7751.14 376.810  51
  -5  -4   4 1589.69 182.164   6
  -5  -4   4 1899.93 203.505  47
  -5  -4   4 2008.96 210.215  46
  -5  -4   4 1925.53 193.664  51
  -5  -4   5 33850.4 857.574  47
  -5  -4   5 32219.2 1042.38  25
  -5  -4   5 37392.2 1059.90  38
  -5  -4   5 29842.1 750.635   6
  -5  -4   5 33952.2 856.163  46
  -5  -4   5 30375.1 779.144  51
  -5  -4   6 21505.8 805.834  25
  -5  -4   6 22309.4 645.841  47
  -5  -4   7 13427.7 440.541  51
  -5  -4   7 14019.2 453.832  47
  -5  -4   8 1165.15 111.717  47
  -5  -4   8 1500.78 132.561  51
  -5  -3 -12 1966.35 128.919  35
  -5  -3 -12 2235.48 139.605  48
  -5  -3 -12 2007.06 139.715  41
  -5  -3 -12 2029.00 127.999  26
  -5  -3 -11 2671.65 182.163  35
  -5  -3 -11 2845.98 194.744  41
  -5  -3 -11 3000.31 193.108  48
  -5  -3 -11 2727.37 179.818  26
  -5  -3 -10 3728.65 239.285  35
  -5  -3 -10 3961.39 254.001  41
  -5  -3 -10 3796.95 244.970  26
  -5  -3  -9 11238.9 442.594  26
  -5  -3  -9 12001.2 451.629  37
  -5  -3  -9 12873.5 487.097  41
  -5  -3  -9 11018.7 955.414  17
  -5  -3  -8 31664.6 789.596  26
  -5  -3  -8 34626.0 1698.59  17
  -5  -3  -8 34051.9 831.398  37
  -5  -3  -8 32689.4 787.204  36
  -5  -3  -7 15905.1 565.720  41
  -5  -3  -7 15476.3 548.479  37
  -5  -3  -7 10941.2 913.797  59
  -5  -3  -7 10264.2 918.778  61
  -5  -3  -7 11359.4 934.278  60
  -5  -3  -7 11562.7 944.847  58
  -5  -3  -7 16283.4 1137.95  17
  -5  -3  -7 14765.4 525.686  36
  -5  -3  -7 14063.0 513.968  26
  -5  -3  -6 10351.2 444.450  37
  -5  -3  -6 8141.04 744.629  58
  -5  -3  -6 8165.29 750.706  60
  -5  -3  -6 7524.26 758.162  61
  -5  -3  -6 11424.6 924.539  17
  -5  -3  -6 10318.0 435.678  26
  -5  -3  -6 7673.32 723.044  59
  -5  -3  -6 8612.44 416.324  41
  -5  -3  -6 9651.28 418.703  36
  -5  -3  -5 13580.3 968.535  17
  -5  -3  -5 11967.1 473.486  37
  -5  -3  -5 12177.4 899.086   3
  -5  -3  -5 12055.5 461.730  36
  -5  -3  -4 20682.7 1161.46   3
  -5  -3  -3 34143.9 1380.74   1
  -5  -3  -3 40157.8 1602.29   3
  -5  -3  -2 29660.6 1351.54   3
  -5  -3  -2 26709.2 1196.40   1
  -5  -3  -1 20388.4 1109.61   3
  -5  -3  -1 16787.9 948.881   1
  -5  -3   0 13954.5 933.720   3
  -5  -3   0 11919.2 864.469  56
  -5  -3   1 5125.66 578.848  56
  -5  -3   1 6367.03 643.366   3
  -5  -3   2 6734.79 352.736   6
  -5  -3   2 5837.08 319.605  51
  -5  -3   2 5777.47 637.615  56
  -5  -3   2 6933.01 370.779  46
  -5  -3   2 6484.46 657.036   3
  -5  -3   2 6760.75 350.619  47
  -5  -3   3 3337.36 251.946  47
  -5  -3   3 3314.64 250.431  51
  -5  -3   3 3344.47 257.305   6
  -5  -3   3 3554.17 340.548  25
  -5  -3   3 3179.55 498.347  56
  -5  -3   3 3784.27 282.169  46
  -5  -3   3 3225.93 510.875   9
  -5  -3   4 17477.7 594.878   6
  -5  -3   4 18233.0 784.327  25
  -5  -3   4 17468.6 624.836  46
  -5  -3   4 18248.6 599.306  51
  -5  -3   4 18928.7 619.075  47
  -5  -3   5 12597.5 512.955  47
  -5  -3   5 12005.3 480.498  51
  -5  -3   5 12971.5 481.102   6
  -5  -3   5 13364.3 531.603  46
  -5  -3   6 2872.27 229.167  46
  -5  -3   7 7795.63 347.808  51
  -5  -3   8 32893.8 686.064  47
  -5  -3   8 36095.4 717.450  51
  -5  -2 -12 2560.09 154.900  35
  -5  -2 -12 2339.89 143.684  48
  -5  -2 -12 2578.75 150.562  26
  -5  -2 -12 2755.84 164.458  41
  -5  -2 -11 2845.62 190.609  26
  -5  -2 -11 3013.18 202.260  41
  -5  -2 -11 2815.89 199.489  35
  -5  -2 -10 227.745 101.624  41
  -5  -2 -10 251.851 93.3789  35
  -5  -2 -10 360.271 92.9760  48
  -5  -2 -10 372.623 95.9239  26
  -5  -2  -9 10024.0 428.045  48
  -5  -2  -9 10773.8 451.344  41
  -5  -2  -9 10544.7 953.059  17
  -5  -2  -9 9380.75 418.723  35
  -5  -2  -9 9422.18 418.149  26
  -5  -2  -9 9527.55 396.942  36
  -5  -2  -9 9763.51 417.303  37
  -5  -2  -8 716.612 132.229  35
  -5  -2  -8 786.282 134.276  26
  -5  -2  -8 750.049 130.001  37
  -5  -2  -8 844.043 145.733  41
  -5  -2  -8 818.111 296.485  17
  -5  -2  -8 801.231 130.955  36
  -5  -2  -8 722.739 126.801  48
  -5  -2  -7 7491.84 789.538  59
  -5  -2  -7 9453.97 426.213  26
  -5  -2  -7 7133.01 768.959  58
  -5  -2  -7 8913.22 433.554  41
  -5  -2  -7 9322.40 420.387  36
  -5  -2  -7 6803.20 789.690  61
  -5  -2  -7 8106.03 838.929  60
  -5  -2  -7 9441.31 432.883  37
  -5  -2  -7 9687.77 434.830  35
  -5  -2  -7 9741.12 894.834  17
  -5  -2  -6 8943.84 405.906  36
  -5  -2  -6 7875.19 764.573  59
  -5  -2  -6 9195.45 417.078  35
  -5  -2  -6 8156.63 799.209  60
  -5  -2  -6 7674.62 787.145  61
  -5  -2  -6 9249.52 422.354  26
  -5  -2  -6 10194.6 854.284  17
  -5  -2  -6 9515.08 430.575  37
  -5  -2  -6 8622.81 792.994  58
  -5  -2  -5 5060.43 579.643  60
  -5  -2  -5 5776.92 609.822  58
  -5  -2  -5 5039.21 568.668  59
  -5  -2  -5 5858.31 620.925  17
  -5  -2  -5 6140.11 624.581   3
  -5  -2  -4 1489.01 316.942   3
  -5  -2  -4 1460.80 314.284  17
  -5  -2  -3 8654.61 742.706   3
  -5  -2  -2 15103.9 962.249   3
  -5  -2  -1 29726.6 1342.77   3
  -5  -2   0 768.556 230.360  56
  -5  -2   0 772.202 237.593   3
  -5  -2   1 28664.7 1347.95   3
  -5  -2   1 26274.9 1262.31  56
  -5  -2   2 4980.13 570.161   3
  -5  -2   2 6333.08 639.435  56
  -5  -2   2 5839.58 342.237  46
  -5  -2   3 32544.5 839.526   6
  -5  -2   3 32223.1 791.702  51
  -5  -2   3 34025.8 1591.51  56
  -5  -2   3 32612.8 866.386  46
  -5  -2   3 31365.4 1551.05   9
  -5  -2   4 36213.5 923.899  46
  -5  -2   4 34031.5 829.694  51
  -5  -2   4 34682.7 869.577   6
  -5  -2   5 1047.56 159.174  46
  -5  -2   5 869.901 134.809  51
  -5  -2   5 931.627 136.215   6
  -5  -2   5 561.502 153.022  47
  -5  -2   6 314.482 108.579  51
  -5  -2   6 366.889 105.690  46
  -5  -2   6 220.446 97.0074  47
  -5  -2   7 12543.2 448.245  51
  -5  -2   7 12650.8 444.189  46
  -5  -2   8 4809.04 246.219  47
  -5  -2   8 4755.63 248.242  51
  -5  -2   9 1543.67 115.251  47
  -5  -1 -12 1229.27 114.172  41
  -5  -1 -12 1189.81 108.852  35
  -5  -1 -12 1030.95 92.4464  48
  -5  -1 -12 1174.67 108.471  26
  -5  -1 -11 4456.44 228.630  48
  -5  -1 -11 3924.96 232.261  35
  -5  -1 -11 4438.85 244.822  26
  -5  -1 -10 2410.39 193.640  37
  -5  -1 -10 2529.05 210.786  26
  -5  -1 -10 2540.89 198.538  48
  -5  -1 -10 2414.19 207.688  41
  -5  -1 -10 2562.84 208.926  35
  -5  -1  -9 130.349 169.799  17
  -5  -1  -9 344.368 96.7296  37
  -5  -1  -9 298.239 86.8031  36
  -5  -1  -9 351.120 107.616  26
  -5  -1  -9 378.322 101.317  35
  -5  -1  -9 301.900 106.167  41
  -5  -1  -8 33156.4 830.869  36
  -5  -1  -8 31243.7 824.705  35
  -5  -1  -8 31304.0 830.221  37
  -5  -1  -8 29699.3 825.493  41
  -5  -1  -8 30317.6 810.482  26
  -5  -1  -8 34379.3 1743.70  17
  -5  -1  -7 2514.48 229.127  26
  -5  -1  -7 2289.52 456.704  58
  -5  -1  -7 2621.92 473.196  20
  -5  -1  -7 2753.73 238.834  35
  -5  -1  -7 2069.19 446.511  60
  -5  -1  -7 2798.33 233.413  36
  -5  -1  -7 2600.06 463.136  17
  -5  -1  -7 1753.66 413.585  59
  -5  -1  -7 2359.92 222.763  37
  -5  -1  -6 19776.6 1235.00  20
  -5  -1  -6 17008.9 1167.73  58
  -5  -1  -6 16117.2 587.701  35
  -5  -1  -6 16410.1 592.118  26
  -5  -1  -6 17008.4 597.790  37
  -5  -1  -6 19423.0 1191.95  17
  -5  -1  -6 18377.2 607.341  36
  -5  -1  -6 17014.8 1177.52  59
  -5  -1  -6 14981.1 593.720  34
  -5  -1  -6 16414.1 1171.77  60
  -5  -1  -5 5271.20 612.096   3
  -5  -1  -5 5347.79 624.578  59
  -5  -1  -5 5310.98 614.159  20
  -5  -1  -5 4461.16 578.549  60
  -5  -1  -5 5340.32 600.572  17
  -5  -1  -5 4623.92 569.994  58
  -5  -1  -4 4966.46 558.599  59
  -5  -1  -4 5072.66 535.782  17
  -5  -1  -4 4917.49 564.218  60
  -5  -1  -4 4699.49 543.765  58
  -5  -1  -4 5327.38 592.682   3
  -5  -1  -4 5364.91 596.737  20
  -5  -1  -3 9410.46 665.930  17
  -5  -1  -3 8473.85 734.682   3
  -5  -1  -3 8245.92 718.359  20
  -5  -1  -2 5118.57 559.655   3
  -5  -1  -1 9761.91 780.687   3
  -5  -1   0 4641.49 496.277  56
  -5  -1   0 5347.72 579.408   3
  -5  -1   1 233.975 171.916   3
  -5  -1   1 312.003 160.441  56
  -5  -1   2 41067.1 1623.76  56
  -5  -1   3 22435.0 649.199  51
  -5  -1   3 22949.3 706.710   6
  -5  -1   3 30233.2 761.827  47
  -5  -1   3 21332.4 1243.56  56
  -5  -1   3 26694.9 1498.39   9
  -5  -1   3 25355.1 738.021  46
  -5  -1   3 19350.1 665.674  33
  -5  -1   4 36313.1 929.785  46
  -5  -1   4 33355.2 837.523  29
  -5  -1   4 29793.5 1560.65  56
  -5  -1   4 31360.4 1645.82   9
  -5  -1   4 36098.2 880.162   6
  -5  -1   4 35246.2 841.497  51
  -5  -1   5 27426.5 792.054  46
  -5  -1   5 25843.2 722.849  51
  -5  -1   6 1018.80 139.527  29
  -5  -1   6 1065.89 158.967  46
  -5  -1   6 1135.68 162.162  51
  -5  -1   6 1164.68 172.212  47
  -5  -1   7 3515.77 235.918  46
  -5  -1   8 4573.50 243.014  47
  -5  -1   8 3954.06 228.422  51
  -5  -1   9 9197.76 290.571  47
  -5   0 -12 2735.11 158.927  35
  -5   0 -12 2561.55 152.935  26
  -5   0 -12 2555.37 151.038  41
  -5   0 -11 1.66672 54.6372  35
  -5   0 -11-0.67353 63.0490  26
  -5   0 -11-78.7526 68.1857  41
  -5   0 -10 7660.89 359.574  41
  -5   0 -10 7678.82 362.290  35
  -5   0 -10 7674.07 330.568  36
  -5   0 -10 7790.93 367.107  26
  -5   0 -10 7739.08 342.318  37
  -5   0  -9 7783.52 845.933  17
  -5   0  -9 7836.70 841.357  20
  -5   0  -9 8692.03 411.741  35
  -5   0  -9 8333.13 405.315  41
  -5   0  -9 9326.60 414.314  36
  -5   0  -9 8021.07 395.097  26
  -5   0  -9 8006.19 394.291  37
  -5   0  -8 11859.7 511.062  41
  -5   0  -8 12860.9 516.745  37
  -5   0  -8 12838.8 517.590  35
  -5   0  -8 13179.5 525.914  26
  -5   0  -8 14296.4 1135.27  17
  -5   0  -8 13959.6 532.100  36
  -5   0  -8 15677.2 1195.60  20
  -5   0  -7 54144.2 2365.84  60
  -5   0  -7 60140.7 1252.97  35
  -5   0  -7 67756.9 2473.62  20
  -5   0  -7 60671.4 1259.70  37
  -5   0  -7 66080.0 2406.36  17
  -5   0  -7 60003.5 1250.31  26
  -5   0  -7 53618.0 2304.63  59
  -5   0  -7 67153.0 1275.95  36
  -5   0  -7 54364.3 2306.34  58
  -5   0  -6 9392.44 460.446  34
  -5   0  -6 12125.4 976.126  20
  -5   0  -6 9461.98 925.986  60
  -5   0  -6 10218.2 460.132  35
  -5   0  -6 9756.36 457.856  26
  -5   0  -6 10521.0 963.463  59
  -5   0  -6 10445.3 468.971  37
  -5   0  -6 10675.6 905.905  17
  -5   0  -6 8087.50 406.235  27
  -5   0  -6 10205.8 929.753  58
  -5   0  -5 65155.3 2370.17  60
  -5   0  -5 68326.1 2373.31  58
  -5   0  -5 68256.4 2398.31  59
  -5   0  -5 71703.0 2307.40   3
  -5   0  -5 74037.5 2267.14  17
  -5   0  -4 35739.9 1576.50   3
  -5   0  -4 34282.7 1384.64  17
  -5   0  -4 33181.9 1528.18  58
  -5   0  -4 33154.4 1568.04  60
  -5   0  -4 37772.0 1612.83  20
  -5   0  -4 32270.9 1538.17  59
  -5   0  -3 2584.89 421.795  20
  -5   0  -3 2163.87 375.194  58
  -5   0  -3 2540.71 428.252   3
  -5   0  -3 2137.90 371.549  59
  -5   0  -2 57798.2 1890.65  20
  -5   0  -2 54892.8 1962.31   3
  -5   0  -1 79943.3 2378.21   3
  -5   0   0 1058.15 238.159  56
  -5   0   0 896.143 255.113   3
  -5   0   1 6559.37 667.948   3
  -5   0   1 5894.86 559.438  56
  -5   0   2 8878.34 403.415  51
  -5   0   2 9577.53 813.007   3
  -5   0   2 9833.64 442.070   6
  -5   0   2 10257.1 461.033  46
  -5   0   3 24269.3 692.260  51
  -5   0   3 25355.2 736.433   6
  -5   0   3 27058.9 733.213  47
  -5   0   3 26019.2 772.678  46
  -5   0   3 24136.5 737.642  33
  -5   0   4 12522.4 485.546  29
  -5   0   4 13336.9 532.385  46
  -5   0   4 13804.9 520.457  47
  -5   0   4 13000.5 495.720  51
  -5   0   5 11621.6 498.028  46
  -5   0   5 12811.1 492.140  47
  -5   0   6 8082.60 399.194  46
  -5   0   7 7868.79 358.650  46
  -5   0   7 8246.33 365.502  47
  -5   0   8 2655.30 173.104  46
  -5   0   9 1027.28 104.227  47
  -5   1 -12 7320.45 247.726  35
  -5   1 -12 6734.86 223.907  41
  -5   1 -11 298.632 75.7595  41
  -5   1 -11 314.102 86.2663  26
  -5   1 -11 338.359 81.6158  35
  -5   1 -10 7075.70 339.670  26
  -5   1 -10 6492.42 328.171  35
  -5   1 -10 6956.15 314.202  36
  -5   1 -10 6609.17 319.117  41
  -5   1 -10 6550.99 315.812  37
  -5   1  -9 24510.9 702.983  41
  -5   1  -9 25602.5 725.274  37
  -5   1  -9 23898.9 1495.81  20
  -5   1  -9 27720.2 729.914  36
  -5   1  -9 26430.3 741.035  35
  -5   1  -9 23548.9 1469.94  17
  -5   1  -9 25581.9 721.404  26
  -5   1  -8 10887.1 482.208  35
  -5   1  -8 11355.7 1033.76  20
  -5   1  -8 10762.7 480.178  37
  -5   1  -8 10351.1 473.953  26
  -5   1  -8 11376.6 1014.84  17
  -5   1  -7 11164.5 498.889  37
  -5   1  -7 11288.0 1011.23  20
  -5   1  -7 11128.3 974.796  17
  -5   1  -7 11143.6 484.143  36
  -5   1  -7 11154.4 496.259  26
  -5   1  -7 10024.7 472.888  35
  -5   1  -7 9398.43 464.128  34
  -5   1  -6 24931.9 768.032  26
  -5   1  -6 22743.5 706.303  27
  -5   1  -6 23647.7 737.160  35
  -5   1  -6 28443.1 1545.31  20
  -5   1  -6 25387.6 768.132  37
  -5   1  -6 23966.5 768.604  34
  -5   1  -6 27464.5 1463.15  17
  -5   1  -6 27441.7 771.856  36
  -5   1  -6 24140.7 1544.97  60
  -5   1  -6 26752.3 1579.42  58
  -5   1  -6 26219.8 1590.75  59
  -5   1  -5 724.651 142.311  34
  -5   1  -5 600.165 265.353  58
  -5   1  -5 774.516 290.658  20
  -5   1  -5 508.520 108.594   2
  -5   1  -5 658.216 276.028  59
  -5   1  -5 430.710 189.479  17
  -5   1  -5 527.564 117.826  27
  -5   1  -5 741.454 255.010   3
  -5   1  -5 609.798 280.694  60
  -5   1  -5 604.313 127.034  36
  -5   1  -5 562.728 119.676  37
  -5   1  -4 78302.8 2498.82  20
  -5   1  -4 74915.9 2459.03   3
  -5   1  -4 72543.8 2441.52  58
  -5   1  -4 71052.8 2472.03  59
  -5   1  -3 336.903 216.870   3
  -5   1  -3 135.278 144.028  59
  -5   1  -3 198.936 164.577  58
  -5   1  -3 474.311 200.827  20
  -5   1  -2 30202.3 1407.90  58
  -5   1  -2 31526.4 1511.62   3
  -5   1  -2 32462.1 1448.84  20
  -5   1  -2 29386.3 1420.76  59
  -5   1  -1 2297.66 377.538  20
  -5   1  -1 2756.31 445.478   3
  -5   1   0 400.586 211.302   3
  -5   1   1 2042.29 401.946   3
  -5   1   2 34804.0 868.286  51
  -5   1   2 37367.2 917.689   6
  -5   1   2 37476.4 929.302  46
  -5   1   2 34813.7 1640.15   3
  -5   1   3 51785.2 1103.15  46
  -5   1   3 46270.6 983.027  29
  -5   1   3 44841.7 1053.06  33
  -5   1   3 47768.3 1074.94   6
  -5   1   3 48941.7 1048.26  31
  -5   1   3 44639.0 1015.16  51
  -5   1   4 35263.6 885.701  46
  -5   1   4 29332.7 825.204  33
  -5   1   4 31352.9 827.776   6
  -5   1   4 32427.7 831.984  31
  -5   1   4 33350.7 809.890  29
  -5   1   4 29934.3 809.747  51
  -5   1   5 3033.19 250.148  46
  -5   1   5 2694.47 223.994  29
  -5   1   5 3342.99 251.094  47
  -5   1   5 2997.43 243.174  31
  -5   1   6 1882.22 177.660  29
  -5   1   6 1514.46 181.394  51
  -5   1   6 1741.11 194.575  46
  -5   1   6 1810.74 176.713  31
  -5   1   7 409.783 94.2670  46
  -5   1   7 279.317 81.1011  47
  -5   1   7 319.640 81.0891  29
  -5   1   7 316.418 97.4091  51
  -5   1   8 1212.72 123.965  47
  -5   1   8 1338.01 122.790  46
  -5   1   9 10283.9 290.828  47
  -5   2 -12 2162.89 121.184  35
  -5   2 -12 2173.41 124.957  26
  -5   2 -11 7660.02 296.852  35
  -5   2 -11 7089.19 262.613  41
  -5   2 -11 8039.56 308.321  26
  -5   2 -10 101.685 59.7833  41
  -5   2 -10 96.4188 62.0141  36
  -5   2 -10 121.371 72.9935  35
  -5   2 -10 67.6134 75.4328  26
  -5   2 -10 54.7603 57.1755  37
  -5   2  -9 3807.10 268.365  37
  -5   2  -9 4174.77 272.125  36
  -5   2  -9 3933.52 272.828  35
  -5   2  -9 3965.34 271.999  26
  -5   2  -8 3961.06 605.870  17
  -5   2  -8 5233.85 711.515  20
  -5   2  -8 4889.35 323.440  26
  -5   2  -8 5269.84 327.995  35
  -5   2  -8 5116.36 329.903  37
  -5   2  -8 5127.64 321.002  36
  -5   2  -7 34719.1 916.230  37
  -5   2  -7 36978.0 940.155  35
  -5   2  -7 36499.8 1858.01  20
  -5   2  -7 34383.8 1743.90  17
  -5   2  -7 36606.3 945.226  26
  -5   2  -7 35351.8 912.225  36
  -5   2  -6 21661.3 1517.34  60
  -5   2  -6 24955.2 767.131  37
  -5   2  -6 27621.8 1581.13  20
  -5   2  -6 22847.2 717.420  27
  -5   2  -6 23090.9 1532.12  58
  -5   2  -6 23743.3 774.675  34
  -5   2  -6 22608.0 726.173  35
  -5   2  -6 25299.7 774.710  26
  -5   2  -6 23452.4 732.368  36
  -5   2  -6 24251.3 1601.09  59
  -5   2  -5 19152.6 1275.22  20
  -5   2  -5 17045.2 608.890  27
  -5   2  -5 15728.1 1167.47   3
  -5   2  -5 18122.3 1306.07  58
  -5   2  -5 17914.0 1333.64  59
  -5   2  -5 17790.5 643.516  37
  -5   2  -5 16115.7 580.222   2
  -5   2  -5 16978.3 639.908  34
  -5   2  -5 15261.0 594.892  26
  -5   2  -5 17269.3 616.387  36
  -5   2  -4 16166.0 1182.81  58
  -5   2  -4 15784.8 1181.53  10
  -5   2  -4 18084.3 1203.03  20
  -5   2  -4 16806.4 1198.45   3
  -5   2  -4 15950.0 596.672  36
  -5   2  -4 16098.0 1212.86  59
  -5   2  -4 16511.1 618.780  37
  -5   2  -4 16935.5 617.689  27
  -5   2  -4 15848.3 574.433   2
  -5   2  -4 16771.8 631.425  34
  -5   2  -3 15938.4 606.224  34
  -5   2  -3 16391.4 1170.14  59
  -5   2  -3 17078.5 1204.28  23
  -5   2  -3 15941.2 583.363  27
  -5   2  -3 16552.1 1148.76  58
  -5   2  -3 15899.8 1121.92  10
  -5   2  -3 17346.8 1190.79   3
  -5   2  -3 18151.8 1157.36  20
  -5   2  -3 16135.8 578.791   2
  -5   2  -2 22.2028 136.713  23
  -5   2  -2 24.0210 130.008  59
  -5   2  -2-67.4771 150.405   3
  -5   2  -2-17.0678 141.531  58
  -5   2  -2 68.6022 115.803  20
  -5   2  -1 4919.99 588.421  58
  -5   2  -1 5957.19 681.394   3
  -5   2  -1 5623.07 668.621  23
  -5   2  -1 4733.58 587.368  59
  -5   2   0 7736.48 799.917  23
  -5   2   0 7623.70 395.034   2
  -5   2   0 7093.93 758.797   3
  -5   2   0 7521.07 377.720  33
  -5   2   1 2735.46 250.502  27
  -5   2   1 3094.60 282.037  34
  -5   2   1 3941.33 594.508  23
  -5   2   1 3354.23 264.705   2
  -5   2   1 3061.41 513.902   3
  -5   2   1 3259.00 253.824  33
  -5   2   1 2902.97 247.239  46
  -5   2   2 4088.61 292.266  33
  -5   2   2 3821.23 258.592  29
  -5   2   2 3440.57 250.547  31
  -5   2   2 5165.38 692.862  23
  -5   2   2 4704.90 308.294  46
  -5   2   2 3653.30 276.389   2
  -5   2   2 3788.24 569.838   3
  -5   2   3 10846.5 480.024  51
  -5   2   3 12034.4 506.048  33
  -5   2   3 10330.0 427.838  29
  -5   2   3 11597.2 492.207  46
  -5   2   4 9909.04 451.552  33
  -5   2   4 7932.50 392.156  31
  -5   2   4 9348.54 409.112  47
  -5   2   4 7908.48 372.221  29
  -5   2   4 8728.01 421.848  46
  -5   2   4 8217.81 402.979   6
  -5   2   5 3071.11 233.260  33
  -5   2   5 3334.00 234.442  29
  -5   2   5 3008.38 251.024  46
  -5   2   5 3020.34 234.548  31
  -5   2   6 3518.19 240.140  47
  -5   2   6 3542.00 232.528  29
  -5   2   6 4071.62 279.000  46
  -5   2   7 1418.64 139.098  29
  -5   2   7 1605.98 154.629  47
  -5   2   7 1496.57 152.748  46
  -5   2   8 1322.73 117.427  46
  -5   2   8 1224.29 114.299  47
  -5   2   8 1467.45 115.486  29
  -5   2   9 896.443 76.6738  47
  -5   3 -11 1313.67 114.828  26
  -5   3 -11 1332.15 113.619  35
  -5   3 -10 100.815 59.8086  36
  -5   3 -10 53.4573 54.5673  37
  -5   3 -10 26.4560 58.6828  35
  -5   3 -10 18.6338 69.5829  26
  -5   3  -9 6872.63 339.664  26
  -5   3  -9 7375.28 351.128  37
  -5   3  -9 7023.05 339.211  36
  -5   3  -9 6935.38 337.656  35
  -5   3  -8 4907.40 306.075  36
  -5   3  -8 4733.91 307.611  26
  -5   3  -8 4633.84 311.576  37
  -5   3  -8 4834.12 691.290  20
  -5   3  -8 4473.12 293.481  35
  -5   3  -7 29383.4 1656.86  20
  -5   3  -7 28231.8 806.616  37
  -5   3  -7 27677.2 785.423  36
  -5   3  -7 29256.0 814.415  26
  -5   3  -6 3043.44 258.201  35
  -5   3  -6 3650.90 292.683  34
  -5   3  -6 3234.58 263.415  36
  -5   3  -6 3699.13 288.199  26
  -5   3  -6 3685.10 292.074  37
  -5   3  -6 3901.65 611.426  20
  -5   3  -6 3659.63 278.907  27
  -5   3  -5 8786.96 909.451   3
  -5   3  -5 10612.1 485.057  27
  -5   3  -5 9150.48 979.083  10
  -5   3  -5 10239.2 483.765  26
  -5   3  -5 10340.9 483.978  37
  -5   3  -5 11215.4 1006.01  20
  -5   3  -5 10038.3 477.623  36
  -5   3  -5 10405.7 464.717   2
  -5   3  -5 11745.3 528.174  34
  -5   3  -4 229.544 89.5239   2
  -5   3  -4 95.9907 176.142   3
  -5   3  -4 171.670 86.9082  27
  -5   3  -4 369.635 166.975   7
  -5   3  -4 377.987 231.446  10
  -5   3  -4 149.044 179.947  59
  -5   3  -4 280.560 104.132  34
  -5   3  -4 395.848 220.331  20
  -5   3  -4 321.031 114.445  37
  -5   3  -4 30.7766 176.916  58
  -5   3  -4 312.724 223.663  23
  -5   3  -4 195.688 91.7270  36
  -5   3  -3 29550.5 1679.93  59
  -5   3  -3 29162.8 852.968  36
  -5   3  -3 32453.0 900.072  34
  -5   3  -3 35229.3 1694.46  20
  -5   3  -3 33519.9 1754.41   3
  -5   3  -3 33726.9 879.295  27
  -5   3  -3 31070.0 886.393  37
  -5   3  -3 38760.3 1885.42  23
  -5   3  -3 32376.8 847.723   2
  -5   3  -3 26285.2 1537.99  10
  -5   3  -3 27451.3 786.008  33
  -5   3  -3 32829.0 1735.49  58
  -5   3  -2 1513.14 352.308  20
  -5   3  -2 1242.06 182.135  34
  -5   3  -2 1848.16 424.003  23
  -5   3  -2 1346.15 168.982   2
  -5   3  -2 1744.15 407.240   3
  -5   3  -2 1113.99 327.075  58
  -5   3  -2 1276.32 162.441  33
  -5   3  -2 1163.12 339.521  59
  -5   3  -2 1270.50 180.983  37
  -5   3  -2 1531.09 181.777  27
  -5   3  -2 1243.09 171.089  36
  -5   3  -1 5494.92 669.540  58
  -5   3  -1 5971.05 346.611   2
  -5   3  -1 5602.83 351.029  27
  -5   3  -1 5675.90 335.375  33
  -5   3  -1 5389.45 358.402  34
  -5   3  -1 5347.80 685.898   3
  -5   3  -1 6892.22 781.063  23
  -5   3  -1 5114.77 655.268  59
  -5   3   0 781.202 126.951  29
  -5   3   0 1066.58 151.322  33
  -5   3   0 1178.45 165.064   2
  -5   3   0 899.054 288.954   3
  -5   3   0 917.978 305.477  58
  -5   3   0 1022.67 140.637  31
  -5   3   0 1192.19 346.573  23
  -5   3   0 1101.01 340.427  66
  -5   3   0 1217.16 165.863  27
  -5   3   0 1077.03 173.463  34
  -5   3   1 3592.12 280.941  27
  -5   3   1 3686.46 279.073   2
  -5   3   1 3158.64 243.823  31
  -5   3   1 3313.70 258.623  33
  -5   3   1 3571.30 249.643  29
  -5   3   1 4002.78 609.805  23
  -5   3   1 3166.21 285.814  34
  -5   3   1 3108.67 539.366   3
  -5   3   2 5015.33 319.991   2
  -5   3   2 5125.39 323.800  33
  -5   3   2 4987.56 297.753  31
  -5   3   2 5301.31 704.481  23
  -5   3   2 5092.10 293.201  29
  -5   3   3 146128. 2169.92  33
  -5   3   3 143628. 2021.55  29
  -5   3   4 771.112 133.266   6
  -5   3   4 499.074 132.654  46
  -5   3   4 608.022 122.370  33
  -5   3   4 725.251 114.842  47
  -5   3   4 698.937 126.967  31
  -5   3   4 716.469 123.042  29
  -5   3   5 696.749 128.546  46
  -5   3   5 443.808 106.389  31
  -5   3   5 604.972 112.956  29
  -5   3   5 609.163 117.337  33
  -5   3   5 469.740 107.614  47
  -5   3   5 509.485 101.511   6
  -5   3   6 3966.12 244.813  31
  -5   3   6 3954.26 233.303  47
  -5   3   6 3711.43 230.716  29
  -5   3   6 3786.55 257.844  46
  -5   3   7 1000.45 112.283  29
  -5   3   7 1128.74 130.375  46
  -5   3   7 930.641 115.870  31
  -5   3   7 975.871 117.295  47
  -5   3   8 17303.7 405.928  47
  -5   3   8 17578.9 390.851  29
  -5   4 -11 211.567 47.6693  26
  -5   4 -11 132.930 37.5861  35
  -5   4 -10 2147.23 155.424  26
  -5   4 -10 1814.02 133.990  37
  -5   4 -10 2109.92 147.730  36
  -5   4 -10 1826.51 141.065  35
  -5   4  -9 10694.2 399.062  37
  -5   4  -9 10346.6 385.057  36
  -5   4  -9 9866.61 366.620  35
  -5   4  -9 10278.8 389.002  26
  -5   4  -8 6514.74 323.090  35
  -5   4  -8 7732.85 366.590  26
  -5   4  -8 7019.70 353.215  37
  -5   4  -8 7568.40 363.401  36
  -5   4  -7 26508.2 1571.21  20
  -5   4  -7 28386.5 749.479  35
  -5   4  -7 31172.3 828.393  37
  -5   4  -7 28020.6 763.129  36
  -5   4  -7 31357.3 809.445  26
  -5   4  -6 4814.22 326.085  34
  -5   4  -6 4778.84 316.577  26
  -5   4  -6 4664.57 673.534  20
  -5   4  -6 4506.72 284.670   2
  -5   4  -6 3999.31 297.198  37
  -5   4  -6 4428.98 305.766  36
  -5   4  -6 4730.19 306.797  27
  -5   4  -5 3394.53 268.491  27
  -5   4  -5 3317.43 275.500  37
  -5   4  -5 3717.63 271.226   2
  -5   4  -5 3811.21 285.671  26
  -5   4  -5 3918.12 298.907  34
  -5   4  -5 3630.96 284.721  36
  -5   4  -5 3650.38 596.317  20
  -5   4  -4 9519.98 463.178  36
  -5   4  -4 9352.51 462.873  37
  -5   4  -4 9283.69 942.854  23
  -5   4  -4 9923.69 448.918   2
  -5   4  -4 11202.0 1000.81  20
  -5   4  -4 10184.1 489.143  34
  -5   4  -4 9821.84 465.073  27
  -5   4  -3 1703.91 207.099  34
  -5   4  -3 1693.22 397.480  20
  -5   4  -3 1561.62 177.704  33
  -5   4  -3 1556.17 190.122  36
  -5   4  -3 1794.99 208.710  37
  -5   4  -3 1627.15 190.310  27
  -5   4  -3 1965.71 447.664  23
  -5   4  -3 1501.09 184.254   2
  -5   4  -2 21104.9 1430.83  66
  -5   4  -2 18097.7 653.158  34
  -5   4  -2 14214.8 1187.83  59
  -5   4  -2 16298.4 604.189  36
  -5   4  -2 17840.6 603.125  33
  -5   4  -2 18438.7 1325.43  23
  -5   4  -2 17734.1 609.861   2
  -5   4  -2 17566.0 647.081  37
  -5   4  -2 18737.6 639.500  27
  -5   4  -2 16028.6 1237.17  58
  -5   4  -1 24068.2 1503.84  58
  -5   4  -1 30254.5 839.660  27
  -5   4  -1 30815.7 1698.86  23
  -5   4  -1 27901.1 778.304  33
  -5   4  -1 23493.6 1503.95  59
  -5   4  -1 28279.2 847.087  34
  -5   4  -1 27647.7 785.114   2
  -5   4  -1 30652.0 1722.58  66
  -5   4   0 7600.92 391.769  33
  -5   4   0 8044.77 868.466  23
  -5   4   0 7805.35 419.251  27
  -5   4   0 7990.23 439.811  34
  -5   4   0 8952.56 928.610  66
  -5   4   0 8279.59 415.487   2
  -5   4   1 3970.47 269.503  31
  -5   4   1 3984.09 642.017  66
  -5   4   1 4087.09 312.520  34
  -5   4   1 3895.19 274.177  33
  -5   4   1 3955.43 257.395  29
  -5   4   1 5120.98 708.134  23
  -5   4   1 4006.27 296.253  27
  -5   4   1 4170.59 295.722   2
  -5   4   2 68985.1 1403.21  34
  -5   4   2 71299.0 1286.57  31
  -5   4   2 66156.9 1306.78  33
  -5   4   2 74165.6 1268.17  29
  -5   4   2 79794.9 2851.23  23
  -5   4   2 72967.4 1359.90   2
  -5   4   3 73673.9 1302.20  31
  -5   4   3 72046.0 1264.30  29
  -5   4   3 76651.4 1381.58  33
  -5   4   4 15669.6 529.162   6
  -5   4   4 14659.2 497.474  31
  -5   4   4 15270.6 496.907  29
  -5   4   5 7758.07 366.539  46
  -5   4   5 8185.72 337.731  29
  -5   4   5 8229.61 348.120  31
  -5   4   6 2627.72 175.135  33
  -5   4   6 2931.12 186.761  29
  -5   4   6 2982.16 179.597  47
  -5   4   6 2758.60 191.352  31
  -5   4   6 2837.37 206.891  46
  -5   4   7 13780.5 365.348  29
  -5   4   7 12307.4 375.025  46
  -5   4   8 2980.68 129.399  29
  -5   5 -10 27.9304 27.0094  35
  -5   5 -10 58.3713 38.3696  26
  -5   5 -10 6.83904 29.4894  36
  -5   5  -9 875.858 104.962  36
  -5   5  -9 797.534 88.4663  35
  -5   5  -9 1050.79 115.454  37
  -5   5  -9 966.320 109.122  26
  -5   5  -8 9947.05 350.765  35
  -5   5  -8 11297.6 406.724  36
  -5   5  -8 10939.5 408.352  37
  -5   5  -8 10927.4 393.720  26
  -5   5  -7 27193.9 695.800  26
  -5   5  -7 25637.2 685.128  36
  -5   5  -6 11680.9 453.649  27
  -5   5  -6 10990.9 458.368  37
  -5   5  -6 11255.7 467.819  34
  -5   5  -6 11443.7 450.460  26
  -5   5  -6 11144.3 463.123  36
  -5   5  -6 11440.5 429.325   2
  -5   5  -5 5412.99 335.563  37
  -5   5  -5 5929.44 341.340  27
  -5   5  -5 5877.23 345.039  36
  -5   5  -5 6066.17 331.884   2
  -5   5  -5 4790.77 675.246  20
  -5   5  -5 6161.79 364.688  34
  -5   5  -4 26722.4 791.616  34
  -5   5  -4 25424.0 1530.30  20
  -5   5  -4 27431.8 769.956  27
  -5   5  -4 25859.3 1581.21  23
  -5   5  -4 26521.9 743.260   2
  -5   5  -4 26030.5 762.254  36
  -5   5  -4 26222.1 781.272  37
  -5   5  -3 451.721 121.991  34
  -5   5  -3 509.171 121.154  27
  -5   5  -3 481.817 117.806  36
  -5   5  -3 547.399 241.152  23
  -5   5  -3 441.549 119.881  37
  -5   5  -3 338.803 187.509  20
  -5   5  -3 423.749 109.906   2
  -5   5  -2 1080.99 163.253  37
  -5   5  -2 875.351 137.036  33
  -5   5  -2 1057.83 359.475  66
  -5   5  -2 907.281 147.271   2
  -5   5  -2 818.267 143.050  27
  -5   5  -2 1496.90 401.073  23
  -5   5  -2 854.848 154.014  34
  -5   5  -1 13330.6 512.949  33
  -5   5  -1 13680.4 1147.80  23
  -5   5  -1 12694.5 525.679  27
  -5   5  -1 12984.5 1152.28  66
  -5   5  -1 13906.5 527.734   2
  -5   5  -1 13636.1 562.212  34
  -5   5   0 1581.13 409.887  66
  -5   5   0 1470.90 176.224  33
  -5   5   0 1492.39 183.792  27
  -5   5   0 1589.70 194.689  34
  -5   5   0 1655.91 187.516   2
  -5   5   0 1341.59 390.490  23
  -5   5   1 6557.75 817.772  66
  -5   5   1 6292.07 327.882  31
  -5   5   1 8152.73 893.358  23
  -5   5   1 6402.23 361.929  27
  -5   5   1 6680.17 388.341  34
  -5   5   1 6493.53 315.265  29
  -5   5   1 6853.07 365.022   2
  -5   5   1 6485.41 349.232  33
  -5   5   2 31393.6 768.659  31
  -5   5   2 30751.6 787.163  33
  -5   5   2 33845.7 825.018   2
  -5   5   2 31621.0 847.953  34
  -5   5   2 32264.8 813.034  27
  -5   5   2 32575.0 1781.02  23
  -5   5   2 32437.9 746.605  29
  -5   5   3 3341.90 233.869  31
  -5   5   3 4589.27 255.477  29
  -5   5   3 3858.22 259.548  33
  -5   5   3 3317.13 561.293  23
  -5   5   4 39203.0 847.070  31
  -5   5   4 44529.3 917.458  33
  -5   5   5 1935.57 158.033  31
  -5   5   5 1997.98 157.952  29
  -5   5   5 2250.44 171.859  33
  -5   5   6 10769.6 321.945  33
  -5   5   6 11850.5 353.155  31
  -5   5   7 7077.65 222.720  29
  -5   6  -9 3468.42 156.065  37
  -5   6  -9 3470.80 152.983  26
  -5   6  -9 3845.68 165.833  36
  -5   6  -8 4076.14 214.315  37
  -5   6  -8 4317.44 210.388  36
  -5   6  -8 4066.40 199.816  26
  -5   6  -7 650.088 108.506  37
  -5   6  -7 600.656 101.022  36
  -5   6  -7 604.589 95.9391  26
  -5   6  -6 3039.15 218.437  36
  -5   6  -6 3088.48 203.947  26
  -5   6  -6 2898.31 206.637  27
  -5   6  -6 2894.21 212.624  34
  -5   6  -6 2772.72 187.349   2
  -5   6  -6 2563.09 207.858  37
  -5   6  -5 11374.8 434.908  27
  -5   6  -5 11227.0 419.697   2
  -5   6  -5 11113.9 438.046  36
  -5   6  -5 11292.6 448.528  37
  -5   6  -5 11455.0 456.634  34
  -5   6  -4 2649.98 231.384  37
  -5   6  -4 2699.15 221.560  27
  -5   6  -4 2591.77 215.219  36
  -5   6  -4 2704.22 231.643  34
  -5   6  -4 2581.61 214.467   2
  -5   6  -3 10361.5 459.423  34
  -5   6  -3 10055.5 424.078  36
  -5   6  -3 10636.5 448.768  27
  -5   6  -3 10127.1 995.884  23
  -5   6  -3 9998.81 443.262  37
  -5   6  -3 10649.9 433.813   2
  -5   6  -2 391.100 210.418  23
  -5   6  -2 557.288 118.280  27
  -5   6  -2 432.462 103.681   2
  -5   6  -2 297.084 90.2805  37
  -5   6  -2 306.168 106.526  34
  -5   6  -2 356.694 91.3945  33
  -5   6  -1 1946.56 436.971  23
  -5   6  -1 1798.05 189.028  27
  -5   6  -1 1770.53 194.479  34
  -5   6  -1 1599.45 173.279  33
  -5   6  -1 1748.55 184.653   2
  -5   6   0 4728.75 312.389  34
  -5   6   0 4698.36 286.075  33
  -5   6   0 4791.20 293.063   2
  -5   6   0 4511.61 289.580  27
  -5   6   0 5266.91 697.816  23
  -5   6   1 4716.03 283.670  33
  -5   6   1 4688.93 281.143   2
  -5   6   1 5000.43 294.246  27
  -5   6   1 4139.85 621.206  23
  -5   6   1 4723.30 306.765  34
  -5   6   2 7359.44 341.383  33
  -5   6   2 6842.67 320.242   2
  -5   6   2 7055.47 349.805  34
  -5   6   2 6686.34 287.004  29
  -5   6   2 7484.68 332.575  27
  -5   6   3 1385.95 127.380  29
  -5   6   3 1493.68 151.876  33
  -5   6   4 13211.3 415.975  33
  -5   6   4 12550.5 373.502  29
  -5   6   5 5454.75 240.721  46
  -5   6   5 6033.08 232.664  29
  -5   6   5 5920.41 245.123  33
  -5   6   6 378.797 61.5101  46
  -5   6   6 474.500 59.8335  29
  -5   7  -8 3978.17 158.162  37
  -5   7  -8 4253.23 158.468  36
  -5   7  -7 8914.66 293.405  37
  -5   7  -7 8549.35 278.971  36
  -5   7  -6 5858.71 256.371  36
  -5   7  -6 5734.97 239.104  27
  -5   7  -6 6088.81 268.486  37
  -5   7  -5 29245.6 653.780  36
  -5   7  -5 30893.6 673.470  27
  -5   7  -5 31252.2 651.189   2
  -5   7  -5 29385.2 679.027  37
  -5   7  -5 30918.3 690.291  34
  -5   7  -4 471.956 88.3834  36
  -5   7  -4 587.258 97.8254   2
  -5   7  -4 613.851 106.872  34
  -5   7  -4 581.615 105.936  37
  -5   7  -4 530.307 99.4330  27
  -5   7  -3 162.638 63.6012  36
  -5   7  -3 202.989 82.2856  34
  -5   7  -3 155.135 76.7128  27
  -5   7  -3 106.124 64.2274  37
  -5   7  -3 226.912 80.7093   2
  -5   7  -2 184.314 60.6942  33
  -5   7  -2 170.148 75.4967   2
  -5   7  -2 225.920 71.0830  37
  -5   7  -2 198.583 80.4001  27
  -5   7  -2 147.610 82.3026  34
  -5   7  -1 1995.70 188.173  34
  -5   7  -1 2018.53 168.075  33
  -5   7  -1 2033.44 176.971   2
  -5   7  -1 2002.08 180.624  27
  -5   7   0 1124.18 146.654  34
  -5   7   0 1091.42 134.801   2
  -5   7   0 1105.19 134.598  27
  -5   7   0 997.966 123.334  33
  -5   7   1 7041.90 307.025  27
  -5   7   1 7400.25 314.643   2
  -5   7   1 7338.59 337.135  34
  -5   7   1 7530.24 317.278  33
  -5   7   2 2902.96 194.872  34
  -5   7   2 3305.50 198.749  33
  -5   7   2 2662.25 165.226  27
  -5   7   2 2793.83 176.849   2
  -5   7   3 1365.74 120.459  46
  -5   7   3 1791.56 138.788  33
  -5   7   4 12.7313 27.0409   6
  -5   7   4 63.4081 31.6762  29
  -5   7   4 61.4587 44.4667  33
  -5   7   4 33.7411 41.2295  46
  -5   8  -6 821.901 75.2627  37
  -5   8  -5 3365.09 149.897  36
  -5   8  -5 3806.73 169.439  27
  -5   8  -4 2366.99 150.826  27
  -5   8  -4 2320.22 144.188   2
  -5   8  -4 2177.16 144.755  37
  -5   8  -4 2445.21 157.900  34
  -5   8  -3 6293.04 257.064  27
  -5   8  -3 6541.86 276.977  34
  -5   8  -3 6033.42 243.432  37
  -5   8  -3 6110.59 251.374   2
  -5   8  -2 11444.4 352.110   2
  -5   8  -2 11624.7 358.592  27
  -5   8  -2 11311.8 374.129  34
  -5   8  -1 3822.20 201.254   2
  -5   8  -1 3731.20 212.244  34
  -5   8  -1 4052.00 207.293  27
  -5   8   0 3308.40 197.049  34
  -5   8   0 3451.34 184.309  27
  -5   8   0 3314.53 182.724   2
  -5   8   0 3178.49 174.043  33
  -5   8   1 1841.67 126.108   2
  -5   8   1 1599.51 114.450  27
  -5   8   1 1747.99 134.688  34
  -5   8   1 1848.77 132.999  33
  -5   8   2 9097.34 274.681  33
  -5   8   2 7090.78 231.345  34
  -5   8   3 5185.19 182.702  33
  -4 -11  -5 903.305 110.517  25
  -4 -11  -5 811.466 80.9215  40
  -4 -11  -4 645.467 109.999  25
  -4 -11  -4 550.028 79.5961  40
  -4 -11  -3 1999.81 180.473  25
  -4 -11  -3 2118.51 159.020  40
  -4 -11  -2 5250.69 240.919   4
  -4 -11  -2 2527.56 205.726  25
  -4 -11  -1 6034.98 247.107   4
  -4 -11  -1 1646.40 170.702  25
  -4 -11   0 211.251 90.4061  25
  -4 -11   1 8763.10 244.923   4
  -4 -11   2 157.638 69.8662  25
  -4 -10  -7 3641.72 167.978  40
  -4 -10  -6 243.778 66.3752  40
  -4 -10  -6 166.052 83.2424  25
  -4 -10  -6 247.050 71.6803  48
  -4 -10  -5 101.838 64.6281  40
  -4 -10  -5 127.417 89.3714  25
  -4 -10  -5 46.0278 66.3896  48
  -4 -10  -4 381.196 92.2595  40
  -4 -10  -4 348.327 120.734   4
  -4 -10  -4 252.504 93.6342  48
  -4 -10  -4 273.961 114.828  25
  -4 -10  -3 1879.45 211.745  25
  -4 -10  -3 1608.40 167.563  40
  -4 -10  -2 2732.65 220.628  40
  -4 -10  -2 2336.76 239.442  25
  -4 -10  -1 5122.58 341.642  25
  -4 -10  -1 4855.49 300.889  40
  -4 -10   0 6273.89 259.772   4
  -4 -10   1 1026.73 153.965   4
  -4 -10   1 208.061 116.082  25
  -4 -10   2 9182.11 306.701   4
  -4 -10   2 5941.73 307.403  38
  -4 -10   4 344.807 98.2943  25
  -4  -9  -9 180.816 57.0381  41
  -4  -9  -9 16.7526 41.5381  25
  -4  -9  -8 1221.01 106.631  40
  -4  -9  -8 1459.73 128.160  48
  -4  -9  -7 213.434 81.0116  48
  -4  -9  -7 181.194 78.3728  41
  -4  -9  -7 130.565 56.7685  40
  -4  -9  -7 134.335 92.8303  25
  -4  -9  -6 277.558 113.374  25
  -4  -9  -6 285.277 94.5335  48
  -4  -9  -6 215.047 96.9300  41
  -4  -9  -6 223.626 80.7213  40
  -4  -9  -5 3580.27 239.615  40
  -4  -9  -5 2941.71 274.477  25
  -4  -9  -5 3760.09 216.792   4
  -4  -9  -5 3807.00 248.616  48
  -4  -9  -4 3459.44 291.247  38
  -4  -9  -4 4367.29 339.346  25
  -4  -9  -4 4020.64 271.844  48
  -4  -9  -4 4163.47 270.388  40
  -4  -9  -3 283.054 111.109  38
  -4  -9  -3 386.677 106.277  40
  -4  -9  -3 283.838 108.054  48
  -4  -9  -3 462.397 144.405  25
  -4  -9  -2 6544.03 420.096  38
  -4  -9  -2 7843.41 452.767  25
  -4  -9  -2 7538.05 385.874  40
  -4  -9  -2 6909.67 372.470  48
  -4  -9  -1 14739.6 558.638  40
  -4  -9  -1 15631.4 651.436  25
  -4  -9   0 15657.7 652.546  25
  -4  -9   0 14474.8 566.567  40
  -4  -9   1 7252.98 446.047  25
  -4  -9   2 4701.54 244.530   4
  -4  -9   2 4954.98 379.797  25
  -4  -9   3-412.434 202.148   4
  -4  -9   4 289.450 118.586  25
  -4  -9   5 137.849 92.0261  25
  -4  -8 -10 25.9031 42.1701  41
  -4  -8 -10 95.8674 46.3180  48
  -4  -8  -9 3079.74 186.639  48
  -4  -8  -9 3421.79 194.119  41
  -4  -8  -8 233.856 71.3913  40
  -4  -8  -8 221.116 88.9243  38
  -4  -8  -8 245.082 88.6339  41
  -4  -8  -8 240.576 80.6225  48
  -4  -8  -7 4010.78 302.317  38
  -4  -8  -7 4196.97 255.629  48
  -4  -8  -7 4314.50 263.343  41
  -4  -8  -7 4055.90 243.227  40
  -4  -8  -6 17079.2 534.613  35
  -4  -8  -6 16881.9 665.101  38
  -4  -8  -6 18161.1 562.552  48
  -4  -8  -6 16391.8 535.188  40
  -4  -8  -6 17618.6 561.220  41
  -4  -8  -5 1835.70 187.965  35
  -4  -8  -5 2000.61 237.460  38
  -4  -8  -5 2000.02 194.149  48
  -4  -8  -5 1993.70 194.714  40
  -4  -8  -5 2176.30 213.685  41
  -4  -8  -4 793.016 142.501  40
  -4  -8  -4 1121.97 154.724  48
  -4  -8  -4 842.416 171.373  38
  -4  -8  -4 1034.94 160.334  41
  -4  -8  -4 876.891 178.684  25
  -4  -8  -3 40783.8 1161.93  38
  -4  -8  -3 41698.3 992.543  40
  -4  -8  -3 41745.1 858.651   4
  -4  -8  -2 27826.7 938.014  38
  -4  -8  -2 27152.6 662.273   4
  -4  -8  -2 30521.4 933.080  25
  -4  -8  -2 29239.3 820.241  40
  -4  -8  -2 25177.4 742.152  48
  -4  -8  -1 4070.84 301.485  48
  -4  -8  -1 4865.46 335.370  40
  -4  -8  -1 4726.02 365.477  25
  -4  -8  -1 4810.53 264.077   4
  -4  -8  -1 4162.16 363.956  38
  -4  -8   0 12274.1 425.861   4
  -4  -8   0 12752.7 606.286  25
  -4  -8   0 11079.8 588.667  38
  -4  -8   1 32455.0 1005.93  25
  -4  -8   1 34218.5 752.757   4
  -4  -8   2 8341.74 503.926  25
  -4  -8   3 1750.03 240.321  25
  -4  -8   4 6175.32 417.966  25
  -4  -8   5 1944.68 239.965  25
  -4  -8   6 1396.08 202.397  25
  -4  -8   7 790.167 130.008  25
  -4  -7 -11 1332.85 101.848  48
  -4  -7 -11 1450.78 105.687  41
  -4  -7 -10 5998.20 254.838  48
  -4  -7 -10 6044.20 256.285  41
  -4  -7  -9 5546.15 274.430  48
  -4  -7  -9 5700.17 281.241  41
  -4  -7  -8 7774.07 334.406  40
  -4  -7  -8 8553.50 352.642  35
  -4  -7  -8 9932.02 493.593  38
  -4  -7  -8 9117.58 377.418  48
  -4  -7  -8 9217.03 386.138  41
  -4  -7  -7 6880.12 345.339  48
  -4  -7  -7 7094.33 336.045  35
  -4  -7  -7 7598.51 453.410  38
  -4  -7  -7 6208.81 317.557  40
  -4  -7  -7 7168.13 356.420  41
  -4  -7  -6 13262.6 618.363  38
  -4  -7  -6 11650.8 459.370  40
  -4  -7  -6 12605.8 485.490  41
  -4  -7  -6 12180.6 474.173  48
  -4  -7  -6 11805.4 454.889  35
  -4  -7  -5 6337.34 351.809  41
  -4  -7  -5 6238.85 331.658  35
  -4  -7  -5 6080.76 338.580  40
  -4  -7  -5 5640.82 405.554  38
  -4  -7  -5 6424.79 340.541  48
  -4  -7  -4 22214.6 815.456  38
  -4  -7  -4 21776.0 638.955  35
  -4  -7  -4 21716.9 665.299  41
  -4  -7  -4 22511.6 604.637   4
  -4  -7  -4 21601.5 649.880  48
  -4  -7  -4 20386.7 645.413  40
  -4  -7  -3 25340.3 895.016  38
  -4  -7  -3 25329.0 696.899  35
  -4  -7  -3 27166.0 872.764  25
  -4  -7  -3 26150.8 744.685  41
  -4  -7  -3 26114.0 722.158  48
  -4  -7  -3 24266.5 1374.57   1
  -4  -7  -3 25559.5 641.879   4
  -4  -7  -2 3349.48 257.531  48
  -4  -7  -2 2842.75 466.928   1
  -4  -7  -2 2972.09 306.521  38
  -4  -7  -2 4054.32 276.079   6
  -4  -7  -2 2862.82 246.734  40
  -4  -7  -2 2928.58 232.565  35
  -4  -7  -2 3610.01 321.517  25
  -4  -7  -2 3123.07 213.259   4
  -4  -7  -1 6697.96 369.796  48
  -4  -7  -1 7042.60 366.017   6
  -4  -7  -1 5628.74 355.743  40
  -4  -7  -1 7165.95 318.379   4
  -4  -7  -1 5863.58 431.154  38
  -4  -7  -1 6983.34 723.241   1
  -4  -7  -1 7758.78 462.761  25
  -4  -7   0 43523.7 879.388   4
  -4  -7   0 43907.8 1188.56  25
  -4  -7   0 43202.8 1044.61  46
  -4  -7   0 41267.3 1817.43   1
  -4  -7   1 15138.1 522.939   6
  -4  -7   1 13674.3 548.741  46
  -4  -7   1 11456.4 597.034  25
  -4  -7   1 12829.8 442.935   4
  -4  -7   1 12191.3 632.272  38
  -4  -7   1 10642.9 957.200   1
  -4  -7   2 9861.14 430.155   6
  -4  -7   2 8957.36 360.438   4
  -4  -7   2 10226.1 468.163  46
  -4  -7   3 28862.5 757.406   6
  -4  -7   3 29796.6 806.994  46
  -4  -7   4 3630.47 347.666  25
  -4  -7   5 15704.4 693.407  25
  -4  -7   5 18457.5 746.839  38
  -4  -7   6 7860.66 324.096  51
  -4  -7   6 8854.16 475.020  25
  -4  -7   7 5529.95 242.752  51
  -4  -7   7 6318.21 362.052  25
  -4  -7   8 31.5460 36.6643  51
  -4  -6 -12 305.408 49.3945  48
  -4  -6 -12 344.712 52.6523  41
  -4  -6 -11 1379.10 122.701  48
  -4  -6 -11 1548.33 128.843  41
  -4  -6 -10 3401.67 190.450  35
  -4  -6 -10 4033.31 231.415  48
  -4  -6 -10 3917.33 230.407  41
  -4  -6  -9 2804.44 217.138  48
  -4  -6  -9 2649.33 212.054  41
  -4  -6  -9 2597.62 197.884  26
  -4  -6  -9 2445.82 186.044  35
  -4  -6  -8 10079.5 900.110  65
  -4  -6  -8 11325.7 428.971  26
  -4  -6  -8 10956.4 419.243  35
  -4  -6  -8 11943.4 464.022  48
  -4  -6  -8 11069.4 452.336  41
  -4  -6  -7 10795.4 433.078  35
  -4  -6  -7 11436.2 957.460  65
  -4  -6  -7 11139.3 434.076  26
  -4  -6  -7 12104.2 479.458  48
  -4  -6  -6 28714.4 732.824  26
  -4  -6  -6 29905.6 749.673  35
  -4  -6  -6 29104.7 784.198  41
  -4  -6  -6 30327.6 784.615  48
  -4  -6  -5 7699.21 404.156  41
  -4  -6  -5 6437.82 652.036  16
  -4  -6  -5 6394.36 332.131  35
  -4  -6  -5 6591.51 335.169  26
  -4  -6  -5 5896.81 301.835   4
  -4  -6  -5 7465.86 370.233  48
  -4  -6  -4 17207.8 552.270  35
  -4  -6  -4 18513.1 585.683  48
  -4  -6  -4 19158.6 747.446  38
  -4  -6  -4 17786.4 595.334  41
  -4  -6  -3 17926.9 716.180  38
  -4  -6  -3 16629.5 531.388  35
  -4  -6  -3 15728.8 553.466  41
  -4  -6  -3 14970.2 480.093   4
  -4  -6  -3 15650.7 1006.87   1
  -4  -6  -3 16275.6 550.521  48
  -4  -6  -2 76494.7 1641.38  38
  -4  -6  -2 78780.7 1340.53  35
  -4  -6  -2 80990.4 2351.47   1
  -4  -6  -2 83337.9 1312.82   4
  -4  -6  -1 49344.7 1015.11   6
  -4  -6  -1 41888.0 1171.16  38
  -4  -6  -1 47537.7 1783.71   1
  -4  -6  -1 44612.9 963.379  35
  -4  -6  -1 49344.5 929.902   4
  -4  -6   0 2172.58 178.372   4
  -4  -6   0 2113.98 257.279  38
  -4  -6   0 2312.67 206.569   6
  -4  -6   0 2177.45 211.632  46
  -4  -6   0 1707.18 369.888   1
  -4  -6   0 2138.93 244.636  25
  -4  -6   1 11260.4 879.525   1
  -4  -6   1 9921.34 550.524  38
  -4  -6   1 11997.4 464.414   6
  -4  -6   1 12247.5 505.851  46
  -4  -6   1 10110.5 482.524  40
  -4  -6   1 10845.3 405.259   4
  -4  -6   1 10334.0 556.541  25
  -4  -6   2 34422.9 1089.11  38
  -4  -6   2 37819.3 830.253   4
  -4  -6   2 39536.7 1726.90   1
  -4  -6   2 49807.1 1084.90  46
  -4  -6   2 44154.7 1202.62  25
  -4  -6   2 46872.6 987.470   6
  -4  -6   3 3516.89 260.670   6
  -4  -6   3 3009.25 256.827  46
  -4  -6   3 3276.04 329.971  25
  -4  -6   3 2511.38 232.219  47
  -4  -6   4 14043.0 513.475   6
  -4  -6   4 13349.0 664.158  25
  -4  -6   4 12844.7 514.903  46
  -4  -6   5 8095.14 367.664   6
  -4  -6   5 7989.80 371.039  51
  -4  -6   6 21144.8 683.010  50
  -4  -6   6 19877.9 586.254  51
  -4  -6   6 21228.0 790.483  25
  -4  -6   7 3841.00 342.998  25
  -4  -6   7 4260.43 271.372  50
  -4  -6   8 2826.06 180.803  51
  -4  -5 -12 852.142 89.1750  41
  -4  -5 -12 832.040 88.2310  48
  -4  -5 -11 3691.58 210.670  48
  -4  -5 -11 3685.93 210.570  41
  -4  -5 -10 8050.79 326.048  35
  -4  -5 -10 8595.00 337.047  26
  -4  -5 -10 8187.40 358.473  41
  -4  -5  -9 1520.34 172.527  48
  -4  -5  -9 1436.12 154.935  26
  -4  -5  -9 1493.76 155.612  35
  -4  -5  -9 1437.71 169.495  41
  -4  -5  -8 17755.1 1193.66  65
  -4  -5  -8 18388.9 571.075  35
  -4  -5  -8 17194.0 554.123  26
  -4  -5  -7 29288.1 1419.96  60
  -4  -5  -7 29201.0 1419.58  58
  -4  -5  -7 31203.8 1465.60  59
  -4  -5  -7 42611.0 1807.90  65
  -4  -5  -7 25923.5 1345.24  53
  -4  -5  -7 39191.9 871.540  26
  -4  -5  -7 45339.1 990.502  48
  -4  -5  -7 41429.1 937.738  41
  -4  -5  -7 29938.9 1470.25  61
  -4  -5  -7 40733.6 887.939  35
  -4  -5  -6 239.176 129.969  58
  -4  -5  -6 325.880 204.959  65
  -4  -5  -6 392.714 188.271  60
  -4  -5  -6 291.706 139.403  53
  -4  -5  -6 439.257 101.809  26
  -4  -5  -6 407.881 184.893  59
  -4  -5  -6 359.225 91.1505  35
  -4  -5  -6 382.491 102.209  41
  -4  -5  -6 432.924 116.162  48
  -4  -5  -6 378.144 172.089  61
  -4  -5  -6 256.353 77.2590  36
  -4  -5  -5 10762.4 446.059  48
  -4  -5  -5 9218.96 385.314  26
  -4  -5  -5 9603.49 722.011  16
  -4  -5  -5 9805.80 404.107  35
  -4  -5  -5 10524.5 815.652  65
  -4  -5  -5 9644.18 426.576  41
  -4  -5  -4 25788.0 1210.99   1
  -4  -5  -4 28487.1 1223.13  16
  -4  -5  -3 10905.7 809.910   3
  -4  -5  -3 10338.2 736.290   1
  -4  -5  -2 8980.27 729.290   3
  -4  -5  -2 8142.95 656.994   1
  -4  -5  -1 10436.1 725.084   1
  -4  -5  -1 11541.5 811.517   3
  -4  -5   0 19108.0 1050.69   3
  -4  -5   0 17048.1 962.122   1
  -4  -5   2 6549.64 448.096  38
  -4  -5   2 8206.96 378.318   6
  -4  -5   2 7699.99 727.777  56
  -4  -5   2 7794.16 482.080  25
  -4  -5   2 8462.56 732.163   9
  -4  -5   3 4324.46 558.409   9
  -4  -5   3 4156.18 559.164  56
  -4  -5   3 4580.61 383.799  25
  -4  -5   3 4054.89 288.193  47
  -4  -5   3 4167.76 278.521   6
  -4  -5   4 10810.2 446.389   6
  -4  -5   4 8929.56 840.135   9
  -4  -5   4 10059.7 581.007  25
  -4  -5   4 9444.02 882.209  56
  -4  -5   4 10976.6 474.073  47
  -4  -5   4 9514.70 450.269  46
  -4  -5   5 65597.1 1235.64   6
  -4  -5   5 66564.7 1263.07  51
  -4  -5   6 2880.81 323.746  25
  -4  -5   6 3008.10 237.983  51
  -4  -5   7 8780.64 369.332  51
  -4  -5   7 8091.37 394.932  50
  -4  -5   8 11532.9 388.565  51
  -4  -5   8 8858.55 354.838  50
  -4  -5   9 1244.27 111.847  51
  -4  -4 -12 1884.10 137.124  48
  -4  -4 -12 1572.89 130.089  41
  -4  -4 -11 760.335 98.0209  35
  -4  -4 -11 967.028 107.967  26
  -4  -4 -11 920.644 125.220  41
  -4  -4 -11 973.808 123.716  48
  -4  -4 -10 90.0162 63.1517  26
  -4  -4 -10 110.817 82.5339  48
  -4  -4 -10 59.0599 58.5167  35
  -4  -4 -10 40.7296 82.8308  41
  -4  -4  -9 8024.82 370.493  35
  -4  -4  -9 7640.86 384.933  48
  -4  -4  -9 7966.74 365.586  26
  -4  -4  -9 8097.24 393.346  41
  -4  -4  -9 8069.39 831.254  17
  -4  -4  -8 4014.59 271.359  35
  -4  -4  -8 3948.23 578.978  17
  -4  -4  -8 4052.74 283.598  48
  -4  -4  -8 3795.79 555.244  65
  -4  -4  -8 4081.58 266.907  26
  -4  -4  -8 4337.31 293.714  41
  -4  -4  -7 27031.3 1396.18  65
  -4  -4  -7 24791.0 702.739  37
  -4  -4  -7 22982.1 1257.83  60
  -4  -4  -7 27690.8 761.316  48
  -4  -4  -7 23367.1 1256.78  58
  -4  -4  -7 25348.2 701.601  26
  -4  -4  -7 28103.7 1470.07  17
  -4  -4  -7 29911.5 756.324  35
  -4  -4  -7 24137.7 1279.81  59
  -4  -4  -7 23726.6 1322.20  61
  -4  -4  -7 29120.1 776.490  41
  -4  -4  -6 2902.33 439.875  61
  -4  -4  -6 3244.92 448.722  60
  -4  -4  -6 3426.35 466.676  65
  -4  -4  -6 3634.53 252.364  35
  -4  -4  -6 3571.87 251.016  37
  -4  -4  -6 3795.29 519.437  17
  -4  -4  -6 3375.36 452.212  59
  -4  -4  -6 3395.94 239.226  26
  -4  -4  -6 3119.30 437.007  58
  -4  -4  -5 47167.3 1582.96   1
  -4  -4  -5 46305.5 1565.25  60
  -4  -4  -5 54800.8 1762.93  65
  -4  -4  -5 47442.7 1577.62  59
  -4  -4  -5 49138.0 1734.15   3
  -4  -4  -5 55277.2 1840.75  17
  -4  -4  -5 49101.3 1592.66  58
  -4  -4  -5 46073.4 1599.05  61
  -4  -4  -4 83708.2 1952.29  58
  -4  -4  -4 92571.5 2246.54  65
  -4  -4  -4 87156.8 2003.21  60
  -4  -4  -4 79442.4 1964.84  61
  -4  -4  -4 81907.0 1926.09  59
  -4  -4  -4 92608.3 2395.61   3
  -4  -4  -3 5955.27 520.692   1
  -4  -4  -3 6172.87 581.872   3
  -4  -4  -2 10172.4 669.105   1
  -4  -4  -2 11223.3 745.709   3
  -4  -4  -1 18045.2 944.075   3
  -4  -4  -1 15787.1 855.376   1
  -4  -4   0 26379.6 1177.32  56
  -4  -4   0 25706.4 1164.75   3
  -4  -4   1 44315.3 1570.46  56
  -4  -4   1 41889.2 1523.14   3
  -4  -4   1 37100.5 1396.69   1
  -4  -4   1 38240.4 1457.29   9
  -4  -4   2 775.784 221.859  56
  -4  -4   2 1144.74 269.449   9
  -4  -4   2 631.404 220.748   1
  -4  -4   2 946.425 249.134   3
  -4  -4   3 21896.0 1182.04   9
  -4  -4   3 18828.8 1116.11  56
  -4  -4   4 40304.1 940.110  47
  -4  -4   4 34928.4 865.733   6
  -4  -4   4 36702.1 1658.49  56
  -4  -4   4 42600.3 1212.20  25
  -4  -4   4 34278.0 896.152  46
  -4  -4   4 40349.8 1729.69   9
  -4  -4   5 21363.5 641.072  51
  -4  -4   5 20674.3 675.543  46
  -4  -4   5 25620.6 736.289  47
  -4  -4   5 27331.5 959.130  25
  -4  -4   6 2049.77 297.776  25
  -4  -4   6 2144.21 206.013  51
  -4  -4   6 2397.71 220.448  47
  -4  -4   7 9844.98 405.567  51
  -4  -4   7 10664.1 421.723  47
  -4  -4   8 4668.59 256.512  51
  -4  -4   8 3748.65 245.620  50
  -4  -4   9 2857.00 174.569  51
  -4  -4   9 598.619 82.9298  50
  -4  -3 -13 183.483 46.9156  41
  -4  -3 -13 164.090 42.6936  48
  -4  -3 -12 1457.69 110.090  26
  -4  -3 -12 1401.24 114.867  35
  -4  -3 -12 1668.84 142.768  48
  -4  -3 -12 1848.38 148.257  41
  -4  -3 -11 1097.50 128.196  26
  -4  -3 -11 1088.70 138.590  48
  -4  -3 -11 1084.20 125.943  35
  -4  -3 -11 1150.04 144.839  41
  -4  -3 -10 21685.3 1369.10  17
  -4  -3 -10 22975.2 630.630  26
  -4  -3 -10 23354.0 673.331  48
  -4  -3  -9 4875.12 302.049  35
  -4  -3  -9 4114.35 609.902  17
  -4  -3  -9 4825.24 311.411  48
  -4  -3  -9 4213.85 275.068  26
  -4  -3  -9 5024.47 314.561  41
  -4  -3  -8 26458.8 741.100  37
  -4  -3  -8 29321.6 775.959  35
  -4  -3  -8 27118.3 743.600  26
  -4  -3  -8 24336.1 1382.91  59
  -4  -3  -8 29555.9 1498.87  65
  -4  -3  -8 23270.7 1419.63  61
  -4  -3  -8 33303.2 852.317  41
  -4  -3  -8 27936.8 1520.86  17
  -4  -3  -8 25758.5 1418.87  58
  -4  -3  -8 30626.3 817.586  48
  -4  -3  -8 26070.4 1450.59  60
  -4  -3  -7 14001.6 519.751  37
  -4  -3  -7 15492.8 540.903  26
  -4  -3  -7 14917.9 1031.04  60
  -4  -3  -7 15833.3 1052.68  58
  -4  -3  -7 16264.6 580.650  41
  -4  -3  -7 15766.7 1054.31  59
  -4  -3  -7 16918.8 1064.14  65
  -4  -3  -7 15911.0 571.174  48
  -4  -3  -7 16299.9 555.796  35
  -4  -3  -7 17570.3 1132.75  17
  -4  -3  -7 14466.5 1074.06  61
  -4  -3  -6 6501.01 629.837  58
  -4  -3  -6 6741.40 637.760  59
  -4  -3  -6 7304.73 642.604  65
  -4  -3  -6 6478.40 636.653  60
  -4  -3  -6 7678.48 706.335  17
  -4  -3  -6 6350.11 646.103  61
  -4  -3  -5 38966.2 1441.76   3
  -4  -3  -5 33899.3 1428.44  61
  -4  -3  -5 36449.2 1387.94  59
  -4  -3  -5 38401.0 1322.93   1
  -4  -3  -5 35398.1 1389.97  60
  -4  -3  -5 40152.7 1413.09  65
  -4  -3  -5 35908.5 1386.27  58
  -4  -3  -5 38878.7 1508.82  17
  -4  -3  -4 2569.09 361.376   3
  -4  -3  -4 1970.02 286.303  59
  -4  -3  -4 2557.84 377.755  17
  -4  -3  -4 1810.83 300.923  61
  -4  -3  -4 2291.66 312.797  65
  -4  -3  -4 2142.67 307.689  60
  -4  -3  -4 2478.65 327.643  58
  -4  -3  -4 2275.53 313.542   1
  -4  -3  -3 7046.29 476.132  59
  -4  -3  -3 8083.08 520.899  60
  -4  -3  -3 8195.66 619.249   3
  -4  -3  -3 8040.03 564.860   1
  -4  -3  -3 7905.90 502.579  58
  -4  -3  -3 8119.92 624.413  17
  -4  -3  -2 59031.2 1595.36   1
  -4  -3  -2 62458.0 1763.10   3
  -4  -3  -1 19090.0 932.225   3
  -4  -3  -1 17673.9 835.176   1
  -4  -3   0 19442.8 944.337   3
  -4  -3   0 17656.5 860.421   1
  -4  -3   0 18517.5 909.743  56
  -4  -3   1 34338.7 1291.24   3
  -4  -3   1 35445.5 1305.22  56
  -4  -3   1 33270.2 1288.84   9
  -4  -3   2 19113.2 992.011  56
  -4  -3   2 18966.8 991.494   9
  -4  -3   3 24783.2 1210.04   9
  -4  -3   3 24370.6 1182.56  56
  -4  -3   4 801.178 138.651  47
  -4  -3   4 827.860 249.198   9
  -4  -3   4 726.256 129.174  46
  -4  -3   4 762.136 174.124  25
  -4  -3   4 829.367 124.732  51
  -4  -3   4 961.800 267.795  56
  -4  -3   5 5591.74 338.160  46
  -4  -3   5 5818.35 320.557  51
  -4  -3   5 5577.42 642.296   9
  -4  -3   5 5232.72 634.610  56
  -4  -3   6 106.611 74.8258  51
  -4  -3   6 293.321 169.975  25
  -4  -3   6 146.641 79.6457  47
  -4  -3   7 6839.43 347.471  47
  -4  -3   7 6064.39 322.604  51
  -4  -3   8 16700.6 503.556  47
  -4  -3   8 15692.7 492.723  51
  -4  -3   9 28214.1 616.487  51
  -4  -3   9 23740.3 545.744  47
  -4  -3  10 1337.12 106.567  51
  -4  -2 -13 296.695 57.7658  41
  -4  -2 -13 319.477 58.6681  48
  -4  -2 -12 3061.35 176.521  35
  -4  -2 -12 2705.11 159.551  26
  -4  -2 -12 3381.57 203.529  41
  -4  -2 -12 3103.10 190.489  48
  -4  -2 -11 13365.4 443.219  26
  -4  -2 -11 13902.4 472.656  48
  -4  -2 -11 14421.9 459.994  35
  -4  -2 -11 15025.4 491.692  41
  -4  -2 -10 9579.10 411.592  35
  -4  -2 -10 8578.35 877.043  17
  -4  -2 -10 9634.29 407.930  26
  -4  -2 -10 9925.63 439.024  41
  -4  -2 -10 9223.50 419.838  48
  -4  -2  -9 22496.4 673.140  26
  -4  -2  -9 22110.8 674.780  35
  -4  -2  -9 24581.0 1470.18  17
  -4  -2  -9 23593.0 713.292  48
  -4  -2  -9 22060.4 703.423  41
  -4  -2  -8 9967.48 907.388  59
  -4  -2  -8 8996.34 424.542  37
  -4  -2  -8 12047.5 991.150  17
  -4  -2  -8 10545.9 920.335  58
  -4  -2  -8 11371.0 478.018  35
  -4  -2  -8 11462.0 492.493  48
  -4  -2  -8 10218.2 957.312  61
  -4  -2  -8 11148.5 470.534  26
  -4  -2  -8 11629.1 503.691  41
  -4  -2  -8 10057.1 926.505  60
  -4  -2  -8 11949.1 934.406  65
  -4  -2  -7 82701.6 2376.70  65
  -4  -2  -7 72881.8 1354.73  35
  -4  -2  -7 74858.8 2468.92  60
  -4  -2  -7 70846.5 2446.88  61
  -4  -2  -7 81546.9 2531.48  17
  -4  -2  -7 75730.1 2420.35  58
  -4  -2  -7 67441.4 1306.32  26
  -4  -2  -7 72451.1 2384.26  59
  -4  -2  -6 429.854 210.588  60
  -4  -2  -6 578.200 212.037  58
  -4  -2  -6 560.440 196.192  59
  -4  -2  -6 524.241 222.239  17
  -4  -2  -6 849.071 224.019  65
  -4  -2  -5 9095.35 659.344   3
  -4  -2  -5 9177.53 722.837  20
  -4  -2  -5 8086.24 682.219  60
  -4  -2  -5 9709.71 739.897  17
  -4  -2  -5 9259.14 638.201  65
  -4  -2  -5 8137.99 667.098  59
  -4  -2  -5 8259.81 670.950  58
  -4  -2  -4 17612.2 909.540  59
  -4  -2  -4 17275.1 806.032  65
  -4  -2  -4 18801.2 972.040  17
  -4  -2  -4 17165.1 908.917  60
  -4  -2  -4 17723.6 918.014   3
  -4  -2  -4 17470.5 900.094  58
  -4  -2  -3 2654.47 359.587   3
  -4  -2  -3 2810.53 330.094  59
  -4  -2  -3 2772.90 355.423  17
  -4  -2  -3 2954.03 329.370   1
  -4  -2  -3 2777.98 330.265  60
  -4  -2  -3 2891.78 333.104  58
  -4  -2  -2 76253.0 1761.54   1
  -4  -2  -2 74018.9 1618.43  59
  -4  -2  -2 70271.9 1613.39  60
  -4  -2  -2 72656.0 1591.37  58
  -4  -2  -1 150218. 2848.97  56
  -4  -2  -1 149571. 2748.25   1
  -4  -2   0 38373.7 1322.93   3
  -4  -2   0 35611.9 1192.92   1
  -4  -2   0 36900.4 1238.49  56
  -4  -2   1 62661.7 1757.04   3
  -4  -2   1 62990.6 1768.01   9
  -4  -2   1 62181.7 1706.05  56
  -4  -2   2 18140.8 939.428   9
  -4  -2   2 18502.5 933.151  56
  -4  -2   3 23067.2 1119.51   9
  -4  -2   3 18400.2 1002.35  56
  -4  -2   4 51127.4 1841.16  56
  -4  -2   4 55752.6 1876.43   9
  -4  -2   5 3786.20 376.716  25
  -4  -2   5 3969.96 555.933  56
  -4  -2   5 3762.12 256.517  51
  -4  -2   5 4768.43 594.621   9
  -4  -2   5 4362.76 300.901  46
  -4  -2   6 54906.8 1171.00  46
  -4  -2   6 62507.0 1218.44  47
  -4  -2   7 5309.26 305.560  51
  -4  -2   8 18994.6 564.265  51
  -4  -2   9 29085.7 643.012  51
  -4  -2   9 24851.4 599.450  47
  -4  -2  10 4286.31 173.447  47
  -4  -1 -13 1657.85 113.953  41
  -4  -1 -12 24453.9 567.729  48
  -4  -1 -12 24740.7 559.659  35
  -4  -1 -12 23736.6 535.723  26
  -4  -1 -11 5760.67 294.921  26
  -4  -1 -11 6253.32 327.184  41
  -4  -1 -11 5953.88 303.658  35
  -4  -1 -11 6314.45 314.315  48
  -4  -1 -10 1237.16 179.736  35
  -4  -1 -10 1175.94 162.114  48
  -4  -1 -10 1417.74 388.632  17
  -4  -1 -10 1246.38 161.130  26
  -4  -1 -10 1202.52 168.319  41
  -4  -1  -9 23785.2 710.656  35
  -4  -1  -9 25002.5 1501.01  17
  -4  -1  -9 24831.9 737.661  48
  -4  -1  -9 23977.9 712.488  26
  -4  -1  -9 24216.0 754.492  41
  -4  -1  -8 18707.6 648.468  48
  -4  -1  -8 16945.2 606.542  37
  -4  -1  -8 19632.6 1363.15  61
  -4  -1  -8 22274.2 1335.82  20
  -4  -1  -8 18032.4 601.125  36
  -4  -1  -8 20228.8 1333.05  17
  -4  -1  -8 20449.3 655.063  26
  -4  -1  -8 20676.4 698.626  41
  -4  -1  -8 18325.9 1268.30  59
  -4  -1  -8 20383.7 668.138  35
  -4  -1  -8 20076.1 1308.02  58
  -4  -1  -8 18794.4 1300.69  60
  -4  -1  -7 15545.2 1120.72  60
  -4  -1  -7 13944.9 535.217  26
  -4  -1  -7 13132.6 529.253  35
  -4  -1  -7 14611.1 1061.68  59
  -4  -1  -7 15558.2 1084.67  20
  -4  -1  -7 14662.4 1058.03  58
  -4  -1  -7 14607.9 1063.43  17
  -4  -1  -6 3688.25 515.855  20
  -4  -1  -6 3502.09 502.875  59
  -4  -1  -6 3343.51 500.268  60
  -4  -1  -6 4173.48 537.352  58
  -4  -1  -6 3277.57 485.546  17
  -4  -1  -5 2948.72 380.605   3
  -4  -1  -5 2918.35 434.898  20
  -4  -1  -5 3265.76 450.736  17
  -4  -1  -5 2644.49 398.598  58
  -4  -1  -5 2557.08 406.209  59
  -4  -1  -5 2785.18 429.628  60
  -4  -1  -4 11012.6 774.791  20
  -4  -1  -4 10535.3 745.733  17
  -4  -1  -4 10358.3 739.701  60
  -4  -1  -4 10240.5 703.208   3
  -4  -1  -4 10954.1 751.560  59
  -4  -1  -4 10114.5 711.783  58
  -4  -1  -3 45625.9 1455.60  59
  -4  -1  -3 43634.4 1439.08  60
  -4  -1  -3 48497.0 1530.20   3
  -4  -1  -3 48568.5 1474.54  17
  -4  -1  -3 47015.0 1455.55  58
  -4  -1  -2 9793.65 599.354  59
  -4  -1  -2 9544.48 668.319  20
  -4  -1  -2 9806.81 656.467   3
  -4  -1  -2 9571.86 581.498  58
  -4  -1  -2 9992.22 593.531  17
  -4  -1  -2 8946.07 576.786  60
  -4  -1  -1 18607.0 825.434  56
  -4  -1  -1 18979.5 755.910  58
  -4  -1  -1 20357.1 792.394  59
  -4  -1   0 22633.6 1021.83   3
  -4  -1   0 19463.3 843.556  56
  -4  -1   1 14194.3 808.628   3
  -4  -1   1 13779.4 778.270   9
  -4  -1   1 14338.8 750.060  56
  -4  -1   2 6680.99 557.307   3
  -4  -1   2 6812.69 564.628   9
  -4  -1   2 6704.82 547.638  56
  -4  -1   3 6494.72 598.232  56
  -4  -1   3 5859.31 518.301   3
  -4  -1   3 6404.60 581.674   9
  -4  -1   4 8894.85 740.146  56
  -4  -1   4 8311.04 717.564   9
  -4  -1   5 12897.0 524.125  46
  -4  -1   5 13833.2 1005.56  56
  -4  -1   5 11970.6 464.579  51
  -4  -1   5 13996.8 509.868  47
  -4  -1   5 13539.2 993.057   9
  -4  -1   6 10835.6 444.485  51
  -4  -1   6 11626.1 470.582  47
  -4  -1   6 10875.1 481.152  46
  -4  -1   7 1601.11 175.071  46
  -4  -1   7 1409.37 176.605  51
  -4  -1   8 4264.19 262.897  51
  -4  -1   9 11885.6 394.376  51
  -4  -1   9 9748.92 374.889  47
  -4  -1  10 4905.09 205.054  47
  -4   0 -13 4252.84 161.706  35
  -4   0 -13 3468.52 143.094  48
  -4   0 -12 2376.16 168.490  35
  -4   0 -12 2483.61 179.493  41
  -4   0 -12 2361.42 158.902  26
  -4   0 -12 2430.39 167.138  48
  -4   0 -11 4266.06 258.683  48
  -4   0 -11 5053.80 285.502  35
  -4   0 -11 5161.72 294.645  41
  -4   0 -11 4949.65 278.061  26
  -4   0 -10 8696.49 411.962  26
  -4   0 -10 8999.67 432.403  41
  -4   0 -10 8432.37 407.203  35
  -4   0 -10 9244.93 420.525  48
  -4   0 -10 8041.40 874.929  17
  -4   0  -9 4108.61 634.999  17
  -4   0  -9 3878.52 288.456  26
  -4   0  -9 3715.59 574.315  20
  -4   0  -9 3583.49 293.686  41
  -4   0  -9 3795.11 286.770  48
  -4   0  -9 3456.92 275.928  35
  -4   0  -8 1873.41 420.741  58
  -4   0  -8 1925.91 444.759  60
  -4   0  -8 1797.12 224.782  41
  -4   0  -8 1665.89 194.012  37
  -4   0  -8 1939.09 201.253  36
  -4   0  -8 2054.73 432.244  20
  -4   0  -8 1840.51 206.385  35
  -4   0  -8 2033.17 469.362  17
  -4   0  -8 1864.34 429.938  59
  -4   0  -8 1648.09 198.541  48
  -4   0  -8 1951.52 216.381  26
  -4   0  -7 2253.64 216.076  37
  -4   0  -7 2302.96 435.970  20
  -4   0  -7 2039.74 208.751  36
  -4   0  -7 1872.87 407.010  58
  -4   0  -7 2174.97 438.666  59
  -4   0  -7 2038.33 417.562  60
  -4   0  -7 1901.90 422.470  17
  -4   0  -7 2380.23 222.251  26
  -4   0  -6 1251.79 325.572  60
  -4   0  -6 1435.35 334.826  59
  -4   0  -6 1852.51 382.370  17
  -4   0  -6 1552.34 347.629  58
  -4   0  -6 1780.80 364.901  20
  -4   0  -5 88964.3 2258.51   3
  -4   0  -5 85440.3 2430.02  58
  -4   0  -5 85875.8 2442.62  17
  -4   0  -5 79372.0 2406.13  60
  -4   0  -5 80222.9 2404.83  59
  -4   0  -5 89754.1 2444.75  20
  -4   0  -4 22552.7 1138.53  59
  -4   0  -4 22106.6 1119.30  20
  -4   0  -4 21787.5 1066.05   3
  -4   0  -4 21530.0 1100.19  58
  -4   0  -4 23037.5 1120.93  17
  -4   0  -3 91429.8 2312.40  20
  -4   0  -3 93605.2 2255.86  58
  -4   0  -3 93677.9 2184.42  17
  -4   0  -3 94930.5 2303.93   3
  -4   0  -3 86095.0 2213.40  59
  -4   0  -2 26355.9 1081.76  59
  -4   0  -2 24614.0 1025.69  58
  -4   0  -2 26511.1 1134.40  20
  -4   0  -2 27161.1 1147.65   3
  -4   0  -2 23571.6 909.049  17
  -4   0  -1 13645.5 782.555  20
  -4   0  -1 13429.0 790.642   3
  -4   0  -1 12287.1 689.602  59
  -4   0  -1 11865.5 621.177  56
  -4   0   0 100.841 73.8901  56
  -4   0   0 39.5819 93.3412  58
  -4   0   0 51.8155 80.6017  59
  -4   0   0 122.677 119.458   3
  -4   0   1 122.984 104.978  56
  -4   0   1 79.8867 116.880   3
  -4   0   2 8636.37 610.673  56
  -4   0   2 7029.52 600.256   3
  -4   0   2 6664.45 568.223   9
  -4   0   3 2794.75 395.186   9
  -4   0   3 2569.19 363.378   3
  -4   0   3 2510.09 369.244  56
  -4   0   4 13194.2 909.289   9
  -4   0   4 13813.2 927.119  56
  -4   0   5 43107.4 948.356  51
  -4   0   5 37154.2 912.469  31
  -4   0   5 42451.0 1019.14  46
  -4   0   5 48598.5 1007.23  47
  -4   0   5 43062.5 1793.32  56
  -4   0   5 42438.4 1804.61   9
  -4   0   5 44114.8 952.847  29
  -4   0   6 3588.97 253.492  29
  -4   0   6 3625.34 262.583  51
  -4   0   6 3111.49 269.777  46
  -4   0   7 10593.2 420.333  29
  -4   0   7 10897.2 463.860  46
  -4   0   7 11819.6 463.241  47
  -4   0   8 4225.95 237.231  49
  -4   0  10 1538.88 121.598  47
  -4   1 -13 101.403 38.0921  41
  -4   1 -12 7419.42 286.423  35
  -4   1 -12 6777.67 256.031  48
  -4   1 -12 7144.78 274.836  26
  -4   1 -11 1118.36 144.320  35
  -4   1 -11 1152.78 143.190  26
  -4   1 -11 1208.81 136.878  48
  -4   1 -11 1402.06 163.542  41
  -4   1 -10 2666.25 222.060  48
  -4   1 -10 2327.28 482.840  17
  -4   1 -10 2720.06 233.483  26
  -4   1 -10 2559.34 236.260  41
  -4   1 -10 2581.87 227.391  35
  -4   1  -9 6392.05 812.861  17
  -4   1  -9 6233.38 383.586  41
  -4   1  -9 5792.42 337.854  37
  -4   1  -9 5882.15 728.285  20
  -4   1  -9 5457.89 342.994  35
  -4   1  -9 5706.35 347.368  26
  -4   1  -9 5692.88 343.676  48
  -4   1  -8 7170.20 395.415  37
  -4   1  -8 7348.40 820.089  20
  -4   1  -8 7232.58 390.258  36
  -4   1  -8 7577.16 400.689  26
  -4   1  -8 6927.32 829.914  17
  -4   1  -8 7274.50 411.836  35
  -4   1  -8 7588.45 437.565  41
  -4   1  -7 8017.09 415.910  37
  -4   1  -7 7760.69 414.880  26
  -4   1  -7 7375.56 824.943  60
  -4   1  -7 5483.78 708.665  17
  -4   1  -7 6591.63 410.317  41
  -4   1  -7 8391.15 862.580  59
  -4   1  -7 8780.70 852.764  20
  -4   1  -7 8815.57 875.386  58
  -4   1  -7 7237.62 394.843  36
  -4   1  -7 7332.95 415.400  35
  -4   1  -6 7284.77 758.500  58
  -4   1  -6 6929.65 766.937  60
  -4   1  -6 9334.35 840.642  20
  -4   1  -6 8556.93 827.847  17
  -4   1  -6 7592.21 788.575  59
  -4   1  -5 6020.10 646.158  58
  -4   1  -5 5888.35 654.480  59
  -4   1  -5 5871.87 657.120  10
  -4   1  -5 6254.98 599.041   3
  -4   1  -5 6011.56 636.248  20
  -4   1  -5 5696.14 630.583  17
  -4   1  -4 28251.0 1287.79   3
  -4   1  -4 28505.3 1355.62  59
  -4   1  -4 30651.3 1343.40  17
  -4   1  -4 29263.6 1388.56  10
  -4   1  -4 29128.8 1344.62  58
  -4   1  -4 31834.6 1413.10  20
  -4   1  -3 18102.7 1015.86  10
  -4   1  -3 20109.8 1091.53  23
  -4   1  -3 17407.8 903.481  17
  -4   1  -3 17857.2 982.895  58
  -4   1  -3 19548.4 1035.90   3
  -4   1  -3 17703.2 999.271  59
  -4   1  -3 19128.5 1052.89  20
  -4   1  -2 1405.10 285.632  20
  -4   1  -2 1202.68 255.964  10
  -4   1  -2 1320.38 268.240  58
  -4   1  -2 1483.08 305.080  23
  -4   1  -2 957.450 228.578  59
  -4   1  -2 1520.42 299.334   3
  -4   1  -1 51727.2 1554.34  58
  -4   1  -1 54338.5 1660.20  20
  -4   1  -1 50363.6 1671.18   3
  -4   1  -1 50901.3 1748.14  23
  -4   1  -1 52398.7 1540.10  10
  -4   1   0 215.103 153.523  23
  -4   1   0 297.161 143.914  20
  -4   1   0 337.560 161.779   3
  -4   1   0 189.053 97.7821  56
  -4   1   0 249.413 111.187  58
  -4   1   1 24977.8 951.556  56
  -4   1   1 24795.0 1250.90  23
  -4   1   1 22971.8 957.461  58
  -4   1   1 24036.3 1160.67   3
  -4   1   2 9535.39 637.435  56
  -4   1   2 10443.3 775.756   3
  -4   1   2 9833.09 813.225  23
  -4   1   3 6459.05 667.589  23
  -4   1   3 6115.87 560.877  56
  -4   1   3 4963.93 535.542   9
  -4   1   3 5374.18 543.318   3
  -4   1   4 18879.0 596.686  51
  -4   1   4 20560.3 1124.60  56
  -4   1   4 20672.5 1160.63   9
  -4   1   4 20570.7 599.831  29
  -4   1   4 20416.9 619.368  47
  -4   1   5 1668.97 375.607   9
  -4   1   5 2086.79 200.098  31
  -4   1   5 2410.89 226.580  46
  -4   1   5 2308.84 200.874  29
  -4   1   5 2067.90 198.828  47
  -4   1   5 2328.46 422.381  56
  -4   1   6 615.014 114.307  29
  -4   1   6 559.794 131.449  46
  -4   1   6 206.365 106.909  30
  -4   1   6 625.519 112.533  49
  -4   1   6 647.395 123.617  31
  -4   1   6 468.829 125.976  51
  -4   1   6 611.563 125.880  47
  -4   1   7 2428.72 203.305  29
  -4   1   7 2517.65 209.298  31
  -4   1   7 2107.77 184.679  49
  -4   1   7 2346.57 212.366  47
  -4   1   7 2417.90 218.919  46
  -4   1   8 2422.43 180.281  49
  -4   1   8 2507.28 202.899  47
  -4   1   8 2136.88 171.382  29
  -4   1   8 2155.99 186.385  46
  -4   1   9 8063.80 322.995  47
  -4   1  10 7118.89 245.071  47
  -4   2 -12 1303.40 118.170  35
  -4   2 -12 1416.08 123.376  41
  -4   2 -12 1405.31 119.372  26
  -4   2 -11 1536.69 136.407  48
  -4   2 -11 1808.47 169.706  41
  -4   2 -11 1645.47 161.389  35
  -4   2 -11 1707.08 162.486  26
  -4   2 -10 3331.36 250.794  35
  -4   2 -10 3627.67 261.088  26
  -4   2 -10 3523.45 263.512  41
  -4   2  -9 12981.3 546.699  41
  -4   2  -9 12685.0 524.240  35
  -4   2  -9 12365.6 494.331  37
  -4   2  -9 11777.0 1069.78  20
  -4   2  -9 12555.0 501.911  36
  -4   2  -9 11882.9 501.200  26
  -4   2  -9 12053.4 1110.09  17
  -4   2  -8 13454.7 551.552  37
  -4   2  -8 15254.1 1209.87  20
  -4   2  -8 14679.0 565.166  36
  -4   2  -8 12246.0 538.263  35
  -4   2  -8 13541.7 1169.41  17
  -4   2  -8 13105.4 577.268  41
  -4   2  -8 13446.1 546.187  26
  -4   2  -7 33206.8 1787.59  58
  -4   2  -7 35724.4 1848.93  17
  -4   2  -7 31224.8 936.665  41
  -4   2  -7 35726.6 959.001  35
  -4   2  -7 32146.2 899.459  26
  -4   2  -7 32464.5 1808.89  60
  -4   2  -7 38761.8 1869.12  20
  -4   2  -7 37951.6 969.932  37
  -4   2  -7 35009.7 1856.99  59
  -4   2  -7 36093.9 934.968  36
  -4   2  -6 3283.96 537.298  17
  -4   2  -6 2991.66 254.971  36
  -4   2  -6 2901.58 254.215  37
  -4   2  -6 3994.41 593.715  20
  -4   2  -6 3268.52 553.533  10
  -4   2  -6 3759.72 577.900  60
  -4   2  -6 3365.54 281.061  26
  -4   2  -6 3437.82 561.693  58
  -4   2  -6 3089.56 518.036  59
  -4   2  -5 6799.25 723.541  58
  -4   2  -5 6793.22 740.149  59
  -4   2  -5 6574.94 698.417  17
  -4   2  -5 6271.94 684.801  20
  -4   2  -5 5676.40 680.198  10
  -4   2  -5 7058.55 697.109   3
  -4   2  -4 827.580 259.307  23
  -4   2  -4 689.686 236.250   3
  -4   2  -4 632.326 250.945  59
  -4   2  -4 614.897 225.349  20
  -4   2  -4 508.623 206.659  10
  -4   2  -4 793.168 243.778  58
  -4   2  -4 740.214 246.621  17
  -4   2  -3 10391.1 799.560  58
  -4   2  -3 9242.51 759.248   3
  -4   2  -3 9786.42 792.108  10
  -4   2  -3 9839.45 800.535  20
  -4   2  -3 8438.96 738.341  59
  -4   2  -3 10417.6 822.877  23
  -4   2  -2 5963.25 587.360  10
  -4   2  -2 5611.02 574.188  59
  -4   2  -2 5521.14 557.533  58
  -4   2  -2 6089.12 625.473  66
  -4   2  -2 6325.38 622.855  20
  -4   2  -2 6358.10 615.812   3
  -4   2  -2 6643.56 650.942  23
  -4   2  -1 1994.32 321.864  10
  -4   2  -1 1931.67 327.377  58
  -4   2  -1 1797.09 223.067   7
  -4   2  -1 1741.58 361.299  66
  -4   2  -1 1945.09 368.312  23
  -4   2  -1 1601.30 324.958   3
  -4   2  -1 1938.79 340.512  20
  -4   2   0 69525.0 1958.93  58
  -4   2   0 75509.8 2301.70  66
  -4   2   0 70804.4 2169.03   3
  -4   2   1 112883. 2924.20  66
  -4   2   1 105154. 2442.58  58
  -4   2   1 111282. 2819.52   3
  -4   2   1 111445. 2927.86  23
  -4   2   2 80822.1 2132.70  58
  -4   2   2 85018.1 2471.53   3
  -4   2   3 28480.0 1462.03  66
  -4   2   3 29697.3 1489.45  23
  -4   2   4 109.132 61.6816  31
  -4   2   4 246.774 156.512  56
  -4   2   4 136.663 65.4261  29
  -4   2   4 85.7776 73.7102  30
  -4   2   4 121.715 82.0032  51
  -4   2   4 106.438 65.3329  47
  -4   2   4 122.368 62.5272  49
  -4   2   4 112.232 72.5814  33
  -4   2   5 10090.7 417.655  29
  -4   2   5 10980.8 456.933  47
  -4   2   5 9979.81 423.681  31
  -4   2   5 10021.2 382.622  49
  -4   2   6 18983.2 590.990  31
  -4   2   6 18741.3 579.860  29
  -4   2   6 18115.2 590.784  47
  -4   2   6 17888.3 529.114  49
  -4   2   7 16798.7 584.867  46
  -4   2   7 17383.9 537.435  29
  -4   2   7 17639.2 561.582  47
  -4   2   7 18285.9 554.379  31
  -4   2   7 17762.4 511.983  49
  -4   2   8 2696.38 199.578  47
  -4   2   8 2909.11 192.828  29
  -4   2   8 2565.28 200.993  46
  -4   2   9 155.275 59.1319  49
  -4   2   9 136.422 66.4233  47
  -4   2   9 175.891 51.7540  29
  -4   3 -12-11.3739 36.8875  35
  -4   3 -12 35.1337 40.9461  26
  -4   3 -12 15.8365 37.9356  41
  -4   3 -11 665.208 102.354  35
  -4   3 -11 914.177 117.343  41
  -4   3 -11 760.721 108.456  26
  -4   3 -10 2420.96 189.740  36
  -4   3 -10 1741.26 186.205  35
  -4   3 -10 2215.67 202.128  26
  -4   3 -10 2258.94 204.825  41
  -4   3  -9 23671.1 724.309  41
  -4   3  -9 23734.2 694.001  37
  -4   3  -9 22582.3 1495.24  17
  -4   3  -9 23205.8 707.219  35
  -4   3  -9 23136.8 694.139  26
  -4   3  -9 23622.5 692.521  36
  -4   3  -8 2134.65 233.551  41
  -4   3  -8 1906.78 210.114  37
  -4   3  -8 1979.56 460.713  20
  -4   3  -8 1919.48 209.830  36
  -4   3  -8 1411.76 394.188  17
  -4   3  -8 1972.37 220.459  35
  -4   3  -8 2253.30 233.380  26
  -4   3  -7 20355.6 713.841  35
  -4   3  -7 22316.2 1467.54  20
  -4   3  -7 20153.8 696.783  36
  -4   3  -7 22022.1 723.394  37
  -4   3  -7 22932.9 1512.27  17
  -4   3  -7 20937.5 713.607  26
  -4   3  -6 11277.9 995.208  20
  -4   3  -6 10313.8 1013.61  59
  -4   3  -6 10063.5 483.646  37
  -4   3  -6 10636.6 488.293  36
  -4   3  -6 9516.97 482.473  35
  -4   3  -6 11128.4 1006.96  17
  -4   3  -6 9916.70 996.003  10
  -4   3  -6 10777.9 1018.83  58
  -4   3  -6 10272.0 492.991  26
  -4   3  -5 1689.81 402.324  58
  -4   3  -5 1447.73 182.784  37
  -4   3  -5 1990.86 424.869  20
  -4   3  -5 1612.72 399.199  10
  -4   3  -5 1420.84 341.470   3
  -4   3  -5 1593.66 193.370  36
  -4   3  -5 1793.47 385.980  17
  -4   3  -5 1926.85 382.954  23
  -4   3  -5 1376.56 384.203  59
  -4   3  -4 22964.4 1349.48  58
  -4   3  -4 22182.5 1362.95  59
  -4   3  -4 24735.3 1383.71  20
  -4   3  -4 25954.0 1395.77  23
  -4   3  -4 23373.2 1392.53  10
  -4   3  -4 24418.4 1366.33   3
  -4   3  -3 9527.54 832.425  66
  -4   3  -3 8675.12 803.209  10
  -4   3  -3 8834.26 819.746  59
  -4   3  -3 7956.73 763.174  58
  -4   3  -3 10008.7 853.581  23
  -4   3  -3 8629.19 789.576   3
  -4   3  -3 8723.93 790.267  20
  -4   3  -3 7959.14 561.374   7
  -4   3  -2 1702.52 351.622  58
  -4   3  -2 1952.76 277.204   7
  -4   3  -2 2303.08 415.485  66
  -4   3  -2 2012.50 376.378  10
  -4   3  -2 2397.98 431.569  23
  -4   3  -2 2221.45 399.608  20
  -4   3  -2 2445.35 421.739   3
  -4   3  -1 2552.92 437.045  66
  -4   3  -1 2827.07 455.964  23
  -4   3  -1 2921.00 333.668   7
  -4   3  -1 3315.75 453.135  58
  -4   3  -1 2721.77 441.000   3
  -4   3  -1 3428.66 465.070  20
  -4   3  -1 2051.29 362.783  10
  -4   3   0 706.918 210.582  58
  -4   3   0 426.028 218.909  66
  -4   3   0 346.340 194.746   3
  -4   3   0 338.870 166.573  15
  -4   3   0 357.946 242.571  23
  -4   3   1 4796.89 526.483  58
  -4   3   1 5142.55 629.583  66
  -4   3   1 4534.22 579.262   3
  -4   3   1 4833.09 604.395  23
  -4   3   1 6093.09 646.684  15
  -4   3   2 92487.0 2802.55   3
  -4   3   2 100609. 2607.56  58
  -4   3   2 117076. 3213.92  66
  -4   3   2 118800. 3200.33  23
  -4   3   2 115470. 3078.41  15
  -4   3   3 66283.1 1199.21  31
  -4   3   3 73270.6 1237.94  29
  -4   3   3 72010.0 1342.64  33
  -4   3   3 79693.2 2638.39  66
  -4   3   3 57718.9 1100.71  49
  -4   3   3 83379.3 2668.18  23
  -4   3   4 1452.45 157.247  29
  -4   3   4 1238.63 144.143  49
  -4   3   4 1062.05 140.276  31
  -4   3   4 1277.97 168.295  33
  -4   3   4 1220.06 149.403  47
  -4   3   5 6354.65 321.659  29
  -4   3   5 7074.51 378.205  33
  -4   3   5 6720.62 353.129  47
  -4   3   5 6213.67 326.219  31
  -4   3   5 6645.64 313.221  49
  -4   3   6 2961.19 220.654  29
  -4   3   6 3083.46 229.125  31
  -4   3   6 2902.32 205.713  49
  -4   3   6 2942.61 227.330  47
  -4   3   7 516.604 100.725  49
  -4   3   7 523.049 120.880  46
  -4   3   7 517.834 101.332  31
  -4   3   7 597.039 107.579  47
  -4   3   7 572.375 100.675  29
  -4   3   8 499.012 94.8176  46
  -4   3   8 430.996 81.9542  29
  -4   3   8 413.831 84.1852  31
  -4   3   8 363.838 79.3852  49
  -4   3   8 393.472 87.1076  47
  -4   3   9 4636.46 191.707  29
  -4   3   9 4074.89 183.986  31
  -4   4 -11 8704.21 299.354  26
  -4   4 -11 8138.55 289.788  35
  -4   4 -11 7998.54 274.938  41
  -4   4 -10 563.208 106.808  35
  -4   4 -10 612.199 95.0938  36
  -4   4 -10 883.006 123.393  41
  -4   4 -10 696.703 115.409  26
  -4   4  -9 1170.28 150.615  37
  -4   4  -9 1219.00 151.416  36
  -4   4  -9 1226.02 162.254  26
  -4   4  -9 1207.34 163.933  35
  -4   4  -9 1405.84 167.240  41
  -4   4  -8 6106.66 783.048  20
  -4   4  -8 5890.29 353.266  41
  -4   4  -8 5305.06 338.121  35
  -4   4  -8 4525.55 680.056  17
  -4   4  -8 6559.99 370.845  37
  -4   4  -8 5771.28 346.397  26
  -4   4  -8 5731.84 348.502  36
  -4   4  -7 20422.7 686.237  37
  -4   4  -7 19843.1 687.786  35
  -4   4  -7 19809.2 675.052  36
  -4   4  -7 21037.5 704.941  26
  -4   4  -7 22207.0 1479.41  20
  -4   4  -6 62019.5 1316.83  26
  -4   4  -6 63257.0 1305.05  37
  -4   4  -6 55970.8 2326.45  17
  -4   4  -6 58864.0 1264.63  36
  -4   4  -6 65516.9 2518.04  20
  -4   4  -6 60347.6 1305.53  35
  -4   4  -5 23407.8 764.961  26
  -4   4  -5 24431.0 747.567  27
  -4   4  -5 24266.0 761.179  36
  -4   4  -5 28363.5 1609.11  20
  -4   4  -5 22758.8 695.641   2
  -4   4  -5 23752.8 765.234  34
  -4   4  -5 24993.7 1575.65  58
  -4   4  -5 24295.2 1584.22  59
  -4   4  -5 20534.3 1359.56   3
  -4   4  -5 23103.2 1151.23   7
  -4   4  -5 25825.4 1620.74  10
  -4   4  -5 24606.0 759.133  37
  -4   4  -4 3878.48 277.837   2
  -4   4  -4 4161.84 586.206  66
  -4   4  -4 4189.06 639.349  59
  -4   4  -4 4388.86 595.780  23
  -4   4  -4 4390.55 651.188  10
  -4   4  -4 4108.88 308.195  34
  -4   4  -4 4065.26 603.923   3
  -4   4  -4 4253.35 624.289  58
  -4   4  -4 4728.52 651.065  20
  -4   4  -4 3328.73 283.418  26
  -4   4  -4 4130.13 467.810   7
  -4   4  -4 3931.91 295.595  37
  -4   4  -4 4230.36 298.768  27
  -4   4  -4 3847.75 303.226  36
  -4   4  -3 905.160 321.828  59
  -4   4  -3 1060.16 320.883   3
  -4   4  -3 913.868 143.660   2
  -4   4  -3 987.532 296.587  20
  -4   4  -3 1018.56 154.230  27
  -4   4  -3 1015.59 314.165  10
  -4   4  -3 1086.58 163.587  34
  -4   4  -3 990.306 303.613  66
  -4   4  -3 843.299 150.768  36
  -4   4  -3 1048.36 229.407   7
  -4   4  -3 1257.61 337.857  23
  -4   4  -3 1106.51 321.434  58
  -4   4  -3 1023.41 163.091  37
  -4   4  -2 45221.6 1072.45  34
  -4   4  -2 48367.0 1962.57  58
  -4   4  -2 51101.9 2052.93  66
  -4   4  -2 50318.2 1980.63  20
  -4   4  -2 51858.0 2061.52  23
  -4   4  -2 49398.0 2007.58  10
  -4   4  -2 49827.2 1567.46   7
  -4   4  -2 46120.9 1978.01   3
  -4   4  -1 4370.14 568.252  58
  -4   4  -1 3706.88 424.173   7
  -4   4  -1 4439.49 557.418  20
  -4   4  -1 4337.04 586.897  23
  -4   4  -1 4545.81 578.331  15
  -4   4  -1 3863.38 561.511   3
  -4   4  -1 5001.90 639.284  66
  -4   4  -1 3941.74 536.866  10
  -4   4   0 320.387 199.451   3
  -4   4   0 282.002 149.379   7
  -4   4   0 381.331 92.4540  33
  -4   4   0 489.320 224.091  23
  -4   4   0 310.888 174.063  58
  -4   4   0 835.849 265.976  15
  -4   4   0 347.726 99.9348   2
  -4   4   0 492.676 220.108  66
  -4   4   1 11438.3 890.027  58
  -4   4   1 11961.3 499.590   2
  -4   4   1 13415.4 1077.91   3
  -4   4   1 15757.4 1095.74  15
  -4   4   1 11322.3 436.225  31
  -4   4   1 13739.3 1077.10  66
  -4   4   1 12527.7 542.345  34
  -4   4   1 10517.6 416.174  29
  -4   4   1 11747.4 514.681  27
  -4   4   1 11656.3 471.160  33
  -4   4   1 13006.8 1042.50  23
  -4   4   2 128788. 3508.60   3
  -4   4   2 126809. 2022.56   2
  -4   4   2 136654. 2027.58  33
  -4   4   2 119416. 3139.58  58
  -4   4   2 133246. 1898.27  29
  -4   4   2 116936. 2017.36  27
  -4   4   2 135691. 3534.97  15
  -4   4   2 121119. 2084.69  34
  -4   4   2 145305. 3711.05  23
  -4   4   2 134817. 1922.05  31
  -4   4   3 101567. 1575.34  31
  -4   4   3 107422. 3235.23  66
  -4   4   3 100746. 1558.97  29
  -4   4   3 117611. 3318.19  15
  -4   4   3 101619. 1676.28  33
  -4   4   3 114626. 3294.84  23
  -4   4   4 916.431 132.018  31
  -4   4   4 856.367 129.227  29
  -4   4   4 943.971 153.410  33
  -4   4   4 983.735 324.392  66
  -4   4   4 887.746 125.374  49
  -4   4   4 980.172 317.778  23
  -4   4   5 3697.06 245.630  29
  -4   4   5 2841.31 219.406  47
  -4   4   5 2933.67 209.062  49
  -4   4   5 3201.22 227.501  31
  -4   4   5 3212.24 248.797  33
  -4   4   6 3415.85 229.139  47
  -4   4   6 3374.74 227.974  31
  -4   4   6 3374.99 224.327  29
  -4   4   6 3738.09 243.195  33
  -4   4   6 3365.85 216.142  49
  -4   4   7 10050.5 373.793  31
  -4   4   7 10229.4 367.613  29
  -4   4   7 10544.9 380.638  47
  -4   4   8 6836.23 265.942  29
  -4   4   8 6022.43 267.699  47
  -4   4   9 346.279 60.2492  47
  -4   4   9 387.264 58.0329  31
  -4   4   9 523.502 63.0576  29
  -4   5 -11 5081.81 190.535  26
  -4   5 -11 4687.70 177.530  35
  -4   5 -10 1319.05 115.383  36
  -4   5 -10 1375.01 127.729  35
  -4   5 -10 1241.55 111.359  41
  -4   5 -10 1381.63 129.724  26
  -4   5  -9 478.803 97.8121  37
  -4   5  -9 421.324 90.3926  36
  -4   5  -9 478.923 102.324  35
  -4   5  -9 458.974 94.6025  41
  -4   5  -9 508.933 111.855  26
  -4   5  -8 19434.1 604.895  36
  -4   5  -8 19592.1 612.616  26
  -4   5  -8 17624.0 591.207  35
  -4   5  -7 1077.72 164.326  37
  -4   5  -7 1081.88 159.546  35
  -4   5  -7 1132.83 170.800  26
  -4   5  -7 1151.96 166.813  36
  -4   5  -7 1126.79 342.086  20
  -4   5  -6 2646.24 246.238  36
  -4   5  -6 3239.66 263.645  35
  -4   5  -6 2881.74 533.962  20
  -4   5  -6 3017.73 247.605  27
  -4   5  -6 3059.94 264.002  37
  -4   5  -6 2955.44 259.120  26
  -4   5  -5 11692.7 519.732  36
  -4   5  -5 13811.7 1160.34  20
  -4   5  -5 12588.3 532.106  37
  -4   5  -5 13816.0 562.152  34
  -4   5  -5 13216.1 550.248  26
  -4   5  -5 12974.3 511.421   2
  -4   5  -5 12772.7 530.690  27
  -4   5  -4 28961.6 795.060   2
  -4   5  -4 27158.3 815.182  37
  -4   5  -4 28922.1 819.155  27
  -4   5  -4 28251.8 840.435  36
  -4   5  -4 27746.6 1582.96  66
  -4   5  -4 25104.8 791.585  26
  -4   5  -4 29933.4 1682.77  20
  -4   5  -4 26159.3 1295.70   7
  -4   5  -4 31107.8 1668.09  23
  -4   5  -4 30421.2 861.868  34
  -4   5  -3 8990.34 889.143  20
  -4   5  -3 9398.22 438.185   2
  -4   5  -3 8791.67 456.183  36
  -4   5  -3 8915.05 909.425  66
  -4   5  -3 7622.49 866.671  10
  -4   5  -3 8779.26 454.751  37
  -4   5  -3 7963.75 884.458  59
  -4   5  -3 8100.57 700.863   7
  -4   5  -3 9554.62 925.190  23
  -4   5  -3 9127.69 457.604  34
  -4   5  -3 9294.09 453.323  27
  -4   5  -3 8472.46 908.517   3
  -4   5  -3 8561.44 890.272  58
  -4   5  -2 8284.33 405.677   2
  -4   5  -2 8477.55 871.517  23
  -4   5  -2 7025.96 407.788  36
  -4   5  -2 7562.23 426.086  37
  -4   5  -2 7546.41 382.302  33
  -4   5  -2 9760.04 910.011  20
  -4   5  -2 8135.73 870.220   3
  -4   5  -2 8556.95 439.871  34
  -4   5  -2 8634.90 425.224  27
  -4   5  -2 8331.12 862.911  58
  -4   5  -2 7217.77 813.933  10
  -4   5  -2 7994.47 696.169   7
  -4   5  -2 9029.91 907.782  66
  -4   5  -1 1136.16 321.854  15
  -4   5  -1 944.694 146.822  33
  -4   5  -1 1108.65 168.778  27
  -4   5  -1 1018.52 152.310   2
  -4   5  -1 802.013 146.267  37
  -4   5  -1 1060.19 166.629  34
  -4   5  -1 1067.24 334.007  66
  -4   5  -1 772.069 282.565  58
  -4   5  -1 794.131 237.324   7
  -4   5  -1 847.367 289.234   3
  -4   5  -1 937.008 315.778  23
  -4   5   0 22431.0 660.867  31
  -4   5   0 24227.4 1428.97  58
  -4   5   0 28737.2 1569.27  15
  -4   5   0 27719.4 763.750  33
  -4   5   0 25987.7 1571.97   3
  -4   5   0 27318.3 806.668  27
  -4   5   0 29224.9 1593.99  23
  -4   5   0 27155.7 775.787   2
  -4   5   0 26196.7 804.901  34
  -4   5   0 27882.9 1593.31  66
  -4   5   1 1802.16 427.291   3
  -4   5   1 1591.48 185.190   2
  -4   5   1 1611.76 199.589  27
  -4   5   1 1699.20 418.721  66
  -4   5   1 1628.29 168.566  31
  -4   5   1 1455.18 153.582  29
  -4   5   1 1648.05 181.621  33
  -4   5   1 1831.84 406.543  15
  -4   5   1 1570.34 381.825  58
  -4   5   1 1564.24 201.804  34
  -4   5   1 1483.45 380.771  23
  -4   5   2 41715.1 989.812   2
  -4   5   2 40580.9 900.243  31
  -4   5   2 43734.6 2042.32  23
  -4   5   2 43016.2 1063.30  34
  -4   5   2 48315.4 2092.79  15
  -4   5   2 36850.1 904.841  33
  -4   5   2 42552.6 898.481  29
  -4   5   2 42399.2 2048.01  66
  -4   5   2 39510.6 989.457  27
  -4   5   3 730.420 139.184  34
  -4   5   3 916.987 128.679  29
  -4   5   3 824.367 313.275  66
  -4   5   3 734.772 129.762  33
  -4   5   3 902.053 289.559  15
  -4   5   3 790.752 123.639  31
  -4   5   3 1251.72 355.426  23
  -4   5   4 3149.71 228.985  31
  -4   5   4 3205.11 550.953  23
  -4   5   4 3208.12 228.167  29
  -4   5   4 3432.24 256.886  33
  -4   5   4 2159.50 479.967  66
  -4   5   5 2392.31 197.034  31
  -4   5   5 2367.35 204.185  33
  -4   5   5 2353.06 189.946  29
  -4   5   6 784.069 112.369  29
  -4   5   6 757.243 108.418  33
  -4   5   6 778.425 115.063  31
  -4   5   6 483.798 98.3448  47
  -4   5   7 2724.08 180.069  31
  -4   5   7 2668.16 169.700  29
  -4   5   8 2026.14 128.898  29
  -4   6 -10 914.939 78.9279  35
  -4   6 -10 1056.26 92.2694  26
  -4   6  -9 1108.67 110.851  37
  -4   6  -9 950.944 108.459  36
  -4   6  -9 929.199 102.199  35
  -4   6  -9 1125.16 117.361  26
  -4   6  -8 13121.4 450.795  37
  -4   6  -8 12318.4 435.847  36
  -4   6  -8 11870.7 410.843  35
  -4   6  -7 29547.3 759.992  37
  -4   6  -7 28583.4 741.280  36
  -4   6  -7 28401.1 714.103  35
  -4   6  -7 28441.0 735.761  26
  -4   6  -6 437.833 115.451  37
  -4   6  -6 389.946 111.407  36
  -4   6  -6 456.230 114.789  26
  -4   6  -6 443.009 103.188  27
  -4   6  -5 17562.0 618.214  36
  -4   6  -5 18672.4 629.076  26
  -4   6  -5 17879.2 1313.27  20
  -4   6  -5 18474.4 591.258   2
  -4   6  -5 18926.9 619.587  27
  -4   6  -5 19678.9 649.781  34
  -4   6  -5 16954.3 603.182  37
  -4   6  -4 10344.9 447.855   2
  -4   6  -4 9831.19 467.380  37
  -4   6  -4 9616.10 461.732  36
  -4   6  -4 9945.66 458.277  26
  -4   6  -4 10834.4 490.658  34
  -4   6  -4 10434.3 469.191  27
  -4   6  -4 9373.92 920.865  23
  -4   6  -3 4190.81 303.304  27
  -4   6  -3 3856.37 278.133   2
  -4   6  -3 3963.71 300.572  36
  -4   6  -3 3473.32 582.471  23
  -4   6  -3 3686.93 589.334  20
  -4   6  -3 4259.28 309.114  34
  -4   6  -3 3983.15 305.814  37
  -4   6  -3 3528.87 592.184  66
  -4   6  -2 8924.75 435.698  27
  -4   6  -2 8434.96 441.560  37
  -4   6  -2 9112.54 425.611   2
  -4   6  -2 9471.82 941.793  23
  -4   6  -2 8456.42 428.512  36
  -4   6  -2 8693.32 401.607  33
  -4   6  -2 9490.41 461.155  34
  -4   6  -1 290.234 102.072  37
  -4   6  -1 75.7508 174.267  66
  -4   6  -1 311.093 95.0455   2
  -4   6  -1 543.552 265.628  15
  -4   6  -1 304.242 92.4706  33
  -4   6  -1 358.152 115.912  34
  -4   6  -1 298.192 100.269  27
  -4   6  -1 304.702 206.784  23
  -4   6   0 31479.0 841.637   2
  -4   6   0 33469.9 914.114  34
  -4   6   0 34490.1 904.322  27
  -4   6   0 34052.0 1787.61  15
  -4   6   0 37246.3 1917.38  66
  -4   6   0 33739.2 848.714  33
  -4   6   0 37494.6 1873.67  23
  -4   6   1 3460.65 255.831  33
  -4   6   1 3583.69 582.279  23
  -4   6   1 3195.43 232.601  31
  -4   6   1 3449.09 283.296  34
  -4   6   1 3396.45 267.103  27
  -4   6   1 3076.46 250.942   2
  -4   6   1 3707.78 609.837  66
  -4   6   1 3296.18 554.761  15
  -4   6   2 415.978 113.182  34
  -4   6   2 319.115 90.4794  31
  -4   6   2 391.293 106.806  27
  -4   6   2 233.088 198.434  66
  -4   6   2 318.476 194.296  23
  -4   6   2 347.500 101.636   2
  -4   6   2 211.923 85.3019  33
  -4   6   2 338.928 88.1653  29
  -4   6   3 3384.73 248.637  33
  -4   6   3 3293.84 565.971  23
  -4   6   3 3354.83 225.060  29
  -4   6   3 3648.35 250.441   2
  -4   6   3 3556.32 268.097  34
  -4   6   3 3400.49 229.595  31
  -4   6   4 2974.54 227.125  33
  -4   6   4 2997.32 212.842  31
  -4   6   4 2989.26 203.136  29
  -4   6   5 9732.79 352.848  29
  -4   6   5 9506.66 357.701  31
  -4   6   5 9412.50 379.019  33
  -4   6   6 4543.52 222.593  29
  -4   6   6 4007.90 220.023  31
  -4   6   6 4461.85 226.432  33
  -4   6   7 507.978 80.8868  46
  -4   6   7 763.998 85.5454  29
  -4   6   7 811.856 92.6257  31
  -4   6   8 4033.24 145.973  29
  -4   7  -9 267.990 50.6793  26
  -4   7  -9 231.900 44.3368  36
  -4   7  -8 1099.96 110.361  36
  -4   7  -8 1092.98 109.074  37
  -4   7  -8 1065.95 108.401  26
  -4   7  -7 6045.78 290.160  37
  -4   7  -7 6054.02 287.355  36
  -4   7  -7 5713.56 274.806  26
  -4   7  -6 13923.9 481.604  37
  -4   7  -6 13200.6 453.726  26
  -4   7  -6 12959.6 462.077  36
  -4   7  -6 13158.1 432.601  27
  -4   7  -5 5071.73 287.332  26
  -4   7  -5 4774.74 281.154  27
  -4   7  -5 5172.26 302.201  37
  -4   7  -5 5077.92 299.776  36
  -4   7  -5 5477.47 282.783   2
  -4   7  -5 5176.25 296.362  34
  -4   7  -4 3478.35 255.040  36
  -4   7  -4 3986.90 276.218  34
  -4   7  -4 3880.30 266.000  27
  -4   7  -4 3803.09 271.671  37
  -4   7  -4 3728.72 250.263   2
  -4   7  -3 1230.48 365.154  23
  -4   7  -3 1375.74 170.024  36
  -4   7  -3 1426.25 173.898  27
  -4   7  -3 1306.38 158.181   2
  -4   7  -3 1252.96 163.869  37
  -4   7  -3 1399.90 174.626  34
  -4   7  -2 3088.40 248.947  27
  -4   7  -2 3220.34 243.301   2
  -4   7  -2 2772.80 239.159  37
  -4   7  -2 3114.35 240.694  36
  -4   7  -2 2941.11 248.372  34
  -4   7  -2 3523.25 592.346  23
  -4   7  -1 5178.36 328.067  34
  -4   7  -1 4898.04 300.211   2
  -4   7  -1 5195.41 322.412  27
  -4   7  -1 5370.54 716.347  23
  -4   7  -1 5429.66 301.435  33
  -4   7  -1 4940.60 311.719  37
  -4   7   0 752.760 128.440  33
  -4   7   0 1144.18 338.577  23
  -4   7   0 734.864 131.432   2
  -4   7   0 757.841 142.103  34
  -4   7   0 975.854 146.553  27
  -4   7   1 19099.1 598.187   2
  -4   7   1 17665.8 1276.16  23
  -4   7   1 19362.9 617.629  27
  -4   7   1 19321.1 641.344  34
  -4   7   1 19806.1 595.568  33
  -4   7   2 681.860 118.086  27
  -4   7   2 717.941 118.125   2
  -4   7   2 617.268 95.8884  31
  -4   7   2 832.220 129.720  33
  -4   7   2 787.920 130.667  34
  -4   7   3 244.490 83.7236  34
  -4   7   3 296.677 87.1482  33
  -4   7   3 213.392 60.7784  29
  -4   7   3 284.397 75.8830   2
  -4   7   3 265.958 72.4737  31
  -4   7   4 6413.65 280.541  31
  -4   7   4 6613.03 267.863  29
  -4   7   4 6481.91 297.335  33
  -4   7   5 2329.61 149.888  29
  -4   7   5 2270.06 158.620  31
  -4   7   5 2341.04 163.013  33
  -4   7   6 514.234 82.3411  46
  -4   7   6 650.546 80.3135  31
  -4   7   6 664.868 76.1798  29
  -4   7   6 591.376 74.7739  33
  -4   8  -7 104.800 45.3299  37
  -4   8  -7 117.640 45.5852  36
  -4   8  -7 88.2220 37.5604  26
  -4   8  -6 19119.9 483.249  37
  -4   8  -6 18693.3 473.713  36
  -4   8  -6 17514.3 426.988  26
  -4   8  -5 22891.3 580.791  37
  -4   8  -5 22737.3 569.703  36
  -4   8  -5 22589.3 551.751  34
  -4   8  -5 23163.4 530.445   2
  -4   8  -5 24225.3 568.814  27
  -4   8  -4 19720.3 543.482  36
  -4   8  -4 22069.2 578.977  27
  -4   8  -4 21620.7 586.354  34
  -4   8  -4 21648.7 555.337   2
  -4   8  -4 20730.5 573.874  37
  -4   8  -3 3890.36 230.977  36
  -4   8  -3 4263.81 253.362  27
  -4   8  -3 4206.45 262.841  34
  -4   8  -3 4266.77 247.194   2
  -4   8  -3 4345.69 257.349  37
  -4   8  -2 1800.70 165.526   2
  -4   8  -2 1646.07 163.407  37
  -4   8  -2 1626.42 168.963  34
  -4   8  -2 1444.08 154.462  27
  -4   8  -1 3437.98 243.879  34
  -4   8  -1 3199.64 205.976  33
  -4   8  -1 3330.70 222.331  37
  -4   8  -1 3495.75 238.526  27
  -4   8  -1 3232.50 223.910   2
  -4   8   0 11206.7 410.225   2
  -4   8   0 11274.0 398.470  33
  -4   8   0 11077.5 416.946  27
  -4   8   0 10651.8 428.125  34
  -4   8   1 455.759 92.8149  33
  -4   8   1 593.174 100.169   2
  -4   8   1 519.284 104.436  34
  -4   8   1 554.010 101.571  27
  -4   8   2 4439.46 232.926   2
  -4   8   2 4634.41 242.333  33
  -4   8   2 4650.31 236.399  27
  -4   8   2 4232.11 248.155  34
  -4   8   3 10112.5 343.212  33
  -4   8   3 9319.94 335.416  34
  -4   8   4 7059.86 263.458  33
  -4   8   5 1112.74 94.6475  46
  -4   8   5 2656.72 137.991  33
  -4   9  -5 4913.01 196.052  37
  -4   9  -5 3814.58 158.398  36
  -4   9  -4 10566.0 309.709  27
  -4   9  -4 10055.8 309.217  37
  -4   9  -4 8245.16 253.844  36
  -4   9  -4 9794.78 284.905   2
  -4   9  -4 9026.82 282.528  34
  -4   9  -3 10200.4 325.921  37
  -4   9  -3 11119.3 341.726  27
  -4   9  -3 10811.6 347.784  34
  -4   9  -3 10530.4 325.608   2
  -4   9  -2 942.225 110.401  34
  -4   9  -2 799.303 92.8508  37
  -4   9  -2 921.403 101.891  27
  -4   9  -2 990.103 107.062   2
  -4   9  -1 4109.99 220.939  34
  -4   9  -1 4394.38 216.840  27
  -4   9  -1 4014.02 204.223   2
  -4   9   0 9681.64 338.194  34
  -4   9   0 9461.70 311.595   2
  -4   9   0 9398.06 314.811  27
  -4   9   1 6358.50 239.728  27
  -4   9   1 6047.69 233.901   2
  -4   9   1 6244.01 238.352  33
  -4   9   1 6243.97 259.069  34
  -4   9   2 1375.38 113.746  34
  -4   9   2 1218.26 92.5277   2
  -4   9   2 1513.14 112.713  33
  -4   9   3 4861.50 182.117  33
  -3 -11  -6 4112.48 170.717  40
  -3 -11  -6 3392.70 183.589  25
  -3 -11  -5 4883.87 215.073  40
  -3 -11  -5 4848.45 248.969  25
  -3 -11  -4 1247.50 124.182  40
  -3 -11  -4 1373.41 152.853  25
  -3 -11  -3-20.0040 84.7047  25
  -3 -11  -3-9.88856 61.8734  40
  -3 -11  -2 12976.7 424.072  40
  -3 -11  -2 13215.7 487.115  25
  -3 -11  -1 4531.61 256.994  40
  -3 -11  -1 4413.40 285.190  25
  -3 -11   0 283.210 67.1529  43
  -3 -11   0 441.920 118.730  25
  -3 -11   1 1010.33 139.023  25
  -3 -11   1 13.1350 66.0142  50
  -3 -11   2 6.06936 59.2841  50
  -3 -11   2 98.2727 79.6405  25
  -3 -11   2 73.6562 36.8103   4
  -3 -11   3 22.6328 43.3756  50
  -3 -11   3 424.237 93.6287  25
  -3 -10  -8 1302.23 91.7434  40
  -3 -10  -8 492.694 83.7195  25
  -3 -10  -7 131.344 54.6028  40
  -3 -10  -7 86.4593 49.4660  48
  -3 -10  -7 62.4134 78.1826  25
  -3 -10  -6 3482.90 204.158  40
  -3 -10  -6 3713.91 208.934  48
  -3 -10  -5 5162.03 265.940  40
  -3 -10  -5 4881.72 261.110  48
  -3 -10  -4 196.868 89.0402  40
  -3 -10  -4 204.051 79.8086  48
  -3 -10  -4 307.538 115.303  25
  -3 -10  -3 17051.9 479.740   4
  -3 -10  -3 19334.9 580.040  40
  -3 -10  -3 17875.7 565.594  48
  -3 -10  -3 19688.4 662.220  25
  -3 -10  -2 43161.6 1028.74  25
  -3 -10  -2 41971.2 914.910  40
  -3 -10  -1 897.884 173.465  25
  -3 -10  -1 620.759 113.500  43
  -3 -10  -1 745.846 137.554  40
  -3 -10   0 5313.95 319.787  40
  -3 -10   0 4474.08 287.824  43
  -3 -10   1 750.403 166.761  25
  -3 -10   1 903.865 139.722  43
  -3 -10   2 748.364 163.152  50
  -3 -10   2 12761.4 384.391   4
  -3 -10   3 4159.20 303.607  25
  -3 -10   3 8722.42 272.008   4
  -3 -10   4-6.74431 70.6005  50
  -3 -10   4-82.6370 105.772  25
  -3 -10   5 377.826 99.0012  25
  -3 -10   5 578.306 90.2341  50
  -3  -9  -9 2626.94 139.780  40
  -3  -9  -9 2505.68 138.718  48
  -3  -9  -8 4203.83 212.195  40
  -3  -9  -8 4335.43 214.719  48
  -3  -9  -7 11474.8 394.205  48
  -3  -9  -7 11386.2 394.058  40
  -3  -9  -6 8013.77 351.029  40
  -3  -9  -6 7927.83 345.037  48
  -3  -9  -5 899.112 146.947  41
  -3  -9  -5 1044.38 131.682   4
  -3  -9  -5 1058.88 145.054  40
  -3  -9  -5 954.361 142.751  48
  -3  -9  -4 1840.08 170.571   4
  -3  -9  -4 1664.21 182.995  40
  -3  -9  -4 1481.76 176.082  48
  -3  -9  -4 1240.97 216.792  25
  -3  -9  -4 1429.89 189.774  41
  -3  -9  -3 7067.51 372.572  48
  -3  -9  -3 7498.44 383.202  40
  -3  -9  -3 7375.13 423.259  25
  -3  -9  -2 584.127 126.168  40
  -3  -9  -2 588.485 138.184  48
  -3  -9  -2 656.216 167.853  25
  -3  -9  -1 2250.94 228.275  40
  -3  -9  -1 2439.85 234.714  43
  -3  -9  -1 2415.99 267.506  25
  -3  -9   0 20961.8 773.964  25
  -3  -9   0 22501.9 718.468  43
  -3  -9   0 21135.2 696.576  40
  -3  -9   1 8677.33 387.540   4
  -3  -9   1 6025.52 371.536  43
  -3  -9   2 7012.09 297.100   4
  -3  -9   3 70.8239 100.916  50
  -3  -9   3 160.029 126.683  25
  -3  -9   5 74.4676 90.7056  50
  -3  -9   5 174.463 125.720  25
  -3  -9   6 112.876 92.3462  25
  -3  -9   6 106.708 67.5317  50
  -3  -8 -10 632.009 80.8508  41
  -3  -8 -10 528.162 68.4044  40
  -3  -8 -10 698.724 81.6584  48
  -3  -8  -9 699.587 101.406  41
  -3  -8  -9 597.933 86.4936  40
  -3  -8  -9 672.989 94.8793  48
  -3  -8  -8 7894.38 333.197  48
  -3  -8  -8 7908.14 325.649  40
  -3  -8  -8 8579.75 352.335  41
  -3  -8  -7 4397.78 276.173  41
  -3  -8  -7 4381.18 262.724  40
  -3  -8  -7 4557.43 271.234  48
  -3  -8  -6 6119.41 327.831  40
  -3  -8  -6 6755.50 349.021  41
  -3  -8  -6 5757.02 680.373  16
  -3  -8  -6 6331.61 332.796  48
  -3  -8  -6 6019.02 689.137  24
  -3  -8  -5 6235.03 339.031  41
  -3  -8  -5 6390.27 344.485  40
  -3  -8  -5 6004.09 331.520  48
  -3  -8  -5 5937.68 687.894  24
  -3  -8  -4 38488.8 895.637  48
  -3  -8  -4 36042.0 1740.90  24
  -3  -8  -4 38360.0 897.257  41
  -3  -8  -4 36039.1 888.559  40
  -3  -8  -3 4040.63 290.996  40
  -3  -8  -3 3959.20 281.064  48
  -3  -8  -2 39043.0 967.776  40
  -3  -8  -2 41192.1 960.599  48
  -3  -8  -2 38923.5 1055.93  25
  -3  -8  -1 84456.9 1521.50  40
  -3  -8  -1 86076.8 1493.03  48
  -3  -8  -1 86532.0 1313.39   4
  -3  -8   0 5286.18 409.522  38
  -3  -8   0 6134.41 415.471  25
  -3  -8   0 5967.94 376.943  43
  -3  -8   0 5748.84 364.936  40
  -3  -8   1 36010.0 970.012  40
  -3  -8   1 37074.7 995.109  43
  -3  -8   1 36442.9 1073.61  25
  -3  -8   2 13884.0 583.420  43
  -3  -8   2 13262.2 638.885  25
  -3  -8   3 910.559 226.310  50
  -3  -8   3 1733.27 275.765  25
  -3  -8   4 4858.88 392.611  25
  -3  -8   5 3505.62 331.806  25
  -3  -8   6 3250.64 199.192  51
  -3  -8   6 3666.00 304.915  25
  -3  -8   7 9218.41 432.744  25
  -3  -8   7 11038.4 326.609  51
  -3  -8   8 4693.91 201.661  50
  -3  -7 -11 8035.19 254.264  48
  -3  -7 -11 7982.21 253.688  41
  -3  -7 -10 4565.00 214.381  40
  -3  -7 -10 4117.14 216.951  48
  -3  -7 -10 4746.82 236.579  41
  -3  -7  -9 5532.37 282.615  48
  -3  -7  -9 5378.10 282.801  41
  -3  -7  -8 151.663 85.4518  48
  -3  -7  -8 125.582 91.9965  41
  -3  -7  -8-28.6093 125.605  24
  -3  -7  -8 52.3605 66.2330  40
  -3  -7  -7 48094.2 1003.15  48
  -3  -7  -7 42941.2 1851.22  16
  -3  -7  -7 41225.7 1771.90  24
  -3  -7  -7 48136.5 1015.19  41
  -3  -7  -6 7054.57 443.101  38
  -3  -7  -6 5736.87 316.037  35
  -3  -7  -6 6193.50 674.248  24
  -3  -7  -6 6400.96 342.316  48
  -3  -7  -6 6401.13 697.376  16
  -3  -7  -6 6453.38 344.859  41
  -3  -7  -5 15256.7 534.866  40
  -3  -7  -5 13961.0 638.939  38
  -3  -7  -5 13011.8 486.520  35
  -3  -7  -5 14865.1 532.452  48
  -3  -7  -5 14918.6 523.061  41
  -3  -7  -5 15787.8 1076.30  16
  -3  -7  -5 15805.1 1071.68  24
  -3  -7  -4 17276.3 1114.68  16
  -3  -7  -4 17770.0 581.197  41
  -3  -7  -4 16722.4 512.561   4
  -3  -7  -4 17806.6 1127.58  24
  -3  -7  -4 17995.0 590.330  40
  -3  -7  -4 16473.5 546.019  35
  -3  -7  -4 16875.3 701.782  38
  -3  -7  -4 17815.9 574.680  48
  -3  -7  -3 28966.2 1443.31   1
  -3  -7  -3 28413.6 936.458  38
  -3  -7  -3 34396.8 750.000   4
  -3  -7  -3 31178.5 780.749  35
  -3  -7  -3 32057.0 828.646  40
  -3  -7  -3 32516.1 798.256  48
  -3  -7  -3 31155.1 1498.97  24
  -3  -7  -3 33936.5 821.247  41
  -3  -7  -2 4934.87 264.946   4
  -3  -7  -2 3508.33 326.639  38
  -3  -7  -2 4653.39 294.645  41
  -3  -7  -2 4531.56 285.298  48
  -3  -7  -2 4379.37 547.575   1
  -3  -7  -2 4561.24 301.087  40
  -3  -7  -1 605.220 130.760  41
  -3  -7  -1 313.808 126.604  38
  -3  -7  -1 451.010 114.436  40
  -3  -7  -1 495.829 109.754  48
  -3  -7  -1 494.885 91.8667   4
  -3  -7  -1 646.624 150.620  25
  -3  -7  -1 533.730 199.682   1
  -3  -7   0 4115.53 356.699  38
  -3  -7   0 4292.19 291.320  48
  -3  -7   0 4873.22 364.570  25
  -3  -7   0 5033.78 590.422   1
  -3  -7   0 4338.96 249.470   4
  -3  -7   0 4654.53 316.560  40
  -3  -7   1 23250.0 654.954   6
  -3  -7   1 17850.7 759.323  38
  -3  -7   1 21652.9 579.773   4
  -3  -7   1 18187.3 679.113  43
  -3  -7   1 23073.1 1311.25   1
  -3  -7   2 373.878 120.930  40
  -3  -7   2 376.167 174.494   1
  -3  -7   2 380.500 112.918  43
  -3  -7   2 262.772 107.821  45
  -3  -7   2 297.783 124.823  38
  -3  -7   2 470.742 151.265  25
  -3  -7   3 38365.4 811.139   4
  -3  -7   3 29531.6 1004.61  25
  -3  -7   4 6167.82 453.012  25
  -3  -7   5 24099.4 865.648  38
  -3  -7   5 19502.2 812.621  25
  -3  -7   6 4213.24 374.010  25
  -3  -7   7 10452.1 456.457  50
  -3  -7   7 10308.0 519.435  25
  -3  -7   7 9430.92 364.053  51
  -3  -7   8 4050.34 247.516  50
  -3  -7   9 5292.86 189.499  51
  -3  -6 -12 3768.84 153.602  48
  -3  -6 -12 3122.25 139.640  41
  -3  -6 -11 676.033 82.2282  40
  -3  -6 -11 1044.16 113.761  48
  -3  -6 -11 916.329 108.812  41
  -3  -6 -10 2092.13 178.883  41
  -3  -6 -10 2040.33 175.838  48
  -3  -6 -10 1756.53 147.339  40
  -3  -6  -9 286.854 83.8530  26
  -3  -6  -9 307.265 102.160  48
  -3  -6  -9 205.691 88.6302  41
  -3  -6  -9 316.994 84.4551  40
  -3  -6  -8 27576.6 739.713  41
  -3  -6  -8 24786.3 1357.40  16
  -3  -6  -8 27956.1 715.713  40
  -3  -6  -8 30308.2 775.774  48
  -3  -6  -8 24900.1 1322.10  24
  -3  -6  -8 25169.7 1452.99  65
  -3  -6  -7 596.914 238.995  16
  -3  -6  -7 703.183 128.590  40
  -3  -6  -7 562.795 123.913  41
  -3  -6  -7 532.941 105.386  35
  -3  -6  -7 544.892 107.717  26
  -3  -6  -7 699.516 135.559  48
  -3  -6  -7 435.783 210.048  65
  -3  -6  -7 737.028 266.504  24
  -3  -6  -6 8682.93 711.016  53
  -3  -6  -6 8746.92 707.399  60
  -3  -6  -6 8685.62 708.018  58
  -3  -6  -6 9360.10 397.719  35
  -3  -6  -6 9939.11 434.399  41
  -3  -6  -6 8282.15 690.485  61
  -3  -6  -6 8340.31 689.972  59
  -3  -6  -6 9852.27 420.338  40
  -3  -6  -6 10409.1 830.381  24
  -3  -6  -6 9998.95 411.435  26
  -3  -6  -6 11309.2 455.916  48
  -3  -6  -6 9957.13 864.045  65
  -3  -6  -6 10876.5 855.424  16
  -3  -6  -5 4726.45 288.282  41
  -3  -6  -5 4245.25 476.550  61
  -3  -6  -5 3665.87 257.225  40
  -3  -6  -5 4692.11 284.468  48
  -3  -6  -5 4280.74 467.438  60
  -3  -6  -5 4100.65 458.019  59
  -3  -6  -5 4225.75 260.803  35
  -3  -6  -5 3848.20 450.201  53
  -3  -6  -5 4477.22 567.932  65
  -3  -6  -5 4610.01 545.891  16
  -3  -6  -5 4609.52 275.223  26
  -3  -6  -5 4639.73 545.397  24
  -3  -6  -5 3866.34 452.206  58
  -3  -6  -4 40782.7 1363.17  60
  -3  -6  -4 40089.2 1344.05  59
  -3  -6  -4 41155.6 1374.51  58
  -3  -6  -4 41826.2 1580.37   1
  -3  -6  -4 37422.3 1309.99  53
  -3  -6  -4 46514.2 1694.16  16
  -3  -6  -4 48041.5 1734.68  24
  -3  -6  -4 38891.9 1337.19  61
  -3  -6  -3 2556.61 398.267  16
  -3  -6  -3 2258.27 382.571  24
  -3  -6  -3 2034.33 357.900   1
  -3  -6  -2 7073.86 635.190   1
  -3  -6  -2 7844.83 693.005  24
  -3  -6  -1 10112.5 732.792   1
  -3  -6   0 11778.8 830.087   1
  -3  -6   1 5258.54 571.864   1
  -3  -6   2 1411.45 216.383  25
  -3  -6   2 1448.64 325.621   1
  -3  -6   3 183.817 124.283   1
  -3  -6   3 242.826 112.453  43
  -3  -6   3 251.185 146.242  25
  -3  -6   3 313.481 97.9457   6
  -3  -6   4 22841.3 666.489   6
  -3  -6   4 21952.5 840.309  25
  -3  -6   5 5342.13 310.797  51
  -3  -6   5 5633.37 433.065  25
  -3  -6   5 5309.49 396.644  50
  -3  -6   6 40670.5 1085.69  50
  -3  -6   6 41075.3 924.128  51
  -3  -6   7 2134.12 234.188  50
  -3  -6   7 2088.74 276.211  25
  -3  -6   8 2406.76 266.279  25
  -3  -6   8 2522.90 219.519  50
  -3  -5 -12 282.893 62.7417  41
  -3  -5 -12 215.437 62.1960  48
  -3  -5 -11 1650.76 130.425  40
  -3  -5 -11 2174.52 175.458  48
  -3  -5 -11 1915.38 159.797  41
  -3  -5 -10 4526.14 251.270  40
  -3  -5 -10 4459.00 266.933  41
  -3  -5  -9 2163.54 402.291  16
  -3  -5  -9 2916.35 219.124  40
  -3  -5  -9 2977.01 213.721  26
  -3  -5  -9 2592.31 472.280  65
  -3  -5  -9 2967.86 234.735  41
  -3  -5  -8 36177.0 1605.05  16
  -3  -5  -8 34433.9 1691.15  65
  -3  -5  -8 34533.1 793.243  26
  -3  -5  -8 31428.0 761.847  35
  -3  -5  -8 32261.6 1475.84  24
  -3  -5  -8 32349.9 810.557  41
  -3  -5  -8 31128.7 767.693  40
  -3  -5  -7 3570.50 252.688  40
  -3  -5  -7 3377.53 468.623  59
  -3  -5  -7 3219.77 451.417  53
  -3  -5  -7 3751.99 495.033  24
  -3  -5  -7 3687.93 479.986  58
  -3  -5  -7 3861.43 495.786  60
  -3  -5  -7 4582.14 550.933  16
  -3  -5  -7 3792.78 267.115  41
  -3  -5  -7 3627.74 247.353  35
  -3  -5  -7 4554.81 593.632  65
  -3  -5  -7 3618.64 250.399  26
  -3  -5  -7 3847.43 504.273  61
  -3  -5  -6 5435.58 296.193  26
  -3  -5  -6 5956.90 571.950  59
  -3  -5  -6 6374.42 612.678  16
  -3  -5  -6 5483.64 298.005  35
  -3  -5  -6 5559.37 552.480  60
  -3  -5  -6 6135.98 576.324  58
  -3  -5  -6 5629.80 561.784  61
  -3  -5  -6 6840.02 628.924  24
  -3  -5  -6 5285.77 540.933  53
  -3  -5  -6 5665.70 627.780  65
  -3  -5  -6 5783.93 323.333  41
  -3  -5  -5 4914.11 483.819  60
  -3  -5  -5 4929.50 522.670  24
  -3  -5  -5 4222.70 458.846   1
  -3  -5  -5 5257.41 566.856  65
  -3  -5  -5 4988.65 478.723  58
  -3  -5  -5 4412.69 461.840  61
  -3  -5  -5 4151.22 440.467  53
  -3  -5  -5 4618.26 507.452  16
  -3  -5  -5 4706.15 473.331  59
  -3  -5  -4 5289.87 454.983  58
  -3  -5  -4 5799.46 471.376  59
  -3  -5  -4 5868.29 549.079  24
  -3  -5  -4 5210.89 450.139  53
  -3  -5  -4 5783.03 537.027  16
  -3  -5  -4 4875.24 483.333   1
  -3  -5  -4 5896.67 567.383  65
  -3  -5  -4 6289.22 497.795  60
  -3  -5  -4 5802.67 479.667  61
  -3  -5  -3 40783.6 1194.39  53
  -3  -5  -3 47238.1 1261.77  58
  -3  -5  -3 45306.6 1508.62  16
  -3  -5  -3 44666.8 1225.47  60
  -3  -5  -3 45231.3 1518.00  24
  -3  -5  -3 48089.0 1274.49  61
  -3  -5  -3 40624.4 1425.60   1
  -3  -5  -3 43677.9 1216.57  59
  -3  -5  -2 7209.32 560.230   1
  -3  -5  -2 7110.18 589.387  24
  -3  -5  -1 16786.2 861.451   1
  -3  -5   0 10570.4 686.686   1
  -3  -5   1 7108.87 540.700   9
  -3  -5   1 6430.97 555.328   1
  -3  -5   2 9298.68 689.682   1
  -3  -5   2 9745.83 717.580  56
  -3  -5   2 10599.0 698.742   9
  -3  -5   3 3466.42 447.291  56
  -3  -5   3 3016.27 407.166   9
  -3  -5   3 3210.68 405.999   1
  -3  -5   4 1913.25 242.864  50
  -3  -5   4 1996.52 191.735   6
  -3  -5   4 2444.40 411.771  56
  -3  -5   4 2560.16 210.854  51
  -3  -5   4 1862.17 259.935  25
  -3  -5   4 2226.50 389.400   9
  -3  -5   5 14178.9 519.409  51
  -3  -5   5 15505.5 699.275  25
  -3  -5   5 11929.5 937.990   9
  -3  -5   5 15726.8 660.600  50
  -3  -5   5 10496.1 880.697  56
  -3  -5   6 11557.1 464.655  51
  -3  -5   6 11061.2 546.617  50
  -3  -5   7 13730.0 499.768  51
  -3  -5   7 12933.9 570.653  50
  -3  -5   8 35036.1 788.831  51
  -3  -5   8 37271.5 1051.89  25
  -3  -5   9 1183.97 148.055  50
  -3  -5   9 1591.78 146.750  51
  -3  -5  10 504.214 75.9802  51
  -3  -5  10 223.654 61.3492  50
  -3  -4 -13 261.785 47.0598  48
  -3  -4 -12 679.278 96.1872  41
  -3  -4 -12 636.999 96.8005  48
  -3  -4 -11 7940.17 343.161  41
  -3  -4 -11 7694.53 335.871  48
  -3  -4 -10 14477.6 464.690  26
  -3  -4 -10 16369.3 542.465  41
  -3  -4 -10 13299.3 1029.22  17
  -3  -4 -10 14261.8 463.786  40
  -3  -4 -10 16317.3 539.574  48
  -3  -4  -9 32668.5 1635.71  17
  -3  -4  -9 33874.6 797.032  35
  -3  -4  -9 31372.6 762.580  26
  -3  -4  -9 34802.4 850.717  41
  -3  -4  -9 33362.0 1688.96  65
  -3  -4  -9 32199.5 820.618  48
  -3  -4  -8 22805.1 1259.56  59
  -3  -4  -8 22297.3 1273.94  61
  -3  -4  -8 24206.1 679.877  35
  -3  -4  -8 22557.0 1228.29  16
  -3  -4  -8 21622.8 1231.32  60
  -3  -4  -8 23496.4 1381.12  65
  -3  -4  -8 23774.7 1369.78  17
  -3  -4  -8 22693.0 685.973  48
  -3  -4  -8 23525.9 1274.29  58
  -3  -4  -8 23381.3 657.288  26
  -3  -4  -7 46.1331 74.4509  41
  -3  -4  -7 122.205 142.124  60
  -3  -4  -7 32.8845 58.0963  35
  -3  -4  -7 89.5316 144.197  24
  -3  -4  -7 40.8745 118.896  16
  -3  -4  -7 4.82795 98.9067  58
  -3  -4  -7 171.290 191.842  65
  -3  -4  -7 16.8951 135.881  59
  -3  -4  -7 113.082 68.1645  26
  -3  -4  -7 194.772 84.7338  48
  -3  -4  -7 65.2517 124.440  17
  -3  -4  -7 16.9267 137.103  61
  -3  -4  -6 19809.5 1109.56  65
  -3  -4  -6 20071.1 1102.63  17
  -3  -4  -6 17224.4 1004.68  61
  -3  -4  -6 18961.8 996.702  58
  -3  -4  -6 18885.9 1012.59  24
  -3  -4  -6 17615.9 965.791  59
  -3  -4  -6 18725.0 1008.83  60
  -3  -4  -6 20326.6 1033.22  16
  -3  -4  -5 12847.7 764.490  60
  -3  -4  -5 11914.6 729.403  59
  -3  -4  -5 12998.6 828.573  17
  -3  -4  -5 12203.5 811.516  65
  -3  -4  -5 12342.2 738.469  58
  -3  -4  -5 13489.2 782.439  16
  -3  -4  -5 12787.3 765.909  24
  -3  -4  -5 12350.0 775.966  61
  -3  -4  -4 73277.3 1783.00  61
  -3  -4  -4 69632.5 1751.57   1
  -3  -4  -4 71321.4 1716.62  58
  -3  -4  -4 77634.0 1985.63  17
  -3  -4  -4 77027.4 1863.99  16
  -3  -4  -4 75485.0 1777.51  60
  -3  -4  -4 73948.7 1740.21  59
  -3  -4  -4 74308.7 1961.29  65
  -3  -4  -4 70258.3 1812.93  24
  -3  -4  -4 72328.6 1878.20   3
  -3  -4  -3 41196.4 1274.20  16
  -3  -4  -3 36688.1 1241.90  24
  -3  -4  -3 40038.4 1266.83   1
  -3  -4  -3 42492.8 1170.13  61
  -3  -4  -3 43817.7 1377.96   3
  -3  -4  -3 41033.1 1117.48  58
  -3  -4  -3 45096.4 1388.08  65
  -3  -4  -3 41680.3 1133.27  60
  -3  -4  -3 42790.7 1142.79  59
  -3  -4  -2 9771.72 449.315  59
  -3  -4  -2 9676.70 462.149  60
  -3  -4  -2 9737.93 452.714  58
  -3  -4  -2 8923.72 438.785  53
  -3  -4  -2 9269.87 578.055  16
  -3  -4  -2 8552.91 583.795  24
  -3  -4  -2 10280.5 630.406   3
  -3  -4  -2 9946.26 587.159   1
  -3  -4  -2 9869.58 466.034  61
  -3  -4  -1 39849.6 1212.37   1
  -3  -4  -1 43399.4 1318.61   3
  -3  -4   0 25631.3 1000.05   9
  -3  -4   0 22347.1 960.697  56
  -3  -4   0 25763.7 1010.37   3
  -3  -4   0 24644.9 946.273   1
  -3  -4   1 10699.7 645.424   1
  -3  -4   1 11636.8 653.457   9
  -3  -4   1 10439.2 656.153  56
  -3  -4   1 11890.0 683.366   3
  -3  -4   2 1454.80 264.279   1
  -3  -4   2 1607.95 262.706   9
  -3  -4   2 1389.34 253.664  56
  -3  -4   2 1327.88 241.500   3
  -3  -4   3 86740.4 2180.38   9
  -3  -4   3 91179.0 2265.36  56
  -3  -4   4 1007.08 264.555   9
  -3  -4   4 1181.20 265.340  56
  -3  -4   5 5096.82 299.709  51
  -3  -4   5 5739.42 635.055   9
  -3  -4   5 5050.69 584.851  56
  -3  -4   5 4429.93 345.539  50
  -3  -4   5 6098.39 432.513  25
  -3  -4   6 22528.2 843.896  38
  -3  -4   6 22787.5 869.901  25
  -3  -4   6 20457.9 1253.98  56
  -3  -4   7 54551.2 1270.43  50
  -3  -4   8 16237.4 521.465  51
  -3  -4   9 91.8192 79.3682  51
  -3  -4   9 77.1211 80.1741  50
  -3  -4  10 1672.09 144.062  50
  -3  -4  10 3248.28 183.059  51
  -3  -3 -13 5968.82 213.791  41
  -3  -3 -13 6919.77 228.415  48
  -3  -3 -12 1722.38 150.206  41
  -3  -3 -12 1545.25 141.589  48
  -3  -3 -11 4514.10 277.993  41
  -3  -3 -11 3816.10 218.849  35
  -3  -3 -11 3885.24 253.294  48
  -3  -3 -10 14126.6 481.083  26
  -3  -3 -10 14222.0 1102.43  17
  -3  -3 -10 13709.5 516.434  48
  -3  -3 -10 15168.3 545.419  41
  -3  -3 -10 13839.3 1103.98  65
  -3  -3  -9 46434.0 999.649  35
  -3  -3  -9 46427.9 2021.46  65
  -3  -3  -9 50646.6 2101.03  17
  -3  -3  -9 45890.4 987.896  26
  -3  -3  -9 47181.7 1050.22  48
  -3  -3  -9 47083.4 1040.02  41
  -3  -3  -8 479.908 115.485  41
  -3  -3  -8 617.304 120.909  35
  -3  -3  -8 348.146 194.751  16
  -3  -3  -8 501.235 116.344  48
  -3  -3  -8 426.807 236.456  17
  -3  -3  -8 410.075 192.789  59
  -3  -3  -8 642.397 255.665  61
  -3  -3  -8 635.314 121.172  26
  -3  -3  -8 407.872 208.603  58
  -3  -3  -8 546.537 255.106  65
  -3  -3  -8 579.239 238.398  60
  -3  -3  -7 18095.9 1077.55  60
  -3  -3  -7 20044.9 1177.71  65
  -3  -3  -7 18898.2 1082.56  58
  -3  -3  -7 17088.8 1080.38  61
  -3  -3  -7 19236.7 1158.49  17
  -3  -3  -7 17011.5 961.451  16
  -3  -3  -7 17720.9 1052.82  59
  -3  -3  -6 10637.4 803.353  61
  -3  -3  -6 11318.0 783.529  60
  -3  -3  -6 11386.1 805.627  65
  -3  -3  -6 11423.0 738.248  16
  -3  -3  -6 11490.3 782.654  59
  -3  -3  -6 11250.3 777.637  58
  -3  -3  -6 12285.1 847.677  17
  -3  -3  -5 11835.7 758.608  65
  -3  -3  -5 11876.4 686.251  16
  -3  -3  -5 10750.3 731.028  61
  -3  -3  -5 10962.4 707.620  60
  -3  -3  -5 12554.3 787.753  17
  -3  -3  -5 10890.3 693.144  59
  -3  -3  -5 9858.34 574.058   1
  -3  -3  -5 11155.7 702.032  58
  -3  -3  -5 11282.5 655.226   3
  -3  -3  -4 7299.38 515.434   3
  -3  -3  -4 7117.96 552.111  17
  -3  -3  -4 6650.09 499.318  60
  -3  -3  -4 6414.26 505.628  61
  -3  -3  -4 7519.19 500.701  16
  -3  -3  -4 6583.63 491.452  59
  -3  -3  -4 6730.78 495.866  58
  -3  -3  -4 7270.84 546.810  65
  -3  -3  -4 6226.23 445.795   1
  -3  -3  -3 167474. 2839.85  65
  -3  -3  -3 152989. 2650.02  61
  -3  -3  -3 162686. 2638.84  60
  -3  -3  -3 161463. 2609.61  58
  -3  -3  -3 161466. 2663.55   1
  -3  -3  -3 167337. 2850.23   3
  -3  -3  -3 158975. 2631.74  16
  -3  -3  -3 158743. 2856.82  17
  -3  -3  -3 157977. 2585.73  59
  -3  -3  -2 9313.12 439.057  58
  -3  -3  -2 8676.06 446.933  61
  -3  -3  -2 9201.39 434.697  59
  -3  -3  -2 9414.86 523.633   1
  -3  -3  -2 9873.83 572.774   3
  -3  -3  -2 9724.01 546.248  65
  -3  -3  -2 8921.40 431.228  60
  -3  -3  -2 8984.77 500.842  16
  -3  -3  -1 4679.36 229.437  58
  -3  -3  -1 5234.76 385.490   1
  -3  -3  -1 4312.83 219.844  59
  -3  -3  -1 4237.73 218.008  60
  -3  -3  -1 3763.99 209.209  53
  -3  -3  -1 4634.77 395.158   3
  -3  -3  -1 4296.76 222.761  61
  -3  -3   0 34721.6 1115.80   3
  -3  -3   0 33435.1 1065.43  56
  -3  -3   0 33137.1 1046.21   9
  -3  -3   1 47241.2 1290.22   9
  -3  -3   1 47979.2 1335.12   3
  -3  -3   1 44512.8 1252.84   1
  -3  -3   1 42671.2 1259.58  56
  -3  -3   2 21116.4 877.625   3
  -3  -3   2 22198.4 929.326  56
  -3  -3   2 21758.9 895.504   9
  -3  -3   3 3689.07 403.562   9
  -3  -3   3 2789.34 357.320  56
  -3  -3   4 1211.83 257.835  56
  -3  -3   4 1435.20 283.854   9
  -3  -3   5 46982.9 1759.49  56
  -3  -3   5 47461.2 1737.83   9
  -3  -3   6 39576.1 1721.40  56
  -3  -3   6 37241.2 913.587  47
  -3  -3   7 20420.4 640.653  47
  -3  -3   8 20630.2 607.181  51
  -3  -3   8 15827.8 614.986  50
  -3  -3  10 2568.67 183.803  50
  -3  -3  10 4771.77 232.505  51
  -3  -2 -13 1213.05 104.075  48
  -3  -2 -13 1299.51 106.938  41
  -3  -2 -12 3370.71 213.658  48
  -3  -2 -11 367.898 86.6072  35
  -3  -2 -11 429.511 117.531  41
  -3  -2 -11 370.428 107.155  48
  -3  -2 -11 352.338 83.5574  26
  -3  -2 -10 2029.74 450.544  17
  -3  -2 -10 1694.39 177.822  35
  -3  -2 -10 1586.11 169.284  26
  -3  -2 -10 1737.61 193.192  41
  -3  -2 -10 1332.03 180.805  48
  -3  -2 -10 1188.44 346.379  65
  -3  -2  -9 3797.90 574.503  65
  -3  -2  -9 3428.00 264.312  35
  -3  -2  -9 3374.37 552.657  17
  -3  -2  -9 3594.82 263.548  26
  -3  -2  -9 3729.90 289.486  48
  -3  -2  -9 3639.35 282.276  41
  -3  -2  -8 569.857 119.630  26
  -3  -2  -8 583.668 262.441  17
  -3  -2  -8 329.664 94.5971  35
  -3  -2  -8 503.799 244.909  65
  -3  -2  -8 365.141 113.228  41
  -3  -2  -8 370.298 233.083  59
  -3  -2  -8 267.526 200.361  60
  -3  -2  -8 312.740 109.103  48
  -3  -2  -8 458.576 221.759  58
  -3  -2  -8 263.052 195.870  61
  -3  -2  -7 7530.14 716.870  65
  -3  -2  -7 6434.44 672.291  61
  -3  -2  -7 7465.02 727.090  17
  -3  -2  -7 6531.01 651.632  59
  -3  -2  -7 6628.77 652.459  58
  -3  -2  -7 6641.91 664.336  60
  -3  -2  -7 7382.07 618.805  16
  -3  -2  -6 11075.1 794.290  60
  -3  -2  -6 12693.4 805.899  20
  -3  -2  -6 10924.0 790.100  59
  -3  -2  -6 12645.5 831.556  65
  -3  -2  -6 11596.3 717.340  16
  -3  -2  -6 11505.5 830.413  17
  -3  -2  -6 11118.7 775.969  58
  -3  -2  -6 10253.5 789.970  61
  -3  -2  -5 88260.5 2229.39  17
  -3  -2  -5 88785.4 1878.34   3
  -3  -2  -5 89434.1 2170.03  20
  -3  -2  -5 83485.0 2138.25  60
  -3  -2  -5 82566.0 1859.07  16
  -3  -2  -5 85993.6 2121.74  58
  -3  -2  -5 87481.2 2134.55  65
  -3  -2  -5 83455.3 2106.22  59
  -3  -2  -4 23494.4 955.439  59
  -3  -2  -4 24009.6 1017.93  17
  -3  -2  -4 25231.1 1026.57  20
  -3  -2  -4 24066.1 839.422   1
  -3  -2  -4 23780.4 949.952  65
  -3  -2  -4 23959.8 888.348   3
  -3  -2  -4 23973.1 980.953  60
  -3  -2  -4 23838.5 954.640  58
  -3  -2  -3 23641.2 864.898   3
  -3  -2  -3 22762.5 922.368  20
  -3  -2  -3 22881.9 849.517  58
  -3  -2  -3 23043.4 859.736  59
  -3  -2  -3 22200.1 855.145  60
  -3  -2  -3 22730.3 795.782   1
  -3  -2  -3 23574.7 842.535  65
  -3  -2  -3 23059.2 919.133  17
  -3  -2  -3 19417.3 679.292  16
  -3  -2  -2 62857.0 1467.88   3
  -3  -2  -2 61341.8 1323.94  59
  -3  -2  -2 58957.2 1321.47  60
  -3  -2  -2 60883.1 1374.63   1
  -3  -2  -2 63110.5 1342.20  65
  -3  -2  -2 60231.4 1300.65  58
  -3  -2  -2 60873.5 1452.79  17
  -3  -2  -1 1939.55 246.321   3
  -3  -2  -1 2007.82 176.282  59
  -3  -2  -1 1978.52 177.947  60
  -3  -2  -1 2449.28 270.022  56
  -3  -2  -1 2010.90 238.513   1
  -3  -2  -1 2070.29 177.793  58
  -3  -2   0 11831.2 599.686   3
  -3  -2   0 12137.8 567.236   1
  -3  -2   0 11803.9 585.755   9
  -3  -2   0 11242.8 559.677  56
  -3  -2   1 166283. 2670.40   3
  -3  -2   1 159391. 2611.46   9
  -3  -2   2 3231.14 320.236   3
  -3  -2   2 2951.18 324.692  56
  -3  -2   3 15497.0 798.393  56
  -3  -2   3 17289.3 832.107   9
  -3  -2   4 10755.3 706.923   9
  -3  -2   4 10026.9 691.058  56
  -3  -2   5 2421.97 380.941  56
  -3  -2   5 3104.10 424.679   9
  -3  -2   6 1777.16 270.226  25
  -3  -2   6 2222.43 396.307  56
  -3  -2   6 1598.00 205.937  50
  -3  -2   6 1865.01 373.352   9
  -3  -2   6 2243.96 209.396  47
  -3  -2   7 15014.8 470.217  32
  -3  -2   7 13685.8 459.454  49
  -3  -2   8 6098.59 325.496  51
  -3  -2   8 5935.44 366.603  50
  -3  -2   8 5925.48 330.065  47
  -3  -2   8 6166.87 300.553  32
  -3  -2   9 11063.8 423.960  51
  -3  -2   9 10813.1 363.315  49
  -3  -2  10 4080.52 223.967  51
  -3  -2  10 3581.62 192.152  47
  -3  -1 -13 9911.68 301.975  41
  -3  -1 -13 9544.32 293.270  48
  -3  -1 -12 705.380 98.0410  35
  -3  -1 -12 732.711 115.406  48
  -3  -1 -12 720.550 115.089  41
  -3  -1 -11 1507.10 178.596  48
  -3  -1 -11 1418.30 166.596  41
  -3  -1 -11 1470.24 162.686  35
  -3  -1 -11 1481.65 154.422  26
  -3  -1 -10 8330.77 876.893  65
  -3  -1 -10 10393.1 454.512  35
  -3  -1 -10 10012.5 978.578  17
  -3  -1 -10 10339.0 471.998  41
  -3  -1 -10 10210.0 464.503  48
  -3  -1 -10 11111.5 457.406  26
  -3  -1  -9 60845.0 1266.34  35
  -3  -1  -9 63413.8 2485.88  17
  -3  -1  -9 65022.1 1326.25  48
  -3  -1  -9 61499.6 1246.04  26
  -3  -1  -9 62794.4 1314.69  41
  -3  -1  -8 10523.4 906.499  65
  -3  -1  -8 10063.2 915.620  61
  -3  -1  -8 12122.0 896.065  20
  -3  -1  -8 10643.9 479.134  35
  -3  -1  -8 11108.5 934.070  60
  -3  -1  -8 11746.5 949.374  59
  -3  -1  -8 11778.7 938.948  58
  -3  -1  -8 11114.2 479.570  26
  -3  -1  -8 12719.1 1038.61  17
  -3  -1  -8 11432.5 509.216  48
  -3  -1  -8 11236.3 508.335  41
  -3  -1  -7 37447.5 1687.02  17
  -3  -1  -7 44367.8 1678.55  20
  -3  -1  -7 40738.2 1662.85  65
  -3  -1  -7 39786.8 1630.92  58
  -3  -1  -7 37920.5 1631.75  60
  -3  -1  -7 39084.6 1629.22  59
  -3  -1  -6 83168.7 2233.67  65
  -3  -1  -6 85634.2 2256.98  20
  -3  -1  -6 74587.7 2208.73  59
  -3  -1  -6 79863.9 2241.42  58
  -3  -1  -6 80226.5 2333.77  17
  -3  -1  -6 75161.9 2225.45  60
  -3  -1  -5 106888. 2445.69  20
  -3  -1  -5 105733. 2443.44  58
  -3  -1  -5 105949. 2477.32  59
  -3  -1  -5 103497. 2339.50  65
  -3  -1  -5 101613. 2459.94  60
  -3  -1  -4 71180.5 1641.93   3
  -3  -1  -4 71814.4 1839.39  20
  -3  -1  -4 77426.0 1730.48  65
  -3  -1  -4 72196.4 1821.53  59
  -3  -1  -4 70042.9 1892.52  17
  -3  -1  -4 70291.8 1784.11  58
  -3  -1  -4 71710.7 1845.46  60
  -3  -1  -3 2011.33 275.621  60
  -3  -1  -3 1904.39 253.671   3
  -3  -1  -3 1878.39 280.762  20
  -3  -1  -3 1947.47 231.617  65
  -3  -1  -3 2085.51 290.323  17
  -3  -1  -3 2128.02 278.161  59
  -3  -1  -3 2109.84 269.145  58
  -3  -1  -2 31155.7 996.060  17
  -3  -1  -2 30078.4 1025.48  20
  -3  -1  -2 29482.7 990.507   3
  -3  -1  -2 30711.9 902.831   1
  -3  -1  -2 28420.8 922.259  60
  -3  -1  -2 29480.2 919.573  58
  -3  -1  -2 29971.6 941.594  59
  -3  -1  -1 52233.7 1164.83  59
  -3  -1  -1 52779.7 1346.68  20
  -3  -1  -1 49687.7 1305.42   3
  -3  -1  -1 54250.4 1162.66  58
  -3  -1  -1 51642.2 1217.33   1
  -3  -1  -1 50830.4 1201.91  17
  -3  -1   0 129078. 2257.37   3
  -3  -1   0 114528. 1999.15  56
  -3  -1   0 132740. 2098.12   1
  -3  -1   0 118156. 1753.46  59
  -3  -1   0 118009. 1733.56  58
  -3  -1   0 112251. 2070.48   9
  -3  -1   1 32702.4 1033.43   3
  -3  -1   1 32677.6 993.678   9
  -3  -1   1 32548.4 973.341  56
  -3  -1   1 35059.1 975.152   1
  -3  -1   2 39704.0 1155.26   3
  -3  -1   2 41799.1 1191.54  56
  -3  -1   2 40471.9 1172.88   9
  -3  -1   3 2200.43 295.370  56
  -3  -1   3 2423.36 306.514   9
  -3  -1   4 94882.6 2307.97  56
  -3  -1   4 107354. 2383.69   9
  -3  -1   5 23262.5 1157.47  56
  -3  -1   5 24608.6 1162.78   9
  -3  -1   6 16773.1 492.694  32
  -3  -1   6 19584.4 1156.14  56
  -3  -1   6 20430.1 1163.62   9
  -3  -1   6 17163.3 517.228  49
  -3  -1   7 5123.21 272.955  32
  -3  -1   7 5775.67 342.929  47
  -3  -1   8 13652.3 450.053  32
  -3  -1   8 14579.6 573.652  50
  -3  -1   8 14358.9 474.172  49
  -3  -1   8 14166.1 512.191  51
  -3  -1   9 5992.21 275.177  49
  -3  -1   9 5708.82 295.469  51
  -3  -1   9 5110.27 309.375  50
  -3  -1  10 19092.5 508.240  51
  -3  -1  10 27158.5 606.213  47
  -3   0 -13 1921.30 132.009  48
  -3   0 -13 1780.81 126.313  41
  -3   0 -12 7973.00 311.121  35
  -3   0 -12 7428.26 279.077  26
  -3   0 -12 8480.21 341.763  48
  -3   0 -12 8252.57 339.339  41
  -3   0 -11 3154.08 234.244  35
  -3   0 -11 3233.64 246.999  48
  -3   0 -11 3646.78 238.103  26
  -3   0 -11 3499.76 264.879  41
  -3   0 -10 4602.82 660.399  65
  -3   0 -10 4838.26 320.181  35
  -3   0 -10 5535.67 759.658  17
  -3   0 -10 5455.79 329.478  26
  -3   0 -10 6020.24 360.052  48
  -3   0 -10 5154.26 342.204  41
  -3   0  -9 5924.35 371.279  48
  -3   0  -9 5512.63 351.961  35
  -3   0  -9 5508.26 740.112  17
  -3   0  -9 5848.02 350.235  26
  -3   0  -9 5691.75 369.430  41
  -3   0  -9 4946.97 662.210  65
  -3   0  -8 7581.91 782.585  59
  -3   0  -8 7827.39 782.922  65
  -3   0  -8 8826.31 800.784  20
  -3   0  -8 7749.94 427.272  48
  -3   0  -8 7090.74 775.480  60
  -3   0  -8 7866.19 801.660  58
  -3   0  -8 8334.06 453.789  41
  -3   0  -8 7510.25 404.461  26
  -3   0  -8 6568.63 384.077  35
  -3   0  -7 46852.1 1792.13  20
  -3   0  -7 44836.0 1895.48  17
  -3   0  -7 40031.5 1667.06  65
  -3   0  -7 40841.7 1714.29  58
  -3   0  -7 41372.6 1730.55  59
  -3   0  -7 39143.4 1723.10  60
  -3   0  -6 23664.7 1204.86  20
  -3   0  -6 24703.6 1227.17  58
  -3   0  -6 24666.7 1259.04  60
  -3   0  -6 26249.5 1364.38  17
  -3   0  -6 24655.8 1243.43  59
  -3   0  -6 25750.5 1208.11  65
  -3   0  -5 57615.6 1820.42  60
  -3   0  -5 57865.0 1689.92  65
  -3   0  -5 62871.1 1556.20   3
  -3   0  -5 62306.2 1888.26  20
  -3   0  -5 62441.9 1845.35  58
  -3   0  -5 60697.7 1846.34  59
  -3   0  -5 56828.9 1901.38  17
  -3   0  -4 410.846 176.645  58
  -3   0  -4 346.546 120.136  65
  -3   0  -4 230.958 134.916  17
  -3   0  -4 212.206 118.100   3
  -3   0  -4 355.441 151.538  20
  -3   0  -4 151.925 125.341  10
  -3   0  -4 452.598 180.101  59
  -3   0  -3 73057.6 1802.86  10
  -3   0  -3 69661.5 1800.92  20
  -3   0  -3 74783.7 1701.46   3
  -3   0  -3 77332.4 1793.40  58
  -3   0  -3 72607.4 1771.24  59
  -3   0  -3 67846.8 1769.18  17
  -3   0  -2 6692.59 452.342  58
  -3   0  -2 6629.43 490.524  20
  -3   0  -2 5900.63 445.449  10
  -3   0  -2 5996.05 452.983   3
  -3   0  -2 5830.32 436.130  17
  -3   0  -2 6646.86 506.066  23
  -3   0  -2 5833.70 433.001  59
  -3   0  -1 15228.8 719.677  20
  -3   0  -1 14934.6 710.005   3
  -3   0  -1 15749.7 660.970  10
  -3   0  -1 14006.5 563.453  17
  -3   0  -1 15022.0 641.378  59
  -3   0  -1 16377.2 606.667  56
  -3   0  -1 16042.3 651.389  58
  -3   0  -1 17094.7 799.691  23
  -3   0   0 49460.3 1149.35  56
  -3   0   0 59310.8 1471.91   3
  -3   0   0 53002.9 1497.16  23
  -3   0   0 55444.5 1203.23  58
  -3   0   1 49277.2 1343.34   3
  -3   0   1 48300.0 1071.94  58
  -3   0   1 46046.7 1160.11  56
  -3   0   1 47595.7 1245.56   9
  -3   0   2 14754.9 689.897  56
  -3   0   2 12840.5 636.557   9
  -3   0   2 13585.5 775.929  23
  -3   0   2 12935.8 661.113   3
  -3   0   3 5793.12 441.708   3
  -3   0   3 6336.27 480.481   9
  -3   0   3 6482.57 501.122  56
  -3   0   4 1134.47 251.500  56
  -3   0   4 499.150 170.449   9
  -3   0   5 763.093 227.257  56
  -3   0   5 638.857 214.616   9
  -3   0   6 4725.83 558.838   9
  -3   0   6 4952.61 268.061  49
  -3   0   6 4718.25 244.643  32
  -3   0   6 5687.89 645.388  56
  -3   0   6 4498.00 289.445  47
  -3   0   6 4005.00 262.940  51
  -3   0   6 4011.21 294.571  50
  -3   0   7 11193.8 401.696  32
  -3   0   7 12102.5 432.195  49
  -3   0   7 11226.4 473.778  47
  -3   0   7 10647.8 442.223  51
  -3   0   7 12625.0 527.040  50
  -3   0   8 146.163 77.6733  49
  -3   0   8 145.901 82.3534  30
  -3   0   8 172.613 88.1723  51
  -3   0   8 205.604 114.353  50
  -3   0   8 175.817 79.1515  32
  -3   0   8 274.811 96.0850  47
  -3   0   9 29022.7 651.773  49
  -3   0  10 7188.54 271.895  49
  -3   0  10 7489.21 310.168  47
  -3   1 -13 4543.87 185.182  48
  -3   1 -13 4300.05 187.867  41
  -3   1 -12 29032.2 648.351  35
  -3   1 -12 30415.1 669.157  48
  -3   1 -12 30812.9 688.155  41
  -3   1 -11 20780.9 637.832  41
  -3   1 -11 19548.1 600.750  35
  -3   1 -11 18878.8 592.475  48
  -3   1 -11 19173.7 570.172  26
  -3   1 -10 2866.63 253.532  35
  -3   1 -10 3118.86 579.825  17
  -3   1 -10 3099.65 271.681  41
  -3   1 -10 3042.21 251.419  26
  -3   1 -10 3147.99 263.259  48
  -3   1  -9 23916.7 790.130  41
  -3   1  -9 24797.1 1586.42  17
  -3   1  -9 23263.3 1454.90  65
  -3   1  -9 24393.4 765.780  35
  -3   1  -9 22435.8 724.481  26
  -3   1  -9 25561.7 792.939  48
  -3   1  -8 7556.44 439.613  41
  -3   1  -8 6267.22 719.804  65
  -3   1  -8 7814.76 795.136  20
  -3   1  -8 6538.57 393.734  35
  -3   1  -8 7283.89 800.856  58
  -3   1  -8 7071.82 814.270  60
  -3   1  -8 6366.66 798.349  17
  -3   1  -8 7104.88 803.833  59
  -3   1  -8 6718.50 397.953  26
  -3   1  -7 24142.8 1360.75  58
  -3   1  -7 24950.7 1372.91  20
  -3   1  -7 23219.4 1363.50  60
  -3   1  -7 22324.9 1391.72  17
  -3   1  -7 24286.2 1379.36  59
  -3   1  -7 28286.7 1415.40  65
  -3   1  -6 7551.97 669.766  65
  -3   1  -6 6877.75 679.574  20
  -3   1  -6 5613.16 621.967  10
  -3   1  -6 6720.53 674.122  59
  -3   1  -6 6415.30 652.060  58
  -3   1  -6 6695.83 675.728  60
  -3   1  -6 7148.67 738.984  17
  -3   1  -5 3334.61 446.128  58
  -3   1  -5 3519.16 377.645   3
  -3   1  -5 3109.16 437.383  59
  -3   1  -5 3079.83 430.280  10
  -3   1  -5 2892.08 463.159  17
  -3   1  -5 3348.13 447.127  20
  -3   1  -5 3767.65 426.128  65
  -3   1  -4 6080.54 538.042  58
  -3   1  -4 5814.41 539.541  59
  -3   1  -4 5433.56 487.319   3
  -3   1  -4 5190.03 524.194  20
  -3   1  -4 5669.49 577.952  17
  -3   1  -4 5841.69 548.134  10
  -3   1  -3 35650.2 1268.79  10
  -3   1  -3 35730.5 1295.38  17
  -3   1  -3 35566.2 1300.28  20
  -3   1  -3 34701.2 1246.21  59
  -3   1  -3 38561.4 1282.84  58
  -3   1  -3 36621.2 1228.46   3
  -3   1  -3 37669.3 1300.98  23
  -3   1  -2 47164.6 1428.91  66
  -3   1  -2 47233.8 1383.21  10
  -3   1  -2 47155.0 1461.45  20
  -3   1  -2 47358.4 1347.89  58
  -3   1  -2 47930.8 1394.68   3
  -3   1  -2 45115.7 1340.95  59
  -3   1  -2 50576.6 1503.06  23
  -3   1  -1 76611.1 1833.38  20
  -3   1  -1 75765.6 1874.77  66
  -3   1  -1 78676.5 1716.21  10
  -3   1  -1 72446.2 1639.82  58
  -3   1  -1 74227.6 1868.89  23
  -3   1  -1 79186.4 1393.61  56
  -3   1  -1 72889.1 1768.27   3
  -3   1   0 21007.4 847.201  20
  -3   1   0 24618.1 726.117  56
  -3   1   0 23732.2 1005.78  66
  -3   1   0 22680.9 940.434   3
  -3   1   0 21806.8 966.112  23
  -3   1   0 21172.3 583.813   7
  -3   1   0 24320.8 953.801  15
  -3   1   0 21696.3 791.174  58
  -3   1   0 21488.6 774.974  10
  -3   1   1 33854.2 943.728  56
  -3   1   1 25454.3 844.092  58
  -3   1   1 27235.6 1129.64  23
  -3   1   1 24641.5 1001.34   3
  -3   1   1 26550.5 1111.98  66
  -3   1   1 34876.8 1195.70  15
  -3   1   1 29833.8 1010.20   9
  -3   1   1 28241.4 752.219   7
  -3   1   2 6186.39 390.195  55
  -3   1   2 6353.26 460.957   9
  -3   1   2 7348.08 595.870  23
  -3   1   2 6374.57 455.069  56
  -3   1   2 6174.33 541.723  66
  -3   1   2 7049.42 567.669  15
  -3   1   3 2282.63 299.348   3
  -3   1   3 2427.35 351.446  66
  -3   1   3 2843.15 338.388   9
  -3   1   3 2653.14 265.770  55
  -3   1   3 2622.73 377.585  23
  -3   1   3 3306.23 363.956  56
  -3   1   4 35399.5 1290.07   9
  -3   1   4 42747.5 1497.44  56
  -3   1   5 16686.9 1025.30  56
  -3   1   5 16582.1 947.579   9
  -3   1   6 19040.9 523.548  32
  -3   1   6 18192.4 575.070  29
  -3   1   6 17886.1 566.216  31
  -3   1   6 18495.5 526.647  49
  -3   1   6 17186.1 1057.96   9
  -3   1   7 1405.24 160.620  31
  -3   1   7 1612.82 157.258  49
  -3   1   7 1319.70 171.022  46
  -3   1   7 1655.55 170.707  29
  -3   1   7 1421.14 168.161  51
  -3   1   7 1648.50 181.433  47
  -3   1   8 8878.99 410.227  47
  -3   1   8 9332.14 367.107  49
  -3   1   8 9084.12 380.208  29
  -3   1   9 14600.6 440.852  49
  -3   1   9 14910.0 504.820  47
  -3   1  10 786.489 97.9803  30
  -3   1  10 975.958 115.603  47
  -3   1  10 894.125 98.5744  49
  -3   2 -13 3549.17 158.313  41
  -3   2 -12 1210.85 125.226  35
  -3   2 -12 1372.52 119.942  26
  -3   2 -12 1295.31 127.349  48
  -3   2 -12 1450.27 146.466  41
  -3   2 -11 3429.57 241.525  35
  -3   2 -11 3087.69 231.752  48
  -3   2 -11 3267.69 227.776  26
  -3   2 -11 3426.85 252.796  41
  -3   2 -10 994.357 162.052  35
  -3   2 -10 661.601 301.280  17
  -3   2 -10 1321.36 171.671  26
  -3   2 -10 1298.28 187.775  41
  -3   2 -10 1262.36 172.661  48
  -3   2  -9 25139.6 817.642  41
  -3   2  -9 24448.7 754.897  26
  -3   2  -9 21999.0 1415.08  20
  -3   2  -9 22916.1 1571.33  17
  -3   2  -9 22099.1 736.764  35
  -3   2  -8 6149.56 816.308  17
  -3   2  -8 7865.42 841.433  20
  -3   2  -8 5723.30 360.066  36
  -3   2  -8 6368.03 798.774  59
  -3   2  -8 6348.06 786.072  58
  -3   2  -8 5775.48 369.747  35
  -3   2  -8 6142.99 792.336  60
  -3   2  -8 5978.51 372.340  26
  -3   2  -7 19533.9 1322.70  60
  -3   2  -7 20482.4 1333.46  58
  -3   2  -7 21317.2 1376.54  59
  -3   2  -7 20582.2 1362.83  10
  -3   2  -7 20398.0 1392.68  17
  -3   2  -7 18784.0 661.369  26
  -3   2  -7 22479.2 1363.78  20
  -3   2  -6 1309.68 332.478  20
  -3   2  -6 790.903 268.072  10
  -3   2  -6 1309.31 335.545  59
  -3   2  -6 1311.28 362.136  17
  -3   2  -6 1650.16 371.650  60
  -3   2  -6 1355.04 337.158  58
  -3   2  -5 18567.1 1155.79  17
  -3   2  -5 17862.4 1071.44  58
  -3   2  -5 17551.2 1079.34  59
  -3   2  -5 17760.1 1083.00  10
  -3   2  -5 18941.0 1111.91  20
  -3   2  -5 18793.9 964.661   3
  -3   2  -4 65355.2 2003.27  59
  -3   2  -4 66382.7 2040.74  10
  -3   2  -4 68936.1 2086.89  20
  -3   2  -4 65640.5 2079.47  17
  -3   2  -4 69350.8 2015.21  58
  -3   2  -4 70554.8 1931.22   3
  -3   2  -3 5416.55 499.222  58
  -3   2  -3 5916.43 527.231  66
  -3   2  -3 5995.02 553.324  17
  -3   2  -3 6118.75 543.527  23
  -3   2  -3 6201.31 552.165  59
  -3   2  -3 6360.16 546.098   3
  -3   2  -3 5968.82 545.791  10
  -3   2  -3 5863.20 563.817  20
  -3   2  -2 1964.46 302.405  58
  -3   2  -2 1785.90 276.872  17
  -3   2  -2 2213.29 322.257   3
  -3   2  -2 2017.10 307.625  66
  -3   2  -2 1995.94 302.839  10
  -3   2  -2 1767.31 311.312  20
  -3   2  -2 2173.81 330.002  23
  -3   2  -1 35165.7 1264.28   3
  -3   2  -1 43202.5 1442.94  66
  -3   2  -1 40177.1 1374.17  20
  -3   2  -1 37302.2 1212.33  58
  -3   2  -1 40017.3 1398.66  23
  -3   2  -1 37073.3 946.475   7
  -3   2  -1 40202.2 1313.15  15
  -3   2  -1 36759.8 1221.11  10
  -3   2   0 60397.9 1656.37  20
  -3   2   0 64096.0 1813.48  66
  -3   2   0 65162.5 1288.38   7
  -3   2   0 60405.7 1526.37  10
  -3   2   0 60976.9 1682.02  15
  -3   2   0 57889.3 1763.36  23
  -3   2   0 61858.2 1543.10  58
  -3   2   1 30637.6 989.664  10
  -3   2   1 34644.4 1288.13   3
  -3   2   1 35146.1 1280.44  15
  -3   2   1 30588.4 902.973  56
  -3   2   1 32322.5 946.125   7
  -3   2   1 35529.6 1372.65  66
  -3   2   1 36319.0 1389.90  23
  -3   2   2 242716. 3636.64  55
  -3   2   2 247039. 3696.97  56
  -3   2   2 263563. 4262.17   3
  -3   2   2 258153. 3869.92   7
  -3   2   2 246038. 4349.63  66
  -3   2   2 240327. 4366.29  23
  -3   2   3 189535. 3540.40  15
  -3   2   3 165832. 3441.16  66
  -3   2   3 162564. 2976.07   9
  -3   2   3 161102. 2775.74  55
  -3   2   3 138740. 2860.19  56
  -3   2   3 182185. 3586.70  23
  -3   2   4 4501.74 517.839  66
  -3   2   4 4042.54 438.685   9
  -3   2   4 3965.17 462.732  56
  -3   2   4 4772.78 530.044  15
  -3   2   4 4608.95 527.677  23
  -3   2   4 3797.17 378.290  55
  -3   2   5 1477.23 143.873  49
  -3   2   5 1530.97 336.529  56
  -3   2   6 6247.77 323.455  31
  -3   2   6 6150.26 697.052  56
  -3   2   6 6574.67 333.414  29
  -3   2   6 6010.78 297.471  49
  -3   2   7 24326.3 664.852  29
  -3   2   7 25216.4 672.531  31
  -3   2   8 18476.2 551.343  31
  -3   2   8 19370.8 565.089  29
  -3   2   8 17853.8 582.582  47
  -3   2   8 17343.4 501.740  49
  -3   2   9 10053.7 358.602  29
  -3   2   9 10295.8 407.500  47
  -3   2   9 10474.2 354.242  49
  -3   2   9 9829.95 355.758  31
  -3   2  10 7540.24 265.352  49
  -3   3 -12 14392.6 394.905  35
  -3   3 -12 13934.5 366.283  26
  -3   3 -12 13591.9 355.157  48
  -3   3 -11 13500.7 466.561  35
  -3   3 -11 13413.9 441.798  48
  -3   3 -11 13948.2 459.536  26
  -3   3 -11 14766.6 498.852  41
  -3   3 -10 491.067 125.092  35
  -3   3 -10 499.624 122.809  26
  -3   3 -10 320.405 99.4112  48
  -3   3 -10 511.266 135.781  41
  -3   3  -9 30243.7 888.531  41
  -3   3  -9 24422.5 1543.90  20
  -3   3  -9 28965.9 784.316  36
  -3   3  -9 24549.6 760.915  35
  -3   3  -9 20048.0 694.121  26
  -3   3  -9 25916.5 1693.90  17
  -3   3  -8 9569.85 1019.16  17
  -3   3  -8 11165.2 1052.57  20
  -3   3  -8 9341.01 461.087  36
  -3   3  -8 9372.01 483.132  35
  -3   3  -8 9643.22 473.029  26
  -3   3  -7 18431.0 1363.98  10
  -3   3  -7 15776.2 620.113  37
  -3   3  -7 16845.0 637.252  36
  -3   3  -7 19276.9 1325.84  20
  -3   3  -7 17782.2 1337.92  60
  -3   3  -7 18596.8 1338.66  58
  -3   3  -7 18319.8 1347.95  59
  -3   3  -7 16739.4 1298.25  17
  -3   3  -7 18586.4 685.884  35
  -3   3  -7 16884.2 631.500  26
  -3   3  -6 9627.96 899.359  20
  -3   3  -6 10827.9 969.789  59
  -3   3  -6 9594.42 930.353  10
  -3   3  -6 9726.79 936.295  17
  -3   3  -6 9228.11 877.444  58
  -3   3  -5 13167.2 989.923  20
  -3   3  -5 13662.0 1016.31  10
  -3   3  -5 13885.5 1044.21  17
  -3   3  -5 12797.5 972.954  58
  -3   3  -5 11970.0 962.881  59
  -3   3  -5 14108.0 917.970   3
  -3   3  -4 9854.84 813.267  20
  -3   3  -4 10199.6 834.386  17
  -3   3  -4 8725.07 756.188  59
  -3   3  -4 9245.31 782.454  10
  -3   3  -4 10056.0 798.870  58
  -3   3  -4 10296.3 760.589  66
  -3   3  -4 10452.8 776.600  23
  -3   3  -4 9759.75 756.051   3
  -3   3  -3 208582. 3979.91  17
  -3   3  -3 211523. 4119.96  20
  -3   3  -3 217535. 3983.97  66
  -3   3  -3 198901. 3834.12   3
  -3   3  -3 209414. 3985.75  10
  -3   3  -3 207310. 3915.35  58
  -3   3  -3 216267. 3978.20  23
  -3   3  -3 198432. 3901.85  59
  -3   3  -2 20857.2 1103.70  20
  -3   3  -2 19691.5 1016.89  10
  -3   3  -2 19973.7 1006.87  58
  -3   3  -2 21055.0 1088.89  66
  -3   3  -2 21850.1 1017.21  15
  -3   3  -2 20191.5 783.959   7
  -3   3  -2 19915.8 1059.22  23
  -3   3  -1 5906.26 577.560  23
  -3   3  -1 6131.47 526.999  10
  -3   3  -1 5676.91 569.002  66
  -3   3  -1 6064.73 569.240  20
  -3   3  -1 6050.35 519.060  58
  -3   3  -1 5961.07 402.314   7
  -3   3   0 44004.8 1404.20  58
  -3   3   0 42177.6 1559.81  23
  -3   3   0 44135.4 1181.64   7
  -3   3   0 46756.0 1548.45  15
  -3   3   0 44315.2 1592.73  66
  -3   3   0 43301.9 1490.29  20
  -3   3   0 42539.6 1384.06  10
  -3   3   1 257377. 4125.14  10
  -3   3   1 257469. 4603.22   3
  -3   3   1 295575. 4947.89  23
  -3   3   1 311163. 4996.09  66
  -3   3   1 296195. 4698.24  15
  -3   3   1 288231. 4125.39   7
  -3   3   2 269281. 4371.53  55
  -3   3   2 319121. 5344.81  66
  -3   3   2 362375. 5410.49  15
  -3   3   2 310700. 4762.27   7
  -3   3   2 326601. 5375.64  23
  -3   3   2 305237. 5107.59   3
  -3   3   3 26431.4 1327.87  66
  -3   3   3 22104.1 987.928  56
  -3   3   3 22225.8 1159.52   3
  -3   3   3 23059.6 1252.44  23
  -3   3   3 21451.9 967.798  55
  -3   3   3 28594.7 1353.78  15
  -3   3   4 5953.82 642.272  66
  -3   3   4 4718.07 508.652  56
  -3   3   4 4614.11 463.966  55
  -3   3   4 5291.34 603.523  15
  -3   3   4 5678.68 629.612  23
  -3   3   5 5686.88 619.036  56
  -3   3   5 5804.90 340.199  33
  -3   3   5 6674.93 324.830  29
  -3   3   5 7118.61 331.181  31
  -3   3   5 5856.49 283.941  49
  -3   3   5 7476.86 736.839  15
  -3   3   6 15600.6 522.957  31
  -3   3   6 15474.9 479.598  49
  -3   3   6 16098.2 528.138  29
  -3   3   7 5804.76 312.429  31
  -3   3   7 6428.10 326.116  29
  -3   3   7 5831.61 284.807  49
  -3   3   8 4489.97 258.169  29
  -3   3   8 4372.72 255.032  31
  -3   3   8 4411.19 238.116  49
  -3   3   8 3998.28 263.179  47
  -3   3   9 316.458 86.4920  47
  -3   3   9 409.360 78.2232  31
  -3   3   9 295.204 77.8865  30
  -3   3   9 472.854 84.3015  29
  -3   3   9 378.191 78.4292  49
  -3   3   9 261.128 75.0184  46
  -3   3  10 1558.43 108.164  31
  -3   3  10 1494.92 105.646  29
  -3   4 -12 5798.05 214.579  35
  -3   4 -12 6168.58 223.043  41
  -3   4 -11 3825.63 226.764  35
  -3   4 -11 4153.20 227.742  26
  -3   4 -11 3749.33 195.054  48
  -3   4 -11 4175.33 240.381  41
  -3   4 -10 6022.33 305.605  48
  -3   4 -10 6222.62 331.497  35
  -3   4 -10 6500.04 335.434  26
  -3   4 -10 6053.23 340.254  41
  -3   4  -9 628.038 126.010  36
  -3   4  -9 571.525 288.313  20
  -3   4  -9 508.676 128.755  35
  -3   4  -9 451.823 245.192  17
  -3   4  -9 477.102 124.264  26
  -3   4  -8 639.330 129.655  37
  -3   4  -8 487.508 130.813  36
  -3   4  -8 419.382 126.323  35
  -3   4  -8 345.523 192.932  20
  -3   4  -8 731.776 346.390  17
  -3   4  -8 461.046 128.687  26
  -3   4  -7 23075.3 755.852  26
  -3   4  -7 24738.4 784.598  36
  -3   4  -7 25597.1 1600.23  20
  -3   4  -7 25879.7 822.952  35
  -3   4  -7 25328.1 792.114  37
  -3   4  -7 24028.1 1604.35  17
  -3   4  -6 7061.62 402.013  37
  -3   4  -6 7779.34 836.599  20
  -3   4  -6 6760.71 395.244  36
  -3   4  -6 7717.55 878.991  58
  -3   4  -6 7441.65 877.811  59
  -3   4  -6 7846.55 869.946  17
  -3   4  -6 8156.70 436.522  26
  -3   4  -6 7422.50 862.154  10
  -3   4  -5 96507.7 2920.19  20
  -3   4  -5 92453.8 2943.47  58
  -3   4  -5 89087.7 2938.82  59
  -3   4  -5 86578.9 2831.48  10
  -3   4  -5 91976.8 2908.74  17
  -3   4  -4 8616.40 816.224  20
  -3   4  -4 9469.67 790.376  66
  -3   4  -4 8456.08 808.705  10
  -3   4  -4 8567.90 808.647  17
  -3   4  -4 8786.19 828.720  58
  -3   4  -4 9123.48 779.959  23
  -3   4  -4 8415.97 819.410  59
  -3   4  -4 8854.38 790.974   3
  -3   4  -4 8402.99 596.138   7
  -3   4  -3 34819.7 1588.20  20
  -3   4  -3 35677.2 1552.94  66
  -3   4  -3 33443.3 1502.31  23
  -3   4  -3 36537.0 1421.89  15
  -3   4  -3 33254.9 1168.17   7
  -3   4  -3 31912.7 1508.30  10
  -3   4  -3 32040.1 1487.31  58
  -3   4  -2 13162.9 903.411  10
  -3   4  -2 17066.2 1010.07  58
  -3   4  -2 15017.3 986.424  66
  -3   4  -2 14055.7 972.922  20
  -3   4  -2 15297.2 916.098  15
  -3   4  -2 14608.7 734.135   7
  -3   4  -2 15178.4 995.225  23
  -3   4  -1 3177.01 420.895  58
  -3   4  -1 3571.46 486.818  20
  -3   4  -1 3280.63 439.189  15
  -3   4  -1 3151.48 434.125  10
  -3   4  -1 3293.14 468.180  23
  -3   4  -1 3405.97 352.756   7
  -3   4  -1 4526.41 550.756  66
  -3   4   0 357.914 140.559   7
  -3   4   0 327.111 146.174  20
  -3   4   0 437.978 173.620  10
  -3   4   0 276.954 173.061  66
  -3   4   0 421.384 166.481  58
  -3   4   0 461.773 202.867  15
  -3   4   0 296.633 197.937  23
  -3   4   1 3865.13 445.111  10
  -3   4   1 3892.02 446.158  58
  -3   4   1 4160.87 543.684  66
  -3   4   1 3752.47 484.722  15
  -3   4   1 3311.05 480.458  23
  -3   4   2 32614.5 1556.17  66
  -3   4   2 35315.1 1534.63  15
  -3   4   2 35478.8 1613.81  23
  -3   4   3 16527.9 1081.81   3
  -3   4   3 15617.6 911.569  55
  -3   4   3 15896.2 1083.70  15
  -3   4   3 20019.2 1253.37  66
  -3   4   3 16922.4 1143.43  23
  -3   4   4 1555.21 310.365  55
  -3   4   4 1724.34 167.239  31
  -3   4   4 2213.91 425.910  15
  -3   4   4 1703.89 191.068  33
  -3   4   4 2137.48 428.653  66
  -3   4   4 1970.80 405.817  23
  -3   4   4 1498.97 144.002  49
  -3   4   4 1927.70 175.555  29
  -3   4   5 12225.6 441.847  31
  -3   4   5 12405.2 432.971  30
  -3   4   5 13859.1 475.328  29
  -3   4   5 12775.2 521.238  33
  -3   4   5 13002.4 430.709  49
  -3   4   5 13885.5 1067.86  15
  -3   4   6 3001.69 242.866  33
  -3   4   6 2932.92 221.292  31
  -3   4   6 2788.64 200.338  49
  -3   4   6 2930.02 218.907  29
  -3   4   7 6056.18 307.805  31
  -3   4   7 6598.92 295.873  49
  -3   4   7 6328.55 314.600  29
  -3   4   8 3954.21 232.886  31
  -3   4   8 4420.85 244.227  29
  -3   4   8 4152.32 220.166  49
  -3   4   9 300.018 63.0584  29
  -3   4   9 294.279 68.8976  31
  -3   4   9 354.495 71.5359  49
  -3   4   9 222.750 76.4232  47
  -3   4   9 155.514 62.6528  46
  -3   4  10 1934.50 109.461  29
  -3   4  10 1970.20 113.881  31
  -3   5 -11 5670.09 232.726  26
  -3   5 -11 5518.33 230.734  35
  -3   5 -11 5332.46 231.655  41
  -3   5 -10 1824.09 173.708  41
  -3   5 -10 1628.16 138.827  36
  -3   5 -10 1746.86 166.085  35
  -3   5 -10 1924.35 172.987  26
  -3   5  -9 6328.70 330.700  36
  -3   5  -9 6717.22 354.819  35
  -3   5  -9 5922.72 329.564  26
  -3   5  -8 1679.07 199.521  26
  -3   5  -8 1906.30 199.693  37
  -3   5  -8 1736.14 203.691  35
  -3   5  -8 1767.25 450.811  20
  -3   5  -8 1652.30 189.762  36
  -3   5  -8 1388.24 410.319  17
  -3   5  -7 6579.81 857.682  17
  -3   5  -7 6425.28 385.257  37
  -3   5  -7 7357.87 866.883  20
  -3   5  -7 6823.66 402.292  35
  -3   5  -7 6433.78 383.311  36
  -3   5  -7 6526.28 385.092  26
  -3   5  -6 10957.2 504.233  37
  -3   5  -6 11705.6 1067.41  20
  -3   5  -6 11436.9 1085.99  17
  -3   5  -6 10298.2 496.675  36
  -3   5  -6 11621.9 528.418  26
  -3   5  -5 18144.9 1308.14  17
  -3   5  -5 18713.4 1392.59  58
  -3   5  -5 18095.1 1409.32  59
  -3   5  -5 16965.5 640.249  36
  -3   5  -5 17482.0 645.913  37
  -3   5  -5 18515.1 1347.27  10
  -3   5  -5 19385.8 1332.90  20
  -3   5  -5 17565.1 625.759  27
  -3   5  -4 6987.78 391.557  37
  -3   5  -4 8172.62 887.072  59
  -3   5  -4 8637.20 868.802  20
  -3   5  -4 7001.95 396.995  34
  -3   5  -4 7040.97 370.651   2
  -3   5  -4 7916.10 778.195  66
  -3   5  -4 7679.80 851.390  58
  -3   5  -4 7445.41 817.602  10
  -3   5  -4 7142.79 784.393   3
  -3   5  -4 7560.99 401.723  27
  -3   5  -4 8079.98 780.509  23
  -3   5  -4 7909.59 635.903   7
  -3   5  -4 6985.81 403.177  36
  -3   5  -3 6486.38 736.978  20
  -3   5  -3 6418.96 696.904  23
  -3   5  -3 6588.02 715.388  66
  -3   5  -3 5376.54 340.987  37
  -3   5  -3 5913.04 706.850  10
  -3   5  -3 5963.24 614.266  15
  -3   5  -3 6049.96 538.900   7
  -3   5  -3 5352.38 334.496  27
  -3   5  -3 5592.97 681.721  58
  -3   5  -2 2882.87 474.967  66
  -3   5  -2 2748.78 363.162   7
  -3   5  -2 2389.90 423.607  58
  -3   5  -2 3103.30 493.304  20
  -3   5  -2 3202.22 463.062  15
  -3   5  -2 3148.15 498.269  23
  -3   5  -2 2957.86 479.837  10
  -3   5  -1 587.785 180.234   7
  -3   5  -1 736.296 265.970  20
  -3   5  -1 706.788 234.596  15
  -3   5  -1 604.431 208.788  58
  -3   5  -1 917.228 267.436  10
  -3   5  -1 521.243 223.462  66
  -3   5  -1 532.230 226.977  23
  -3   5   0 1209.46 293.577  10
  -3   5   0 1099.85 301.409  66
  -3   5   0 965.741 283.911  23
  -3   5   0 1219.71 295.105  15
  -3   5   0 1077.41 279.339  58
  -3   5   0 862.488 224.844   7
  -3   5   1 14511.3 1051.27  23
  -3   5   1 13592.1 935.647  58
  -3   5   1 13655.2 997.427  15
  -3   5   1 14931.2 982.570   7
  -3   5   1 14393.3 1064.03  66
  -3   5   2 23319.4 715.515   2
  -3   5   2 24736.0 695.859  33
  -3   5   2 23454.5 1395.61   3
  -3   5   2 23234.7 628.856  31
  -3   5   2 22258.6 743.277  34
  -3   5   2 26813.7 1488.03  23
  -3   5   2 22216.4 616.368  29
  -3   5   2 21903.3 723.192  27
  -3   5   2 30475.2 1611.31  66
  -3   5   2 32854.8 1582.82  15
  -3   5   2 27779.7 1354.34  58
  -3   5   3 12966.5 1075.05  66
  -3   5   3 16396.5 1183.75  23
  -3   5   3 13776.8 526.559  33
  -3   5   3 13735.8 476.004  31
  -3   5   3 13615.0 476.848  29
  -3   5   3 16503.9 1155.17  15
  -3   5   3 13401.9 564.603  34
  -3   5   4 2995.62 246.324  33
  -3   5   4 2722.10 211.562  31
  -3   5   4 2773.33 213.263  29
  -3   5   4 3317.87 555.740  23
  -3   5   4 3044.57 538.595  66
  -3   5   4 3078.93 515.608  15
  -3   5   5 18550.6 562.971  31
  -3   5   5 19012.6 575.336  29
  -3   5   5 18620.4 1292.66  15
  -3   5   6 2956.51 214.689  31
  -3   5   6 3013.65 215.902  29
  -3   5   6 3265.37 204.145  49
  -3   5   6 3074.58 232.455  33
  -3   5   7 4458.19 247.897  29
  -3   5   7 4598.14 251.682  31
  -3   5   7 4498.90 228.370  49
  -3   5   8 3088.17 192.020  47
  -3   5   8 3474.08 202.161  31
  -3   5   8 3516.17 183.906  49
  -3   5   9 77.6322 41.5346  29
  -3   5   9 6.86378 46.1756  47
  -3   5   9 100.648 49.8790  31
  -3   5   9 35.0728 38.7282  49
  -3   5   9 5.63459 34.9203  46
  -3   6 -10 2185.56 131.977  36
  -3   6 -10 2880.58 176.002  26
  -3   6 -10 2545.59 164.968  35
  -3   6 -10 2677.42 167.584  41
  -3   6  -9 26.8758 59.0818  36
  -3   6  -9 54.1914 66.6066  35
  -3   6  -9-6.55136 62.4326  41
  -3   6  -9 96.6186 78.9177  26
  -3   6  -8 4684.57 285.409  37
  -3   6  -8 4698.03 287.320  36
  -3   6  -8 4386.01 280.727  35
  -3   6  -8 4233.61 282.677  26
  -3   6  -7 2025.12 209.555  36
  -3   6  -7 1972.72 451.603  20
  -3   6  -7 2203.23 219.297  37
  -3   6  -7 2136.64 217.650  35
  -3   6  -7 1906.14 208.260  26
  -3   6  -6 30451.4 1755.88  20
  -3   6  -6 30322.0 849.396  37
  -3   6  -6 29658.4 842.693  36
  -3   6  -6 31892.8 890.773  35
  -3   6  -6 32701.7 890.599  26
  -3   6  -5 49065.0 1152.03  36
  -3   6  -5 49706.4 1138.56  37
  -3   6  -5 51598.3 1094.57   2
  -3   6  -5 54459.4 2341.37  20
  -3   6  -5 55526.6 1170.49  27
  -3   6  -4 7378.40 411.735  34
  -3   6  -4 7021.05 405.937  36
  -3   6  -4 6987.61 391.988  37
  -3   6  -4 7415.03 840.273  20
  -3   6  -4 7131.63 379.122   2
  -3   6  -4 8720.03 859.885  23
  -3   6  -4 7304.71 402.286  27
  -3   6  -3 6121.67 766.816  10
  -3   6  -3 6682.26 382.727  27
  -3   6  -3 7025.22 803.235  20
  -3   6  -3 7475.86 811.829  66
  -3   6  -3 6765.09 394.365  34
  -3   6  -3 7421.95 848.240  58
  -3   6  -3 6397.83 813.195  59
  -3   6  -3 6402.74 392.594  36
  -3   6  -3 6284.37 378.876  37
  -3   6  -3 7881.62 705.639   7
  -3   6  -3 7467.00 802.664  23
  -3   6  -3 7163.58 378.672   2
  -3   6  -2 7998.46 424.244  34
  -3   6  -2 8863.99 884.410  66
  -3   6  -2 7114.62 414.516  36
  -3   6  -2 9256.06 901.910  20
  -3   6  -2 8327.69 727.409   7
  -3   6  -2 7336.43 807.949  58
  -3   6  -2 7584.33 415.433  37
  -3   6  -2 7793.22 839.207  10
  -3   6  -2 8146.67 402.816   2
  -3   6  -2 8588.55 808.888  15
  -3   6  -2 7827.26 413.174  27
  -3   6  -2 8654.40 864.272  23
  -3   6  -1 25575.0 1462.16  20
  -3   6  -1 22596.6 680.012   2
  -3   6  -1 25745.5 1485.58  23
  -3   6  -1 25032.4 1296.23   7
  -3   6  -1 22705.7 735.577  37
  -3   6  -1 23084.5 722.780  27
  -3   6  -1 23536.8 1397.04  58
  -3   6  -1 22129.9 1376.20  10
  -3   6  -1 24798.2 1495.31  66
  -3   6  -1 23172.3 729.836  34
  -3   6  -1 25977.3 1440.40  15
  -3   6  -1 18059.8 670.788  36
  -3   6  -1 20341.7 649.267  33
  -3   6   0 5614.11 348.717  34
  -3   6   0 5103.08 339.353  37
  -3   6   0 6983.01 776.508  23
  -3   6   0 5455.64 660.085  58
  -3   6   0 6045.56 343.892   2
  -3   6   0 5820.39 333.154  33
  -3   6   0 6148.56 672.503   7
  -3   6   0 5885.70 363.362  27
  -3   6   0 6605.13 736.760  15
  -3   6   0 5360.00 664.296  10
  -3   6   0 6881.36 785.346  66
  -3   6   1 2552.20 463.822   7
  -3   6   1 2444.32 446.789  58
  -3   6   1 2537.56 247.213  34
  -3   6   1 2502.32 220.613  33
  -3   6   1 2722.07 245.096  27
  -3   6   1 2823.31 500.745  23
  -3   6   1 2567.02 460.780  15
  -3   6   1 2855.67 517.298  66
  -3   6   1 2845.76 242.135   2
  -3   6   2 8334.59 397.859  33
  -3   6   2 8680.67 422.728   2
  -3   6   2 10156.5 958.529  23
  -3   6   2 7844.15 350.042  29
  -3   6   2 8722.50 906.889  66
  -3   6   2 7658.40 351.881  31
  -3   6   2 7307.49 405.520  27
  -3   6   2 7595.34 803.737  15
  -3   6   2 6201.95 824.714   7
  -3   6   2 8137.52 438.272  34
  -3   6   3 462.592 112.004  34
  -3   6   3 335.973 96.1380  33
  -3   6   3 44.6176 149.241  66
  -3   6   3 468.742 113.474   2
  -3   6   3 369.386 87.9727  29
  -3   6   3 374.894 90.1678  31
  -3   6   3 667.880 271.284  15
  -3   6   3 310.919 202.169  23
  -3   6   4 2163.86 474.236  66
  -3   6   4 2195.84 191.821  29
  -3   6   4 2260.67 456.615  15
  -3   6   4 1988.22 180.500  31
  -3   6   4 2083.09 202.877  33
  -3   6   4 2343.18 467.370  23
  -3   6   5 1449.13 154.056  31
  -3   6   5 1782.07 181.885  33
  -3   6   5 1519.36 158.075  29
  -3   6   6 2797.35 210.900  33
  -3   6   6 2891.31 201.340  31
  -3   6   6 2686.03 197.206  29
  -3   6   7 2445.31 174.217  33
  -3   6   7 2614.37 179.613  31
  -3   6   7 2800.63 183.798  29
  -3   6   8 6731.87 253.256  31
  -3   6   8 6700.35 249.587  29
  -3   6   9 4692.92 168.734  29
  -3   6   9 4942.71 177.771  31
  -3   7  -9 580.382 81.5486  36
  -3   7  -9 563.389 82.4132  35
  -3   7  -9 456.160 72.4824  41
  -3   7  -9 660.733 89.8565  26
  -3   7  -8 626.263 102.853  37
  -3   7  -8 1030.20 126.265  36
  -3   7  -8 889.242 124.418  26
  -3   7  -8 914.789 118.447  35
  -3   7  -7 1172.99 150.557  37
  -3   7  -7 1165.23 154.472  36
  -3   7  -7 1159.67 143.677  35
  -3   7  -7 1164.30 153.186  26
  -3   7  -6 13330.8 511.302  37
  -3   7  -6 12519.3 496.274  36
  -3   7  -6 12897.0 498.398  35
  -3   7  -6 13901.3 524.665  26
  -3   7  -5 2152.89 193.255   2
  -3   7  -5 1869.53 203.613  36
  -3   7  -5 2034.12 457.221  20
  -3   7  -5 2063.49 212.004  37
  -3   7  -5 2113.95 201.926  27
  -3   7  -5 2142.41 217.350  26
  -3   7  -4 11063.0 512.571  36
  -3   7  -4 10846.1 1039.71  20
  -3   7  -4 12015.6 476.912   2
  -3   7  -4 11835.0 495.046  27
  -3   7  -4 11095.9 485.692  37
  -3   7  -4 12397.8 516.377  34
  -3   7  -3 10902.8 493.152  37
  -3   7  -3 12493.2 1098.46  20
  -3   7  -3 11946.0 482.155   2
  -3   7  -3 10089.4 977.425  66
  -3   7  -3 12413.5 508.668  27
  -3   7  -3 11285.9 511.172  36
  -3   7  -3 12583.7 527.045  34
  -3   7  -3 11475.2 1029.27  23
  -3   7  -2 983.306 342.075  20
  -3   7  -2 834.318 316.602  66
  -3   7  -2 717.794 144.430  36
  -3   7  -2 766.362 146.324  34
  -3   7  -2 771.059 142.550  27
  -3   7  -2 785.099 148.257  37
  -3   7  -2 699.638 132.716   2
  -3   7  -2 415.413 224.207  23
  -3   7  -1 7155.60 402.528  37
  -3   7  -1 8598.56 919.416  66
  -3   7  -1 7687.64 383.412  33
  -3   7  -1 8301.97 396.121   2
  -3   7  -1 6946.01 382.601  27
  -3   7  -1 6618.04 382.366  36
  -3   7  -1 7396.83 801.976  15
  -3   7  -1 9329.39 936.644  23
  -3   7  -1 7854.14 415.288  34
  -3   7   0 10341.6 476.776  27
  -3   7   0 11647.5 470.103  33
  -3   7   0 10878.4 493.689  37
  -3   7   0 10972.2 494.626  34
  -3   7   0 10933.8 467.656   2
  -3   7   0 12604.7 1113.35  66
  -3   7   0 12035.3 1041.39  15
  -3   7   0 12345.0 1070.10  23
  -3   7   1 2649.86 229.326   2
  -3   7   1 3252.84 560.957  66
  -3   7   1 2504.52 242.179  34
  -3   7   1 2811.97 231.724  33
  -3   7   1 2729.90 244.326  27
  -3   7   1 2912.62 521.799  15
  -3   7   1 3072.80 536.763  23
  -3   7   2 28601.0 777.431   2
  -3   7   2 30330.2 1735.68  66
  -3   7   2 28470.8 1641.00  23
  -3   7   2 29351.3 811.605  27
  -3   7   2 29769.4 772.845  33
  -3   7   2 27415.8 810.163  34
  -3   7   2 27216.1 1597.23  15
  -3   7   3 25516.2 701.718   2
  -3   7   3 24821.2 620.661  29
  -3   7   3 22742.4 664.183  33
  -3   7   3 23013.9 684.972  27
  -3   7   3 26421.9 1574.91  23
  -3   7   3 24200.1 628.710  31
  -3   7   3 23544.5 723.079  34
  -3   7   3 21595.5 1474.87  66
  -3   7   4 4505.79 253.742  31
  -3   7   4 4644.41 250.800  29
  -3   7   4 4557.27 289.275  34
  -3   7   5 24117.5 593.172  31
  -3   7   5 24047.5 635.199  33
  -3   7   5 25213.6 597.699  29
  -3   7   6 4645.66 230.830  31
  -3   7   6 4411.55 225.231  29
  -3   7   6 4334.52 233.523  33
  -3   7   7 2705.40 154.923  33
  -3   7   7 2864.85 163.783  29
  -3   7   7 2995.52 167.949  31
  -3   7   8 786.285 71.8995  29
  -3   7   8 969.009 82.4076  31
  -3   8  -8 683.046 76.0962  37
  -3   8  -8 785.289 87.5221  36
  -3   8  -8 508.650 63.4556  35
  -3   8  -8 814.220 92.1297  26
  -3   8  -7 1794.14 149.649  37
  -3   8  -7 1896.34 153.342  36
  -3   8  -7 1436.47 122.177  35
  -3   8  -7 1885.86 153.348  26
  -3   8  -6 1694.34 163.974  37
  -3   8  -6 1545.43 155.259  36
  -3   8  -6 1658.46 163.277  26
  -3   8  -5 2363.40 208.238  37
  -3   8  -5 2805.03 207.673  27
  -3   8  -5 2526.23 211.346  36
  -3   8  -5 2454.00 205.860  26
  -3   8  -5 2642.30 188.046   2
  -3   8  -4 5421.31 292.559   2
  -3   8  -4 5302.01 313.997  37
  -3   8  -4 5226.32 312.137  36
  -3   8  -4 5560.57 313.770  34
  -3   8  -4 5415.62 305.872  27
  -3   8  -4 5186.82 298.455  26
  -3   8  -3 3919.10 273.334  34
  -3   8  -3 3898.61 259.784   2
  -3   8  -3 3309.16 255.768  36
  -3   8  -3 3419.42 263.701  37
  -3   8  -3 3929.25 272.547  27
  -3   8  -2 5304.50 305.093   2
  -3   8  -2 4906.18 316.423  37
  -3   8  -2 4872.53 312.070  36
  -3   8  -2 5199.97 317.331  27
  -3   8  -2 5490.13 328.950  34
  -3   8  -2 4658.17 674.979  23
  -3   8  -1 582.897 123.536  27
  -3   8  -1 598.376 119.472   2
  -3   8  -1 639.202 133.206  34
  -3   8  -1 585.120 123.019  37
  -3   8  -1 708.045 114.127  33
  -3   8  -1 463.547 268.311  23
  -3   8   0 1712.95 176.933   2
  -3   8   0 1632.53 173.713  33
  -3   8   0 1732.05 185.379  37
  -3   8   0 1650.66 188.413  34
  -3   8   0 1455.62 375.588  23
  -3   8   0 1712.23 191.819  27
  -3   8   1 806.375 132.467   2
  -3   8   1 716.602 140.161  34
  -3   8   1 786.353 126.759  27
  -3   8   1 622.232 116.773  33
  -3   8   1 608.348 253.358  23
  -3   8   2 1958.25 181.073   2
  -3   8   2 1674.99 184.165  34
  -3   8   2 1789.70 183.305  27
  -3   8   2 1730.07 176.483  33
  -3   8   3 8412.76 349.221   2
  -3   8   3 7874.40 342.290  27
  -3   8   3 8472.01 380.733  34
  -3   8   3 8550.19 360.914  33
  -3   8   4 8945.03 316.922  31
  -3   8   4 8913.09 360.201  34
  -3   8   4 8153.46 290.587  29
  -3   8   4 8866.99 347.566  33
  -3   8   5 6687.91 249.772  29
  -3   8   5 6788.81 262.681  31
  -3   8   6 1250.09 104.853  31
  -3   8   6 1277.82 110.943  33
  -3   8   6 1227.79 97.5018  29
  -3   9  -7 1369.90 94.3560  36
  -3   9  -6 4368.90 204.594  37
  -3   9  -6 4132.12 196.974  36
  -3   9  -6 4054.79 186.981  26
  -3   9  -5 6125.01 269.996  37
  -3   9  -5 6011.33 267.711  36
  -3   9  -5 5753.56 238.214  27
  -3   9  -5 5745.25 244.279  26
  -3   9  -4 17675.1 464.910   2
  -3   9  -4 17105.0 492.175  37
  -3   9  -4 16094.5 473.118  36
  -3   9  -4 16677.0 469.073  34
  -3   9  -4 17519.8 486.072  27
  -3   9  -3 4564.12 246.094   2
  -3   9  -3 4241.89 248.420  37
  -3   9  -3 4145.84 238.518  36
  -3   9  -3 4625.02 258.249  27
  -3   9  -3 4938.07 272.271  34
  -3   9  -2 1325.19 148.221  37
  -3   9  -2 1504.70 149.724   2
  -3   9  -2 1278.80 137.597  36
  -3   9  -2 1437.42 156.462  34
  -3   9  -2 1547.27 154.981  27
  -3   9  -1 2550.03 197.226  37
  -3   9  -1 2591.50 191.722   2
  -3   9  -1 2562.77 203.376  27
  -3   9  -1 2771.00 212.522  34
  -3   9   0 6054.88 311.981  34
  -3   9   0 5897.73 291.783   2
  -3   9   0 5644.81 279.395  37
  -3   9   0 6563.59 313.084  27
  -3   9   0 5977.11 275.588  33
  -3   9   1 3987.66 226.303  33
  -3   9   1 3998.24 231.522   2
  -3   9   1 4093.99 253.349  34
  -3   9   1 4089.10 239.544  27
  -3   9   2 25954.5 595.314   2
  -3   9   2 26765.1 605.518  33
  -3   9   2 25957.2 643.966  34
  -3   9   2 25390.1 598.735  27
  -3   9   3 7689.69 307.623  34
  -3   9   3 8143.94 297.579  33
  -3   9   4 11252.4 322.399  34
  -3   9   4 14945.1 380.829  33
  -3   9   5 963.978 86.7307  33
  -3  10  -4 4937.65 192.424  37
  -3  10  -3 4973.87 196.147   2
  -3  10  -3 4663.25 202.431  37
  -3  10  -3 5037.35 205.718  27
  -3  10  -2 12190.8 345.947  37
  -3  10  -2 12844.7 360.036  27
  -3  10  -2 12812.2 347.813   2
  -3  10  -2 13416.1 373.513  34
  -3  10  -1 2766.12 157.761   2
  -3  10  -1 3114.93 179.920  34
  -3  10  -1 3029.57 169.465  27
  -3  10   0 5866.06 231.051   2
  -3  10   0 6048.90 239.133  27
  -3  10   0 6100.83 253.799  34
  -3  10   1 9480.67 307.160  34
  -3  10   1 9024.29 276.444  27
  -3  10   1 8655.39 269.395   2
  -3  10   2 8278.02 248.909  33
  -3  10   2 8420.27 267.716  34
  -2 -11  -6 2943.91 146.106  40
  -2 -11  -6 2426.74 153.897  25
  -2 -11  -5 2621.60 156.196  40
  -2 -11  -5 2716.68 188.354  25
  -2 -11  -4 633.436 94.2773  40
  -2 -11  -4 600.887 109.932  25
  -2 -11  -3 6497.82 323.486  25
  -2 -11  -3 5974.43 273.314  40
  -2 -11  -2 219.879 79.0478  40
  -2 -11  -2 275.991 70.2155  45
  -2 -11  -2 316.929 108.192  25
  -2 -11  -2 307.749 69.4222   4
  -2 -11  -2 309.361 74.9856  43
  -2 -11  -1 12229.3 418.400  45
  -2 -11  -1 13684.0 365.135   4
  -2 -11  -1 13783.4 448.525  40
  -2 -11  -1 13054.2 487.118  25
  -2 -11  -1 13368.3 431.857  43
  -2 -11   0 6444.07 300.739  45
  -2 -11   0 6936.46 248.056   4
  -2 -11   0 6847.54 309.389  43
  -2 -11   1 2156.51 138.419   4
  -2 -11   1 1838.35 165.473  43
  -2 -11   2 787.284 133.130  50
  -2 -11   2 7316.65 302.717  43
  -2 -11   3 436.350 110.683  50
  -2 -11   4 381.310 78.7735  50
  -2 -10  -8 1163.55 88.6047  40
  -2 -10  -8 201.768 63.7509  25
  -2 -10  -6 374.734 81.0052  40
  -2 -10  -6 354.357 68.7951  48
  -2 -10  -6 282.211 118.100  25
  -2 -10  -5 2485.69 185.802  40
  -2 -10  -4 49.1779 68.2342  40
  -2 -10  -4 6.63567 47.9952   4
  -2 -10  -4 39.8686 63.8500  48
  -2 -10  -4 165.355 105.031  25
  -2 -10  -4 66.2560 55.1055  45
  -2 -10  -3 3821.75 250.347  40
  -2 -10  -3 4092.13 204.515   4
  -2 -10  -3 4117.71 312.169  25
  -2 -10  -3 3920.43 256.684  45
  -2 -10  -3 3835.06 251.924  43
  -2 -10  -2 14048.3 436.342   4
  -2 -10  -2 14966.4 517.510  40
  -2 -10  -2 14619.5 521.223  43
  -2 -10  -2 13767.8 509.354  45
  -2 -10  -1 20155.1 624.367  40
  -2 -10  -1 19560.2 629.243  43
  -2 -10  -1 19388.7 626.899  45
  -2 -10   0 3879.15 276.697  40
  -2 -10   0 3847.37 313.029  25
  -2 -10   0 3906.32 281.352  43
  -2 -10   0 4365.15 299.215  45
  -2 -10   1 16076.6 567.875  40
  -2 -10   1 16920.9 644.096  25
  -2 -10   1 16651.7 580.179  43
  -2 -10   1 17284.8 590.396  45
  -2 -10   2 19213.9 629.121  43
  -2 -10   2 17428.1 660.966  25
  -2 -10   3 326.490 70.6679   4
  -2 -10   3 55.4916 96.0700  50
  -2 -10   3 146.732 89.7715  43
  -2 -10   3 94.6465 96.6775  25
  -2 -10   5 1080.43 142.391  50
  -2 -10   5 406.290 100.491  25
  -2 -10   6 109.972 62.3710  50
  -2  -9  -9 6268.64 222.800  40
  -2  -9  -8 2000.09 150.995  40
  -2  -9  -8 1834.02 134.076  48
  -2  -9  -7 13777.9 436.919  40
  -2  -9  -7 14016.7 429.272  48
  -2  -9  -6 1346.96 150.245  40
  -2  -9  -6 972.922 144.233  41
  -2  -9  -6 1203.44 140.569  48
  -2  -9  -6 893.110 270.222  24
  -2  -9  -5 5609.61 307.356  40
  -2  -9  -5 5979.58 327.004  41
  -2  -9  -5 5837.27 309.259  48
  -2  -9  -5 5318.13 656.546  24
  -2  -9  -5 5277.70 296.206  45
  -2  -9  -4 46964.3 987.550  40
  -2  -9  -4 46753.0 1013.43  45
  -2  -9  -4 47799.1 2018.14  24
  -2  -9  -3 23602.5 702.566  43
  -2  -9  -3 24645.0 720.606  45
  -2  -9  -3 23576.2 683.518  48
  -2  -9  -3 23623.0 678.066  40
  -2  -9  -2 38156.2 930.717  40
  -2  -9  -2 46427.8 1128.51  25
  -2  -9  -2 44546.1 874.042   4
  -2  -9  -2 40676.2 1000.06  45
  -2  -9  -2 44390.1 998.609  48
  -2  -9  -2 43003.0 1024.64  43
  -2  -9  -1 1832.83 204.344  40
  -2  -9  -1 1984.27 188.423   4
  -2  -9  -1 1820.79 209.371  45
  -2  -9  -1 1694.12 201.136  43
  -2  -9  -1 1629.75 223.965  25
  -2  -9   0 36391.6 962.182  43
  -2  -9   0 36388.2 927.805  40
  -2  -9   0 36275.3 965.087  45
  -2  -9   0 39774.5 1082.82  25
  -2  -9   0 38780.9 797.604   4
  -2  -9   1 299.469 112.411  40
  -2  -9   1 328.180 114.381  45
  -2  -9   1 387.164 133.356  25
  -2  -9   1 312.184 126.733   4
  -2  -9   1 444.320 125.842  43
  -2  -9   2 13.2238 95.3286  40
  -2  -9   2 21.2951 80.6393  45
  -2  -9   2-45.0081 113.332  25
  -2  -9   2 20.0575 86.5250  43
  -2  -9   3 3561.38 332.707  25
  -2  -9   3 4316.71 323.668  43
  -2  -9   4 2751.25 218.770  28
  -2  -9   4 3124.91 293.963  25
  -2  -9   5 1058.64 202.024  50
  -2  -9   5 1170.45 177.726  25
  -2  -9   7 20380.1 536.440  50
  -2  -8 -10 4725.96 189.798  40
  -2  -8 -10 3389.92 148.333  48
  -2  -8  -9 8419.56 301.169  48
  -2  -8  -9 9185.10 319.563  40
  -2  -8  -9 9239.20 320.978  41
  -2  -8  -8 12454.5 413.718  48
  -2  -8  -8 13336.9 432.203  40
  -2  -8  -8 12888.4 427.759  41
  -2  -8  -7 9388.78 395.636  40
  -2  -8  -7 9227.32 382.127  48
  -2  -8  -7 9148.69 383.402  41
  -2  -8  -7 9035.51 823.641  24
  -2  -8  -6 19619.8 601.112  40
  -2  -8  -6 19346.9 589.655  48
  -2  -8  -6 19245.6 1227.20  24
  -2  -8  -6 18904.7 1229.50  16
  -2  -8  -6 19789.4 605.709  41
  -2  -8  -5 48.1106 75.7731  41
  -2  -8  -5 82.7503 84.5717  40
  -2  -8  -5-80.1190 146.922  16
  -2  -8  -5 60.7826 75.0154  48
  -2  -8  -5-86.0957 185.878  24
  -2  -8  -4 1787.25 188.812  40
  -2  -8  -4 1907.79 203.696  41
  -2  -8  -4 1952.44 197.821  45
  -2  -8  -4 2312.08 189.777   4
  -2  -8  -4 1890.32 192.721  48
  -2  -8  -4 1844.66 387.213  16
  -2  -8  -4 2052.90 428.022  24
  -2  -8  -3 3381.31 256.725  40
  -2  -8  -3 3033.61 501.610   1
  -2  -8  -3 3258.53 259.904  45
  -2  -8  -3 3588.19 260.427  48
  -2  -8  -3 3126.72 503.731  24
  -2  -8  -3 3229.75 263.814  43
  -2  -8  -2 7953.55 806.061   1
  -2  -8  -2 8628.65 405.965  48
  -2  -8  -2 8176.51 817.792  24
  -2  -8  -2 7970.81 416.205  45
  -2  -8  -2 8021.95 396.077  40
  -2  -8  -2 7678.95 410.782  43
  -2  -8  -1 5484.08 663.687   1
  -2  -8  -1 5711.93 338.085  48
  -2  -8  -1 6156.17 397.005  25
  -2  -8  -1 5406.74 352.099  45
  -2  -8  -1 5129.20 325.119  40
  -2  -8  -1 5364.73 346.801  43
  -2  -8   0 18700.9 637.713  40
  -2  -8   0 20887.5 715.892  45
  -2  -8   0 20099.4 1268.79   1
  -2  -8   0 19562.5 686.271  43
  -2  -8   1 2954.83 257.949  40
  -2  -8   1 3071.53 275.461  43
  -2  -8   1 3219.82 300.943  25
  -2  -8   1 3095.16 279.222  45
  -2  -8   1 2679.12 478.083   1
  -2  -8   2 46969.7 912.204   4
  -2  -8   2 49210.7 1171.62  45
  -2  -8   2 45178.9 1210.31  25
  -2  -8   2 45586.5 1119.26  43
  -2  -8   3 16826.5 495.394   4
  -2  -8   3 17925.5 686.337  45
  -2  -8   3 16106.7 704.431  25
  -2  -8   3 15887.8 633.661  43
  -2  -8   4 6696.65 371.551  28
  -2  -8   4 6376.59 458.978  25
  -2  -8   4 7027.61 410.645  43
  -2  -8   5 466.539 155.660  50
  -2  -8   5 449.187 150.123  25
  -2  -8   5 535.985 127.552  28
  -2  -8   6 4041.48 335.848  25
  -2  -8   7 15015.1 429.676  51
  -2  -8   8 969.439 97.4219  51
  -2  -8   8 1225.42 143.719  50
  -2  -7 -11 603.874 72.0845  40
  -2  -7 -11 373.239 54.9549  48
  -2  -7 -10 1247.23 118.671  40
  -2  -7 -10 1285.87 122.508  48
  -2  -7 -10 1278.73 121.088  41
  -2  -7  -9 7815.61 326.792  40
  -2  -7  -9 8064.56 340.902  41
  -2  -7  -9 8466.02 339.367  48
  -2  -7  -8 850.591 134.258  41
  -2  -7  -8 1075.08 140.160  40
  -2  -7  -8 532.949 231.885  16
  -2  -7  -8 946.350 131.395  48
  -2  -7  -8 1261.10 316.335  24
  -2  -7  -7 55044.1 1086.38  40
  -2  -7  -7 56840.4 2205.56  65
  -2  -7  -7 56161.4 1113.86  41
  -2  -7  -7 56480.5 2096.35  24
  -2  -7  -7 57139.6 1116.26  48
  -2  -7  -7 55906.1 2113.24  16
  -2  -7  -6 22423.0 656.991  40
  -2  -7  -6 23922.0 1346.36  16
  -2  -7  -6 22468.3 1333.81  65
  -2  -7  -6 24170.6 1342.28  24
  -2  -7  -6 24072.7 676.234  48
  -2  -7  -6 23956.4 679.138  41
  -2  -7  -5 2036.65 356.960  58
  -2  -7  -5 2586.73 214.521  41
  -2  -7  -5 2405.67 430.359  24
  -2  -7  -5 1716.26 323.105  60
  -2  -7  -5 1953.73 345.953  61
  -2  -7  -5 2014.56 346.538  59
  -2  -7  -5 1947.14 354.962  52
  -2  -7  -5 2352.42 209.453  40
  -2  -7  -5 1988.00 344.261  53
  -2  -7  -5 2292.03 419.183  16
  -2  -7  -5 2680.12 219.122  48
  -2  -7  -4 9274.96 799.339  16
  -2  -7  -4 7755.93 634.183  59
  -2  -7  -4 7452.84 623.685  58
  -2  -7  -4 6979.32 617.385  52
  -2  -7  -4 7812.41 637.268  60
  -2  -7  -4 10024.9 427.203  40
  -2  -7  -4 6920.77 609.005  53
  -2  -7  -4 9378.04 410.281  41
  -2  -7  -4 9157.38 406.237  48
  -2  -7  -4 8828.78 783.856  24
  -2  -7  -4 7077.75 605.767  61
  -2  -7  -3 5800.41 317.859  40
  -2  -7  -3 5209.58 581.474   1
  -2  -7  -3 4940.93 484.202  60
  -2  -7  -3 5053.34 484.576  59
  -2  -7  -3 4730.79 482.580  52
  -2  -7  -3 5232.35 308.862  41
  -2  -7  -3 4763.86 471.319  53
  -2  -7  -3 4735.59 476.035  58
  -2  -7  -3 5288.95 310.677  48
  -2  -7  -3 5927.00 639.926  24
  -2  -7  -3 5839.61 619.932  16
  -2  -7  -3 4870.07 478.316  61
  -2  -7  -2 9386.82 418.026  40
  -2  -7  -2 10734.4 828.967   1
  -2  -7  -2 9830.53 421.099  48
  -2  -7  -2 10461.9 850.449  24
  -2  -7  -2 10140.5 429.617  41
  -2  -7  -1 9204.07 755.802   1
  -2  -7  -1 9383.57 824.940  24
  -2  -7   0 518.482 210.540   1
  -2  -7   1 5267.40 350.737  43
  -2  -7   1 5157.39 331.496  40
  -2  -7   2 2872.57 256.626  40
  -2  -7   2 2805.39 450.945   1
  -2  -7   2 3151.77 305.007  25
  -2  -7   2 2898.43 269.904  45
  -2  -7   2 2714.08 259.221  43
  -2  -7   3 18788.2 646.997  28
  -2  -7   3 18985.5 1205.08   1
  -2  -7   3 21325.6 823.118  25
  -2  -7   3 21111.5 731.639  43
  -2  -7   4 248.754 100.013  39
  -2  -7   4 221.576 111.281  43
  -2  -7   4 233.647 127.589  25
  -2  -7   4 223.347 87.0506  28
  -2  -7   5 43612.9 948.368  51
  -2  -7   5 43842.8 1222.76  25
  -2  -7   6 754.959 129.590  51
  -2  -7   6 622.581 173.626  50
  -2  -7   6 612.863 161.206  25
  -2  -7   6 720.406 143.435  28
  -2  -7   7 3066.92 219.595  51
  -2  -7   7 2663.09 285.457  25
  -2  -7   8 3347.08 253.298  50
  -2  -7   8 3106.03 279.097  25
  -2  -7   9 319.381 91.3965  50
  -2  -7   9 433.583 83.5294  51
  -2  -6 -11 2337.87 149.387  40
  -2  -6 -11 2390.97 157.376  48
  -2  -6 -11 2281.51 150.070  41
  -2  -6 -10 1616.83 149.321  40
  -2  -6 -10 1622.48 155.632  41
  -2  -6 -10 1627.55 157.769  48
  -2  -6  -9 16512.3 533.826  48
  -2  -6  -9 14663.4 1013.74  24
  -2  -6  -8 3631.71 256.974  41
  -2  -6  -8 4574.09 289.691  48
  -2  -6  -8 3972.82 555.769  16
  -2  -6  -8 3942.11 261.790  40
  -2  -6  -8 3760.07 532.266  24
  -2  -6  -8 3706.72 558.600  65
  -2  -6  -7 11485.1 455.131  40
  -2  -6  -7 13027.9 496.810  48
  -2  -6  -7 12477.1 952.160  24
  -2  -6  -7 11661.4 467.324  41
  -2  -6  -7 11775.5 961.416  65
  -2  -6  -7 11293.1 903.926  16
  -2  -6  -6 8766.24 799.242  65
  -2  -6  -6 5034.58 302.018  40
  -2  -6  -6 7968.97 379.647  41
  -2  -6  -6 7135.10 636.995  60
  -2  -6  -6 7331.71 641.256  61
  -2  -6  -6 7156.28 640.797  58
  -2  -6  -6 7079.00 640.763  53
  -2  -6  -6 8008.55 740.196  16
  -2  -6  -6 6654.10 615.311  59
  -2  -6  -6 8355.75 396.726  48
  -2  -6  -6 8462.61 747.574  24
  -2  -6  -5 3562.03 251.881  41
  -2  -6  -5 3162.81 405.867  59
  -2  -6  -5 3507.72 421.826  60
  -2  -6  -5 3600.90 478.267  16
  -2  -6  -5 3452.31 420.110  58
  -2  -6  -5 2452.21 400.290  11
  -2  -6  -5 3491.53 427.332  53
  -2  -6  -5 3512.35 423.070  61
  -2  -6  -5 3548.86 251.326  48
  -2  -6  -5 3479.24 478.526  24
  -2  -6  -5 3437.85 243.360  40
  -2  -6  -5 3584.44 498.621  65
  -2  -6  -4 48897.6 1671.98   1
  -2  -6  -4 53886.5 1599.69  61
  -2  -6  -4 52229.1 1573.78  58
  -2  -6  -4 52550.1 1575.26  59
  -2  -6  -4 52950.5 1583.22  53
  -2  -6  -4 55153.8 1818.79  16
  -2  -6  -4 51877.4 1804.05  65
  -2  -6  -4 52942.5 1581.84  60
  -2  -6  -4 53723.7 1836.78  24
  -2  -6  -3 3695.06 370.157  53
  -2  -6  -3 3989.77 389.329  58
  -2  -6  -3 3752.61 453.694  16
  -2  -6  -3 3699.62 374.794  59
  -2  -6  -3 3797.26 382.262  60
  -2  -6  -3 3646.88 371.838  61
  -2  -6  -3 3775.24 469.658  24
  -2  -6  -2 9832.81 575.878  58
  -2  -6  -2 9398.87 557.369  60
  -2  -6  -2 9921.72 576.475  61
  -2  -6  -2 9120.43 562.350  52
  -2  -6  -2 9329.44 680.187   1
  -2  -6  -2 10393.5 586.916  53
  -2  -6  -2 8631.38 693.528  24
  -2  -6  -2 9211.03 695.530  16
  -2  -6  -2 9444.48 557.605  59
  -2  -6  -1 23870.6 1086.46   1
  -2  -6  -1 22792.7 1115.46  21
  -2  -6  -1 22981.4 1149.24  24
  -2  -6   0 19682.1 1003.79   1
  -2  -6   0 20027.9 1087.53  21
  -2  -6   1 37096.1 1417.54   1
  -2  -6   2 6687.33 611.220   1
  -2  -6   3 15377.8 973.829   1
  -2  -6   4 8860.16 408.932  51
  -2  -6   4 9093.28 526.006  25
  -2  -6   4 7778.35 410.375  28
  -2  -6   4 8296.55 449.362  43
  -2  -6   5 8995.97 446.783  28
  -2  -6   5 10925.2 559.055  50
  -2  -6   5 10246.6 450.721  51
  -2  -6   5 10409.4 579.567  25
  -2  -6   6 12678.1 499.045  51
  -2  -6   6 12740.2 648.776  25
  -2  -6   6 12791.4 602.668  50
  -2  -6   6 12162.7 511.580  28
  -2  -6   6 12221.2 449.395  42
  -2  -6   7 65961.6 1540.61  25
  -2  -6   7 64470.3 1398.48  50
  -2  -6   7 62163.4 1181.77  51
  -2  -6   8 1210.87 184.285  50
  -2  -6   8 1054.07 144.127  51
  -2  -6   8 819.898 117.939  42
  -2  -6   8 1047.58 230.141  25
  -2  -6  10 2620.98 152.283  51
  -2  -5 -12 809.302 79.0317  40
  -2  -5 -12 912.553 90.3812  48
  -2  -5 -12 695.063 79.6973  41
  -2  -5 -11 3379.06 195.633  40
  -2  -5 -11 3925.49 224.254  48
  -2  -5 -10 3146.42 220.363  40
  -2  -5 -10 3204.38 466.638  24
  -2  -5 -10 3577.62 236.728  41
  -2  -5  -9 59999.2 2287.06  65
  -2  -5  -9 57477.6 1117.72  40
  -2  -5  -9 58367.9 1160.78  48
  -2  -5  -9 58602.4 1141.68  41
  -2  -5  -8 83291.0 2517.34  24
  -2  -5  -8 74352.6 1352.15  41
  -2  -5  -8 78220.4 1366.46  40
  -2  -5  -8 74481.5 1370.30  48
  -2  -5  -8 79376.2 2606.76  65
  -2  -5  -7 4698.14 537.109  60
  -2  -5  -7 5088.52 311.034  40
  -2  -5  -7 5381.31 636.410  65
  -2  -5  -7 5265.62 567.798  59
  -2  -5  -7 5610.07 320.936  41
  -2  -5  -7 4547.88 558.531  16
  -2  -5  -7 4791.62 539.129  53
  -2  -5  -7 5228.93 316.387  48
  -2  -5  -7 5686.59 612.970  24
  -2  -5  -7 4446.69 526.836  61
  -2  -5  -7 4925.99 545.523  58
  -2  -5  -6 11368.9 834.718  24
  -2  -5  -6 8844.06 696.735  11
  -2  -5  -6 9498.24 699.221  58
  -2  -5  -6 9671.67 715.151  60
  -2  -5  -6 9769.24 792.519  65
  -2  -5  -6 8658.94 676.175  53
  -2  -5  -6 9593.02 714.514  61
  -2  -5  -6 9128.99 690.849  59
  -2  -5  -6 10300.8 794.097  16
  -2  -5  -5 24253.5 1063.16  61
  -2  -5  -5 25413.2 1110.40  11
  -2  -5  -5 25594.2 1067.92  58
  -2  -5  -5 24122.7 1044.99  60
  -2  -5  -5 24713.0 1053.89  59
  -2  -5  -5 26803.0 1238.51  65
  -2  -5  -5 24156.8 1051.83  53
  -2  -5  -5 28475.7 1253.19  24
  -2  -5  -5 27382.4 1214.54  16
  -2  -5  -4 4019.53 383.524  60
  -2  -5  -4 3465.86 392.483  11
  -2  -5  -4 4014.56 450.516  16
  -2  -5  -4 3528.78 362.707  61
  -2  -5  -4 3510.35 360.416  59
  -2  -5  -4 3612.84 366.062  53
  -2  -5  -4 3980.09 380.482  58
  -2  -5  -4 3789.97 432.555  24
  -2  -5  -4 3168.70 405.481  65
  -2  -5  -3 9901.61 667.436  65
  -2  -5  -3 9183.65 600.216   1
  -2  -5  -3 9494.87 541.874  59
  -2  -5  -3 9674.45 550.263  61
  -2  -5  -3 9199.75 539.202  58
  -2  -5  -3 9622.79 543.542  60
  -2  -5  -3 9438.04 661.973  24
  -2  -5  -3 8734.08 526.958  53
  -2  -5  -3 10095.3 667.550  16
  -2  -5  -2 3964.63 325.433  53
  -2  -5  -2 4301.57 329.621  61
  -2  -5  -2 4794.87 351.385  58
  -2  -5  -2 4068.54 325.032  59
  -2  -5  -2 4316.58 430.629  16
  -2  -5  -2 4325.68 334.441  60
  -2  -5  -2 4012.94 437.828  24
  -2  -5  -2 4275.57 407.003   1
  -2  -5  -1 5780.58 359.848  53
  -2  -5  -1 4796.43 455.115  21
  -2  -5  -1 6335.40 375.496  58
  -2  -5  -1 5805.55 359.848  60
  -2  -5  -1 5684.83 496.363  16
  -2  -5  -1 5223.13 341.432  59
  -2  -5  -1 5896.33 366.242  52
  -2  -5  -1 5338.98 347.088  61
  -2  -5  -1 5451.58 498.754  24
  -2  -5  -1 5584.27 465.572   1
  -2  -5   0 477.988 175.614  21
  -2  -5   0 709.491 183.005   1
  -2  -5   1 54585.8 1543.04   1
  -2  -5   2 14142.5 692.244   9
  -2  -5   2 12364.3 723.457   1
  -2  -5   2 11755.3 696.339  56
  -2  -5   3 5386.12 490.449   1
  -2  -5   3 5240.84 496.451  56
  -2  -5   3 5504.92 483.805   9
  -2  -5   4 6495.58 584.331   9
  -2  -5   4 5520.37 533.343  56
  -2  -5   5 12669.5 903.513   9
  -2  -5   5 11350.9 484.393  28
  -2  -5   5 12441.2 485.068  51
  -2  -5   5 12936.9 594.978  50
  -2  -5   5 11403.1 600.833  25
  -2  -5   6 9794.76 563.698  38
  -2  -5   6 6804.06 477.695  25
  -2  -5   6 9527.91 425.899  51
  -2  -5   6 8080.76 419.981  28
  -2  -5   6 7865.95 769.205   9
  -2  -5   6 9073.90 496.956  50
  -2  -5   6 8489.04 379.628  42
  -2  -5   7 1461.61 212.943  50
  -2  -5   7 1964.05 200.199  51
  -2  -5   7 1966.66 279.679  25
  -2  -5   7 1715.44 182.140  42
  -2  -5   8 1726.09 218.976  50
  -2  -5   8 1542.79 266.232  25
  -2  -5   8 1632.85 179.489  51
  -2  -5   9 6207.76 300.279  51
  -2  -5  10 49.2125 72.6375  50
  -2  -5  10 210.485 75.0911  51
  -2  -5  11 652.816 78.9852  50
  -2  -5  11 3454.39 147.820  51
  -2  -4 -12 5807.22 225.422  40
  -2  -4 -12 5938.07 246.501  41
  -2  -4 -11 1283.32 135.506  40
  -2  -4 -11 1489.65 157.409  48
  -2  -4 -11 1385.08 148.919  41
  -2  -4 -10 1002.06 310.089  16
  -2  -4 -10 1319.16 151.973  40
  -2  -4 -10 1431.81 171.779  48
  -2  -4 -10 1223.37 315.928  24
  -2  -4 -10 1423.00 170.075  41
  -2  -4  -9 22856.7 659.389  40
  -2  -4  -9 22921.5 1406.97  65
  -2  -4  -9 23677.0 1313.51  24
  -2  -4  -9 20532.7 1239.07  17
  -2  -4  -9 24905.8 1384.60  16
  -2  -4  -9 22897.7 686.499  48
  -2  -4  -8 8.92376 123.485  61
  -2  -4  -8 150.440 185.985  65
  -2  -4  -8 43.0732 131.176  60
  -2  -4  -8 77.5849 98.8248  59
  -2  -4  -8 128.134 142.357  58
  -2  -4  -8 272.084 195.468  24
  -2  -4  -8 93.9246 152.459  17
  -2  -4  -8-8.23503 99.0354  53
  -2  -4  -8 92.9832 123.520  16
  -2  -4  -8 89.1555 86.4018  48
  -2  -4  -8 22.1014 65.6816  40
  -2  -4  -8 15.8691 73.0713  41
  -2  -4  -7 33028.3 1456.64  17
  -2  -4  -7 28947.4 1298.01  53
  -2  -4  -7 27251.8 1267.10  11
  -2  -4  -7 30298.1 1350.48  61
  -2  -4  -7 30458.5 1310.39  58
  -2  -4  -7 30841.8 1328.62  60
  -2  -4  -7 31948.6 1437.88  16
  -2  -4  -7 27598.1 761.254  48
  -2  -4  -7 33702.8 1469.35  24
  -2  -4  -7 31571.8 1337.82  59
  -2  -4  -7 32445.0 1514.13  65
  -2  -4  -6 17488.3 914.591  11
  -2  -4  -6 17525.3 924.783  60
  -2  -4  -6 17816.4 982.721  17
  -2  -4  -6 15528.9 887.692  61
  -2  -4  -6 16794.6 904.572  59
  -2  -4  -6 18509.3 1061.11  65
  -2  -4  -6 16661.4 894.392  58
  -2  -4  -6 16232.2 953.115  16
  -2  -4  -6 17999.8 1001.15  24
  -2  -4  -5 10984.9 726.632  16
  -2  -4  -5 10792.1 675.641  61
  -2  -4  -5 11889.3 674.113  11
  -2  -4  -5 11039.6 665.478  59
  -2  -4  -5 11533.1 740.660  17
  -2  -4  -5 11524.4 743.829  24
  -2  -4  -5 12096.0 790.825  65
  -2  -4  -5 11286.5 666.370  58
  -2  -4  -5 11559.1 683.362  60
  -2  -4  -4 1639.04 241.951  11
  -2  -4  -4 1865.21 257.225  60
  -2  -4  -4 1734.10 297.058  24
  -2  -4  -4 1743.40 291.722  65
  -2  -4  -4 1768.29 249.328  58
  -2  -4  -4 1931.90 258.294  59
  -2  -4  -4 1778.21 263.522  61
  -2  -4  -4 1478.10 225.657   1
  -2  -4  -4 1345.98 244.145  16
  -2  -4  -4 1914.71 292.588  17
  -2  -4  -3 17693.2 809.385  24
  -2  -4  -3 15724.0 647.684  59
  -2  -4  -3 15892.0 686.626  11
  -2  -4  -3 15953.9 776.770  65
  -2  -4  -3 15711.1 647.639  58
  -2  -4  -3 15776.0 664.324  61
  -2  -4  -3 15027.2 742.376  16
  -2  -4  -3 15025.6 632.926  60
  -2  -4  -3 14222.1 627.538  53
  -2  -4  -2 21231.2 674.311  60
  -2  -4  -2 21590.2 684.045  61
  -2  -4  -2 20065.2 657.847  59
  -2  -4  -2 21281.2 682.905  53
  -2  -4  -2 20941.6 837.071  16
  -2  -4  -2 19333.0 786.864   1
  -2  -4  -2 21086.7 867.373  24
  -2  -4  -2 22680.9 697.107  58
  -2  -4  -2 21259.8 853.960  65
  -2  -4  -1 6229.91 446.813  21
  -2  -4  -1 8260.04 368.633  59
  -2  -4  -1 8758.45 380.522  61
  -2  -4  -1 9340.63 393.869  58
  -2  -4  -1 7873.57 362.918  60
  -2  -4  -1 8291.10 378.207  53
  -2  -4  -1 7460.04 491.133  16
  -2  -4  -1 7518.98 516.199  24
  -2  -4  -1 7485.09 474.320   1
  -2  -4   0 31096.6 704.726  52
  -2  -4   0 28418.1 672.663  59
  -2  -4   0 24275.8 636.807  61
  -2  -4   0 30161.9 687.145  58
  -2  -4   0 30735.8 691.064  53
  -2  -4   0 35070.1 898.945   9
  -2  -4   0 25670.4 649.685  60
  -2  -4   0 33260.4 1010.64   1
  -2  -4   1 287979. 3695.07   9
  -2  -4   1 271207. 3897.28   1
  -2  -4   2 7519.53 478.562   9
  -2  -4   2 7308.80 488.862  56
  -2  -4   2 7053.46 479.823   1
  -2  -4   3 2076.60 280.875  56
  -2  -4   3 1826.21 254.071   1
  -2  -4   3 2035.95 286.197   9
  -2  -4   4 4357.08 461.936   9
  -2  -4   4 3485.72 398.605  56
  -2  -4   5 5369.40 535.579  56
  -2  -4   5 6973.07 639.288   9
  -2  -4   6 4634.25 288.856  51
  -2  -4   6 5124.93 599.821   9
  -2  -4   6 5324.19 415.089  25
  -2  -4   6 4436.54 267.709  42
  -2  -4   6 4686.20 356.276  50
  -2  -4   6 4260.04 293.302  28
  -2  -4   7 217.788 93.0462  51
  -2  -4   7 67.7577 52.7680  32
  -2  -4   7 232.609 169.818  25
  -2  -4   7 105.069 114.037  50
  -2  -4   7 82.1765 74.7179  42
  -2  -4   8 37765.5 877.827  51
  -2  -4   8 38776.5 788.915  32
  -2  -4   9 29375.6 630.872  32
  -2  -4   9 27941.3 708.917  51
  -2  -4  11 2690.58 152.272  51
  -2  -4  11 732.214 103.739  50
  -2  -3 -13 356.340 54.7863  41
  -2  -3 -13 625.119 75.2380  48
  -2  -3 -12 121.614 62.5782  41
  -2  -3 -12 121.069 53.9029  40
  -2  -3 -12 87.6694 63.0148  48
  -2  -3 -11 13954.6 451.850  40
  -2  -3 -11 15182.3 504.651  48
  -2  -3 -10 1017.63 139.282  40
  -2  -3 -10 995.803 328.608  65
  -2  -3 -10 1325.85 165.779  41
  -2  -3 -10 848.285 276.890  24
  -2  -3 -10 1133.34 164.336  48
  -2  -3 -10 819.121 279.895  16
  -2  -3  -9 57324.3 1153.38  40
  -2  -3  -9 58753.0 2110.10  24
  -2  -3  -9 61800.0 2361.53  65
  -2  -3  -9 61008.1 2253.85  17
  -2  -3  -9 57917.3 1207.07  48
  -2  -3  -9 61033.2 2182.12  16
  -2  -3  -9 58158.0 1198.76  41
  -2  -3  -8 13007.8 511.151  40
  -2  -3  -8 12748.1 914.796  11
  -2  -3  -8 15135.8 981.773  59
  -2  -3  -8 15247.5 1020.55  16
  -2  -3  -8 15205.2 1028.31  61
  -2  -3  -8 15581.8 1003.59  60
  -2  -3  -8 16610.2 1105.75  17
  -2  -3  -8 15412.1 991.530  58
  -2  -3  -8 15633.9 1032.38  24
  -2  -3  -8 16701.7 1146.34  65
  -2  -3  -8 14967.3 557.406  48
  -2  -3  -8 15006.4 560.104  41
  -2  -3  -7 47699.6 1662.30  60
  -2  -3  -7 48674.5 1684.04  58
  -2  -3  -7 50300.4 1819.94  17
  -2  -3  -7 52555.5 1800.33  24
  -2  -3  -7 48500.5 1666.59  59
  -2  -3  -7 49944.4 1747.50  16
  -2  -3  -7 49749.7 1680.17  11
  -2  -3  -7 46783.4 1693.16  61
  -2  -3  -6 12775.2 783.057  60
  -2  -3  -6 13756.9 830.372  16
  -2  -3  -6 10838.7 787.894  65
  -2  -3  -6 12655.7 807.014  61
  -2  -3  -6 13488.4 767.066  11
  -2  -3  -6 12810.2 772.548  58
  -2  -3  -6 13523.4 831.834  24
  -2  -3  -6 12698.3 771.176  59
  -2  -3  -6 12846.2 844.067  17
  -2  -3  -5 18312.1 940.501  65
  -2  -3  -5 18850.0 896.493  61
  -2  -3  -5 19270.5 813.589  11
  -2  -3  -5 18467.1 856.226  60
  -2  -3  -5 18021.7 832.568  59
  -2  -3  -5 19234.2 915.848  24
  -2  -3  -5 16112.8 658.884   1
  -2  -3  -5 17257.9 888.211  17
  -2  -3  -5 18270.6 875.833  16
  -2  -3  -5 19105.2 854.778  58
  -2  -3  -4 137711. 2294.57   1
  -2  -3  -4 149753. 2405.92  11
  -2  -3  -4 132783. 2575.34  24
  -2  -3  -4 142943. 2703.85  65
  -2  -3  -4 139808. 2484.48  60
  -2  -3  -4 142900. 2490.64  59
  -2  -3  -4 139784. 2553.91  61
  -2  -3  -4 149194. 2702.83  17
  -2  -3  -4 144403. 2492.85  58
  -2  -3  -4 153026. 2658.54  16
  -2  -3  -3 25340.2 848.618  61
  -2  -3  -3 27565.2 774.199  11
  -2  -3  -3 26883.6 830.694  59
  -2  -3  -3 26634.8 937.068  17
  -2  -3  -3 27406.3 964.002  65
  -2  -3  -3 26012.4 818.963  58
  -2  -3  -3 23559.5 835.836  16
  -2  -3  -3 26668.0 841.408  60
  -2  -3  -3 23817.0 800.712   1
  -2  -3  -3 26169.5 871.410   3
  -2  -3  -2 47055.1 1036.02  61
  -2  -3  -2 47329.3 1191.66  65
  -2  -3  -2 47372.9 1014.96  60
  -2  -3  -2 44805.8 978.675  59
  -2  -3  -2 46741.5 998.769  58
  -2  -3  -2 50836.7 1199.08   3
  -2  -3  -2 50522.8 1176.90  16
  -2  -3  -2 47542.4 1185.22  17
  -2  -3  -2 45047.8 1095.64   1
  -2  -3  -1 40790.4 794.833  59
  -2  -3  -1 44211.4 1079.56  16
  -2  -3  -1 39266.0 1034.39   3
  -2  -3  -1 39225.7 788.502  60
  -2  -3  -1 38781.2 1006.05   1
  -2  -3  -1 36207.4 781.165  53
  -2  -3  -1 40905.4 801.212  58
  -2  -3  -1 44672.3 840.368  61
  -2  -3   0 26360.6 507.985  58
  -2  -3   0 27893.9 516.611  60
  -2  -3   0 26307.1 516.049  52
  -2  -3   0 25299.6 500.288  61
  -2  -3   0 27874.7 773.384   9
  -2  -3   0 27753.5 844.890   3
  -2  -3   0 30371.6 884.816  56
  -2  -3   0 22916.0 485.680  53
  -2  -3   0 25372.7 801.644   1
  -2  -3   0 27231.2 510.493  59
  -2  -3   1 12381.6 528.300   9
  -2  -3   1 10506.7 513.104  56
  -2  -3   1 11816.0 532.524   1
  -2  -3   1 12049.3 551.736   3
  -2  -3   2 5735.55 397.004   9
  -2  -3   2 6410.89 421.392  56
  -2  -3   2 5237.66 356.627   1
  -2  -3   2 5284.34 374.377   3
  -2  -3   3 40787.7 1091.56   1
  -2  -3   3 44490.8 1273.11   9
  -2  -3   3 42493.8 1233.42  56
  -2  -3   4 42865.0 1386.23   9
  -2  -3   4 36702.6 1260.38  56
  -2  -3   5 43890.6 1563.15   9
  -2  -3   5 41520.2 1477.09  56
  -2  -3   6 20175.0 1136.06   9
  -2  -3   6 18280.2 1067.15  56
  -2  -3   7 15644.5 485.343  32
  -2  -3   7 15915.8 1098.17   9
  -2  -3   7 14909.9 501.165  42
  -2  -3   7 15763.7 542.283  51
  -2  -3   8 26672.2 656.846  32
  -2  -3   8 26009.2 712.778  51
  -2  -3   9 16456.5 533.720  51
  -2  -3   9 15873.8 467.796  32
  -2  -3  10 3794.58 201.323  32
  -2  -3  11 168.060 58.3993  51
  -2  -3  11 98.7780 69.6211  50
  -2  -2 -13 5567.21 220.018  48
  -2  -2 -13 5352.93 208.656  41
  -2  -2 -12 3849.73 200.579  40
  -2  -2 -12 4515.62 247.739  48
  -2  -2 -11 1092.59 142.299  40
  -2  -2 -11 1445.40 175.835  48
  -2  -2 -11 1227.26 167.999  41
  -2  -2 -10 95893.5 1566.24  40
  -2  -2 -10 96338.8 1645.91  41
  -2  -2 -10 96756.7 1648.01  48
  -2  -2 -10 83747.1 2684.23  16
  -2  -2 -10 96715.5 3094.79  65
  -2  -2 -10 86410.4 2844.41  17
  -2  -2 -10 97886.8 2810.80  24
  -2  -2  -9 13872.5 551.105  41
  -2  -2  -9 12723.1 503.953  35
  -2  -2  -9 13403.6 999.147  16
  -2  -2  -9 12608.1 1013.82  61
  -2  -2  -9 13965.9 1029.84  59
  -2  -2  -9 13928.7 1114.48  65
  -2  -2  -9 14352.1 1046.43  58
  -2  -2  -9 13719.5 543.931  48
  -2  -2  -9 13891.4 1032.43  60
  -2  -2  -9 12765.0 504.830  40
  -2  -2  -9 13890.3 1006.40  24
  -2  -2  -9 15794.0 1151.56  17
  -2  -2  -8 14651.2 982.915  11
  -2  -2  -8 15895.3 1024.62  24
  -2  -2  -8 16427.8 1055.16  60
  -2  -2  -8 14770.0 1083.43  65
  -2  -2  -8 14628.1 1040.49  61
  -2  -2  -8 15187.3 574.358  48
  -2  -2  -8 16831.1 1056.11  59
  -2  -2  -8 16496.4 1037.15  16
  -2  -2  -8 15900.3 1033.37  58
  -2  -2  -8 16989.7 1145.03  17
  -2  -2  -8 14958.6 573.861  41
  -2  -2  -7 3276.13 469.151  17
  -2  -2  -7 3855.29 454.777  11
  -2  -2  -7 4071.12 483.684  16
  -2  -2  -7 3562.95 474.583  61
  -2  -2  -7 3972.75 473.958  59
  -2  -2  -7 4093.58 535.102  65
  -2  -2  -7 4535.80 521.792  24
  -2  -2  -7 3940.54 466.903  58
  -2  -2  -7 3960.94 473.194  60
  -2  -2  -6 1484.38 278.462  61
  -2  -2  -6 1595.93 275.611  11
  -2  -2  -6 1713.40 333.987  65
  -2  -2  -6 1538.58 314.832  17
  -2  -2  -6 1721.92 283.429  58
  -2  -2  -6 1974.41 315.782  16
  -2  -2  -6 1489.88 277.005  60
  -2  -2  -6 1464.41 270.220  59
  -2  -2  -6 1671.10 294.625  24
  -2  -2  -5 82043.0 1919.95  58
  -2  -2  -5 92648.7 1850.29  11
  -2  -2  -5 80891.6 2047.21  65
  -2  -2  -5 86902.4 2125.08  17
  -2  -2  -5 78820.4 1902.12  59
  -2  -2  -5 75155.7 1889.88  24
  -2  -2  -5 81032.7 1953.34  60
  -2  -2  -5 78373.5 1960.26  61
  -2  -2  -5 87293.9 1952.76  16
  -2  -2  -4 58564.2 1240.00   3
  -2  -2  -4 54440.5 1386.82  20
  -2  -2  -4 61074.8 1286.75  11
  -2  -2  -4 55812.4 1495.85  65
  -2  -2  -4 53264.6 1388.01  59
  -2  -2  -4 54598.7 1391.22  58
  -2  -2  -4 53952.8 1154.54   1
  -2  -2  -4 56219.6 1393.62  16
  -2  -2  -4 52413.0 1396.12  60
  -2  -2  -4 52273.5 1411.55  61
  -2  -2  -4 49512.2 1441.59  17
  -2  -2  -3 102623. 1843.56  58
  -2  -2  -3 100916. 1844.40  59
  -2  -2  -3 97464.1 1719.67   3
  -2  -2  -3 103454. 1696.95   1
  -2  -2  -3 95094.7 1920.11  17
  -2  -2  -3 98651.6 1899.05  65
  -2  -2  -3 106920. 1836.09  16
  -2  -2  -3 99053.4 1847.85  60
  -2  -2  -3 102708. 1566.61  11
  -2  -2  -3 96545.1 1852.52  61
  -2  -2  -2 42489.1 955.582  59
  -2  -2  -2 45433.4 1050.98  65
  -2  -2  -2 41428.3 928.983  58
  -2  -2  -2 39608.6 928.870  16
  -2  -2  -2 42096.8 986.937   3
  -2  -2  -2 37840.6 929.753   1
  -2  -2  -2 40270.7 941.895  60
  -2  -2  -2 38481.4 953.147  61
  -2  -2  -2 41560.2 1042.33  17
  -2  -2  -1 130680. 1978.97  16
  -2  -2  -1 143929. 2123.91   3
  -2  -2  -1 137372. 1810.79  59
  -2  -2  -1 149351. 2103.30  65
  -2  -2  -1 132696. 1796.30  58
  -2  -2  -1 141573. 2170.70  17
  -2  -2  -1 132189. 1837.98  61
  -2  -2  -1 136353. 1823.86  60
  -2  -2  -1 141625. 2048.49   1
  -2  -2   0 57274.6 696.574  59
  -2  -2   0 58567.1 699.452  60
  -2  -2   0 70632.2 1290.67   3
  -2  -2   0 69930.2 1254.88   1
  -2  -2   0 51928.1 694.101  53
  -2  -2   0 62586.0 1212.47  56
  -2  -2   0 62085.7 707.521  58
  -2  -2   0 57432.7 696.548  61
  -2  -2   0 71025.3 1238.76   9
  -2  -2   1 23815.2 726.406   3
  -2  -2   1 22062.5 684.169   1
  -2  -2   1 24371.0 714.675   9
  -2  -2   1 24621.6 726.136  56
  -2  -2   2 8703.11 468.170  56
  -2  -2   2 8825.76 421.641   1
  -2  -2   2 8561.70 462.507   9
  -2  -2   2 8721.03 429.156   3
  -2  -2   3 11790.9 600.582   9
  -2  -2   3 13108.5 638.931  56
  -2  -2   3 12110.5 516.469   3
  -2  -2   4 74367.8 1801.57   9
  -2  -2   4 70308.5 1750.60  56
  -2  -2   5 55129.4 1686.54   9
  -2  -2   5 56184.8 1701.43  56
  -2  -2   6 2377.71 382.775   9
  -2  -2   6 3222.58 434.284  56
  -2  -2   7 4225.21 253.732  32
  -2  -2   7 3498.04 305.817  50
  -2  -2   7 4326.42 261.813  44
  -2  -2   7 3774.50 515.962  56
  -2  -2   7 4125.19 250.621  42
  -2  -2   7 3830.97 272.169  47
  -2  -2   8 49295.1 1029.90  51
  -2  -2   8 49512.2 996.113  44
  -2  -2   9 11608.1 405.410  32
  -2  -2  10 1242.87 123.280  32
  -2  -2  10 1113.81 154.527  50
  -2  -2  10 1050.68 132.587  51
  -2  -2  11 4599.01 216.106  51
  -2  -1 -13 3600.44 179.049  41
  -2  -1 -13 3460.85 179.480  48
  -2  -1 -12 6614.24 305.966  48
  -2  -1 -12 6987.57 313.185  41
  -2  -1 -11 173.310 98.9824  41
  -2  -1 -11 139.099 71.8625  40
  -2  -1 -11 217.986 105.153  48
  -2  -1 -10 6323.25 699.493  24
  -2  -1 -10 6772.14 814.196  65
  -2  -1 -10 7036.97 367.834  35
  -2  -1 -10 7283.93 828.617  17
  -2  -1 -10 5705.90 673.909  16
  -2  -1 -10 7479.24 407.331  41
  -2  -1 -10 7342.79 397.310  48
  -2  -1  -9 11490.4 955.525  59
  -2  -1  -9 10482.5 456.817  26
  -2  -1  -9 9683.40 863.015  11
  -2  -1  -9 10296.3 471.764  35
  -2  -1  -9 12787.5 543.107  41
  -2  -1  -9 14030.5 1134.34  17
  -2  -1  -9 11591.8 1007.38  61
  -2  -1  -9 12917.4 1020.27  60
  -2  -1  -9 12908.5 1102.72  65
  -2  -1  -9 12317.8 945.597  24
  -2  -1  -9 12058.9 942.146  16
  -2  -1  -9 11991.1 524.233  48
  -2  -1  -9 12814.0 1011.50  58
  -2  -1  -8 5809.85 628.091  11
  -2  -1  -8 5912.11 650.265  60
  -2  -1  -8 6131.87 646.422  24
  -2  -1  -8 6094.53 703.227  65
  -2  -1  -8 6912.89 762.936  17
  -2  -1  -8 6415.86 674.211  58
  -2  -1  -8 5949.95 645.349  59
  -2  -1  -8 6840.67 675.865  16
  -2  -1  -8 6243.32 694.385  61
  -2  -1  -7 5843.45 583.465  58
  -2  -1  -7 6323.17 590.345  11
  -2  -1  -7 5922.75 611.749  61
  -2  -1  -7 6138.16 602.111  59
  -2  -1  -7 5764.48 589.189  60
  -2  -1  -7 5708.17 637.133  65
  -2  -1  -7 6970.95 624.907  16
  -2  -1  -7 6207.27 602.541  24
  -2  -1  -6 6924.63 627.751  65
  -2  -1  -6 6738.46 577.580  59
  -2  -1  -6 6025.27 610.348  17
  -2  -1  -6 8400.82 614.951  20
  -2  -1  -6 6892.59 547.421  11
  -2  -1  -6 7762.06 597.857  16
  -2  -1  -6 6740.04 592.661  60
  -2  -1  -6 6652.54 576.920  58
  -2  -1  -6 6925.03 600.246  24
  -2  -1  -5 4948.62 450.438  59
  -2  -1  -5 5370.42 457.455  20
  -2  -1  -5 4951.98 398.642  11
  -2  -1  -5 5188.61 445.250  16
  -2  -1  -5 4405.42 451.767  65
  -2  -1  -5 4773.46 447.241  60
  -2  -1  -5 4989.30 444.211  58
  -2  -1  -5 4493.62 428.555  24
  -2  -1  -5 4538.08 473.913  17
  -2  -1  -4 153659. 2235.94   3
  -2  -1  -4 135956. 2673.31  17
  -2  -1  -4 156367. 2654.23  20
  -2  -1  -4 146349. 2593.30  59
  -2  -1  -4 142156. 2590.73  60
  -2  -1  -4 155680. 2339.27  11
  -2  -1  -4 150042. 2689.71  65
  -2  -1  -4 139481. 2412.88  16
  -2  -1  -4 148171. 2577.95  58
  -2  -1  -3 9821.26 559.328  17
  -2  -1  -3 9333.73 498.503  58
  -2  -1  -3 9910.90 447.151   3
  -2  -1  -3 9707.27 417.126   1
  -2  -1  -3 9227.20 517.866  20
  -2  -1  -3 10471.0 390.918  11
  -2  -1  -3 10070.8 519.049  65
  -2  -1  -3 9711.41 520.685  60
  -2  -1  -3 9549.13 510.143  59
  -2  -1  -2 74441.7 1365.53   3
  -2  -1  -2 73533.8 1490.90  20
  -2  -1  -2 78300.4 1408.24  58
  -2  -1  -2 73318.1 1402.65  60
  -2  -1  -2 77825.9 1522.42  17
  -2  -1  -2 77172.4 1419.88  59
  -2  -1  -2 79795.8 1316.98   1
  -2  -1  -2 78521.2 1367.57  65
  -2  -1  -1 3102.91 240.572  17
  -2  -1  -1 3064.61 212.679  59
  -2  -1  -1 2949.23 210.554  60
  -2  -1  -1 3102.60 212.405  58
  -2  -1  -1 3071.25 228.987  56
  -2  -1  -1 3242.19 229.990   1
  -2  -1   0 4696.42 302.898   3
  -2  -1   0 5218.24 293.135   1
  -2  -1   0 4765.73 200.908  59
  -2  -1   0 4729.87 276.107  56
  -2  -1   0 5065.82 202.735  58
  -2  -1   1 43282.9 954.525   3
  -2  -1   1 44504.0 927.900   1
  -2  -1   2 17940.5 594.748   3
  -2  -1   2 18956.6 650.270   9
  -2  -1   2 17949.2 567.216   1
  -2  -1   3 11062.3 578.161  56
  -2  -1   3 9624.91 312.842  55
  -2  -1   3 8716.85 291.777  57
  -2  -1   3 11437.4 567.471   9
  -2  -1   4 114980. 2298.43   9
  -2  -1   4 121815. 2405.71  56
  -2  -1   5 3639.63 418.626  56
  -2  -1   5 3527.72 404.709   9
  -2  -1   6 4061.95 476.293   9
  -2  -1   6 3831.47 478.869  56
  -2  -1   7 33070.5 753.910  42
  -2  -1   7 37583.0 1649.50  56
  -2  -1   7 33714.5 733.826  32
  -2  -1   7 39366.2 820.605  44
  -2  -1   7 32897.7 754.488  49
  -2  -1   7 27811.4 789.741  47
  -2  -1   7 39973.3 1666.75   9
  -2  -1   8 6981.17 335.987  44
  -2  -1   8 6580.29 314.290  49
  -2  -1   8 5974.35 323.692  51
  -2  -1   8 5495.38 362.471  50
  -2  -1   9 905.143 120.534  30
  -2  -1   9 996.093 152.229  47
  -2  -1   9 907.625 138.135  51
  -2  -1   9 1337.47 186.512  50
  -2  -1   9 988.201 125.097  49
  -2  -1   9 999.374 142.425  44
  -2  -1   9 982.304 123.593  32
  -2  -1  10 8975.39 329.766  32
  -2  -1  10 8533.63 346.597  51
  -2  -1  10 9349.66 328.002  49
  -2  -1  11 5391.96 204.410  49
  -2   0 -13 6561.77 247.459  48
  -2   0 -13 7020.15 255.073  41
  -2   0 -12 4700.13 265.568  41
  -2   0 -12 4481.90 257.931  48
  -2   0 -11 974.487 153.502  41
  -2   0 -11 1048.29 139.532  35
  -2   0 -11 1081.82 168.998  48
  -2   0 -10 17377.6 631.454  48
  -2   0 -10 15587.6 580.470  35
  -2   0 -10 16390.5 567.631  26
  -2   0 -10 16700.7 626.829  41
  -2   0 -10 16902.7 1321.97  17
  -2   0 -10 15386.0 1233.57  65
  -2   0 -10 15965.6 1112.19  24
  -2   0  -9 1665.66 390.589  58
  -2   0  -9 1586.11 427.192  65
  -2   0  -9 1846.33 217.982  48
  -2   0  -9 1678.11 200.029  35
  -2   0  -9 1572.11 395.675  60
  -2   0  -9 1553.17 183.349  26
  -2   0  -9 1738.09 208.959  41
  -2   0  -9 1495.80 366.574  59
  -2   0  -9 1391.73 344.946  24
  -2   0  -9 1837.26 379.343  16
  -2   0  -9 1009.83 332.655  11
  -2   0  -9 950.819 346.695  17
  -2   0  -9 1574.84 394.763  61
  -2   0  -8 4100.10 312.490  41
  -2   0  -8 4824.11 608.382  59
  -2   0  -8 4335.57 563.569  11
  -2   0  -8 4422.60 599.902  61
  -2   0  -8 4631.72 602.061  60
  -2   0  -8 4229.66 612.612  65
  -2   0  -8 4598.15 586.873  58
  -2   0  -8 4368.82 623.533  17
  -2   0  -8 4706.80 571.853  16
  -2   0  -8 4682.77 585.244  24
  -2   0  -7 36484.8 1445.61  20
  -2   0  -7 32743.5 1416.12  11
  -2   0  -7 31812.5 1576.41  17
  -2   0  -7 33666.7 1477.15  59
  -2   0  -7 32394.9 1468.11  60
  -2   0  -7 33917.0 1465.70  58
  -2   0  -7 36561.5 1473.42  16
  -2   0  -7 35217.2 1605.80  65
  -2   0  -7 33822.2 1473.27  24
  -2   0  -6 19963.3 1001.45  20
  -2   0  -6 19029.9 949.699  11
  -2   0  -6 19310.2 1015.88  59
  -2   0  -6 19520.6 1081.98  65
  -2   0  -6 19369.3 1008.48  58
  -2   0  -6 16840.1 1050.76  17
  -2   0  -6 19352.5 956.936  16
  -2   0  -6 18511.5 1012.78  60
  -2   0  -6 18892.7 998.059  24
  -2   0  -5 181671. 3327.12  65
  -2   0  -5 182940. 3253.32  20
  -2   0  -5 180122. 3021.74  11
  -2   0  -5 166353. 3153.81  60
  -2   0  -5 176585. 3423.05  17
  -2   0  -5 176765. 3150.28  58
  -2   0  -5 155481. 3018.36  24
  -2   0  -5 158914. 2925.66  16
  -2   0  -5 176369. 3197.19  59
  -2   0  -4 13792.7 790.845  17
  -2   0  -4 15034.2 747.561  65
  -2   0  -4 14958.9 754.770  20
  -2   0  -4 15322.0 584.959   3
  -2   0  -4 14145.5 721.657  60
  -2   0  -4 14968.1 738.973  59
  -2   0  -4 14706.3 640.902  11
  -2   0  -4 14449.7 738.339  10
  -2   0  -4 12348.0 597.151  16
  -2   0  -4 14794.5 722.402  58
  -2   0  -3 27987.5 985.546  20
  -2   0  -3 28109.0 815.611   3
  -2   0  -3 28107.4 1023.90  17
  -2   0  -3 27575.5 923.260  59
  -2   0  -3 29593.5 917.086  65
  -2   0  -3 28313.3 919.583  58
  -2   0  -3 26575.0 915.588  10
  -2   0  -2 305535. 3828.59  58
  -2   0  -2 302258. 3895.48  10
  -2   0  -2 291218. 3828.37  59
  -2   0  -2 290319. 3986.52  17
  -2   0  -2 290658. 3949.77  23
  -2   0  -2 292521. 3763.88   3
  -2   0  -1 3536.36 290.427  20
  -2   0  -1 3467.43 251.939  59
  -2   0  -1 3877.96 259.658  58
  -2   0  -1 3642.62 223.455  56
  -2   0  -1 3463.23 258.856  10
  -2   0   0 14779.1 562.983   3
  -2   0   0 14955.9 522.108   9
  -2   0   0 14926.8 457.658  58
  -2   0   0 14691.8 469.919  56
  -2   0   0 14927.1 453.528  10
  -2   0   1 228170. 2903.28  56
  -2   0   1 218263. 2993.87   3
  -2   0   1 240990. 3243.22  66
  -2   0   1 208960. 2456.69   7
  -2   0   1 229895. 3254.60  23
  -2   0   1 225240. 2881.13   9
  -2   0   1 221113. 2603.06  55
  -2   0   2 19782.6 487.008  57
  -2   0   2 19304.8 655.555   3
  -2   0   2 21672.8 785.214  66
  -2   0   2 23184.8 758.249  56
  -2   0   2 19430.4 497.294  55
  -2   0   2 20523.3 783.072  23
  -2   0   2 21196.1 686.365   9
  -2   0   2 18113.3 554.306   7
  -2   0   3 46701.6 1171.87   9
  -2   0   3 42330.9 997.374   3
  -2   0   3 48481.2 903.738  57
  -2   0   3 46561.9 914.930  55
  -2   0   3 40624.4 891.800  52
  -2   0   3 35337.4 1107.85  23
  -2   0   3 55218.1 1347.61  56
  -2   0   3 42184.0 1118.96  22
  -2   0   4 43562.6 1348.94  56
  -2   0   4 44008.4 985.139  55
  -2   0   4 41838.3 957.568  52
  -2   0   4 41095.9 941.042  57
  -2   0   4 39008.1 1174.61  22
  -2   0   4 44227.8 1271.68   9
  -2   0   5 17211.5 924.557  56
  -2   0   5 18083.5 855.036  22
  -2   0   6 685.798 202.508  22
  -2   0   6 681.466 220.202   9
  -2   0   6 733.836 229.915  56
  -2   0   7 12299.3 435.329  30
  -2   0   7 12825.7 963.089  56
  -2   0   7 14357.9 979.600   9
  -2   0   7 12551.4 410.922  32
  -2   0   7 10296.7 425.289  51
  -2   0   7 11620.6 519.596  50
  -2   0   7 13262.0 444.056  49
  -2   0   8 13505.7 446.055  32
  -2   0   8 15072.3 481.518  30
  -2   0   8 15743.2 609.083  50
  -2   0   8 14315.9 473.619  49
  -2   0   9 2566.67 190.585  32
  -2   0   9 2582.57 195.038  49
  -2   0   9 2685.51 200.450  30
  -2   0   9 2317.53 195.815  51
  -2   0  10 17044.4 459.910  30
  -2   0  10 16311.0 449.821  32
  -2   0  10 15901.4 447.659  49
  -2   0  11 1078.75 102.738  49
  -2   0  11 718.103 99.1766  47
  -2   1 -13 1178.09 105.577  48
  -2   1 -13 1179.34 109.417  41
  -2   1 -12 874.204 127.998  41
  -2   1 -12 880.001 107.123  35
  -2   1 -12 751.324 121.531  48
  -2   1 -11 2969.04 232.896  35
  -2   1 -11 3047.70 253.517  48
  -2   1 -11 3144.63 258.562  41
  -2   1 -10 9039.50 972.901  65
  -2   1 -10 10021.4 473.002  35
  -2   1 -10 9569.71 438.231  26
  -2   1 -10 10940.2 500.557  48
  -2   1 -10 9097.24 465.939  41
  -2   1  -9 40301.4 1040.26  41
  -2   1  -9 33688.8 1845.21  61
  -2   1  -9 42154.0 2105.55  17
  -2   1  -9 30847.9 1665.32  11
  -2   1  -9 38128.9 1002.22  35
  -2   1  -9 34413.0 1790.95  59
  -2   1  -9 36248.3 1683.51  16
  -2   1  -9 34768.1 1831.62  60
  -2   1  -9 36103.3 1818.92  58
  -2   1  -9 40133.0 987.724  26
  -2   1  -9 42087.9 1856.64  24
  -2   1  -9 40034.6 2007.29  65
  -2   1  -8 5896.03 372.601  35
  -2   1  -8 6864.26 779.232  65
  -2   1  -8 5596.27 694.949  60
  -2   1  -8 5884.48 704.427  59
  -2   1  -8 5951.27 696.869  58
  -2   1  -8 6697.63 799.847  17
  -2   1  -8 5721.34 673.396  11
  -2   1  -8 6338.59 681.236  16
  -2   1  -8 6231.79 682.507  24
  -2   1  -7 6819.17 664.993  20
  -2   1  -7 5563.83 614.185  11
  -2   1  -7 5689.41 661.701  65
  -2   1  -7 5249.30 664.834  17
  -2   1  -7 6605.57 682.185  60
  -2   1  -7 5867.04 636.356  59
  -2   1  -7 5862.63 623.068  58
  -2   1  -7 6218.06 620.670  16
  -2   1  -7 5771.55 621.656  24
  -2   1  -6 1214.92 281.003  58
  -2   1  -6 1304.86 326.237  65
  -2   1  -6 1251.37 279.938  20
  -2   1  -6 1513.15 358.405  17
  -2   1  -6 985.974 257.975  10
  -2   1  -6 1106.16 257.623  60
  -2   1  -6 1086.13 271.322  59
  -2   1  -6 1140.62 258.153  16
  -2   1  -6 987.436 250.672  11
  -2   1  -5 11509.4 758.460  20
  -2   1  -5 11312.7 810.523  17
  -2   1  -5 11395.7 761.204  65
  -2   1  -5 10483.3 723.324  10
  -2   1  -5 10206.4 710.387  60
  -2   1  -5 10590.5 706.136  58
  -2   1  -5 10609.5 719.517  59
  -2   1  -5 10066.0 548.762  63
  -2   1  -5 11555.4 682.702  16
  -2   1  -4 51466.5 1631.94  17
  -2   1  -4 52480.2 1471.42  58
  -2   1  -4 50865.6 1470.83  59
  -2   1  -4 53755.6 1512.67  65
  -2   1  -4 53997.8 1590.92  20
  -2   1  -4 49161.4 1296.71  16
  -2   1  -4 49809.9 1476.45  10
  -2   1  -3 9668.51 543.054  65
  -2   1  -3 10367.0 537.072  66
  -2   1  -3 8748.82 533.740  59
  -2   1  -3 9681.82 548.640  58
  -2   1  -3 9176.56 591.254  20
  -2   1  -3 9827.92 633.917  17
  -2   1  -3 8798.25 540.734  10
  -2   1  -3 9646.18 537.484  23
  -2   1  -3 9478.85 504.739   3
  -2   1  -2 271084. 3804.92   3
  -2   1  -2 291787. 4111.97  20
  -2   1  -2 302045. 3979.10  66
  -2   1  -2 291417. 3865.44  58
  -2   1  -2 294338. 3944.47  10
  -2   1  -2 275495. 4054.73  17
  -2   1  -2 307976. 4052.25  23
  -2   1  -1 11199.9 533.064   3
  -2   1  -1 11150.4 572.726  20
  -2   1  -1 11552.5 566.238  66
  -2   1  -1 10983.2 487.888  58
  -2   1  -1 11640.4 351.983  56
  -2   1  -1 11954.6 521.678  10
  -2   1  -1 11896.0 531.109  15
  -2   1  -1 13143.7 615.023  23
  -2   1   0 503790. 6195.61  20
  -2   1   0 527232. 6362.01  66
  -2   1   0 498033. 6193.67   3
  -2   1   0 534439. 5955.45  10
  -2   1   0 541295. 5712.88  56
  -2   1   0 545644. 6246.14  15
  -2   1   0 542964. 5650.43   7
  -2   1   0 540017. 6447.62  23
  -2   1   1 832439. 9786.21  66
  -2   1   1 868765. 9112.29  10
  -2   1   1 845608. 9327.01   9
  -2   1   1 798693. 9252.77  56
  -2   1   1 970940. 10076.1  23
  -2   1   1 912692. 9129.86   7
  -2   1   1 877849. 9211.80  55
  -2   1   1 833619. 9662.53  15
  -2   1   1 999999. 9848.88   3
  -2   1   2 331188. 4865.78  23
  -2   1   2 350310. 3965.65  10
  -2   1   2 410891. 4738.18  56
  -2   1   2 367149. 4308.37  55
  -2   1   2 357172. 4900.42  66
  -2   1   2 326898. 4598.54   3
  -2   1   2 421009. 4993.50  15
  -2   1   2 382814. 4502.76   9
  -2   1   2 374175. 4514.32   7
  -2   1   2 386362. 4277.24  57
  -2   1   2 375004. 4555.76  22
  -2   1   3 50297.0 1344.57  56
  -2   1   3 48557.8 1032.11  57
  -2   1   3 48177.6 1047.84  55
  -2   1   3 42728.6 1297.36  66
  -2   1   3 51926.3 1404.51  15
  -2   1   3 44325.8 1333.32  23
  -2   1   3 45694.5 1275.53   7
  -2   1   3 49984.4 1201.98   9
  -2   1   3 43336.7 1162.63  22
  -2   1   4 20906.1 936.190  56
  -2   1   4 16741.7 804.503  66
  -2   1   4 19521.0 689.413  55
  -2   1   4 19665.3 673.943  57
  -2   1   4 17878.1 668.180  52
  -2   1   4 18890.2 865.389  15
  -2   1   4 18783.0 791.494   9
  -2   1   4 17867.7 781.152  22
  -2   1   4 18173.9 919.275   7
  -2   1   5 31840.5 1011.07  52
  -2   1   5 34406.1 1199.26  22
  -2   1   5 33350.1 991.068  57
  -2   1   5 32883.8 1008.73  55
  -2   1   5 34064.4 1214.57   9
  -2   1   6 20164.2 1030.89   9
  -2   1   6 18586.7 1098.01  56
  -2   1   6 18888.2 960.452  22
  -2   1   7 35363.5 834.488  31
  -2   1   7 39036.9 828.083  44
  -2   1   7 39905.4 829.888  30
  -2   1   7 38807.8 1611.40   9
  -2   1   7 37806.1 1725.04  56
  -2   1   7 38630.7 791.462  32
  -2   1   7 42883.7 1029.03  50
  -2   1   7 39751.5 820.381  49
  -2   1   7 36047.7 849.468  29
  -2   1   7 43690.5 1601.34  22
  -2   1   8 2441.54 188.683  32
  -2   1   8 2457.08 200.385  30
  -2   1   8 2450.85 195.026  49
  -2   1   9 16384.2 492.529  30
  -2   1   9 15123.5 479.817  49
  -2   1   9 16036.7 475.107  32
  -2   1  10 7490.81 300.037  30
  -2   1  10 7152.85 294.217  32
  -2   1  10 7207.26 291.106  49
  -2   1  11 13068.1 349.762  49
  -2   2 -13 1277.80 104.531  41
  -2   2 -13 1175.26 98.2058  48
  -2   2 -12 13261.8 404.644  35
  -2   2 -12 13841.1 443.901  48
  -2   2 -11 3178.53 240.388  35
  -2   2 -11 3284.57 263.504  41
  -2   2 -11 3176.34 221.515  26
  -2   2 -11 3221.27 257.190  48
  -2   2 -10 28403.1 839.624  41
  -2   2 -10 25611.8 781.640  35
  -2   2 -10 27097.8 1744.37  17
  -2   2 -10 28588.9 785.756  26
  -2   2  -9 6527.86 823.498  65
  -2   2  -9 5479.23 786.608  17
  -2   2  -9 6383.96 398.453  35
  -2   2  -9 5243.55 654.389  24
  -2   2  -8 43831.0 1893.30  20
  -2   2  -8 38576.2 1036.06  35
  -2   2  -8 39774.3 1879.44  11
  -2   2  -8 40508.5 2029.44  17
  -2   2  -8 40365.8 1944.77  60
  -2   2  -8 41025.2 1931.76  59
  -2   2  -8 44534.2 2008.66  58
  -2   2  -8 41362.5 1033.94  26
  -2   2  -8 46610.0 1908.20  24
  -2   2  -8 39560.4 1936.74  65
  -2   2  -7 8184.41 821.547  65
  -2   2  -7 7501.22 819.076  17
  -2   2  -7 8115.93 804.476  60
  -2   2  -7 9165.07 821.622  20
  -2   2  -7 8463.24 803.723  58
  -2   2  -7 8093.64 720.551  16
  -2   2  -7 7882.86 772.313  11
  -2   2  -7 8028.83 803.449  10
  -2   2  -7 8425.38 810.687  59
  -2   2  -6 59448.5 2011.96  58
  -2   2  -6 57273.7 2020.80  20
  -2   2  -6 58432.0 2155.09  17
  -2   2  -6 58321.0 2027.11  10
  -2   2  -6 57427.3 2010.41  59
  -2   2  -6 57497.9 2022.54  60
  -2   2  -6 60943.9 2077.04  65
  -2   2  -6 60632.2 1881.49  16
  -2   2  -5 18438.9 1013.20  65
  -2   2  -5 16917.6 997.432  20
  -2   2  -5 16662.2 966.582  10
  -2   2  -5 17136.6 977.473  59
  -2   2  -5 17131.0 968.044  58
  -2   2  -5 19051.9 1121.82  17
  -2   2  -5 16586.2 877.265  16
  -2   2  -4 256849. 4143.88  20
  -2   2  -4 239505. 3554.91  66
  -2   2  -4 252984. 3943.93  65
  -2   2  -4 203849. 3409.01   3
  -2   2  -4 223332. 3830.02  59
  -2   2  -4 226016. 4125.85  17
  -2   2  -4 234117. 3825.09  58
  -2   2  -4 223237. 3820.58  10
  -2   2  -4 202821. 3479.70  23
  -2   2  -3 13570.3 768.046  20
  -2   2  -3 14456.2 702.730  66
  -2   2  -3 13513.3 796.521  17
  -2   2  -3 13997.5 734.032  10
  -2   2  -3 12979.2 703.144  59
  -2   2  -3 14174.5 721.555  58
  -2   2  -3 14100.6 714.661  23
  -2   2  -3 12968.2 673.336  65
  -2   2  -2 283321. 3987.05  66
  -2   2  -2 272709. 4142.01  20
  -2   2  -2 270805. 4086.43  17
  -2   2  -2 267476. 3803.53  58
  -2   2  -2 271995. 3895.27  10
  -2   2  -2 285907. 3763.67  15
  -2   2  -2 284905. 4054.73  23
  -2   2  -1 166752. 2877.37  20
  -2   2  -1 166501. 2633.26  10
  -2   2  -1 155791. 2548.86  58
  -2   2  -1 160482. 2783.50  66
  -2   2  -1 172432. 2718.35  15
  -2   2  -1 172951. 2908.67  23
  -2   2   0 333380. 4623.84  20
  -2   2   0 332659. 3806.08  56
  -2   2   0 340850. 4332.63  10
  -2   2   0 321353. 4737.93  23
  -2   2   0 376244. 4682.58  15
  -2   2   0 363073. 4065.87   7
  -2   2   0 354086. 4762.86  66
  -2   2   1 42124.0 953.119  56
  -2   2   1 42707.2 993.630  10
  -2   2   1 44033.4 984.981   7
  -2   2   1 38986.1 1268.45  23
  -2   2   1 48591.7 1317.88  15
  -2   2   1 44049.6 1322.43  66
  -2   2   1 44215.4 1020.12  55
  -2   2   2 52607.8 1287.57   7
  -2   2   2 50385.0 1146.26  55
  -2   2   2 51856.2 1071.63  10
  -2   2   2 56935.0 1609.35  23
  -2   2   2 50986.4 1165.53   9
  -2   2   2 50470.8 1243.11  56
  -2   2   2 57677.5 1526.23  15
  -2   2   2 56574.2 1571.68  66
  -2   2   2 49948.2 1210.63  22
  -2   2   3 13033.3 552.958  57
  -2   2   3 12892.6 571.095  55
  -2   2   3 12689.3 663.965   3
  -2   2   3 13226.8 590.091   9
  -2   2   3 12492.1 682.896  56
  -2   2   3 14598.7 799.092  66
  -2   2   3 13365.5 721.166   7
  -2   2   3 13245.5 776.265  23
  -2   2   3 12597.8 623.271  22
  -2   2   4 8295.79 495.718  55
  -2   2   4 9154.53 653.373  66
  -2   2   4 7434.57 452.330  57
  -2   2   4 8579.15 626.568  56
  -2   2   4 8290.10 514.195   9
  -2   2   4 7435.20 593.081  15
  -2   2   4 6609.48 562.490  23
  -2   2   4 8621.94 676.992   7
  -2   2   4 8117.80 544.256  22
  -2   2   5 3048.91 356.418   9
  -2   2   5 2874.11 405.466  56
  -2   2   5 2757.68 304.497  57
  -2   2   5 3243.61 412.029  15
  -2   2   5 2566.05 303.821  55
  -2   2   5 3004.56 363.331  22
  -2   2   5 2738.07 449.647   7
  -2   2   6 13022.8 813.334  22
  -2   2   6 12815.8 714.308  57
  -2   2   6 12464.7 930.987  56
  -2   2   6 12080.1 710.354  55
  -2   2   6 11999.8 772.186   9
  -2   2   7 2514.44 190.286  49
  -2   2   7 2588.41 211.105  31
  -2   2   7 2478.27 459.615  56
  -2   2   7 2907.61 202.047  30
  -2   2   7 2662.16 190.721  32
  -2   2   7 3065.72 226.623  29
  -2   2   7 2558.26 393.432  22
  -2   2   8 331.767 87.1954  32
  -2   2   8 314.052 90.0176  31
  -2   2   8 311.261 87.5060  30
  -2   2   8 335.534 90.6096  29
  -2   2   8 288.496 76.6745  49
  -2   2   9 3612.17 221.626  32
  -2   2   9 4291.26 241.898  30
  -2   2   9 4131.47 246.100  29
  -2   2   9 4094.28 233.410  49
  -2   2   9 4101.76 245.743  31
  -2   2  10 7538.78 293.355  30
  -2   2  10 7300.56 288.433  49
  -2   2  11 5055.92 203.252  49
  -2   2  11 4606.58 195.609  30
  -2   3 -12 1161.49 117.132  35
  -2   3 -12 1187.95 124.195  48
  -2   3 -12 1439.43 140.995  41
  -2   3 -11 13130.2 479.600  35
  -2   3 -11 14177.6 462.608  26
  -2   3 -11 14955.8 513.863  48
  -2   3 -11 13810.0 506.155  41
  -2   3 -10 10505.9 483.436  35
  -2   3 -10 9184.82 1004.80  17
  -2   3 -10 12021.1 529.534  41
  -2   3 -10 13133.8 516.260  26
  -2   3  -9 12673.6 1151.95  65
  -2   3  -9 13936.0 592.067  35
  -2   3  -9 14020.7 1263.36  17
  -2   3  -9 15211.0 591.991  26
  -2   3  -8 4643.36 713.092  17
  -2   3  -8 4828.75 668.808  20
  -2   3  -8 5158.42 359.284  35
  -2   3  -8 3931.48 622.791  11
  -2   3  -8 4672.39 687.183  65
  -2   3  -8 3892.24 636.491  60
  -2   3  -8 4244.15 647.604  59
  -2   3  -8 4488.17 665.225  58
  -2   3  -8 4786.64 338.376  26
  -2   3  -8 3737.75 657.347  10
  -2   3  -7 51457.9 2122.70  20
  -2   3  -7 47986.3 2069.55  65
  -2   3  -7 52785.6 2199.89  59
  -2   3  -7 48864.8 2136.87  60
  -2   3  -7 51148.5 2195.28  10
  -2   3  -7 52344.0 2160.35  58
  -2   3  -7 48178.6 2055.43  11
  -2   3  -7 46601.0 1126.39  26
  -2   3  -7 48822.5 2223.84  17
  -2   3  -6 2997.50 487.529  20
  -2   3  -6 3243.88 496.545  65
  -2   3  -6 3278.94 544.968  17
  -2   3  -6 3009.05 475.812  59
  -2   3  -6 3740.31 546.041  58
  -2   3  -6 2938.88 490.316  10
  -2   3  -5 17365.0 1136.36  17
  -2   3  -5 17814.5 1088.57  59
  -2   3  -5 16334.2 1048.82  20
  -2   3  -5 17118.7 1035.23  65
  -2   3  -5 17194.7 1055.01  10
  -2   3  -5 16498.1 1019.25  58
  -2   3  -4 148016. 3183.80  59
  -2   3  -4 154484. 3300.50  20
  -2   3  -4 155602. 2942.10  66
  -2   3  -4 150402. 3409.13  17
  -2   3  -4 153876. 3186.88  58
  -2   3  -4 156079. 3207.79  10
  -2   3  -4 148279. 2947.64  23
  -2   3  -3 22154.8 1079.11  20
  -2   3  -3 22157.1 996.568  23
  -2   3  -3 22595.1 1115.53  17
  -2   3  -3 21807.8 991.567  58
  -2   3  -3 23717.9 898.415  15
  -2   3  -3 22005.0 979.371  66
  -2   3  -3 21493.1 997.725  10
  -2   3  -2 10736.7 710.302  20
  -2   3  -2 11649.2 698.790  66
  -2   3  -2 12352.4 705.470  10
  -2   3  -2 11594.8 665.653  58
  -2   3  -2 13026.2 671.854  15
  -2   3  -2 12055.1 740.588  17
  -2   3  -2 10721.0 689.907  23
  -2   3  -1 28324.3 1125.97  20
  -2   3  -1 27128.5 966.670  58
  -2   3  -1 25888.7 1072.18  23
  -2   3  -1 27967.9 986.046  10
  -2   3  -1 27424.1 1089.71  66
  -2   3  -1 28798.7 816.557   7
  -2   3  -1 28718.9 1037.56  15
  -2   3   0 44271.7 1061.70   7
  -2   3   0 41766.5 1374.07  66
  -2   3   0 40365.2 1291.39  15
  -2   3   0 41773.7 1400.04  23
  -2   3   0 40237.1 1153.52  10
  -2   3   1 15789.0 761.134  20
  -2   3   1 17676.8 607.383  56
  -2   3   1 18377.7 714.062  10
  -2   3   1 17780.2 709.570  55
  -2   3   1 19813.8 898.572  15
  -2   3   1 22742.6 1015.76  66
  -2   3   1 19208.2 719.671   7
  -2   3   1 21470.5 1005.73  23
  -2   3   2 256840. 3720.79  56
  -2   3   2 271835. 3646.19  10
  -2   3   2 282457. 4448.26  66
  -2   3   2 272050. 4460.13  23
  -2   3   2 253859. 3692.73  55
  -2   3   2 276335. 4308.58  15
  -2   3   2 254198. 3902.52   7
  -2   3   3 2347.48 301.890  56
  -2   3   3 2351.25 274.285  55
  -2   3   3 1982.27 330.406  66
  -2   3   3 2633.08 372.783  15
  -2   3   3 2143.81 330.455   7
  -2   3   3 3022.62 410.692  23
  -2   3   3 2183.14 278.650  22
  -2   3   4 26562.3 968.311  57
  -2   3   4 27426.5 1264.65  66
  -2   3   4 27022.7 1331.01   7
  -2   3   4 26469.7 1001.90  55
  -2   3   4 28997.1 1290.34  15
  -2   3   4 25179.2 1143.99  56
  -2   3   4 28111.9 1067.77  22
  -2   3   5 13865.8 930.628  56
  -2   3   5 15094.1 804.652  55
  -2   3   5 15687.3 976.995  15
  -2   3   5 14868.4 768.886  57
  -2   3   5 14830.9 1120.48   7
  -2   3   5 15908.4 854.175  22
  -2   3   6 806.970 231.579  22
  -2   3   6 944.322 231.408  55
  -2   3   6 764.470 110.525  30
  -2   3   6 1008.67 137.342  29
  -2   3   6 811.988 208.051  57
  -2   3   6 1034.19 131.794  31
  -2   3   6 834.911 110.780  49
  -2   3   6 802.094 252.251  56
  -2   3   7 1641.19 320.276  22
  -2   3   7 1492.84 151.083  30
  -2   3   7 1027.78 318.526  56
  -2   3   7 1241.60 138.523  32
  -2   3   7 1381.12 157.548  29
  -2   3   7 1311.00 150.933  31
  -2   3   7 1329.82 144.465  49
  -2   3   8 15963.6 486.097  30
  -2   3   8 16713.8 531.552  31
  -2   3   8 16947.3 541.277  29
  -2   3   8 16341.9 491.186  49
  -2   3   9 14809.4 471.036  29
  -2   3   9 14264.7 462.158  31
  -2   3   9 14614.4 442.585  49
  -2   3   9 14218.4 437.976  30
  -2   3  10 42.4530 44.7555  31
  -2   3  10 66.5946 43.3687  29
  -2   3  10 24.0263 51.3050  49
  -2   3  10 96.4001 68.5347  47
  -2   3  10-10.6646 54.4375  30
  -2   3  11 10423.0 284.603  49
  -2   4 -12 4558.71 203.235  35
  -2   4 -12 4155.38 189.159  48
  -2   4 -12 4815.83 219.483  41
  -2   4 -11 1815.53 180.990  41
  -2   4 -11 1885.65 171.067  48
  -2   4 -11 1922.08 173.456  35
  -2   4 -11 1858.00 160.150  26
  -2   4 -10 13716.8 549.659  41
  -2   4 -10 13757.8 508.253  26
  -2   4  -9 10627.0 499.102  35
  -2   4  -9 9287.81 1033.08  17
  -2   4  -9 10564.6 494.561  26
  -2   4  -8 9877.78 482.575  36
  -2   4  -8 10747.9 1047.02  20
  -2   4  -8 11551.4 529.400  35
  -2   4  -8 10591.1 1093.69  17
  -2   4  -8 9408.59 973.788  65
  -2   4  -8 10206.5 497.052  26
  -2   4  -7 42274.2 1075.48  37
  -2   4  -7 44888.3 1117.94  36
  -2   4  -7 51641.3 2246.91  20
  -2   4  -7 53303.5 2246.53  65
  -2   4  -7 48563.9 2286.95  10
  -2   4  -7 44248.5 2158.91  60
  -2   4  -7 47095.1 2202.71  59
  -2   4  -7 45782.4 2135.40  58
  -2   4  -7 47362.1 2269.68  17
  -2   4  -7 58054.8 1242.86  26
  -2   4  -6 11318.5 985.058  20
  -2   4  -6 10035.0 985.480  17
  -2   4  -6 12208.5 1054.39  59
  -2   4  -6 11060.4 981.858  58
  -2   4  -6 11532.3 970.662  65
  -2   4  -6 11054.4 992.794  10
  -2   4  -5 3307.23 517.622  20
  -2   4  -5 2968.72 511.401  17
  -2   4  -5 3531.19 534.437  10
  -2   4  -5 3335.26 524.639  59
  -2   4  -5 3660.91 520.845  58
  -2   4  -5 2692.64 445.769  65
  -2   4  -4 24825.9 1294.34  20
  -2   4  -4 25941.8 1257.48  65
  -2   4  -4 25842.4 1296.29  10
  -2   4  -4 23995.7 1260.43  58
  -2   4  -4 25318.9 1374.88  17
  -2   4  -4 25138.6 1188.97  23
  -2   4  -4 24052.9 1139.41  66
  -2   4  -4 23264.6 1265.59  59
  -2   4  -3 129188. 3094.85  17
  -2   4  -3 122471. 2992.61  20
  -2   4  -3 127526. 2909.68  10
  -2   4  -3 132378. 2883.63  66
  -2   4  -3 137303. 2978.65  23
  -2   4  -3 136692. 2657.38  15
  -2   4  -3 131981. 2390.40   7
  -2   4  -3 130632. 2970.03  58
  -2   4  -2 67510.2 1901.87  10
  -2   4  -2 67400.6 2042.32  20
  -2   4  -2 67924.9 2007.10  17
  -2   4  -2 66385.6 1884.26  58
  -2   4  -2 62836.4 1916.52  23
  -2   4  -2 68708.9 1972.77  66
  -2   4  -2 73644.2 1867.44  15
  -2   4  -2 67868.8 1539.13   7
  -2   4  -1 5381.25 475.692  58
  -2   4  -1 5585.82 402.713   7
  -2   4  -1 6983.61 634.783  20
  -2   4  -1 5875.37 555.629  66
  -2   4  -1 5452.80 485.909  10
  -2   4  -1 5474.47 504.836  15
  -2   4  -1 5588.70 550.249  23
  -2   4   0 11810.8 774.172  20
  -2   4   0 10135.6 742.222  23
  -2   4   0 12223.5 767.186  15
  -2   4   0 12417.1 621.500   7
  -2   4   0 11385.1 665.451  10
  -2   4   0 10770.2 755.849  66
  -2   4   1 8495.16 631.897  20
  -2   4   1 8803.25 561.910  10
  -2   4   1 10752.4 765.959  66
  -2   4   1 10882.8 634.158   7
  -2   4   1 8814.29 669.419  15
  -2   4   1 8667.01 557.100  55
  -2   4   1 9422.36 732.026  23
  -2   4   2 551.562 164.288  55
  -2   4   2 482.506 148.659  10
  -2   4   2 412.680 172.596  66
  -2   4   2 493.800 178.130   7
  -2   4   2 388.429 191.129  15
  -2   4   2 314.768 192.294  23
  -2   4   3 1720.35 266.935  55
  -2   4   3 1640.44 327.615  66
  -2   4   3 1692.46 355.905   7
  -2   4   3 1808.15 349.810  15
  -2   4   3 1480.83 316.005  23
  -2   4   4 3295.88 478.771  66
  -2   4   4 2834.46 354.948  55
  -2   4   4 2472.76 373.973  56
  -2   4   4 3284.68 485.798  15
  -2   4   4 2525.97 472.044   7
  -2   4   4 3554.98 504.199  23
  -2   4   4 2893.23 359.574  22
  -2   4   5 10995.2 892.422  66
  -2   4   5 9655.56 709.739  55
  -2   4   5 10370.9 395.073  31
  -2   4   5 11626.1 424.889  29
  -2   4   5 10824.5 743.326  22
  -2   4   5 9653.23 794.890  56
  -2   4   5 8880.57 353.031  30
  -2   4   5 12009.1 929.701  15
  -2   4   5 9865.06 994.197   7
  -2   4   6 8786.40 833.031  56
  -2   4   6 10303.2 778.682  55
  -2   4   6 10643.4 464.629  33
  -2   4   6 12159.7 420.085  30
  -2   4   6 12913.1 466.392  29
  -2   4   6 12965.5 455.988  31
  -2   4   6 12051.5 415.251  49
  -2   4   6 10918.4 914.889  15
  -2   4   7 23272.1 636.294  31
  -2   4   7 24162.7 615.089  30
  -2   4   7 24178.5 656.954  29
  -2   4   7 23760.0 605.099  49
  -2   4   8 14116.0 474.043  31
  -2   4   8 14541.0 450.361  49
  -2   4   8 14856.5 491.920  29
  -2   4   8 14282.5 450.676  30
  -2   4   9 5708.79 274.066  31
  -2   4   9 6175.68 284.852  29
  -2   4   9 6020.61 264.121  49
  -2   4  10 439.081 74.5139  49
  -2   4  10 306.555 70.6038  30
  -2   4  10 241.579 57.1885  29
  -2   4  10 185.181 75.7767  47
  -2   4  10 275.809 61.7398  31
  -2   4  11 502.121 60.3080  49
  -2   4  11 100.078 44.9309  47
  -2   5 -11 8096.54 317.641  35
  -2   5 -11 8206.92 296.868  26
  -2   5 -11 8701.51 334.484  41
  -2   5 -11 7732.50 285.302  48
  -2   5 -10 3209.15 253.503  41
  -2   5 -10 2637.10 216.704  35
  -2   5 -10 3311.73 239.228  26
  -2   5  -9 2411.85 209.570  36
  -2   5  -9 2269.51 224.466  35
  -2   5  -9 2221.88 224.602  26
  -2   5  -8 13056.9 542.676  36
  -2   5  -8 10759.0 1073.66  20
  -2   5  -8 13128.2 1228.50  17
  -2   5  -8 12258.1 534.866  26
  -2   5  -7 8415.03 448.005  37
  -2   5  -7 7780.88 430.965  36
  -2   5  -7 9281.94 972.382  20
  -2   5  -7 8059.49 957.375  17
  -2   5  -6 10176.6 993.632  20
  -2   5  -6 9470.70 991.543  17
  -2   5  -6 8247.38 936.663  59
  -2   5  -6 9035.86 951.661  58
  -2   5  -6 9309.97 472.740  36
  -2   5  -6 9081.64 980.612  10
  -2   5  -6 9134.83 466.257  37
  -2   5  -5 5802.16 358.250  37
  -2   5  -5 6270.08 742.341  20
  -2   5  -5 7379.99 851.865  59
  -2   5  -5 6695.85 785.680  58
  -2   5  -5 5969.87 733.312  10
  -2   5  -5 6660.99 386.997  36
  -2   5  -5 6595.34 582.998   7
  -2   5  -5 6376.58 776.971  17
  -2   5  -4 39757.9 1780.50  20
  -2   5  -4 38796.6 1821.09  59
  -2   5  -4 38150.1 1817.30  17
  -2   5  -4 40307.6 1825.67  58
  -2   5  -4 38483.3 1338.07   7
  -2   5  -4 36595.9 1706.23  10
  -2   5  -3 41550.9 1761.54  20
  -2   5  -3 43099.9 1810.39  17
  -2   5  -3 43650.1 1793.99  58
  -2   5  -3 43934.0 1703.06  66
  -2   5  -3 39458.5 1298.10   7
  -2   5  -3 44171.8 1727.20  23
  -2   5  -3 39434.8 1663.19  10
  -2   5  -2 55033.2 1978.68  20
  -2   5  -2 54169.0 1521.30   7
  -2   5  -2 53770.7 1870.20  10
  -2   5  -2 57331.8 1807.24  15
  -2   5  -2 52945.8 1913.89  17
  -2   5  -2 51726.8 1838.57  58
  -2   5  -2 50786.4 1859.34  23
  -2   5  -2 53035.0 1883.66  66
  -2   5  -1 11701.4 885.266  20
  -2   5  -1 10513.3 812.720  66
  -2   5  -1 10020.7 811.792  23
  -2   5  -1 9759.19 735.390  58
  -2   5  -1 11312.7 669.635   7
  -2   5  -1 9685.07 734.572  10
  -2   5  -1 10203.2 755.286  15
  -2   5   0 35339.0 1362.86  58
  -2   5   0 38618.8 1563.06  20
  -2   5   0 36397.4 1387.40  10
  -2   5   0 35493.4 1527.96  66
  -2   5   0 37644.9 1515.00  15
  -2   5   0 39391.0 1330.25   7
  -2   5   0 37467.2 1581.68  23
  -2   5   1 1643.43 339.567  66
  -2   5   1 1549.48 288.024   7
  -2   5   1 1722.22 291.277  10
  -2   5   1 1832.58 350.655  15
  -2   5   1 2039.99 383.070  23
  -2   5   2 591.726 180.315  10
  -2   5   2 568.082 199.496   7
  -2   5   2 516.544 232.681  66
  -2   5   2 478.597 170.031  55
  -2   5   2 795.229 255.866  15
  -2   5   2 586.764 259.256  23
  -2   5   3 21893.0 1294.99  66
  -2   5   3 19872.1 1010.56  55
  -2   5   3 20652.2 1295.26   7
  -2   5   3 20499.7 1245.51  23
  -2   5   3 20644.4 1227.33  15
  -2   5   4 716.032 287.374   7
  -2   5   4 594.138 103.684  31
  -2   5   4 475.611 108.560  33
  -2   5   4 539.568 101.353  29
  -2   5   4 754.944 282.831  66
  -2   5   4 630.803 207.365  55
  -2   5   4 771.183 248.886  15
  -2   5   4 535.287 233.792  23
  -2   5   5 13385.7 529.605  33
  -2   5   5 14016.1 936.970  55
  -2   5   5 13937.9 452.735  30
  -2   5   5 14902.8 492.642  31
  -2   5   5 15442.3 507.466  29
  -2   5   5 16217.3 1169.69  15
  -2   5   5 13636.8 1059.84  23
  -2   5   5 15194.3 1131.90  66
  -2   5   5 12936.1 1248.20   7
  -2   5   6 26974.1 649.059  30
  -2   5   6 25882.7 678.206  29
  -2   5   6 24740.6 653.761  31
  -2   5   6 26088.3 632.014  49
  -2   5   7 20494.0 577.792  31
  -2   5   7 21189.2 550.966  49
  -2   5   7 21617.4 600.730  29
  -2   5   8 3819.07 232.195  29
  -2   5   8 3416.59 200.845  49
  -2   5   8 3358.83 217.554  31
  -2   5   9 4802.60 235.765  31
  -2   5   9 4846.46 235.294  29
  -2   5   9 4811.37 221.979  30
  -2   5   9 5029.04 221.579  49
  -2   5  10 3502.18 169.999  31
  -2   5  10 3497.60 168.996  29
  -2   5  10 3804.33 164.733  49
  -2   6 -11 1102.47 97.3321  35
  -2   6 -11 1064.08 98.4832  41
  -2   6 -10 4243.73 249.139  41
  -2   6 -10 3820.07 225.257  35
  -2   6 -10 4637.53 241.586  26
  -2   6 -10 4036.25 206.371  48
  -2   6  -9 7687.37 342.587  36
  -2   6  -9 7547.45 368.170  35
  -2   6  -9 8400.87 382.384  26
  -2   6  -8 5998.11 330.916  37
  -2   6  -8 5694.33 338.519  36
  -2   6  -8 6218.59 363.226  35
  -2   6  -8 5722.30 351.987  26
  -2   6  -7 1027.71 357.239  17
  -2   6  -7 1040.08 162.971  37
  -2   6  -7 1196.19 177.574  36
  -2   6  -7 1076.37 343.830  20
  -2   6  -7 1276.13 189.294  26
  -2   6  -6 2268.90 233.162  37
  -2   6  -6 1963.76 220.229  36
  -2   6  -6 2490.40 512.483  20
  -2   6  -6 2023.64 501.350  17
  -2   6  -5 3477.80 601.029  17
  -2   6  -5 3547.82 288.420  37
  -2   6  -5 3507.64 289.897  36
  -2   6  -5 4368.98 647.832  20
  -2   6  -5 3166.18 598.970  59
  -2   6  -5 3228.50 604.972  58
  -2   6  -5 3251.24 446.154   7
  -2   6  -4 26030.2 783.945  37
  -2   6  -4 28606.2 1606.26  20
  -2   6  -4 27877.9 1637.29  17
  -2   6  -4 24798.4 1597.63  59
  -2   6  -4 26028.7 1601.34  58
  -2   6  -4 26496.4 784.078  27
  -2   6  -4 26639.1 1561.54  10
  -2   6  -4 28949.9 1293.42   7
  -2   6  -3 11451.2 490.872  37
  -2   6  -3 12825.7 1059.60  20
  -2   6  -3 10623.7 483.445  34
  -2   6  -3 12648.6 1041.63  17
  -2   6  -3 13205.0 1008.77  66
  -2   6  -3 11978.4 1018.26  58
  -2   6  -3 12668.2 1016.56  10
  -2   6  -3 9364.25 453.173  27
  -2   6  -3 12762.6 812.666   7
  -2   6  -3 13125.9 997.053  23
  -2   6  -2 11202.1 959.017  20
  -2   6  -2 12855.2 996.288  66
  -2   6  -2 12354.4 969.562  10
  -2   6  -2 9339.75 440.191  27
  -2   6  -2 12482.0 912.902  15
  -2   6  -2 12806.3 813.815   7
  -2   6  -2 12464.5 982.429  58
  -2   6  -2 11275.8 936.985  23
  -2   6  -1 12129.1 968.514  20
  -2   6  -1 11849.7 914.904  10
  -2   6  -1 11350.9 930.987  66
  -2   6  -1 10817.2 878.110  58
  -2   6  -1 11553.8 788.166   7
  -2   6  -1 12239.9 911.878  15
  -2   6  -1 11580.1 952.162  23
  -2   6   0 14691.3 1039.45  20
  -2   6   0 17502.3 1076.45  58
  -2   6   0 16836.7 1015.73   7
  -2   6   0 16427.4 1048.51  10
  -2   6   0 15479.9 1096.36  66
  -2   6   0 17033.2 1109.97  15
  -2   6   0 15228.5 1096.40  23
  -2   6   1 1323.45 167.767  34
  -2   6   1 1399.73 327.096   7
  -2   6   1 1601.00 327.743  10
  -2   6   1 1416.09 345.885  66
  -2   6   1 1856.95 355.099  58
  -2   6   1 1527.97 347.628  15
  -2   6   1 1327.47 158.222  33
  -2   6   1 1338.40 353.131  23
  -2   6   2 1375.06 370.111   7
  -2   6   2 1592.42 371.236  66
  -2   6   2 1552.03 191.140  34
  -2   6   2 1694.16 381.748  15
  -2   6   2 1590.63 172.295  33
  -2   6   2 1199.08 283.200  10
  -2   6   2 1152.79 165.627  27
  -2   6   2 1690.53 389.342  23
  -2   6   3 10432.2 411.777  29
  -2   6   3 10713.8 453.489  33
  -2   6   3 9689.53 913.623  23
  -2   6   3 11795.1 1020.77  66
  -2   6   3 8055.93 426.857  27
  -2   6   3 11082.4 1057.61   7
  -2   6   3 10160.8 402.603  31
  -2   6   3 10169.3 797.513  55
  -2   6   3 10357.1 927.875  15
  -2   6   3 10235.7 481.646  34
  -2   6   4 16377.2 1230.37  66
  -2   6   4 16304.0 516.837  31
  -2   6   4 16223.1 569.935  33
  -2   6   4 15854.6 517.765  29
  -2   6   4 13412.6 569.178  34
  -2   6   4 15078.9 1150.56  15
  -2   6   4 17680.3 1281.76  23
  -2   6   4 13015.0 1261.29   7
  -2   6   5 17351.8 1279.89  66
  -2   6   5 19530.2 572.082  31
  -2   6   5 20271.9 591.617  29
  -2   6   5 18066.1 1275.09  23
  -2   6   5 19457.8 1335.73  15
  -2   6   5 19863.6 640.267  33
  -2   6   6 2765.20 227.653  33
  -2   6   6 2452.73 198.790  31
  -2   6   6 2579.15 205.691  29
  -2   6   7 3228.45 215.377  31
  -2   6   7 3647.07 231.985  29
  -2   6   8 4156.28 224.530  31
  -2   6   8 4427.65 230.456  29
  -2   6   8 4122.23 196.666  49
  -2   6   9 1141.77 106.780  31
  -2   6   9 1148.95 107.267  29
  -2   6   9 1102.74 89.4008  49
  -2   6  10 2932.57 131.448  31
  -2   6  10 2588.75 121.411  29
  -2   7 -10 1172.84 106.958  41
  -2   7 -10 1167.02 105.092  35
  -2   7 -10 1455.58 111.145  26
  -2   7  -9 5448.83 245.568  36
  -2   7  -9 5049.02 259.256  35
  -2   7  -9 5293.86 262.169  26
  -2   7  -8 8090.82 343.356  37
  -2   7  -8 8840.76 376.102  36
  -2   7  -8 7729.01 366.976  35
  -2   7  -8 8840.91 385.515  26
  -2   7  -7 4694.42 295.870  37
  -2   7  -7 4154.50 286.352  36
  -2   7  -7 4868.82 309.084  26
  -2   7  -6 14978.1 567.321  37
  -2   7  -6 14700.7 570.838  36
  -2   7  -6 13992.1 1193.53  20
  -2   7  -5 18466.9 652.844  36
  -2   7  -5 20506.6 1430.26  20
  -2   7  -5 18571.4 653.013  37
  -2   7  -5 19832.3 648.604  27
  -2   7  -4 4794.21 328.068  37
  -2   7  -4 5129.28 343.219  36
  -2   7  -4 5135.12 713.946  20
  -2   7  -4 4945.03 311.594   2
  -2   7  -4 5178.05 335.660  27
  -2   7  -4 4920.42 326.669  34
  -2   7  -3 3539.09 274.506  37
  -2   7  -3 3863.42 612.635  20
  -2   7  -3 3321.85 546.008  66
  -2   7  -3 3631.23 285.317  34
  -2   7  -3 3073.01 259.194  27
  -2   7  -3 3687.46 566.764  23
  -2   7  -2 1404.41 332.318   7
  -2   7  -2 1331.63 374.083  20
  -2   7  -2 1119.29 166.590  34
  -2   7  -2 1049.47 320.887  10
  -2   7  -2 984.919 152.209  27
  -2   7  -2 1123.12 357.155  58
  -2   7  -2 1032.04 321.696  66
  -2   7  -2 1302.01 364.377  23
  -2   7  -1 1295.91 318.965   7
  -2   7  -1 965.022 155.515  34
  -2   7  -1 733.841 258.211  20
  -2   7  -1 917.658 298.654  10
  -2   7  -1 796.485 132.184  33
  -2   7  -1 1173.58 351.414  58
  -2   7  -1 764.165 140.940  27
  -2   7  -1 1035.26 310.155  15
  -2   7  -1 902.819 308.663  23
  -2   7  -1 634.221 262.615  66
  -2   7   0 12048.4 970.463   7
  -2   7   0 10769.9 456.120  33
  -2   7   0 13412.3 1103.53  66
  -2   7   0 11334.7 494.453  34
  -2   7   0 10103.3 919.207  10
  -2   7   0 11453.0 982.389  58
  -2   7   0 9747.83 461.473  27
  -2   7   0 13343.6 1057.97  15
  -2   7   0 10841.9 998.191  23
  -2   7   1 1425.46 183.849  34
  -2   7   1 1145.44 346.567   7
  -2   7   1 1150.11 343.469  66
  -2   7   1 1591.07 370.016  10
  -2   7   1 1715.64 404.122  15
  -2   7   1 1436.23 172.925  33
  -2   7   1 1179.92 320.291  58
  -2   7   1 1376.90 181.518  27
  -2   7   1 1446.51 368.045  23
  -2   7   2 19298.6 668.722  34
  -2   7   2 16617.7 623.120  27
  -2   7   2 22962.6 1429.00  15
  -2   7   2 18730.8 1332.98  66
  -2   7   2 22645.4 1437.13  23
  -2   7   2 19160.7 620.829  33
  -2   7   3 16715.0 567.303  33
  -2   7   3 17222.4 1296.14  66
  -2   7   3 19172.2 1347.86  23
  -2   7   3 16673.5 520.967  31
  -2   7   3 17215.0 527.646  29
  -2   7   3 16909.7 626.073  34
  -2   7   3 18051.8 1270.67  15
  -2   7   4 8995.77 931.858  66
  -2   7   4 8303.62 430.726  34
  -2   7   4 9760.55 945.731  23
  -2   7   4 9250.56 377.351  31
  -2   7   4 8842.58 373.430  29
  -2   7   4 9348.85 419.810  33
  -2   7   4 8516.66 896.658  15
  -2   7   5 1354.56 145.988  31
  -2   7   5 1671.85 175.812  33
  -2   7   5 1587.38 159.115  29
  -2   7   5 1224.48 362.151  23
  -2   7   6 21874.5 570.244  29
  -2   7   6 20609.9 552.340  31
  -2   7   6 21419.8 603.234  33
  -2   7   7 12552.4 396.314  31
  -2   7   7 13094.5 405.357  29
  -2   7   7 12659.1 412.596  33
  -2   7   8 299.072 64.3894  31
  -2   7   8 337.486 66.7113  29
  -2   7   9 5378.05 189.088  31
  -2   7   9 4336.50 168.757  29
  -2   8  -9 848.711 83.9687  35
  -2   8  -9 1157.31 98.5418  26
  -2   8  -8 2461.52 168.010  36
  -2   8  -8 2242.38 166.002  35
  -2   8  -8 2427.66 169.845  26
  -2   8  -7 2793.91 200.343  37
  -2   8  -7 2964.80 213.508  36
  -2   8  -7 2741.81 213.577  35
  -2   8  -7 2815.04 210.689  26
  -2   8  -6 8028.01 374.342  37
  -2   8  -6 7842.16 378.246  36
  -2   8  -6 8969.01 402.233  26
  -2   8  -5 38623.0 924.977  37
  -2   8  -5 37614.6 921.260  36
  -2   8  -4 6943.39 379.368  37
  -2   8  -4 7008.15 389.974  36
  -2   8  -4 7645.59 365.496   2
  -2   8  -4 7294.30 846.902  20
  -2   8  -4 7125.20 370.735  34
  -2   8  -4 7767.08 388.691  27
  -2   8  -3 9951.56 452.125  27
  -2   8  -3 9839.33 429.479   2
  -2   8  -3 9063.82 433.321  37
  -2   8  -3 9287.38 458.733  36
  -2   8  -3 9226.57 956.741  20
  -2   8  -3 9895.79 454.359  34
  -2   8  -2 2734.76 242.122  37
  -2   8  -2 2834.16 258.276  36
  -2   8  -2 2807.59 531.042  20
  -2   8  -2 1916.28 446.931  66
  -2   8  -2 3046.02 258.059  34
  -2   8  -2 2403.73 493.473  23
  -2   8  -1 13162.7 531.657  37
  -2   8  -1 12519.6 534.528  36
  -2   8  -1 10366.2 994.776  20
  -2   8  -1 12506.2 519.912  34
  -2   8  -1 12323.2 470.991  33
  -2   8  -1 12711.7 1127.01  66
  -2   8  -1 10799.5 478.599  27
  -2   8  -1 14146.6 1151.24  23
  -2   8   0 9213.30 953.755  66
  -2   8   0 9655.35 452.992  37
  -2   8   0 7253.93 390.293  27
  -2   8   0 8039.00 862.391  15
  -2   8   0 9074.01 406.312  33
  -2   8   0 9197.26 948.066  23
  -2   8   0 8745.47 426.866  34
  -2   8   1 13300.0 532.962  37
  -2   8   1 12505.9 1114.46  66
  -2   8   1 13730.6 538.107  34
  -2   8   1 13996.0 514.875  33
  -2   8   1 13704.4 1135.02  15
  -2   8   1 14692.3 1188.52  23
  -2   8   1 10668.5 478.401  27
  -2   8   2 9317.07 412.781  33
  -2   8   2 9398.97 451.525  34
  -2   8   2 9132.74 950.615  66
  -2   8   2 9487.79 443.287  27
  -2   8   2 10597.3 1009.97  23
  -2   8   3 8911.79 406.018   2
  -2   8   3 9902.94 447.707  34
  -2   8   3 9261.91 419.826  27
  -2   8   3 10373.6 994.264  23
  -2   8   3 9964.55 417.665  33
  -2   8   4 2146.89 166.744  31
  -2   8   4 2011.07 160.350  29
  -2   8   4 2281.37 195.062  33
  -2   8   4 2232.66 206.248  34
  -2   8   4 1567.37 382.959  23
  -2   8   5 23950.7 622.019  33
  -2   8   5 22956.9 623.495  34
  -2   8   5 24366.1 571.561  29
  -2   8   5 23315.0 562.310  31
  -2   8   6 1248.47 118.134  29
  -2   8   6 1403.11 125.004  31
  -2   8   7 1418.91 118.604  33
  -2   8   7 1516.61 117.878  31
  -2   8   7 1294.28 112.136  29
  -2   8   8 65.1563 34.3694  31
  -2   8   8 52.1286 32.9547  29
  -2   9  -7 39.4179 36.4038  37
  -2   9  -7 33.6682 47.2385  36
  -2   9  -7 62.7309 38.9082  35
  -2   9  -7 72.0081 54.5242  26
  -2   9  -6 1164.33 123.955  37
  -2   9  -6 1165.60 125.309  36
  -2   9  -6 937.266 105.382  35
  -2   9  -6 1073.57 125.943  26
  -2   9  -5 9972.98 356.083  27
  -2   9  -5 10213.5 394.691  36
  -2   9  -5 10597.2 401.988  37
  -2   9  -5 11429.6 419.728  26
  -2   9  -4 2332.27 198.586  37
  -2   9  -4 2071.71 170.416   2
  -2   9  -4 2170.90 194.577  36
  -2   9  -4 2208.73 186.145  27
  -2   9  -3 24012.8 674.548  37
  -2   9  -3 23237.9 669.549  36
  -2   9  -3 24565.7 648.058   2
  -2   9  -3 25753.1 686.742  34
  -2   9  -3 25220.4 679.110  27
  -2   9  -2 98.8832 77.4892  37
  -2   9  -2 191.811 98.8167  36
  -2   9  -2 141.136 78.6015  34
  -2   9  -2 227.331 88.3271   2
  -2   9  -2 93.7349 79.3420  27
  -2   9  -1 452.266 116.817  37
  -2   9  -1 398.500 99.9059  36
  -2   9  -1 592.653 112.326   2
  -2   9  -1 405.646 105.928  27
  -2   9  -1 418.992 109.777  34
  -2   9   0 2445.69 209.031  37
  -2   9   0 2393.64 218.231  34
  -2   9   0 2398.11 190.421  33
  -2   9   0 2283.32 213.126  27
  -2   9   0 2311.74 198.023   2
  -2   9   1 2521.65 204.706  37
  -2   9   1 2551.49 223.613  34
  -2   9   1 2594.14 219.283  27
  -2   9   1 2812.28 217.084   2
  -2   9   1 2245.68 193.421  33
  -2   9   2 2868.40 217.563  27
  -2   9   2 2966.32 214.788   2
  -2   9   2 2967.66 230.916  34
  -2   9   2 3003.53 211.272  33
  -2   9   3 3985.65 233.907   2
  -2   9   3 4135.90 239.408  33
  -2   9   3 4213.78 244.645  27
  -2   9   3 4049.02 257.092  34
  -2   9   4 4961.79 249.195  33
  -2   9   4 4608.49 254.878  34
  -2   9   5 5543.28 249.523  33
  -2   9   6 3119.79 162.523  33
  -2   9   6 2198.37 113.134  29
  -2  10  -5 3266.80 171.149  37
  -2  10  -5 3320.38 171.297  36
  -2  10  -5 2761.17 151.161  26
  -2  10  -4 4310.86 218.907  37
  -2  10  -4 4551.69 222.202  36
  -2  10  -4 4020.33 184.805   2
  -2  10  -4 3917.74 196.084  26
  -2  10  -4 4561.55 206.762  27
  -2  10  -3 2046.74 152.012   2
  -2  10  -3 1949.27 158.898  37
  -2  10  -3 1907.37 151.993  36
  -2  10  -3 2319.45 168.944  27
  -2  10  -3 1873.92 142.098  26
  -2  10  -3 2105.28 156.709  34
  -2  10  -2 15451.6 469.561  37
  -2  10  -2 14889.9 440.652  36
  -2  10  -2 16843.4 461.283   2
  -2  10  -2 17519.6 493.673  34
  -2  10  -2 18195.3 495.314  27
  -2  10  -1 378.252 84.2606  27
  -2  10  -1 253.402 73.0711  37
  -2  10  -1 342.197 85.3370  34
  -2  10  -1 354.796 84.9589   2
  -2  10   0 472.653 89.3459  37
  -2  10   0 506.813 91.5953   2
  -2  10   0 477.382 96.7877  34
  -2  10   0 355.488 84.8045  27
  -2  10   1 467.394 89.9504   2
  -2  10   1 352.125 73.5007  37
  -2  10   1 290.290 66.5218  33
  -2  10   1 338.623 76.8550  27
  -2  10   1 385.247 86.6643  34
  -2  10   2 332.542 82.5985  34
  -2  10   2 264.367 65.6329  33
  -2  10   2 364.743 75.1964  27
  -2  10   2 288.351 70.0673   2
  -2  10   3 2211.41 149.758  33
  -2  10   3 1972.53 128.908   2
  -2  10   3 1760.64 121.566  27
  -2  10   3 2343.36 161.033  34
  -2  10   4 13831.6 353.384  34
  -2  10   4 17576.0 392.504  33
  -2  10   5 1092.38 80.7369  33
  -2  11  -1 4951.91 181.392   2
  -2  11  -1 4822.43 186.056  27
  -2  11   0 6765.47 213.661   2
  -2  11   0 6375.23 213.781  27
  -2  11   0 7065.48 236.633  34
  -2  11   1 6949.81 226.444  34
  -1 -11  -5 5068.11 206.016  40
  -1 -11  -5 4319.50 212.656  25
  -1 -11  -4 11383.9 345.789  40
  -1 -11  -4 12248.1 394.007  25
  -1 -11  -4 10018.6 321.270  45
  -1 -11  -4 9426.88 299.421  43
  -1 -11  -3 18299.0 480.438  40
  -1 -11  -3 17733.2 479.040  45
  -1 -11  -3 17985.3 471.796  43
  -1 -11  -2 1977.62 159.649  40
  -1 -11  -2 1630.87 153.721  45
  -1 -11  -2 1685.44 165.995  25
  -1 -11  -2 1876.38 155.959  43
  -1 -11  -1 470.689 93.9160  40
  -1 -11  -1 329.617 87.8589  45
  -1 -11  -1 434.315 104.893  25
  -1 -11  -1 438.636 93.8095  43
  -1 -11   0 20192.4 550.832  40
  -1 -11   0 19886.1 555.391  45
  -1 -11   0 19731.0 550.557  43
  -1 -11   1 3188.41 213.008  43
  -1 -11   1 3443.09 225.708  45
  -1 -11   2 2992.71 203.773  43
  -1 -10  -7 8899.56 281.198  40
  -1 -10  -6 18712.2 471.482  40
  -1 -10  -6 17659.6 455.190  45
  -1 -10  -5 1099.62 126.737  40
  -1 -10  -5 853.579 160.930  25
  -1 -10  -5 1193.18 134.464  45
  -1 -10  -5 1104.02 119.759  43
  -1 -10  -4 1458.37 150.662  40
  -1 -10  -4 1286.15 193.101  25
  -1 -10  -4 1551.66 161.418  45
  -1 -10  -4 1558.09 154.568  43
  -1 -10  -3 5755.11 301.362  40
  -1 -10  -3 6017.23 320.677  45
  -1 -10  -3 6187.40 320.007  43
  -1 -10  -2 13125.9 473.358  40
  -1 -10  -2 13900.8 549.136  25
  -1 -10  -2 12912.5 487.617  45
  -1 -10  -2 13013.7 488.035  43
  -1 -10  -1 12805.5 476.744  40
  -1 -10  -1 11903.4 394.934   4
  -1 -10  -1 12912.5 535.568  25
  -1 -10  -1 11515.3 473.828  45
  -1 -10  -1 11904.3 479.579  43
  -1 -10   0 2316.65 210.490  40
  -1 -10   0 2343.72 222.195  45
  -1 -10   0 2171.18 230.308  25
  -1 -10   0 2187.63 213.488  43
  -1 -10   1 3887.65 272.254  40
  -1 -10   1 3493.67 268.923  45
  -1 -10   1 4286.72 232.212   4
  -1 -10   1 4049.61 305.068  25
  -1 -10   1 4093.39 287.505  43
  -1 -10   2 5101.51 233.923   4
  -1 -10   2 4842.73 317.940  45
  -1 -10   2 4808.47 310.453  43
  -1 -10   3 1174.59 171.806  25
  -1 -10   3 1519.85 180.397  45
  -1 -10   3 1410.71 176.444  43
  -1 -10   4 2089.49 167.219  28
  -1 -10   5 1259.47 120.541  28
  -1 -10   5 1375.33 171.474  50
  -1  -9  -8 10757.7 328.358  40
  -1  -9  -8 9212.13 291.291  45
  -1  -9  -7 18031.8 491.206  40
  -1  -9  -7 19885.6 514.882  45
  -1  -9  -6 11034.1 400.307  40
  -1  -9  -6 10110.1 846.011  24
  -1  -9  -6 11050.6 408.591  45
  -1  -9  -6 10629.8 393.413  43
  -1  -9  -5 6944.74 333.096  40
  -1  -9  -5 6381.15 694.617  24
  -1  -9  -5 6636.88 341.066  45
  -1  -9  -5 6645.28 334.924  43
  -1  -9  -4 14257.0 501.985  40
  -1  -9  -4 13129.1 474.587  48
  -1  -9  -4 14131.3 1064.23  24
  -1  -9  -4 14806.8 532.983  45
  -1  -9  -4 15119.9 534.632  43
  -1  -9  -3 18557.3 587.096  40
  -1  -9  -3 17522.8 604.663  45
  -1  -9  -3 17531.1 571.562  48
  -1  -9  -3 17082.2 1193.60  24
  -1  -9  -3 19074.1 625.284  43
  -1  -9  -2 10178.6 442.302  40
  -1  -9  -2 10633.1 471.126  43
  -1  -9  -2 10442.2 449.361  48
  -1  -9  -2 11585.3 528.606  25
  -1  -9  -2 9889.74 458.463  45
  -1  -9  -2 8952.61 359.669   4
  -1  -9  -1 6862.85 370.558  40
  -1  -9  -1 6907.69 313.380   4
  -1  -9  -1 7870.52 443.242  25
  -1  -9  -1 6531.32 379.634  45
  -1  -9  -1 6746.40 383.333  43
  -1  -9   0 11379.4 486.225  40
  -1  -9   0 11513.3 405.336   4
  -1  -9   0 12864.4 577.090  25
  -1  -9   0 12264.4 527.834  45
  -1  -9   0 11742.2 518.469  43
  -1  -9   1 26614.4 774.937  40
  -1  -9   1 29326.7 903.040  25
  -1  -9   1 28973.8 677.232   4
  -1  -9   1 26108.4 788.728  43
  -1  -9   1 24615.7 781.834  45
  -1  -9   2 26471.0 779.985  40
  -1  -9   2 24297.8 715.040  28
  -1  -9   2 25464.7 793.084  45
  -1  -9   2 28133.0 893.097  25
  -1  -9   2 23786.0 754.187  43
  -1  -9   3 12921.8 504.332  28
  -1  -9   3 12714.0 511.030  39
  -1  -9   3 14530.4 436.791   4
  -1  -9   3 12562.8 585.449  25
  -1  -9   3 12171.6 545.218  45
  -1  -9   3 13212.0 545.674  43
  -1  -9   4 12389.2 483.256  28
  -1  -9   4 10839.6 353.115   4
  -1  -9   4 12210.3 554.277  25
  -1  -9   4 12538.0 519.629  43
  -1  -9   5 153.272 86.3892  39
  -1  -9   5 349.870 146.022  50
  -1  -9   5 175.683 95.9137  43
  -1  -9   5 337.172 96.3413  28
  -1  -9   6 2926.13 211.723  28
  -1  -9   8 8547.26 287.501  50
  -1  -8 -10 4656.44 180.847  40
  -1  -8  -9 13591.6 365.338  45
  -1  -8  -8 7534.34 310.431  45
  -1  -8  -7 7637.34 341.700  45
  -1  -8  -7 7979.81 330.346  48
  -1  -8  -7 7587.78 739.617  24
  -1  -8  -6 7051.04 738.249  16
  -1  -8  -6 6889.04 341.823  43
  -1  -8  -6 6916.03 346.606  45
  -1  -8  -6 7354.90 337.908  48
  -1  -8  -6 7150.05 739.181  24
  -1  -8  -6 7065.97 352.719  41
  -1  -8  -5 6542.48 345.370  40
  -1  -8  -5 6556.93 353.085  41
  -1  -8  -5 6494.09 346.642  45
  -1  -8  -5 6196.02 694.206  16
  -1  -8  -5 6265.40 326.228  48
  -1  -8  -5 6818.90 724.716  24
  -1  -8  -5 6332.23 342.923  43
  -1  -8  -4 2992.37 245.245  45
  -1  -8  -4 3000.10 487.125  16
  -1  -8  -4 2917.59 230.924  48
  -1  -8  -4 3035.98 490.170  24
  -1  -8  -4 2578.18 224.933  43
  -1  -8  -4 2832.42 229.508  40
  -1  -8  -3 4264.05 278.057  40
  -1  -8  -3 4099.52 290.468  45
  -1  -8  -3 3105.79 533.678   1
  -1  -8  -3 4106.00 276.983  48
  -1  -8  -3 4017.71 563.314  24
  -1  -8  -3 4685.72 610.399  16
  -1  -8  -3 4655.88 308.044  43
  -1  -8  -2 13302.2 497.675  40
  -1  -8  -2 11699.3 976.881  21
  -1  -8  -2 9181.71 747.305  60
  -1  -8  -2 13544.9 1044.32   1
  -1  -8  -2 15546.6 482.606   4
  -1  -8  -2 10179.8 796.741  52
  -1  -8  -2 10131.3 778.195  53
  -1  -8  -2 11180.7 828.823  61
  -1  -8  -2 11969.6 487.393  48
  -1  -8  -2 13490.9 1036.04  24
  -1  -8  -2 13760.6 538.283  45
  -1  -8  -2 9804.53 762.474  59
  -1  -8  -2 14086.5 545.303  43
  -1  -8  -1 17483.6 590.762  40
  -1  -8  -1 17365.0 1218.01  21
  -1  -8  -1 17352.7 1179.35   1
  -1  -8  -1 18619.5 524.491   4
  -1  -8  -1 15622.8 573.189  48
  -1  -8  -1 17530.6 631.754  45
  -1  -8  -1 16977.4 621.202  43
  -1  -8   0 9127.33 432.252  40
  -1  -8   0 9425.32 911.138  21
  -1  -8   0 9828.42 883.099   1
  -1  -8   0 9674.97 369.566   4
  -1  -8   0 9843.93 515.730  25
  -1  -8   0 9124.58 456.606  43
  -1  -8   0 9072.84 457.050  45
  -1  -8   1 60.6553 80.5941  40
  -1  -8   1 61.7320 144.830  21
  -1  -8   1 85.0992 78.2433  43
  -1  -8   1 126.284 148.172   1
  -1  -8   1 55.3492 99.4064  25
  -1  -8   1 255.207 122.349  45
  -1  -8   1 211.290 109.006   4
  -1  -8   2 14954.5 612.393  45
  -1  -8   2 14714.4 590.216  39
  -1  -8   2 15192.3 606.656  43
  -1  -8   2 15069.9 580.578  28
  -1  -8   3 13187.2 560.561  39
  -1  -8   3 13867.4 591.944  45
  -1  -8   3 13317.2 546.616  28
  -1  -8   3 12928.9 625.265  25
  -1  -8   3 12277.4 540.533  43
  -1  -8   4 37017.8 1020.08  45
  -1  -8   4 36245.1 933.418  28
  -1  -8   4 38807.7 789.679   4
  -1  -8   4 40188.5 1135.57  25
  -1  -8   4 36545.5 963.505  43
  -1  -8   4 38796.1 991.496  39
  -1  -8   5 4340.19 308.270  28
  -1  -8   5 4640.59 276.969  51
  -1  -8   5 4731.16 374.857  25
  -1  -8   6 2942.59 281.467  25
  -1  -8   6 3659.74 233.715  51
  -1  -8   6 3080.77 241.266  28
  -1  -8   7 8183.54 330.087  51
  -1  -8   8 8498.51 298.749  51
  -1  -8   9 4813.69 176.998  51
  -1  -8   9 4169.13 209.052  50
  -1  -7 -11 8363.69 238.119  40
  -1  -7 -10 3468.37 185.557  40
  -1  -7 -10 2667.73 152.064  45
  -1  -7  -9 8598.20 334.203  40
  -1  -7  -9 7913.55 306.849  48
  -1  -7  -9 8048.73 317.185  45
  -1  -7  -9 7878.57 309.066  41
  -1  -7  -8 8091.70 351.197  45
  -1  -7  -8 8310.22 358.091  40
  -1  -7  -8 8306.34 348.384  48
  -1  -7  -8 7907.87 753.116  24
  -1  -7  -8 8467.00 356.136  41
  -1  -7  -7 5756.91 306.501  40
  -1  -7  -7 5954.35 317.413  45
  -1  -7  -7 5367.87 670.212  65
  -1  -7  -7 6263.62 693.634  24
  -1  -7  -7 5794.40 661.752  16
  -1  -7  -7 6101.64 317.159  48
  -1  -7  -7 5933.08 317.575  41
  -1  -7  -6 20425.7 601.718  40
  -1  -7  -6 19594.5 1248.29  65
  -1  -7  -6 21524.4 1269.50  24
  -1  -7  -6 18995.4 1178.23  16
  -1  -7  -6 20423.9 613.939  48
  -1  -7  -6 20476.5 633.017  45
  -1  -7  -6 20577.7 621.289  41
  -1  -7  -5 5147.97 552.559  59
  -1  -7  -5 5801.54 335.393  45
  -1  -7  -5 4981.55 545.821  58
  -1  -7  -5 6097.27 320.415  40
  -1  -7  -5 5321.83 557.096  61
  -1  -7  -5 5497.14 572.990  60
  -1  -7  -5 5396.48 561.864  53
  -1  -7  -5 6398.94 668.170  16
  -1  -7  -5 5745.81 318.893  48
  -1  -7  -5 5115.30 558.731  52
  -1  -7  -5 6281.68 668.746  24
  -1  -7  -5 5756.88 331.697  43
  -1  -7  -5 5998.90 327.546  41
  -1  -7  -4 8540.18 376.847  40
  -1  -7  -4 8317.06 665.642  53
  -1  -7  -4 7913.82 654.767  58
  -1  -7  -4 8297.97 667.458  60
  -1  -7  -4 7603.03 640.508  59
  -1  -7  -4 8632.16 401.122  45
  -1  -7  -4 8891.87 774.651  16
  -1  -7  -4 7916.34 668.297  52
  -1  -7  -4 7372.53 361.956  48
  -1  -7  -4 7900.47 654.825  61
  -1  -7  -4 8550.65 773.258  24
  -1  -7  -4 7753.20 386.846  43
  -1  -7  -4 8013.74 380.819  41
  -1  -7  -3 23581.4 1099.86  61
  -1  -7  -3 23472.4 656.682  40
  -1  -7  -3 23090.8 1241.10   1
  -1  -7  -3 24657.8 1260.48  16
  -1  -7  -3 20837.6 652.654  45
  -1  -7  -3 22570.6 1065.72  59
  -1  -7  -3 22602.1 1065.06  58
  -1  -7  -3 21096.3 1052.08  52
  -1  -7  -3 24604.2 1111.10  53
  -1  -7  -3 19769.9 608.438  48
  -1  -7  -3 24783.1 1274.44  24
  -1  -7  -3 20606.4 653.158  43
  -1  -7  -3 21991.4 1060.87  60
  -1  -7  -3 21368.7 641.943  41
  -1  -7  -2 18669.0 942.353  61
  -1  -7  -2 18010.2 915.403  59
  -1  -7  -2 18439.1 934.808  60
  -1  -7  -2 18058.0 1068.72   1
  -1  -7  -2 17494.9 924.607  52
  -1  -7  -2 17403.0 905.016  58
  -1  -7  -2 18587.9 931.415  53
  -1  -7  -2 18618.0 1102.37  24
  -1  -7  -2 18094.4 1075.12  16
  -1  -7  -1 1459.91 266.846  61
  -1  -7  -1 2133.27 378.901   1
  -1  -7  -1 1822.06 294.070  59
  -1  -7  -1 1782.73 364.723  21
  -1  -7  -1 1846.45 300.138  53
  -1  -7  -1 2099.65 393.212  24
  -1  -7  -1 2101.74 319.442  52
  -1  -7  -1 1959.88 306.459  60
  -1  -7   0 2528.64 433.786  21
  -1  -7   0 2414.78 397.112   1
  -1  -7   1 11373.6 938.019  21
  -1  -7   1 11749.6 887.315   1
  -1  -7   2 3168.84 261.957  40
  -1  -7   2 3720.04 516.069   1
  -1  -7   2 3920.35 240.146   4
  -1  -7   2 3016.67 264.175  45
  -1  -7   2 3144.76 264.879  43
  -1  -7   2 2709.80 244.165  28
  -1  -7   3 19797.8 1203.07   1
  -1  -7   3 18788.1 661.401  43
  -1  -7   3 19297.7 534.836   4
  -1  -7   3 17475.2 630.855  28
  -1  -7   3 19233.1 697.401  45
  -1  -7   4 525.074 123.736  39
  -1  -7   4 354.565 121.149  43
  -1  -7   4 484.187 123.216  28
  -1  -7   4 699.178 173.804  25
  -1  -7   4 509.806 148.549  45
  -1  -7   5 33772.0 899.327  28
  -1  -7   5 33009.4 926.418  43
  -1  -7   5 39110.8 919.374  51
  -1  -7   5 32226.1 989.526  50
  -1  -7   5 37108.6 1119.42  25
  -1  -7   6 6483.35 368.846  28
  -1  -7   6 7304.42 439.163  50
  -1  -7   6 7630.30 380.824  51
  -1  -7   6 6466.47 450.458  25
  -1  -7   6 6260.44 313.646  42
  -1  -7   7 7916.62 386.000  28
  -1  -7   7 8057.69 447.928  50
  -1  -7   7 7554.53 325.011  42
  -1  -7   7 8664.01 382.614  51
  -1  -7   7 8109.08 482.763  25
  -1  -7   8 5914.71 263.985  42
  -1  -7   8 6794.77 315.028  51
  -1  -7  10 7952.56 237.806  51
  -1  -7  10 3690.61 194.543  50
  -1  -6 -11 3527.46 177.496  40
  -1  -6 -10 13534.0 398.069  45
  -1  -6 -10 14001.7 413.391  48
  -1  -6 -10 12621.7 386.647  41
  -1  -6  -9 14183.2 470.026  40
  -1  -6  -9 14952.3 472.441  45
  -1  -6  -9 15500.4 489.448  48
  -1  -6  -9 13900.3 991.001  24
  -1  -6  -9 14183.1 469.687  41
  -1  -6  -8 161.354 79.0077  41
  -1  -6  -8 251.171 86.5482  40
  -1  -6  -8 245.893 90.0920  45
  -1  -6  -8 224.060 166.401  65
  -1  -6  -8 111.637 134.267  24
  -1  -6  -8 272.808 201.599  16
  -1  -6  -8 190.396 89.7948  48
  -1  -6  -7 19424.0 1191.36  24
  -1  -6  -7 19975.0 603.009  45
  -1  -6  -7 17876.5 1154.90  16
  -1  -6  -7 16083.6 540.555  40
  -1  -6  -7 18789.8 599.789  48
  -1  -6  -7 17909.9 1205.45  65
  -1  -6  -7 16974.3 562.554  41
  -1  -6  -6 20058.9 1080.14  60
  -1  -6  -6 20737.8 607.458  40
  -1  -6  -6 19237.9 1062.36  53
  -1  -6  -6 19938.5 1078.11  58
  -1  -6  -6 18837.1 1049.29  59
  -1  -6  -6 20103.1 1075.30  61
  -1  -6  -6 21607.6 1260.87  65
  -1  -6  -6 23387.6 1265.81  24
  -1  -6  -6 20702.1 1193.99  16
  -1  -6  -6 20613.9 629.933  48
  -1  -6  -6 21724.0 641.702  45
  -1  -6  -6 19654.0 611.267  41
  -1  -6  -5 1141.09 139.589  40
  -1  -6  -5 1286.49 338.661  11
  -1  -6  -5 1256.73 262.305  61
  -1  -6  -5 1139.61 290.937  16
  -1  -6  -5 1401.38 315.604  65
  -1  -6  -5 1165.50 255.205  60
  -1  -6  -5 1231.42 266.669  58
  -1  -6  -5 1192.18 259.588  53
  -1  -6  -5 1179.23 148.983  48
  -1  -6  -5 1423.24 315.219  24
  -1  -6  -5 920.737 133.245  41
  -1  -6  -5 1212.09 247.761  59
  -1  -6  -4 28597.7 1293.68  24
  -1  -6  -4 26424.9 1102.34  53
  -1  -6  -4 26160.3 1098.92  60
  -1  -6  -4 28061.2 1285.44  65
  -1  -6  -4 25901.8 1095.28  59
  -1  -6  -4 26520.0 1101.52  58
  -1  -6  -4 27952.8 1258.35  16
  -1  -6  -4 24667.3 1171.06   1
  -1  -6  -4 27472.3 1121.29  61
  -1  -6  -3 619.633 170.688  60
  -1  -6  -3 387.243 167.339  21
  -1  -6  -3 451.857 149.622  61
  -1  -6  -3 534.152 183.981   1
  -1  -6  -3 547.199 163.112  59
  -1  -6  -3 469.045 142.431  58
  -1  -6  -3 515.632 156.750  53
  -1  -6  -3 478.205 156.320  52
  -1  -6  -3 497.080 189.532  16
  -1  -6  -3 569.733 205.525  24
  -1  -6  -2 760.503 178.053  53
  -1  -6  -2 875.694 183.655  58
  -1  -6  -2 861.643 223.775   1
  -1  -6  -2 969.473 191.730  61
  -1  -6  -2 1022.31 257.800  21
  -1  -6  -2 815.699 180.479  59
  -1  -6  -2 803.986 177.755  60
  -1  -6  -2 643.486 166.994  52
  -1  -6  -2 1021.36 246.579  16
  -1  -6  -2 914.860 243.102  24
  -1  -6  -1 6427.55 599.875  21
  -1  -6  -1 6646.24 563.716   1
  -1  -6  -1 7145.35 494.494  61
  -1  -6  -1 6738.29 479.351  59
  -1  -6  -1 6643.38 477.535  60
  -1  -6  -1 7060.22 487.490  58
  -1  -6  -1 6422.98 565.689  16
  -1  -6  -1 6766.44 482.545  52
  -1  -6  -1 6741.76 590.231  12
  -1  -6  -1 7349.93 496.235  53
  -1  -6  -1 6785.45 597.962  24
  -1  -6   0 8042.68 518.173  59
  -1  -6   0 7923.38 685.275  21
  -1  -6   0 7354.75 597.684   1
  -1  -6   0 7900.90 518.167  60
  -1  -6   0 6482.74 472.002  61
  -1  -6   0 8005.46 524.702  53
  -1  -6   0 7165.53 637.151  24
  -1  -6   0 7355.30 511.945  52
  -1  -6   0 7981.36 626.722  64
  -1  -6   1 7848.26 702.925  21
  -1  -6   1 7418.80 540.107  55
  -1  -6   1 8587.73 659.877   1
  -1  -6   1 6983.40 507.948  60
  -1  -6   1 7631.02 524.940  59
  -1  -6   1 7370.91 520.592  61
  -1  -6   1 7334.31 524.918  53
  -1  -6   1 6792.97 509.764  52
  -1  -6   2 15701.3 910.324   1
  -1  -6   2 14234.7 987.502  21
  -1  -6   3 9483.76 731.790   1
  -1  -6   4 16008.3 586.885  28
  -1  -6   4 16942.5 618.409  43
  -1  -6   5 13738.6 638.852  38
  -1  -6   5 18277.6 628.711  28
  -1  -6   5 20888.9 751.384  50
  -1  -6   5 17124.4 760.700  25
  -1  -6   5 15167.9 526.087  42
  -1  -6   6 3936.14 261.162  42
  -1  -6   6 3756.67 287.962  28
  -1  -6   6 4312.21 347.697  50
  -1  -6   6 3763.24 355.500  25
  -1  -6   7 22124.9 668.154  51
  -1  -6   7 22775.0 870.340  25
  -1  -6   7 22726.6 782.006  50
  -1  -6   7 20282.1 594.819  42
  -1  -6   8 1087.90 133.869  42
  -1  -6   8 1266.29 158.223  51
  -1  -6   8 1219.70 188.700  50
  -1  -6   8 1140.40 217.817  25
  -1  -6   8 818.231 145.987  28
  -1  -6   9 2869.14 205.622  51
  -1  -6   9 2374.53 172.442  42
  -1  -6  11 3972.39 151.207  51
  -1  -5 -12 1891.54 118.385  40
  -1  -5 -11 7439.00 290.366  40
  -1  -5 -11 7698.56 292.777  48
  -1  -5 -10 22104.0 583.507  40
  -1  -5 -10 20082.7 542.182  45
  -1  -5 -10 22352.3 1233.68  24
  -1  -5 -10 21067.2 561.871  41
  -1  -5  -9 13066.6 477.449  40
  -1  -5  -9 14145.3 1022.38  24
  -1  -5  -9 13286.3 1069.55  65
  -1  -5  -9 15354.4 1084.72  16
  -1  -5  -9 14754.2 493.105  45
  -1  -5  -9 13927.8 488.440  41
  -1  -5  -8 6580.55 345.989  40
  -1  -5  -8 7132.11 723.814  24
  -1  -5  -8 6100.66 722.976  65
  -1  -5  -8 6680.43 714.347  16
  -1  -5  -8 6717.08 355.005  48
  -1  -5  -8 6445.39 342.679  41
  -1  -5  -8 6950.53 350.623  45
  -1  -5  -7 40892.1 918.605  40
  -1  -5  -7 42129.2 1584.41  60
  -1  -5  -7 43044.8 1612.19  61
  -1  -5  -7 41032.4 1709.21  11
  -1  -5  -7 45842.1 1885.12  65
  -1  -5  -7 40378.3 1562.25  59
  -1  -5  -7 38152.6 1530.66  53
  -1  -5  -7 41795.2 1575.13  58
  -1  -5  -7 45287.5 1819.93  16
  -1  -5  -7 42828.7 962.271  48
  -1  -5  -7 46843.1 1827.03  24
  -1  -5  -7 41057.6 924.948  45
  -1  -5  -7 39212.5 914.259  41
  -1  -5  -6 36241.6 1390.86  53
  -1  -5  -6 39037.5 1552.27  11
  -1  -5  -6 37703.5 1395.95  59
  -1  -5  -6 38914.9 1432.41  61
  -1  -5  -6 37498.4 1391.51  58
  -1  -5  -6 38564.2 1577.07  16
  -1  -5  -6 39162.6 1589.57  24
  -1  -5  -6 36402.9 1377.89  60
  -1  -5  -6 39712.5 1646.91  65
  -1  -5  -5 1075.08 224.500  58
  -1  -5  -5 1166.87 296.433  65
  -1  -5  -5 1208.65 241.165  60
  -1  -5  -5 1167.12 227.524  61
  -1  -5  -5 989.403 239.334  11
  -1  -5  -5 1153.24 238.147  59
  -1  -5  -5 1069.40 228.299  53
  -1  -5  -5 1186.37 273.365  16
  -1  -5  -5 1081.62 251.415  24
  -1  -5  -4 55636.2 1702.76  16
  -1  -5  -4 52968.2 1480.26  53
  -1  -5  -4 49208.3 1481.52   1
  -1  -5  -4 52605.6 1601.94  11
  -1  -5  -4 57818.7 1731.05  65
  -1  -5  -4 52595.6 1472.80  61
  -1  -5  -4 54179.7 1475.37  58
  -1  -5  -4 52465.7 1469.66  60
  -1  -5  -4 52033.7 1460.74  59
  -1  -5  -4 54210.7 1694.85  24
  -1  -5  -3 86029.4 2069.36  24
  -1  -5  -3 91497.6 2052.87  21
  -1  -5  -3 76914.6 1864.01   1
  -1  -5  -3 85396.0 2038.47  65
  -1  -5  -3 80826.5 1753.28  60
  -1  -5  -3 77900.2 1731.43  59
  -1  -5  -3 80612.3 1753.92  61
  -1  -5  -3 79791.6 1765.23  53
  -1  -5  -3 82504.8 1991.66  16
  -1  -5  -3 82791.0 1774.27  58
  -1  -5  -2 134121. 2509.17  12
  -1  -5  -2 148106. 2791.08  21
  -1  -5  -2 146816. 2694.10   1
  -1  -5  -2 153034. 2463.46  60
  -1  -5  -2 143212. 2728.88  65
  -1  -5  -2 147413. 2433.77  58
  -1  -5  -2 150736. 2446.03  59
  -1  -5  -2 141815. 2399.42  53
  -1  -5  -2 141097. 2681.21  16
  -1  -5  -2 154017. 2470.26  61
  -1  -5  -2 143919. 2786.20  24
  -1  -5  -1 70082.1 1837.50  21
  -1  -5  -1 78405.5 1546.87  61
  -1  -5  -1 76418.1 1796.75   1
  -1  -5  -1 71957.3 1518.80  52
  -1  -5  -1 75722.3 1529.86  53
  -1  -5  -1 73465.6 1512.05  58
  -1  -5  -1 76885.5 1732.53  64
  -1  -5  -1 77950.0 1827.83  16
  -1  -5  -1 77072.8 1540.95  60
  -1  -5  -1 70880.5 1825.85  24
  -1  -5  -1 78886.4 1547.74  59
  -1  -5  -1 74071.8 1738.89  12
  -1  -5   0 87976.6 1651.53  53
  -1  -5   0 82042.2 2050.08  21
  -1  -5   0 82765.7 1624.21  61
  -1  -5   0 90322.5 1958.41   1
  -1  -5   0 89441.1 1972.87  64
  -1  -5   0 80801.6 1597.02  59
  -1  -5   0 82949.1 1621.95  60
  -1  -5   0 82263.7 1626.76  52
  -1  -5   0 79375.7 1986.34  24
  -1  -5   0 88230.9 1649.87  58
  -1  -5   1 7974.10 622.885  21
  -1  -5   1 7987.33 558.517   1
  -1  -5   1 7771.93 457.650  61
  -1  -5   1 7539.89 564.309  64
  -1  -5   1 7652.85 446.022  59
  -1  -5   1 7779.25 453.111  60
  -1  -5   1 7330.93 448.024  52
  -1  -5   1 6533.86 438.575  55
  -1  -5   2 6654.42 602.900  21
  -1  -5   2 6963.32 453.853  61
  -1  -5   2 7154.14 538.169   1
  -1  -5   2 6783.74 532.543  18
  -1  -5   2 6182.93 444.379  55
  -1  -5   2 6376.02 442.957  53
  -1  -5   2 6899.50 462.271  52
  -1  -5   2 7286.08 467.435  60
  -1  -5   3 46980.5 1366.14   9
  -1  -5   3 46277.0 1455.59   1
  -1  -5   4 17823.5 925.230   9
  -1  -5   5 31206.6 1376.26   9
  -1  -5   6 20202.6 1202.53   9
  -1  -5   6 19349.3 735.501  50
  -1  -5   6 20722.7 840.717  25
  -1  -5   6 20818.4 672.101  28
  -1  -5   6 20546.3 618.127  42
  -1  -5   7 60771.1 1156.69  42
  -1  -5   7 64045.8 1235.22  51
  -1  -5   8 21606.0 641.894  51
  -1  -5   8 19663.3 582.819  42
  -1  -5   9 4671.82 272.868  51
  -1  -5   9 4430.91 248.451  42
  -1  -5  11 3923.39 186.527  51
  -1  -4 -12 4824.04 211.923  48
  -1  -4 -12 4894.92 211.742  40
  -1  -4 -11 24843.3 598.497  40
  -1  -4 -11 23692.2 565.248  45
  -1  -4 -11 25465.4 601.336  41
  -1  -4 -10 28747.2 714.278  40
  -1  -4 -10 27197.2 722.452  48
  -1  -4 -10 28962.6 719.587  41
  -1  -4 -10 28119.7 1444.75  24
  -1  -4  -9 38484.5 1861.30  65
  -1  -4  -9 38671.2 897.581  40
  -1  -4  -9 39693.2 1788.55  16
  -1  -4  -9 38632.4 922.666  48
  -1  -4  -9 38575.3 1736.49  24
  -1  -4  -9 42746.1 945.969  41
  -1  -4  -8 15593.4 1003.13  60
  -1  -4  -8 15029.3 1107.71  65
  -1  -4  -8 15062.9 531.166  40
  -1  -4  -8 16504.9 569.717  41
  -1  -4  -8 14267.4 956.692  59
  -1  -4  -8 14232.8 1030.52  11
  -1  -4  -8 13094.4 915.099  53
  -1  -4  -8 15622.1 1079.54  16
  -1  -4  -8 13906.6 541.165  48
  -1  -4  -8 18202.8 1147.56  24
  -1  -4  -8 14542.4 976.849  61
  -1  -4  -8 14273.6 950.694  58
  -1  -4  -7 1252.03 163.084  40
  -1  -4  -7 1230.59 269.554  59
  -1  -4  -7 1176.49 268.719  60
  -1  -4  -7 1440.34 340.070  65
  -1  -4  -7 1318.31 281.142  61
  -1  -4  -7 1183.69 264.676  58
  -1  -4  -7 1175.50 266.975  17
  -1  -4  -7 966.392 244.892  53
  -1  -4  -7 1044.33 153.309  48
  -1  -4  -7 1212.71 299.415  16
  -1  -4  -7 1369.85 322.515  24
  -1  -4  -7 1174.38 298.399  11
  -1  -4  -6 3242.19 388.770  59
  -1  -4  -6 3358.45 424.384  11
  -1  -4  -6 3674.81 421.067  17
  -1  -4  -6 3463.93 471.067  65
  -1  -4  -6 3265.16 387.243  60
  -1  -4  -6 3373.66 452.889  24
  -1  -4  -6 3221.04 383.641  58
  -1  -4  -6 3367.88 444.115  16
  -1  -4  -6 3194.49 391.981  53
  -1  -4  -6 3294.67 396.806  61
  -1  -4  -5 3982.65 459.896  65
  -1  -4  -5 4066.81 424.763  11
  -1  -4  -5 4314.51 473.323  24
  -1  -4  -5 3772.07 384.124  60
  -1  -4  -5 3774.89 382.872  59
  -1  -4  -5 3874.55 382.641  58
  -1  -4  -5 4031.52 414.841  17
  -1  -4  -5 3650.19 385.176  53
  -1  -4  -5 3152.51 393.094  16
  -1  -4  -5 3706.31 386.442  61
  -1  -4  -4 28665.8 989.541  61
  -1  -4  -4 25434.0 831.812  12
  -1  -4  -4 29000.1 981.184  59
  -1  -4  -4 24949.8 941.929  21
  -1  -4  -4 31195.5 1082.53  11
  -1  -4  -4 30260.7 1058.74  17
  -1  -4  -4 31818.5 1187.49  65
  -1  -4  -4 28890.8 986.016  60
  -1  -4  -4 28077.6 938.444   1
  -1  -4  -4 27943.0 948.824  58
  -1  -4  -4 30657.7 1133.50  16
  -1  -4  -4 29135.9 1133.39  24
  -1  -4  -4 27291.2 965.948  53
  -1  -4  -3 76749.4 1548.64  61
  -1  -4  -3 71558.1 1434.79  12
  -1  -4  -3 65603.9 1545.16  21
  -1  -4  -3 72704.2 1608.12  11
  -1  -4  -3 66168.4 1511.73   1
  -1  -4  -3 78744.7 1786.62  65
  -1  -4  -3 74106.3 1506.55  60
  -1  -4  -3 73479.1 1503.03  58
  -1  -4  -3 72087.1 1513.77  53
  -1  -4  -3 68438.7 1653.47  16
  -1  -4  -3 76234.8 1526.21  59
  -1  -4  -2 16382.9 596.785  61
  -1  -4  -2 15972.3 696.165  21
  -1  -4  -2 15141.3 663.141   1
  -1  -4  -2 14744.3 686.963  65
  -1  -4  -2 15441.3 581.279  58
  -1  -4  -2 14962.0 569.646  60
  -1  -4  -2 14012.4 575.286  12
  -1  -4  -2 15272.6 685.315  16
  -1  -4  -2 17185.5 758.190  24
  -1  -4  -2 15777.7 590.624  53
  -1  -4  -2 16188.5 591.755  59
  -1  -4  -1 3177.09 282.448  12
  -1  -4  -1 3278.23 325.847  24
  -1  -4  -1 3592.76 292.462  64
  -1  -4  -1 3115.72 311.953  21
  -1  -4  -1 2597.10 272.749   1
  -1  -4  -1 3056.96 240.599  58
  -1  -4  -1 2752.65 229.187  53
  -1  -4  -1 3105.91 240.235  59
  -1  -4  -1 3254.92 245.575  61
  -1  -4  -1 3187.10 243.475  60
  -1  -4  -1 2817.14 285.964  16
  -1  -4   0 41188.7 1226.62  21
  -1  -4   0 41085.4 1112.63   1
  -1  -4   0 43649.9 932.566  53
  -1  -4   0 45552.8 951.140  61
  -1  -4   0 38860.1 745.742   9
  -1  -4   0 42291.8 920.067  58
  -1  -4   0 37264.2 889.585  52
  -1  -4   0 38446.1 1111.92  16
  -1  -4   0 38526.4 1086.52  64
  -1  -4   0 37738.3 1174.90  24
  -1  -4   0 39915.8 895.308  59
  -1  -4   0 42177.8 921.366  60
  -1  -4   1 45248.4 1012.69  53
  -1  -4   1 43484.7 1330.24  21
  -1  -4   1 40953.5 1126.68  18
  -1  -4   1 46206.3 1215.95   1
  -1  -4   1 46323.7 1277.17  64
  -1  -4   1 42432.7 1012.96  55
  -1  -4   1 47244.5 1014.91  59
  -1  -4   1 39502.8 970.927  52
  -1  -4   1 51781.3 1023.13   9
  -1  -4   1 45735.7 1014.27  61
  -1  -4   1 49303.4 1045.23  60
  -1  -4   2 167463. 3158.00  21
  -1  -4   2 193415. 2673.05  60
  -1  -4   2 188352. 2892.53   1
  -1  -4   2 189682. 2771.55   9
  -1  -4   2 171767. 2586.36  61
  -1  -4   2 177213. 2700.00  56
  -1  -4   2 170670. 2622.52  55
  -1  -4   2 176899. 2611.31  53
  -1  -4   2 202006. 2722.93  52
  -1  -4   2 177437. 3002.32  18
  -1  -4   3 12322.7 617.965   1
  -1  -4   3 12727.4 589.731  55
  -1  -4   3 11718.0 551.092  61
  -1  -4   3 10086.5 518.011  57
  -1  -4   3 14192.9 692.729   9
  -1  -4   3 10318.7 541.479  56
  -1  -4   3 10758.0 534.045  53
  -1  -4   3 11911.3 556.605  60
  -1  -4   3 10875.2 543.132  52
  -1  -4   4 2301.41 273.670   1
  -1  -4   4 2536.96 333.034   9
  -1  -4   4 2027.50 268.171  56
  -1  -4   5 5051.26 465.656  56
  -1  -4   5 5533.59 558.130   9
  -1  -4   6 13480.8 939.971   9
  -1  -4   7 17153.1 549.574  42
  -1  -4   7 16893.2 1149.31   9
  -1  -4   7 16519.7 597.544  28
  -1  -4   7 18468.8 589.984  51
  -1  -4   8 27497.4 739.172  51
  -1  -4   8 26547.3 654.410  32
  -1  -4   9 5495.05 273.821  32
  -1  -4   9 5261.67 308.004  51
  -1  -4   9 5630.29 277.831  44
  -1  -4   9 5114.35 276.558  42
  -1  -4  10 1387.70 121.515  32
  -1  -4  10 1412.94 158.795  51
  -1  -4  10 1236.56 134.357  42
  -1  -3 -12 3389.00 191.299  40
  -1  -3 -12 3742.41 205.724  48
  -1  -3 -12 3408.67 181.740  41
  -1  -3 -11 4491.93 254.295  40
  -1  -3 -11 4965.77 281.191  48
  -1  -3 -10 817.933 129.344  41
  -1  -3 -10 774.863 132.362  40
  -1  -3 -10 308.848 212.419  65
  -1  -3 -10 903.884 283.730  16
  -1  -3 -10 839.050 141.041  48
  -1  -3 -10 976.268 302.226  24
  -1  -3  -9 54581.2 1111.30  40
  -1  -3  -9 51505.2 2176.84  65
  -1  -3  -9 57212.1 2108.51  24
  -1  -3  -9 52716.6 2087.28  16
  -1  -3  -9 51356.6 1122.64  48
  -1  -3  -9 51813.8 1115.71  41
  -1  -3  -8 135144. 3137.43  59
  -1  -3  -8 134050. 1997.84  40
  -1  -3  -8 134675. 3306.49  11
  -1  -3  -8 126199. 3390.31  65
  -1  -3  -8 135985. 3157.25  60
  -1  -3  -8 137026. 3132.76  58
  -1  -3  -8 121343. 2990.46  53
  -1  -3  -8 132443. 3179.29  17
  -1  -3  -8 148784. 3458.24  16
  -1  -3  -8 125507. 2017.56  48
  -1  -3  -8 133918. 3275.01  24
  -1  -3  -8 141806. 3256.39  61
  -1  -3  -8 121245. 1980.19  41
  -1  -3  -7 98681.4 2574.30  11
  -1  -3  -7 102518. 2663.91  24
  -1  -3  -7 90671.3 2663.79  65
  -1  -3  -7 97190.1 2445.14  61
  -1  -3  -7 96400.6 2392.52  58
  -1  -3  -7 100727. 2548.05  17
  -1  -3  -7 98475.7 2414.04  60
  -1  -3  -7 98247.4 2603.13  16
  -1  -3  -7 99858.0 2431.83  59
  -1  -3  -6 3598.01 398.396  60
  -1  -3  -6 3506.28 390.817  58
  -1  -3  -6 3564.70 425.906  11
  -1  -3  -6 3080.10 428.984  65
  -1  -3  -6 3526.61 405.664  61
  -1  -3  -6 3407.39 388.107  59
  -1  -3  -6 3978.32 447.398  17
  -1  -3  -6 3649.81 447.501  16
  -1  -3  -6 3554.87 445.525  24
  -1  -3  -5 39069.3 1209.12  60
  -1  -3  -5 38561.9 1028.00  12
  -1  -3  -5 41631.6 1297.31  11
  -1  -3  -5 39174.7 1242.26  61
  -1  -3  -5 38946.1 1197.13  59
  -1  -3  -5 39767.1 1308.17  17
  -1  -3  -5 39168.2 1201.86  58
  -1  -3  -5 40723.1 1382.67  16
  -1  -3  -5 36792.7 1366.57  65
  -1  -3  -5 41588.2 1405.57  24
  -1  -3  -4 81889.3 1465.25  12
  -1  -3  -4 85280.5 1764.10  11
  -1  -3  -4 87854.6 1962.23  65
  -1  -3  -4 80205.0 1669.75  60
  -1  -3  -4 87324.0 1924.96  24
  -1  -3  -4 82519.7 1659.84  58
  -1  -3  -4 82905.8 1800.75  17
  -1  -3  -4 78695.5 1634.28  59
  -1  -3  -4 89913.0 1915.07  16
  -1  -3  -4 79338.1 1694.09  61
  -1  -3  -3 106640. 1613.69  12
  -1  -3  -3 115941. 1921.73  11
  -1  -3  -3 101815. 2000.57  65
  -1  -3  -3 102698. 1753.64   1
  -1  -3  -3 106411. 1827.92  61
  -1  -3  -3 106686. 1805.60  59
  -1  -3  -3 107597. 1814.15  60
  -1  -3  -3 106460. 1809.10  58
  -1  -3  -3 105825. 1947.17  17
  -1  -3  -3 115843. 2058.97  16
  -1  -3  -3 107120. 2051.12  24
  -1  -3  -2 85972.1 1385.30  12
  -1  -3  -2 90440.5 1566.46  11
  -1  -3  -2 87756.6 1560.38   1
  -1  -3  -2 85178.3 1649.80  65
  -1  -3  -2 89055.4 1473.63  58
  -1  -3  -2 86592.1 1469.72  53
  -1  -3  -2 90088.6 1662.85  16
  -1  -3  -2 88975.5 1471.69  60
  -1  -3  -2 91517.7 1490.35  59
  -1  -3  -2 91032.7 1513.19  61
  -1  -3  -1 69821.7 1251.01  12
  -1  -3  -1 71465.8 1370.55   1
  -1  -3  -1 66311.6 1282.16  11
  -1  -3  -1 66718.8 1361.76  65
  -1  -3  -1 70716.4 1232.51  64
  -1  -3  -1 70918.0 1189.03  61
  -1  -3  -1 74074.1 1196.82  58
  -1  -3  -1 74977.0 1201.97  59
  -1  -3  -1 73630.9 1215.53  53
  -1  -3  -1 75478.5 1417.69  16
  -1  -3  -1 78102.2 1228.48  60
  -1  -3   0 517.757 124.732  21
  -1  -3   0 595.991 88.1207   9
  -1  -3   0 480.241 111.751  64
  -1  -3   0 561.231 84.3934  59
  -1  -3   0 649.669 93.8669  58
  -1  -3   0 590.059 94.1084  53
  -1  -3   0 629.953 92.0909  52
  -1  -3   0 622.982 89.5286  60
  -1  -3   0 663.422 132.150   1
  -1  -3   0 571.009 119.915  16
  -1  -3   0 624.613 90.2693  61
  -1  -3   1 25582.7 600.908  59
  -1  -3   1 28888.9 931.476  21
  -1  -3   1 27973.3 785.862   1
  -1  -3   1 24652.8 764.877  18
  -1  -3   1 28794.7 635.413  61
  -1  -3   1 27570.7 695.910   9
  -1  -3   1 27937.3 746.540  56
  -1  -3   1 27271.6 620.292  60
  -1  -3   1 26724.4 621.976  53
  -1  -3   1 26031.4 633.613  55
  -1  -3   1 30018.2 659.655  52
  -1  -3   2 124508. 1768.76  60
  -1  -3   2 115113. 1901.49   1
  -1  -3   2 117979. 1961.10   9
  -1  -3   2 118156. 1905.84  56
  -1  -3   2 114785. 1752.96  55
  -1  -3   2 112276. 1718.87  61
  -1  -3   2 118250. 1751.84  53
  -1  -3   2 109623. 2063.34  18
  -1  -3   3 444.080 140.125   9
  -1  -3   3 427.289 102.721  52
  -1  -3   3 480.970 107.277  57
  -1  -3   3 409.643 119.821  56
  -1  -3   3 467.510 109.424  55
  -1  -3   3 426.747 112.294   1
  -1  -3   3 397.433 103.490  53
  -1  -3   3 472.747 107.258  61
  -1  -3   4 62613.2 1396.17  52
  -1  -3   4 67641.5 1410.81  61
  -1  -3   4 66150.0 1412.30  57
  -1  -3   4 70645.5 1602.25  56
  -1  -3   4 74333.4 1799.00   9
  -1  -3   4 66563.7 1434.29  55
  -1  -3   4 69951.7 1375.00   1
  -1  -3   5 7527.28 614.296   9
  -1  -3   5 6675.62 515.870  56
  -1  -3   6 3311.62 453.746   9
  -1  -3   6 3711.97 432.505  56
  -1  -3   7 13040.9 450.936  32
  -1  -3   7 15652.9 1073.33   9
  -1  -3   7 12725.4 875.580  56
  -1  -3   7 13942.4 527.526  28
  -1  -3   7 15038.1 528.414  51
  -1  -3   7 11870.4 467.468  44
  -1  -3   7 13188.7 464.505  42
  -1  -3   8 4062.62 266.411  44
  -1  -3   8 4423.52 259.641  32
  -1  -3   8 3765.51 247.038  42
  -1  -3   8 4523.48 290.471  51
  -1  -3   9 3781.52 236.528  32
  -1  -3   9 3934.98 268.656  51
  -1  -3   9 3606.21 240.655  42
  -1  -3   9 3782.87 245.295  44
  -1  -3  10 17518.7 479.080  32
  -1  -3  10 17898.2 493.733  44
  -1  -3  11 7862.74 274.946  32
  -1  -3  12 329.958 71.4575  50
  -1  -2 -13 515.147 64.6936  40
  -1  -2 -13 838.246 83.7282  48
  -1  -2 -12 763.114 104.527  40
  -1  -2 -12 912.549 108.458  41
  -1  -2 -12 828.776 114.506  48
  -1  -2 -11 767.232 127.586  41
  -1  -2 -11 966.623 136.567  40
  -1  -2 -11 1185.14 154.524  48
  -1  -2 -11 775.920 265.578  24
  -1  -2 -10 12165.5 486.154  40
  -1  -2 -10 11958.0 990.493  16
  -1  -2 -10 12204.1 509.373  48
  -1  -2 -10 11924.0 973.501  24
  -1  -2 -10 12061.6 1081.22  65
  -1  -2 -10 12126.8 495.769  41
  -1  -2  -9 17165.2 1105.84  58
  -1  -2  -9 16853.3 1182.86  11
  -1  -2  -9 16658.4 1243.63  65
  -1  -2  -9 17372.7 1148.91  61
  -1  -2  -9 17509.0 1127.01  59
  -1  -2  -9 17473.0 1129.33  60
  -1  -2  -9 16740.1 1140.24  17
  -1  -2  -9 19820.3 662.800  41
  -1  -2  -9 19303.4 1236.63  16
  -1  -2  -9 19035.7 654.462  48
  -1  -2  -9 17917.2 1181.57  24
  -1  -2  -8 23700.9 1211.93  58
  -1  -2  -8 23919.7 1308.56  11
  -1  -2  -8 22374.6 1232.65  61
  -1  -2  -8 23379.8 1199.99  59
  -1  -2  -8 24174.7 1310.07  17
  -1  -2  -8 24273.2 1312.92  24
  -1  -2  -8 22228.6 714.719  48
  -1  -2  -8 23593.8 1308.11  16
  -1  -2  -8 21791.9 1330.48  65
  -1  -2  -8 24479.5 1245.40  60
  -1  -2  -8 20675.5 692.764  41
  -1  -2  -7 11425.5 848.901  24
  -1  -2  -7 11164.6 813.480  11
  -1  -2  -7 10933.5 792.673  61
  -1  -2  -7 11199.1 759.040  59
  -1  -2  -7 10959.8 752.840  60
  -1  -2  -7 10924.6 750.363  58
  -1  -2  -7 11928.1 862.470  17
  -1  -2  -7 11619.1 834.924  16
  -1  -2  -7 10387.7 840.623  65
  -1  -2  -6 22380.3 838.667  12
  -1  -2  -6 22939.1 1035.98  11
  -1  -2  -6 21901.4 1078.95  17
  -1  -2  -6 20807.6 994.261  61
  -1  -2  -6 22348.1 991.559  60
  -1  -2  -6 22094.2 976.702  58
  -1  -2  -6 20970.4 954.328  59
  -1  -2  -6 20384.1 1021.58  16
  -1  -2  -6 19801.3 1071.29  65
  -1  -2  -6 21653.5 1055.91  24
  -1  -2  -5 254302. 3953.67  61
  -1  -2  -5 274959. 3560.19  12
  -1  -2  -5 227885. 3552.97  21
  -1  -2  -5 280787. 4017.90  11
  -1  -2  -5 280806. 4230.99  24
  -1  -2  -5 265181. 3898.68  60
  -1  -2  -5 278236. 4216.74  17
  -1  -2  -5 270926. 3906.62  58
  -1  -2  -5 256741. 4052.86  16
  -1  -2  -5 254179. 4201.54  65
  -1  -2  -5 263602. 3878.89  59
  -1  -2  -4 18385.6 743.715  61
  -1  -2  -4 19059.3 580.318  12
  -1  -2  -4 20623.7 760.870  11
  -1  -2  -4 16772.3 512.930  64
  -1  -2  -4 18122.6 702.374  59
  -1  -2  -4 19014.5 719.448  58
  -1  -2  -4 18419.3 715.100  60
  -1  -2  -4 18496.5 827.722  24
  -1  -2  -4 18289.0 798.257  17
  -1  -2  -4 19477.5 802.936  16
  -1  -2  -4 20207.9 858.366  65
  -1  -2  -3 15806.3 670.456  65
  -1  -2  -3 16272.2 620.787  61
  -1  -2  -3 16123.5 454.849  12
  -1  -2  -3 19002.7 632.730  11
  -1  -2  -3 16124.3 588.800  59
  -1  -2  -3 16589.3 601.531  60
  -1  -2  -3 16713.6 603.230  58
  -1  -2  -3 17108.4 680.652  17
  -1  -2  -3 16871.0 655.488  16
  -1  -2  -2 19255.9 641.012  17
  -1  -2  -2 18202.5 553.684  58
  -1  -2  -2 18555.2 414.487  12
  -1  -2  -2 20548.2 561.757  11
  -1  -2  -2 17889.9 568.046  61
  -1  -2  -2 18865.0 567.726  60
  -1  -2  -2 18222.3 555.288  59
  -1  -2  -2 19261.6 545.536   1
  -1  -2  -2 20665.3 653.844  16
  -1  -2  -2 18818.5 544.405   3
  -1  -2  -1 518794. 5412.78  12
  -1  -2  -1 503261. 5652.98   1
  -1  -2  -1 531886. 5555.64  11
  -1  -2  -1 519815. 5509.79  60
  -1  -2  -1 519175. 5508.30  59
  -1  -2  -1 530376. 5516.99  58
  -1  -2  -1 523046. 5549.84  61
  -1  -2  -1 513600. 5700.25   3
  -1  -2   0 260094. 2897.39  58
  -1  -2   0 258772. 3171.46   1
  -1  -2   0 280627. 2915.56  60
  -1  -2   0 283190. 3041.21   9
  -1  -2   0 263590. 3184.55  56
  -1  -2   0 280615. 2914.20  61
  -1  -2   0 257802. 2910.02  53
  -1  -2   0 269148. 2905.98  59
  -1  -2   1 48213.2 721.155  59
  -1  -2   1 53624.1 743.525  60
  -1  -2   1 45875.8 709.668  53
  -1  -2   1 46633.7 724.896  55
  -1  -2   1 43995.7 701.413  61
  -1  -2   1 53493.7 948.490   9
  -1  -2   1 51436.3 946.720  56
  -1  -2   1 51772.8 951.727   1
  -1  -2   1 52499.5 965.442   3
  -1  -2   1 43840.4 704.529  52
  -1  -2   2 145278. 2015.44   1
  -1  -2   2 151794. 1882.37  57
  -1  -2   2 150829. 2202.94   9
  -1  -2   2 163022. 2194.22  56
  -1  -2   2 135251. 1857.99  55
  -1  -2   2 149908. 1882.32  53
  -1  -2   2 149683. 1884.72  52
  -1  -2   2 144636. 1854.58  61
  -1  -2   3 42870.8 890.229  53
  -1  -2   3 45881.4 1063.02  19
  -1  -2   3 44650.4 903.380  61
  -1  -2   3 39474.0 870.849  57
  -1  -2   3 47365.7 1123.37  56
  -1  -2   3 47473.4 1177.16   9
  -1  -2   3 43925.0 914.822  55
  -1  -2   3 42168.8 897.942  52
  -1  -2   3 43543.2 882.716   1
  -1  -2   3 38334.9 938.171  22
  -1  -2   4 471.214 122.294  22
  -1  -2   4 361.392 100.316  53
  -1  -2   4 396.573 105.611  52
  -1  -2   4 515.333 151.562   9
  -1  -2   4 293.924 72.3584   1
  -1  -2   4 339.747 99.8901  57
  -1  -2   4 541.344 144.073  56
  -1  -2   4 377.832 138.881  19
  -1  -2   4 382.738 106.821  55
  -1  -2   5 32063.3 1212.94   9
  -1  -2   5 29300.3 926.235  55
  -1  -2   5 29756.5 921.814  57
  -1  -2   5 32290.2 1159.13  56
  -1  -2   5 28268.6 908.587  52
  -1  -2   5 34164.0 1071.51  22
  -1  -2   6 1363.52 234.212  22
  -1  -2   6 1326.81 255.520  19
  -1  -2   6 1402.53 276.705  56
  -1  -2   6 1432.94 295.303   9
  -1  -2   7 530.249 205.112  56
  -1  -2   7 592.936 224.527   9
  -1  -2   8 4519.51 292.269  51
  -1  -2   8 4619.68 261.098  32
  -1  -2   8 4294.84 588.009   9
  -1  -2   8 3453.69 511.093  56
  -1  -2   8 4170.19 260.684  42
  -1  -2   8 3912.14 263.230  44
  -1  -2   9 12676.0 465.044  44
  -1  -2   9 13710.7 502.560  51
  -1  -2   9 13184.1 457.721  42
  -1  -2   9 13149.5 443.846  32
  -1  -2  10 749.384 108.837  32
  -1  -2  10 749.713 126.531  51
  -1  -2  10 723.243 122.254  42
  -1  -2  10 612.366 134.291  50
  -1  -2  10 865.921 124.896  44
  -1  -2  11 3974.74 202.077  32
  -1  -2  12 267.216 56.4518  32
  -1  -2  12-14.4218 65.5015  50
  -1  -1 -13 95.7839 37.4622  41
  -1  -1 -13 61.8312 37.5099  40
  -1  -1 -13 149.753 51.5786  48
  -1  -1 -12 2350.72 187.521  48
  -1  -1 -12 2635.81 188.307  41
  -1  -1 -11 18539.6 595.365  48
  -1  -1 -11 17437.5 568.867  41
  -1  -1 -10 46464.9 2142.17  65
  -1  -1 -10 43671.9 1047.83  48
  -1  -1 -10 44072.3 1941.00  16
  -1  -1 -10 44633.7 1912.76  24
  -1  -1 -10 44662.8 1045.67  41
  -1  -1  -9 87749.5 1602.07  48
  -1  -1  -9 79163.8 2525.12  60
  -1  -1  -9 72182.7 2560.01  11
  -1  -1  -9 76733.8 2540.51  61
  -1  -1  -9 78298.4 2500.81  59
  -1  -1  -9 80595.7 2510.97  58
  -1  -1  -9 88691.4 2850.07  17
  -1  -1  -9 91990.3 2808.88  16
  -1  -1  -9 85920.9 1596.86  41
  -1  -1  -9 84991.2 2678.85  24
  -1  -1  -9 84642.7 2880.31  65
  -1  -1  -8 2277.73 427.024  11
  -1  -1  -8 2017.66 375.807  59
  -1  -1  -8 1789.74 398.963  65
  -1  -1  -8 2561.59 457.926  17
  -1  -1  -8 2371.93 399.451  58
  -1  -1  -8 2425.14 404.120  60
  -1  -1  -8 2372.35 418.258  61
  -1  -1  -8 1904.30 383.018  16
  -1  -1  -8 2124.32 406.305  24
  -1  -1  -7 1058.34 256.717  61
  -1  -1  -7 1327.37 305.280  11
  -1  -1  -7 858.351 246.218  60
  -1  -1  -7 918.909 227.738  59
  -1  -1  -7 1311.55 277.974  58
  -1  -1  -7 1166.71 305.743  17
  -1  -1  -7 1532.37 352.386  65
  -1  -1  -7 1265.84 303.439  16
  -1  -1  -7 1222.08 300.528  24
  -1  -1  -6 40615.0 1562.95  65
  -1  -1  -6 41246.3 1417.01  11
  -1  -1  -6 36711.3 1490.32  17
  -1  -1  -6 37976.4 1379.95  61
  -1  -1  -6 38488.8 1348.11  60
  -1  -1  -6 39643.1 1352.41  59
  -1  -1  -6 43335.9 1517.10  16
  -1  -1  -6 40077.3 1495.96  24
  -1  -1  -6 41459.6 1376.39  58
  -1  -1  -5 14873.3 677.704  20
  -1  -1  -5 17283.4 792.249  11
  -1  -1  -5 14112.8 731.769  61
  -1  -1  -5 14801.9 737.173  60
  -1  -1  -5 14589.5 723.011  59
  -1  -1  -5 14525.6 711.149  58
  -1  -1  -5 13333.7 797.228  17
  -1  -1  -5 15265.9 799.542  16
  -1  -1  -5 15807.9 830.738  24
  -1  -1  -5 15448.4 858.583  65
  -1  -1  -4 114969. 1984.78  20
  -1  -1  -4 111478. 2273.92  65
  -1  -1  -4 116496. 2326.46  17
  -1  -1  -4 110819. 2071.46  60
  -1  -1  -4 113115. 2054.05  59
  -1  -1  -4 112538. 2051.62  58
  -1  -1  -4 117008. 2184.06  16
  -1  -1  -3 22238.6 520.185   3
  -1  -1  -3 20902.1 673.854  20
  -1  -1  -3 23138.6 684.468  11
  -1  -1  -3 20529.4 777.763  17
  -1  -1  -3 23812.2 761.775  16
  -1  -1  -3 20089.8 762.721  65
  -1  -1  -2 9958.08 329.288   3
  -1  -1  -2 9790.75 338.117  11
  -1  -1  -2 9036.45 419.380  65
  -1  -1  -2 9286.42 300.673   1
  -1  -1  -1 63042.6 979.194   3
  -1  -1  -1 64984.4 823.302  11
  -1  -1  -1 63104.3 963.781  58
  -1  -1  -1 60555.9 956.401   1
  -1  -1  -1 61163.7 967.827  60
  -1  -1  -1 62485.6 966.331  59
  -1  -1   0 464408. 4730.05  61
  -1  -1   0 469399. 4720.50  58
  -1  -1   0 473066. 4724.36  60
  -1  -1   0 477373. 4721.92  59
  -1  -1   0 494677. 4996.75   9
  -1  -1   0 502288. 5026.22   1
  -1  -1   1 224274. 2594.54   3
  -1  -1   1 220594. 2559.64   1
  -1  -1   2 11876.7 355.941   3
  -1  -1   2 12243.7 353.861   1
  -1  -1   2 11445.9 316.612  55
  -1  -1   2 11634.0 317.531  57
  -1  -1   2 11554.9 317.524  52
  -1  -1   3 11594.5 533.107  56
  -1  -1   3 9805.94 369.146  53
  -1  -1   3 9986.09 373.457  57
  -1  -1   3 10383.7 494.828   9
  -1  -1   3 11811.3 491.560  19
  -1  -1   3 9564.09 367.483  52
  -1  -1   3 10299.4 381.225  55
  -1  -1   3 11203.0 487.799  22
  -1  -1   4 6180.82 404.481  19
  -1  -1   4 5804.21 338.234  55
  -1  -1   4 5722.12 334.835  57
  -1  -1   4 5632.21 424.376  56
  -1  -1   4 5934.31 430.655   9
  -1  -1   4 5667.80 330.614  52
  -1  -1   5 24679.1 810.039  57
  -1  -1   5 25081.0 1022.44  56
  -1  -1   5 24736.7 817.173  55
  -1  -1   5 24326.4 801.466  52
  -1  -1   5 24342.3 1007.05   9
  -1  -1   5 27440.5 973.869  19
  -1  -1   5 24776.7 923.412  22
  -1  -1   6 4472.22 379.270  57
  -1  -1   6 4987.24 506.041   9
  -1  -1   6 4796.28 497.023  56
  -1  -1   6 4325.93 373.025  52
  -1  -1   6 4269.63 379.474  55
  -1  -1   6 4262.42 418.732  22
  -1  -1   7 26618.6 1313.72   9
  -1  -1   7 24968.5 1264.54  56
  -1  -1   7 27680.8 1165.79  22
  -1  -1   8 2019.60 176.788  49
  -1  -1   8 1922.67 388.915  56
  -1  -1   8 1927.31 187.659  51
  -1  -1   8 2197.73 181.426  32
  -1  -1   8 1053.21 199.277  50
  -1  -1   8 2310.00 195.704  44
  -1  -1   8 2343.44 432.043   9
  -1  -1   8 1933.40 170.434  30
  -1  -1   8 2263.88 191.555  42
  -1  -1   8 1988.97 337.597  22
  -1  -1   9 37285.2 806.319  30
  -1  -1   9 39801.7 849.420  44
  -1  -1   9 36783.5 862.298  51
  -1  -1   9 39167.4 815.873  49
  -1  -1   9 38296.2 795.725  32
  -1  -1  10 17570.9 495.018  32
  -1  -1  10 16874.9 482.212  30
  -1  -1  10 16806.5 480.297  49
  -1  -1  10 17821.6 532.558  44
  -1  -1  11 7010.47 273.314  32
  -1  -1  11 6430.67 248.883  49
  -1  -1  11 7020.53 291.084  44
  -1  -1  12 690.077 78.7018  32
  -1   0 -13 2487.20 151.531  48
  -1   0 -13 2280.37 130.162  41
  -1   0 -12 1419.56 153.263  48
  -1   0 -12 1448.04 151.541  41
  -1   0 -11 19195.7 634.952  48
  -1   0 -11 20114.1 636.211  41
  -1   0 -10 39060.7 1850.02  16
  -1   0 -10 39417.5 995.085  48
  -1   0 -10 39548.3 1835.43  24
  -1   0 -10 36229.9 1926.33  65
  -1   0 -10 38080.2 983.837  41
  -1   0  -9 9971.07 496.296  41
  -1   0  -9 7615.57 762.484  59
  -1   0  -9 8141.46 843.393  11
  -1   0  -9 10232.8 1012.78  65
  -1   0  -9 8201.34 801.079  60
  -1   0  -9 7998.51 778.360  58
  -1   0  -9 7769.32 813.196  61
  -1   0  -9 9738.01 893.393  16
  -1   0  -9 10264.6 920.074  24
  -1   0  -9 8965.45 928.025  17
  -1   0  -8 1217.50 369.487  17
  -1   0  -8 1756.51 381.866  11
  -1   0  -8 1559.31 337.165  60
  -1   0  -8 1500.03 335.728  59
  -1   0  -8 1564.88 347.493  58
  -1   0  -8 1749.97 375.225  61
  -1   0  -8 1555.83 389.926  65
  -1   0  -8 1418.97 319.820  16
  -1   0  -8 1453.84 365.305  24
  -1   0  -7 57082.2 1828.21  58
  -1   0  -7 54575.7 1879.74  11
  -1   0  -7 55594.8 2040.90  65
  -1   0  -7 54617.6 1835.63  60
  -1   0  -7 52415.3 1774.56  59
  -1   0  -7 58137.8 1980.17  24
  -1   0  -7 44583.2 1881.14  17
  -1   0  -7 42199.2 1668.64  16
  -1   0  -7 52729.9 1841.70  61
  -1   0  -6 84255.1 2037.97  20
  -1   0  -6 89994.6 2281.65  11
  -1   0  -6 98144.9 2547.75  65
  -1   0  -6 98786.9 2130.78  63
  -1   0  -6 89764.7 2494.89  17
  -1   0  -6 88391.8 2224.97  60
  -1   0  -6 91666.9 2211.41  58
  -1   0  -6 90483.1 2210.71  59
  -1   0  -6 99224.4 2401.74  16
  -1   0  -6 95880.6 2415.29  24
  -1   0  -5 484.048 149.184  63
  -1   0  -5 392.449 133.892  20
  -1   0  -5 493.142 166.773  11
  -1   0  -5 397.674 148.675  60
  -1   0  -5 440.131 162.067  59
  -1   0  -5 527.622 165.079  58
  -1   0  -5 241.104 165.265  17
  -1   0  -5 508.643 202.231  65
  -1   0  -5 465.412 164.034  16
  -1   0  -4 17856.5 735.806  59
  -1   0  -4 15239.4 687.355  20
  -1   0  -4 17956.5 744.582  11
  -1   0  -4 19186.9 688.385  63
  -1   0  -4 17156.5 733.895  60
  -1   0  -4 18087.4 733.834  58
  -1   0  -4 14760.4 796.977  17
  -1   0  -4 20340.9 812.839  16
  -1   0  -4 18799.4 848.054  65
  -1   0  -4 15492.3 691.711  10
  -1   0  -3 170529. 2690.25  20
  -1   0  -3 187580. 2227.18   3
  -1   0  -3 199675. 2927.31  65
  -1   0  -3 176610. 2591.19  11
  -1   0  -3 174726. 2672.10  10
  -1   0  -3 184196. 2700.88  16
  -1   0  -3 192522. 2493.89  63
  -1   0  -2 147012. 1814.01  63
  -1   0  -1 21124.6 498.106   3
  -1   0   0 296239. 3224.22  10
  -1   0   0 303841. 3243.95  56
  -1   0   0 296346. 3209.58  58
  -1   0   1 6974.44 197.093  55
  -1   0   1 6503.69 265.197   3
  -1   0   1 6554.95 190.285  57
  -1   0   1 6527.29 289.629  15
  -1   0   1 6344.06 210.418   7
  -1   0   2 1176.34 111.620   3
  -1   0   2 1264.87 111.192  57
  -1   0   2 1301.86 113.069  55
  -1   0   2 1251.74 157.055   9
  -1   0   2 1373.19 113.067  52
  -1   0   2 1318.58 147.607  15
  -1   0   2 1332.23 160.759   7
  -1   0   3 1827.07 237.421   7
  -1   0   3 1930.21 170.637  57
  -1   0   3 1943.55 213.815   9
  -1   0   3 1978.10 170.407  55
  -1   0   3 1933.13 164.033  52
  -1   0   3 1634.24 174.260  15
  -1   0   3 1963.20 202.338  19
  -1   0   3 2315.93 223.491  22
  -1   0   4 28041.3 1072.45   7
  -1   0   4 27851.6 888.609  19
  -1   0   4 26550.0 765.996  55
  -1   0   4 27684.0 764.649  57
  -1   0   4 28378.1 939.494   9
  -1   0   4 27570.7 784.269  52
  -1   0   5 232159. 3149.37  57
  -1   0   5 219172. 3521.42   9
  -1   0   5 216646. 3123.43  55
  -1   0   5 219643. 3120.92  52
  -1   0   5 204329. 3300.77  19
  -1   0   5 197953. 3297.63  22
  -1   0   6 819.141 204.116  19
  -1   0   6 679.617 157.304  57
  -1   0   6 1010.47 252.509  56
  -1   0   6 881.585 218.243   9
  -1   0   6 578.552 144.691  55
  -1   0   6 707.162 153.830  52
  -1   0   6 983.928 227.955  22
  -1   0   7 4601.91 498.516  19
  -1   0   7 5397.39 578.182   9
  -1   0   7 5681.15 611.968  56
  -1   0   7 5941.12 545.053  22
  -1   0   8 4864.00 605.329   9
  -1   0   8 4615.00 254.830  32
  -1   0   8 4819.93 612.422  56
  -1   0   8 5236.18 278.915  49
  -1   0   8 4525.70 265.963  44
  -1   0   8 4622.92 519.293  22
  -1   0   9 1332.81 314.860  22
  -1   0   9 1536.20 154.197  49
  -1   0   9 1467.40 154.413  30
  -1   0   9 1454.16 194.479  50
  -1   0   9 1394.92 147.233  32
  -1   0   9 1397.96 157.763  44
  -1   0  10 12058.0 407.161  32
  -1   0  10 11718.6 405.740  30
  -1   0  10 11934.4 404.251  49
  -1   0  10 12024.1 416.557  44
  -1   0  11 1607.30 179.022  50
  -1   0  11 1417.19 130.107  30
  -1   0  11 1470.97 125.634  49
  -1   0  11 1615.19 137.881  32
  -1   0  12 3423.78 148.329  30
  -1   0  12 4585.41 172.789  49
  -1   1 -13 5372.06 201.816  41
  -1   1 -13 5572.58 219.922  48
  -1   1 -12 1468.94 159.749  48
  -1   1 -12 1625.29 157.742  41
  -1   1 -11 976.415 303.042  24
  -1   1 -11 1551.33 189.084  48
  -1   1 -11 1487.77 186.570  41
  -1   1 -10 4504.39 334.921  41
  -1   1 -10 3823.08 286.519  35
  -1   1 -10 3736.52 650.846  17
  -1   1 -10 4181.64 677.781  65
  -1   1 -10 4254.75 630.017  24
  -1   1 -10 3733.27 584.699  16
  -1   1  -9 24626.7 1518.20  11
  -1   1  -9 24240.6 786.426  35
  -1   1  -9 19632.4 1257.02  59
  -1   1  -9 18593.9 1292.69  61
  -1   1  -9 20185.5 1296.96  60
  -1   1  -9 20186.5 1275.76  58
  -1   1  -9 27396.2 861.277  41
  -1   1  -9 25264.9 1609.11  65
  -1   1  -9 27381.3 1531.46  16
  -1   1  -9 26202.3 1494.02  24
  -1   1  -9 25967.3 1659.52  17
  -1   1  -8 13914.6 1068.78  11
  -1   1  -8 13051.2 1098.75  65
  -1   1  -8 12016.7 941.080  59
  -1   1  -8 12476.8 879.572  63
  -1   1  -8 13731.6 1010.95  60
  -1   1  -8 12154.1 936.788  58
  -1   1  -8 13090.1 1130.98  17
  -1   1  -8 13214.2 1012.68  16
  -1   1  -8 13607.0 1035.57  24
  -1   1  -8 11799.6 962.091  61
  -1   1  -7 27629.9 1387.66  11
  -1   1  -7 29907.4 1529.64  65
  -1   1  -7 28073.7 1348.01  60
  -1   1  -7 26625.2 1294.07  59
  -1   1  -7 24170.1 1410.07  17
  -1   1  -7 27206.6 1302.94  58
  -1   1  -7 29072.7 1244.91  63
  -1   1  -7 31182.0 1429.58  16
  -1   1  -6 5841.94 536.324  58
  -1   1  -6 5662.20 536.001  20
  -1   1  -6 5815.73 584.011  11
  -1   1  -6 6357.26 581.537  10
  -1   1  -6 6248.11 510.953  63
  -1   1  -6 6240.96 568.307  59
  -1   1  -6 6009.73 562.265  60
  -1   1  -6 6694.61 689.610  17
  -1   1  -6 6243.63 584.317  16
  -1   1  -6 6114.97 645.425  65
  -1   1  -5 13118.9 754.020  20
  -1   1  -5 15655.0 921.648  65
  -1   1  -5 13033.0 741.060  60
  -1   1  -5 12704.1 836.053  17
  -1   1  -5 13906.8 786.331  16
  -1   1  -5 14024.3 753.242  58
  -1   1  -5 13434.6 762.412  11
  -1   1  -5 13621.6 751.484  59
  -1   1  -5 13660.8 753.034  10
  -1   1  -5 10600.0 603.175  63
  -1   1  -4 69139.1 1679.72  20
  -1   1  -4 62300.7 1551.43  10
  -1   1  -4 63463.2 1540.74  58
  -1   1  -4 61895.0 1732.87  17
  -1   1  -4 60028.9 1525.86  59
  -1   1  -4 68482.3 1742.97  65
  -1   1  -3 40446.5 1142.25  65
  -1   1  -3 38234.6 1108.57  20
  -1   1  -3 34649.1 1005.03  10
  -1   1  -3 31978.3 1104.80  17
  -1   1  -3 32834.0 974.787  59
  -1   1  -3 35468.3 991.606  58
  -1   1  -2 392511. 5067.23  17
  -1   1  -2 411200. 4483.25  15
  -1   1  -1 127282. 1773.64  15
  -1   1   0 13778.3 382.006  10
  -1   1   0 13470.7 310.015  56
  -1   1   0 14446.3 346.992   7
  -1   1   1 830281. 8433.39  55
  -1   1   1 790933. 8842.83  66
  -1   1   1 842815. 8337.60  10
  -1   1   1 815237. 8422.61   9
  -1   1   1 837451. 8414.04  57
  -1   1   1 808198. 8456.15   7
  -1   1   2 765644. 7785.18  55
  -1   1   2 763476. 7951.71  19
  -1   1   2 739148. 7841.22   9
  -1   1   2 704130. 8153.77  15
  -1   1   2 735858. 7779.67  52
  -1   1   2 716760. 8191.56  66
  -1   1   2 720462. 8031.95   7
  -1   1   2 788387. 7773.09  57
  -1   1   2 726257. 7995.49  22
  -1   1   3 107589. 1775.01  19
  -1   1   3 102301. 1709.78   9
  -1   1   3 106605. 1629.27  55
  -1   1   3 105330. 1616.80  52
  -1   1   3 103534. 1868.67  15
  -1   1   3 106842. 1607.42  57
  -1   1   3 110505. 1831.29  22
  -1   1   4 28741.2 892.151  66
  -1   1   4 33978.2 883.116  57
  -1   1   4 34221.9 993.191   9
  -1   1   4 29372.2 927.300  19
  -1   1   4 33474.6 879.200  55
  -1   1   4 30851.3 1175.71   7
  -1   1   4 32623.4 993.250  22
  -1   1   5 108728. 2150.11  19
  -1   1   5 101315. 1936.05  55
  -1   1   5 104729. 1952.52  52
  -1   1   5 104117. 1925.55  57
  -1   1   5 105843. 2164.89  22
  -1   1   6 53659.1 1654.02   9
  -1   1   6 57676.1 1469.99  57
  -1   1   6 56885.3 1484.81  55
  -1   1   6 59880.5 1671.92  22
  -1   1   7 8062.05 592.425  55
  -1   1   7 9429.34 686.261  19
  -1   1   7 8918.03 600.292  57
  -1   1   7 9068.07 724.828   9
  -1   1   7 7801.71 739.122  56
  -1   1   7 7781.27 596.359  52
  -1   1   7 10018.2 716.264  22
  -1   1   8 989.370 276.780  22
  -1   1   8 934.829 121.787  32
  -1   1   8 858.440 125.365  30
  -1   1   8 1207.06 339.531  56
  -1   1   8 938.143 168.580  50
  -1   1   8 920.611 122.608  49
  -1   1   8 851.199 119.568  44
  -1   1   8 969.603 290.669   9
  -1   1   9 17661.2 511.724  32
  -1   1   9 17923.5 532.393  30
  -1   1   9 17727.5 530.969  49
  -1   1   9 17349.1 531.913  44
  -1   1   9 18877.8 1110.74  22
  -1   1  10 1735.95 154.579  32
  -1   1  10 1734.35 161.458  30
  -1   1  10 1761.52 209.197  50
  -1   1  10 1847.20 165.648  49
  -1   1  10 1731.66 164.283  44
  -1   1  11 7046.11 279.306  30
  -1   1  11 6681.30 267.185  32
  -1   1  11 7090.90 275.972  49
  -1   1  12 33278.8 566.064  49
  -1   2 -13 4821.25 193.469  48
  -1   2 -13 4301.72 173.806  41
  -1   2 -12 6124.61 296.322  48
  -1   2 -12 6573.85 304.540  41
  -1   2 -11 3458.48 247.120  35
  -1   2 -11 3744.23 276.922  41
  -1   2 -11 3649.76 273.621  48
  -1   2 -10 35474.1 958.900  41
  -1   2 -10 30294.2 1828.47  65
  -1   2 -10 31498.9 874.209  35
  -1   2 -10 28662.6 1824.78  17
  -1   2 -10 25741.7 1528.03  16
  -1   2 -10 33870.3 1729.08  24
  -1   2  -9 7256.31 428.142  35
  -1   2  -9 7007.16 889.360  65
  -1   2  -9 6997.59 890.906  17
  -1   2  -9 7918.26 842.767  16
  -1   2  -9 7850.27 840.138  24
  -1   2  -8 2534.62 256.001  35
  -1   2  -8 2811.52 509.603  11
  -1   2  -8 2541.33 508.912  65
  -1   2  -8 2463.77 411.343  63
  -1   2  -8 2100.60 414.740  59
  -1   2  -8 2115.32 421.303  60
  -1   2  -8 2053.56 465.274  17
  -1   2  -8 2150.29 225.105  26
  -1   2  -8 2654.52 479.606  16
  -1   2  -8 2235.20 427.550  58
  -1   2  -7 7511.41 701.460  20
  -1   2  -7 7611.15 760.720  11
  -1   2  -7 4989.58 600.601  10
  -1   2  -7 8100.83 822.236  65
  -1   2  -7 7116.06 708.205  60
  -1   2  -7 7507.75 711.002  59
  -1   2  -7 7588.02 707.860  58
  -1   2  -7 6851.69 787.820  17
  -1   2  -7 7436.61 659.686  63
  -1   2  -7 7419.49 720.532  16
  -1   2  -6 53130.6 1823.76  20
  -1   2  -6 47438.8 1718.58  10
  -1   2  -6 48400.1 1859.63  65
  -1   2  -6 50370.8 1756.76  59
  -1   2  -6 47932.6 1729.40  60
  -1   2  -6 47835.8 1739.28  16
  -1   2  -6 49638.9 1709.13  58
  -1   2  -6 50976.1 1575.38  63
  -1   2  -6 51787.4 1991.33  17
  -1   2  -5 34361.5 1352.67  20
  -1   2  -5 40045.3 1548.20  65
  -1   2  -5 39430.2 1402.81  10
  -1   2  -5 39154.9 1369.24  58
  -1   2  -5 37277.9 1367.12  60
  -1   2  -5 36061.4 1508.53  17
  -1   2  -5 39288.9 1391.67  59
  -1   2  -4 31068.1 1211.32  65
  -1   2  -4 28778.2 1128.50  20
  -1   2  -4 29299.4 1081.62  10
  -1   2  -4 29769.2 1096.79  59
  -1   2  -4 26786.1 1180.34  17
  -1   2  -4 30307.1 1080.46  58
  -1   2  -3 118632. 2149.66  10
  -1   2  -3 112037. 2238.93  20
  -1   2  -3 105081. 1851.20  66
  -1   2  -3 111783. 2094.29  59
  -1   2  -3 116244. 2094.38  58
  -1   2  -3 101871. 2264.09  17
  -1   2  -3 102738. 1604.80  15
  -1   2  -2 65921.2 1587.63  17
  -1   2  -2 63969.4 1519.33  20
  -1   2  -2 65566.2 1371.75  58
  -1   2  -2 66466.3 1386.01  10
  -1   2  -2 65840.9 1250.50  15
  -1   2  -2 67070.9 1392.71  66
  -1   2  -1 342833. 4347.39  66
  -1   2  -1 360086. 4243.03  15
  -1   2   0 639611. 7043.14  10
  -1   2   0 651424. 7404.23  15
  -1   2   1 340893. 2080.77  10
  -1   2   1 330470. 2072.65  57
  -1   2   1 337169. 2159.72  55
  -1   2   1 326395. 1829.90   9
  -1   2   1 331776. 2962.57  66
  -1   2   1 344404. 3118.56  23
  -1   2   1 350458. 2294.27   7
  -1   2   2 48533.8 1268.38  15
  -1   2   2 54193.3 1040.40  55
  -1   2   2 53938.7 941.290   9
  -1   2   2 52030.5 1008.11  57
  -1   2   2 53681.3 1040.24  52
  -1   2   2 50092.3 1171.91   7
  -1   2   2 50550.5 1372.67  23
  -1   2   2 50491.2 1100.50  22
  -1   2   3 256750. 3433.95  19
  -1   2   3 264345. 3335.76  55
  -1   2   3 257824. 3279.39  57
  -1   2   3 260785. 3250.47   9
  -1   2   3 272034. 3894.42  66
  -1   2   3 251759. 3299.50  52
  -1   2   3 250550. 3861.94  23
  -1   2   3 246093. 3761.58   7
  -1   2   3 269396. 3567.27  22
  -1   2   4 40271.0 1020.67  57
  -1   2   4 37550.6 1037.25  52
  -1   2   4 39611.3 1033.80  55
  -1   2   4 39776.7 1158.21  22
  -1   2   4 42306.7 1288.77  66
  -1   2   4 39181.0 1266.98  15
  -1   2   4 38487.6 1027.04   9
  -1   2   4 36715.3 1341.23   7
  -1   2   5 15665.1 765.494  19
  -1   2   5 15578.9 683.418  57
  -1   2   5 16600.8 744.341   9
  -1   2   5 15481.6 707.306  52
  -1   2   5 17427.0 863.593  15
  -1   2   5 16045.9 712.058  55
  -1   2   5 15100.5 980.447   7
  -1   2   5 16123.4 783.178  22
  -1   2   6 33376.1 1155.66  55
  -1   2   6 30552.4 1188.24  19
  -1   2   6 34293.6 1137.80  57
  -1   2   6 31593.2 1194.30   9
  -1   2   6 30890.7 1128.78  52
  -1   2   6 34936.4 1275.34  22
  -1   2   6 29270.3 1571.82   7
  -1   2   7 13005.2 1172.40   7
  -1   2   7 15747.9 913.945  19
  -1   2   7 14441.1 798.270  57
  -1   2   7 15038.9 834.378  55
  -1   2   7 13863.6 796.360  52
  -1   2   7 16162.6 931.210  22
  -1   2   8 4175.10 260.907  31
  -1   2   8 3923.68 233.507  32
  -1   2   8 4385.96 621.753  56
  -1   2   8 4542.63 253.015  30
  -1   2   8 4032.49 265.239  29
  -1   2   8 4343.65 261.512  44
  -1   2   8 5178.32 340.796  50
  -1   2   8 4701.56 257.746  49
  -1   2   8 5014.67 563.071  22
  -1   2   9 7589.24 322.935  32
  -1   2   9 7240.64 323.303  49
  -1   2   9 8210.17 359.425  31
  -1   2   9 7529.64 333.971  30
  -1   2   9 7898.05 356.821  29
  -1   2   9 7591.16 342.605  44
  -1   2   9 8604.55 747.818  22
  -1   2  10 7627.80 308.679  32
  -1   2  10 7235.39 322.320  44
  -1   2  10 7844.51 325.928  30
  -1   2  10 7692.98 317.461  49
  -1   2  11 12799.3 362.138  32
  -1   2  11 12997.0 376.636  49
  -1   2  11 13803.0 388.296  30
  -1   2  12 5296.83 192.793  49
  -1   3 -12 1212.18 107.157  35
  -1   3 -12 1564.67 144.843  41
  -1   3 -12 1393.10 144.510  48
  -1   3 -11 129.068 94.5771  41
  -1   3 -11 39.7456 62.6495  35
  -1   3 -11 58.5373 85.7400  48
  -1   3 -10 10881.7 497.658  35
  -1   3 -10 10596.6 1106.54  17
  -1   3 -10 12229.8 478.985  26
  -1   3  -9 113.553 96.6073  35
  -1   3  -9 130.731 209.379  65
  -1   3  -9 202.125 262.992  17
  -1   3  -9 134.931 79.7527  26
  -1   3  -9 66.5923 140.446  16
  -1   3  -9 100.771 168.069  24
  -1   3  -8 37098.5 1931.34  11
  -1   3  -8 40494.5 2068.70  65
  -1   3  -8 39777.3 2093.49  17
  -1   3  -8 36128.0 982.269  26
  -1   3  -8 41841.8 1923.88  16
  -1   3  -7 14739.3 1041.68  58
  -1   3  -7 14026.5 1051.87  20
  -1   3  -7 13145.3 1025.80  10
  -1   3  -7 14209.0 1104.95  11
  -1   3  -7 11387.9 858.207  63
  -1   3  -7 13018.4 1128.71  17
  -1   3  -7 13771.3 1025.13  59
  -1   3  -7 13164.7 1015.03  60
  -1   3  -7 14997.2 1171.53  65
  -1   3  -7 13951.7 1037.69  16
  -1   3  -6 32781.7 1594.67  65
  -1   3  -6 33505.8 1540.60  20
  -1   3  -6 29995.6 1402.65  58
  -1   3  -6 30699.7 1448.84  60
  -1   3  -6 30895.1 1439.93  59
  -1   3  -6 31088.7 1474.44  10
  -1   3  -6 31229.2 1601.02  17
  -1   3  -5 4331.90 512.713  20
  -1   3  -5 4623.54 513.775  59
  -1   3  -5 4456.53 494.949  58
  -1   3  -5 4519.52 571.654  17
  -1   3  -5 4804.08 564.182  65
  -1   3  -5 4959.50 530.403  10
  -1   3  -4 28103.4 1225.55  20
  -1   3  -4 29245.1 1181.57  10
  -1   3  -4 29945.8 1193.05  59
  -1   3  -4 32088.0 1203.57  58
  -1   3  -4 32004.1 1388.31  17
  -1   3  -3 31423.7 1110.07  10
  -1   3  -3 29717.2 1179.24  20
  -1   3  -3 30105.6 1021.30  66
  -1   3  -3 29881.3 1077.24  59
  -1   3  -3 31168.3 1089.04  58
  -1   3  -3 29184.2 1204.75  17
  -1   3  -3 30536.1 877.733  15
  -1   3  -2 13651.3 672.354  66
  -1   3  -2 12200.8 690.881  20
  -1   3  -2 13094.0 635.610  10
  -1   3  -2 12113.7 701.476  17
  -1   3  -2 12293.6 620.332  58
  -1   3  -2 13672.7 606.607  15
  -1   3  -2 13202.5 694.065  23
  -1   3  -1 165151. 2799.43  66
  -1   3  -1 165172. 2583.06  58
  -1   3  -1 171026. 2679.32  15
  -1   3  -1 167214. 2550.60  10
  -1   3  -1 168896. 2900.40  23
  -1   3   0 44753.8 1254.16  20
  -1   3   0 38251.2 1191.77  66
  -1   3   0 44495.4 1033.64  55
  -1   3   0 40640.7 1266.64  23
  -1   3   0 50471.4 1032.66   7
  -1   3   0 46804.6 1245.41  15
  -1   3   0 45121.5 1054.17  10
  -1   3   1 62604.1 1485.07  20
  -1   3   1 70855.4 1322.88  55
  -1   3   1 66459.1 1645.89  66
  -1   3   1 67084.2 1296.06  10
  -1   3   1 56339.2 1487.17  15
  -1   3   1 74373.0 1404.05   7
  -1   3   1 60067.5 1605.02  23
  -1   3   1 59883.1 1188.54  22
  -1   3   2 9273.45 631.517  66
  -1   3   2 10987.9 493.650  55
  -1   3   2 10525.7 468.243  57
  -1   3   2 10576.9 462.546  10
  -1   3   2 12137.3 683.003  15
  -1   3   2 10055.1 552.124   7
  -1   3   2 10454.2 681.609  23
  -1   3   2 10304.2 493.451  22
  -1   3   3 70278.6 1830.97  66
  -1   3   3 69751.4 1440.70  55
  -1   3   3 66720.4 1388.29  57
  -1   3   3 67938.6 1417.13  52
  -1   3   3 70369.9 1360.07  10
  -1   3   3 65696.3 1747.69   7
  -1   3   3 66790.9 1857.48  23
  -1   3   3 65689.8 1498.98  22
  -1   3   4 17386.3 915.148  66
  -1   3   4 14329.0 643.969  57
  -1   3   4 15072.1 672.071  55
  -1   3   4 14047.9 880.909   7
  -1   3   4 14676.3 660.359  52
  -1   3   4 14247.7 816.603  15
  -1   3   4 15340.2 878.082  23
  -1   3   4 14387.5 712.026  22
  -1   3   5 9691.30 588.313  55
  -1   3   5 8953.59 585.396  19
  -1   3   5 9394.96 683.708  66
  -1   3   5 9186.64 563.052  57
  -1   3   5 7710.93 547.640  52
  -1   3   5 10149.9 720.383  15
  -1   3   5 8670.48 785.129   7
  -1   3   5 10334.7 653.094  22
  -1   3   6 97683.5 2217.21  55
  -1   3   6 93472.2 2176.09  52
  -1   3   6 101013. 2204.66  57
  -1   3   6 97760.3 2349.07  22
  -1   3   7 17582.3 1450.88   7
  -1   3   7 20527.7 589.913  31
  -1   3   7 19330.3 977.079  57
  -1   3   7 19980.0 551.399  30
  -1   3   7 19995.3 1026.60  55
  -1   3   7 17412.5 978.573  52
  -1   3   7 20828.2 567.076  49
  -1   3   7 20573.4 1084.97  22
  -1   3   8 6180.55 297.538  30
  -1   3   8 6781.70 312.193  49
  -1   3   8 6547.73 327.306  31
  -1   3   8 5673.32 280.014  32
  -1   3   8 6436.97 332.089  29
  -1   3   8 7049.17 660.848  22
  -1   3   9 16462.4 471.226  32
  -1   3   9 15718.9 510.361  31
  -1   3   9 16133.5 486.943  30
  -1   3   9 17144.5 532.105  29
  -1   3   9 16416.6 489.277  49
  -1   3   9 16373.7 1027.50  22
  -1   3  10 8559.99 324.570  30
  -1   3  10 9058.03 343.559  31
  -1   3  10 8679.97 334.717  29
  -1   3  10 8441.05 307.385  32
  -1   3  10 8513.69 326.051  49
  -1   3  11 4256.57 199.835  49
  -1   3  11 4410.35 209.362  30
  -1   3  12 2728.94 126.802  30
  -1   3  12 3044.98 133.508  49
  -1   4 -12 2665.02 163.252  48
  -1   4 -12 2521.57 165.658  41
  -1   4 -11 1556.95 181.499  41
  -1   4 -11 1412.00 156.059  35
  -1   4 -11 1387.43 170.438  48
  -1   4 -10 777.488 142.570  35
  -1   4 -10 614.261 270.937  24
  -1   4 -10 1041.04 143.922  26
  -1   4  -9 6811.48 415.843  35
  -1   4  -9 6140.59 847.486  65
  -1   4  -9 7195.30 930.726  17
  -1   4  -9 5666.32 745.459  16
  -1   4  -9 7478.71 413.227  26
  -1   4  -8 3418.32 623.166  65
  -1   4  -8 2649.66 571.729  17
  -1   4  -8 3049.50 280.936  26
  -1   4  -8 2981.10 528.814  16
  -1   4  -7 12504.1 1072.53  20
  -1   4  -7 11419.6 912.081  63
  -1   4  -7 12087.3 1131.93  17
  -1   4  -7 12194.5 1116.11  65
  -1   4  -7 12204.2 1015.68  16
  -1   4  -6 1584.50 368.944  20
  -1   4  -6 2155.47 424.735  59
  -1   4  -6 2036.57 404.861  60
  -1   4  -6 2052.41 421.577  10
  -1   4  -6 2116.65 441.500  65
  -1   4  -6 2106.52 403.940  58
  -1   4  -6 1956.98 441.465  17
  -1   4  -5 6659.35 731.223  17
  -1   4  -5 5877.71 650.819  20
  -1   4  -5 6253.36 658.757  10
  -1   4  -5 7160.09 696.828  59
  -1   4  -5 6832.31 669.003  58
  -1   4  -5 6678.39 705.124  65
  -1   4  -4 4359.13 612.424  20
  -1   4  -4 2488.08 442.818  17
  -1   4  -4 2901.80 417.128  10
  -1   4  -4 3086.21 426.416  59
  -1   4  -4 3734.78 461.415  58
  -1   4  -3 90097.0 2449.86  17
  -1   4  -3 93497.6 2395.48  20
  -1   4  -3 107131. 2411.51  10
  -1   4  -3 101612. 2340.03  58
  -1   4  -3 105379. 2306.21  66
  -1   4  -3 89695.2 2210.33  23
  -1   4  -2 5756.18 540.037  20
  -1   4  -2 5203.69 521.059  17
  -1   4  -2 6154.58 484.886  10
  -1   4  -2 6309.30 406.749   7
  -1   4  -2 6236.35 476.817  15
  -1   4  -2 5988.98 495.328  58
  -1   4  -2 7250.03 580.512  23
  -1   4  -1 99632.6 2273.16  66
  -1   4  -1 100976. 2011.28  10
  -1   4  -1 100059. 2042.63  58
  -1   4  -1 101414. 1800.89   7
  -1   4  -1 105081. 2186.01  15
  -1   4  -1 96845.7 2297.77  23
  -1   4   0 7868.23 580.932  20
  -1   4   0 7970.13 598.777  66
  -1   4   0 7699.62 469.845  55
  -1   4   0 8192.47 489.635  10
  -1   4   0 9190.06 626.743  15
  -1   4   0 8555.27 465.784   7
  -1   4   0 7784.79 615.669  23
  -1   4   1 47668.7 1435.44  20
  -1   4   1 45691.0 1486.78  66
  -1   4   1 47591.4 1217.99  55
  -1   4   1 50629.4 1519.08  15
  -1   4   1 49904.8 1279.02   7
  -1   4   1 43475.8 1486.49  23
  -1   4   1 47484.1 1215.90  10
  -1   4   2 16696.7 947.369  66
  -1   4   2 15611.5 664.934  10
  -1   4   2 17503.9 715.547  55
  -1   4   2 15345.4 863.476  15
  -1   4   2 16026.3 795.783   7
  -1   4   2 15236.5 930.826  23
  -1   4   2 15108.3 637.545  22
  -1   4   3 21810.7 1104.03  66
  -1   4   3 21134.8 801.396  10
  -1   4   3 19801.0 812.889  55
  -1   4   3 20079.3 787.622  57
  -1   4   3 19064.4 1012.93   7
  -1   4   3 19569.5 1100.83  23
  -1   4   3 21264.4 834.146  22
  -1   4   4 24422.1 1198.79  66
  -1   4   4 21970.8 858.630  10
  -1   4   4 22994.4 902.498  57
  -1   4   4 22512.3 926.154  55
  -1   4   4 20423.2 1094.96  15
  -1   4   4 21528.9 1212.05   7
  -1   4   4 21230.6 1167.80  23
  -1   4   4 25131.1 991.678  22
  -1   4   5 16269.7 998.514  66
  -1   4   5 16640.1 839.285  55
  -1   4   5 15510.4 1000.83  23
  -1   4   5 15198.3 788.902  57
  -1   4   5 16612.5 1035.34  15
  -1   4   5 16089.1 1180.41   7
  -1   4   5 16676.8 877.651  22
  -1   4   6 1909.35 470.039   7
  -1   4   6 3086.37 396.239  55
  -1   4   6 2354.25 191.152  31
  -1   4   6 2723.21 364.465  57
  -1   4   6 2705.02 429.734  15
  -1   4   6 2419.83 183.382  30
  -1   4   6 2637.59 387.170  22
  -1   4   7 4306.39 250.487  30
  -1   4   7 3400.69 442.174  55
  -1   4   7 3938.09 460.498  57
  -1   4   7 4637.39 256.619  49
  -1   4   7 4882.52 287.961  29
  -1   4   7 4535.98 268.255  31
  -1   4   7 4137.02 507.783  22
  -1   4   7 3980.45 749.113   7
  -1   4   8 5932.71 306.847  31
  -1   4   8 5550.13 307.289  29
  -1   4   8 5937.47 292.827  30
  -1   4   8 5905.30 289.060  49
  -1   4   8 6002.57 621.742  22
  -1   4   9 3829.37 243.330  31
  -1   4   9 3805.07 227.957  30
  -1   4   9 3766.02 240.634  29
  -1   4   9 3449.47 220.363  49
  -1   4   9 3860.14 504.804  22
  -1   4  10 3968.88 210.453  30
  -1   4  10 3887.53 217.811  31
  -1   4  10 3942.97 216.080  29
  -1   4  10 4045.05 211.807  49
  -1   4  11 1953.62 126.183  31
  -1   4  11 1820.90 117.599  29
  -1   4  11 2151.99 134.335  49
  -1   4  12 4393.18 147.994  30
  -1   4  12 6272.80 171.616  49
  -1   5 -12 2076.29 121.243  41
  -1   5 -11 10656.7 400.679  41
  -1   5 -11 10962.1 379.819  35
  -1   5 -11 11046.0 382.561  48
  -1   5 -10 8109.38 392.648  35
  -1   5 -10 10407.1 412.525  26
  -1   5  -9 3242.56 277.703  35
  -1   5  -9 2519.39 242.190  26
  -1   5  -8 5814.00 779.145  20
  -1   5  -8 7636.87 945.825  17
  -1   5  -8 9003.65 465.193  26
  -1   5  -8 6182.06 773.277  16
  -1   5  -8 6786.18 889.650  65
  -1   5  -7 39118.0 1034.32  36
  -1   5  -7 42368.8 2090.47  20
  -1   5  -7 39124.4 2070.56  65
  -1   5  -7 40502.0 2159.04  17
  -1   5  -6 77511.7 2783.58  65
  -1   5  -6 60792.7 1330.93  37
  -1   5  -6 74707.9 2689.60  20
  -1   5  -6 65753.1 2590.29  10
  -1   5  -6 77743.1 2897.07  17
  -1   5  -5 7358.54 792.507  65
  -1   5  -5 6840.98 726.305  58
  -1   5  -5 7734.23 809.998  20
  -1   5  -5 6854.83 751.191  59
  -1   5  -5 7022.58 804.909  17
  -1   5  -5 7676.64 804.231  10
  -1   5  -4 6213.58 670.391  10
  -1   5  -4 6281.36 674.406  59
  -1   5  -4 6823.75 689.917  58
  -1   5  -4 5688.13 685.563  17
  -1   5  -4 6589.26 518.825   7
  -1   5  -3 4093.55 474.864  66
  -1   5  -3 4117.60 498.259  10
  -1   5  -3 4135.96 510.787  58
  -1   5  -3 3636.33 367.605   7
  -1   5  -3 3825.42 531.325  17
  -1   5  -3 3536.08 458.039  23
  -1   5  -2 45055.1 1519.09  10
  -1   5  -2 44141.3 1675.31  20
  -1   5  -2 44540.7 1603.64  66
  -1   5  -2 43025.5 1539.65  58
  -1   5  -2 45347.2 1486.66  15
  -1   5  -2 46508.9 1300.75   7
  -1   5  -2 40916.6 1613.19  17
  -1   5  -2 43226.1 1620.09  23
  -1   5  -1 52863.8 1797.85  20
  -1   5  -1 55341.5 1817.11  66
  -1   5  -1 56394.1 1668.59  58
  -1   5  -1 60548.3 1792.59  15
  -1   5  -1 58590.1 1468.43   7
  -1   5  -1 56814.5 1629.51  10
  -1   5  -1 55033.4 1872.56  23
  -1   5   0 40604.3 1463.93  15
  -1   5   0 37829.6 1258.10  10
  -1   5   0 32993.6 1386.20  20
  -1   5   0 35517.6 1452.44  66
  -1   5   0 38679.8 1208.48   7
  -1   5   0 37028.1 1523.92  23
  -1   5   1 15293.7 929.554  20
  -1   5   1 16194.1 790.042  55
  -1   5   1 18290.0 1067.19  23
  -1   5   1 19789.1 1080.31  66
  -1   5   1 16534.6 952.751  15
  -1   5   1 16954.5 846.238   7
  -1   5   1 17180.0 817.328  10
  -1   5   2 31796.7 1136.79  10
  -1   5   2 32265.7 1150.06  55
  -1   5   2 37527.8 1559.57  66
  -1   5   2 33123.7 1313.41   7
  -1   5   2 36528.7 1476.67  15
  -1   5   2 34824.0 1532.35  23
  -1   5   3 25845.6 1335.33  66
  -1   5   3 23884.6 987.666  10
  -1   5   3 22744.8 973.484  55
  -1   5   3 27650.8 1330.43  15
  -1   5   3 26538.8 1387.67  23
  -1   5   3 22513.9 1245.66   7
  -1   5   3 22194.4 899.251  22
  -1   5   4 71718.3 2331.43  66
  -1   5   4 68593.8 2301.15  23
  -1   5   4 54700.9 1631.26  10
  -1   5   4 59683.1 2303.31   7
  -1   5   4 62647.5 1789.71  55
  -1   5   4 63526.2 2151.93  15
  -1   5   4 70450.7 1800.57  22
  -1   5   5 286.234 156.505  22
  -1   5   5 568.667 277.110   7
  -1   5   5 228.723 131.553  55
  -1   5   5 473.813 107.022  29
  -1   5   5 350.331 87.5184  31
  -1   5   5 416.383 156.293  57
  -1   5   5 268.523 177.282  66
  -1   5   5 406.999 232.029  15
  -1   5   5 438.197 212.200  23
  -1   5   6 3750.13 275.037  33
  -1   5   6 4287.27 248.508  30
  -1   5   6 4357.36 491.627  57
  -1   5   6 4496.65 274.600  29
  -1   5   6 4376.79 262.886  31
  -1   5   6 4885.89 535.363  55
  -1   5   6 4008.98 237.300  49
  -1   5   6 5350.96 650.690  15
  -1   5   6 3837.86 717.917   7
  -1   5   6 5289.33 550.327  22
  -1   5   7 77160.5 1261.75  30
  -1   5   7 74784.6 1312.94  29
  -1   5   7 75621.4 1244.65  49
  -1   5   8 9814.24 389.280  31
  -1   5   8 10274.8 376.296  30
  -1   5   8 10290.6 406.782  29
  -1   5   8 9966.10 369.882  49
  -1   5   8 9966.10 801.383  22
  -1   5   9 3291.87 216.133  29
  -1   5   9 2943.22 191.814  30
  -1   5   9 3014.39 203.193  31
  -1   5   9 3093.86 192.358  49
  -1   5  10 29611.8 618.675  31
  -1   5  10 30048.9 622.231  29
  -1   5  11 29524.4 513.719  31
  -1   5  11 32677.5 518.489  49
  -1   6 -11 4480.86 208.810  41
  -1   6 -11 4808.27 204.445  35
  -1   6 -10 1182.05 144.457  35
  -1   6 -10 1649.77 153.687  26
  -1   6  -9 19109.3 623.417  35
  -1   6  -9 17869.8 598.895  26
  -1   6  -8 5712.09 348.020  36
  -1   6  -8 5182.98 784.973  17
  -1   6  -8 6588.29 383.626  26
  -1   6  -7 3232.21 286.377  36
  -1   6  -7 4001.34 665.776  20
  -1   6  -7 3491.65 650.034  17
  -1   6  -7 2261.68 525.232  65
  -1   6  -6 49987.7 1160.45  37
  -1   6  -6 53431.1 2371.26  20
  -1   6  -6 50156.6 2412.81  17
  -1   6  -6 45348.8 2210.67  65
  -1   6  -5 14826.1 1224.56  10
  -1   6  -5 13658.0 561.407  37
  -1   6  -5 12980.1 1096.36  20
  -1   6  -5 15353.9 1224.18  65
  -1   6  -5 14430.4 906.790   7
  -1   6  -5 13919.9 1208.05  17
  -1   6  -4 5878.01 733.269  59
  -1   6  -4 6648.90 758.854  58
  -1   6  -4 6457.08 741.350  10
  -1   6  -4 5521.79 735.525  17
  -1   6  -4 6622.85 592.065   7
  -1   6  -3 41662.2 1438.84   7
  -1   6  -3 37781.4 1625.07  66
  -1   6  -3 35734.6 1667.15  10
  -1   6  -3 36858.9 1697.54  58
  -1   6  -3 35417.1 1751.53  17
  -1   6  -3 37749.1 1642.57  23
  -1   6  -2 49731.4 1886.17  66
  -1   6  -2 42022.6 1740.18  58
  -1   6  -2 47244.1 1772.83  10
  -1   6  -2 47395.2 1871.17  23
  -1   6  -2 43066.8 1826.42  17
  -1   6  -2 47809.9 1711.24  15
  -1   6  -2 51482.6 1604.06   7
  -1   6  -1 10626.0 887.501  66
  -1   6  -1 10489.9 779.573  10
  -1   6  -1 10744.6 848.370  17
  -1   6  -1 10950.8 813.000  58
  -1   6  -1 11613.9 841.644  15
  -1   6  -1 11337.2 714.939   7
  -1   6  -1 11987.9 947.939  23
  -1   6   0 37333.5 1664.39  66
  -1   6   0 35757.8 1412.76  10
  -1   6   0 37442.7 1480.70  58
  -1   6   0 38867.7 1625.51  15
  -1   6   0 36817.4 1355.42   7
  -1   6   0 39295.6 1718.75  23
  -1   6   1 31698.8 1519.73  66
  -1   6   1 28171.2 1216.04  55
  -1   6   1 29572.3 1259.10  10
  -1   6   1 31839.1 1498.39  15
  -1   6   1 27818.9 1248.54   7
  -1   6   1 32900.4 1599.20  23
  -1   6   2 1558.36 349.345   7
  -1   6   2 4042.83 616.126  66
  -1   6   2 1962.55 322.450  10
  -1   6   2 1364.61 273.265  55
  -1   6   2 1937.47 387.156  15
  -1   6   2 4667.11 683.470  23
  -1   6   3 1511.06 384.138   7
  -1   6   3 1372.05 279.511  10
  -1   6   3 1459.12 292.322  55
  -1   6   3 1173.50 301.799  15
  -1   6   3 1920.51 460.968  66
  -1   6   3 2026.97 498.131  23
  -1   6   4 2625.25 535.123   7
  -1   6   4 2848.17 207.008  31
  -1   6   4 2987.79 512.363  66
  -1   6   4 2760.01 250.586  34
  -1   6   4 3109.66 431.969  55
  -1   6   4 3010.73 537.799  23
  -1   6   4 3183.75 230.048  29
  -1   6   4 2845.44 235.885  33
  -1   6   4 2248.79 361.407  10
  -1   6   4 1661.55 359.074  15
  -1   6   5 74609.9 2616.62  66
  -1   6   5 71168.3 1339.93  33
  -1   6   5 67959.6 1209.17  31
  -1   6   5 65904.7 1216.99  29
  -1   6   5 64489.8 2084.64  55
  -1   6   5 62427.5 2846.19   7
  -1   6   5 82092.6 2696.04  15
  -1   6   5 57804.0 2318.95  23
  -1   6   6 11210.2 422.518  31
  -1   6   6 12471.3 498.210  33
  -1   6   6 11294.4 444.015  29
  -1   6   6 9879.17 936.879  15
  -1   6   6 10169.5 760.660  22
  -1   6   7 18359.8 584.767  33
  -1   6   7 17607.0 539.150  31
  -1   6   7 17558.0 498.248  30
  -1   6   7 17649.0 540.039  29
  -1   6   8 25.3378 61.0330  31
  -1   6   8 237.491 71.7837  30
  -1   6   8 42.1001 63.4705  29
  -1   6   8 110.759 55.0278  49
  -1   6   9 4096.62 223.485  29
  -1   6   9 4043.39 217.036  31
  -1   6   9 4023.50 192.404  49
  -1   6  10 5836.45 225.505  31
  -1   6  10 5763.97 226.770  29
  -1   6  10 5633.97 195.942  49
  -1   7 -10 333.043 75.9998  41
  -1   7 -10 254.039 64.7026  35
  -1   7 -10 359.239 64.0100  26
  -1   7 -10 271.372 56.1707  48
  -1   7  -9 1190.24 141.888  35
  -1   7  -9 1130.94 135.316  26
  -1   7  -8 11722.7 455.006  36
  -1   7  -8 11564.6 474.918  26
  -1   7  -7 11340.5 467.770  37
  -1   7  -7 10752.4 480.639  36
  -1   7  -6 4066.87 297.665  37
  -1   7  -6 4107.88 311.990  36
  -1   7  -6 4365.58 690.213  20
  -1   7  -6 4270.82 718.961  17
  -1   7  -5 4794.16 759.101  17
  -1   7  -5 4575.12 320.978  37
  -1   7  -5 4392.36 678.126  20
  -1   7  -4 3694.99 284.906  27
  -1   7  -4 4456.71 565.088   7
  -1   7  -4 4897.30 723.099  17
  -1   7  -3 4252.77 302.020  34
  -1   7  -3 5467.39 710.235  10
  -1   7  -3 4733.46 701.583  17
  -1   7  -3 4000.05 617.923  58
  -1   7  -3 4196.50 304.349  27
  -1   7  -3 5042.82 570.194   7
  -1   7  -3 4369.76 594.019  23
  -1   7  -3 3398.75 585.918  59
  -1   7  -2 35815.1 1806.97  17
  -1   7  -2 38504.7 1805.74  66
  -1   7  -2 34432.5 908.400  34
  -1   7  -2 33872.0 1670.66  10
  -1   7  -2 34958.0 1744.54  58
  -1   7  -2 32082.1 876.618  27
  -1   7  -2 41691.8 1646.04   7
  -1   7  -2 37286.3 1781.95  23
  -1   7  -1 6215.20 624.891   7
  -1   7  -1 5774.51 697.117  66
  -1   7  -1 5315.39 335.079  34
  -1   7  -1 6086.12 672.199  10
  -1   7  -1 5546.65 665.261  58
  -1   7  -1 6375.68 705.418  15
  -1   7  -1 6081.23 736.543  23
  -1   7   0 8234.28 396.517  33
  -1   7   0 10801.5 874.778  10
  -1   7   0 12144.5 1022.90  66
  -1   7   0 9750.97 452.638  34
  -1   7   0 12286.8 1038.29  23
  -1   7   0 11072.3 911.892  58
  -1   7   0 11275.2 941.030  15
  -1   7   0 9726.75 814.696   7
  -1   7   1 30861.9 1468.14  10
  -1   7   1 31091.1 1666.31  66
  -1   7   1 31469.9 1568.02   7
  -1   7   1 31295.8 808.947  33
  -1   7   1 31129.2 1514.87  58
  -1   7   1 29424.1 817.055  34
  -1   7   1 33581.5 1708.55  23
  -1   7   1 35653.5 1707.78  15
  -1   7   2 25565.8 721.246  33
  -1   7   2 23615.5 731.815  34
  -1   7   2 26410.5 797.105  27
  -1   7   2 22506.3 1242.23  10
  -1   7   2 23485.9 1460.13   7
  -1   7   2 25083.3 1492.68  23
  -1   7   3 4421.83 644.975  66
  -1   7   3 4651.85 726.550   7
  -1   7   3 4237.46 284.364  33
  -1   7   3 4795.39 325.069  34
  -1   7   3 4066.53 527.235  55
  -1   7   3 4746.54 334.601  27
  -1   7   3 3992.42 581.578  15
  -1   7   3 5329.50 720.792  23
  -1   7   3 3732.10 511.965  10
  -1   7   4 38775.1 1935.36  66
  -1   7   4 41102.7 1007.96  34
  -1   7   4 37601.0 911.535  33
  -1   7   4 39104.0 847.448  31
  -1   7   4 40679.2 882.435  29
  -1   7   4 38488.3 1927.80  23
  -1   7   5 17076.3 592.741  33
  -1   7   5 20035.3 573.508  31
  -1   7   5 20265.1 585.782  29
  -1   7   5 19551.7 658.651  34
  -1   7   5 17785.0 1309.07  66
  -1   7   5 19800.7 1348.91  15
  -1   7   5 17495.4 1280.14  23
  -1   7   6 5799.92 327.347  33
  -1   7   6 6032.10 300.911  31
  -1   7   6 6290.88 317.423  29
  -1   7   7 2073.04 183.228  33
  -1   7   7 1999.38 170.111  31
  -1   7   7 1981.23 173.647  29
  -1   7   8 3948.46 221.198  33
  -1   7   8 3642.55 209.117  31
  -1   7   8 3996.39 221.134  29
  -1   7   9 2488.22 150.551  31
  -1   7   9 2332.89 148.740  29
  -1   7  10 10252.6 254.141  31
  -1   7  10 9236.97 241.228  29
  -1   8  -9 5078.88 216.567  26
  -1   8  -8 3414.04 206.951  36
  -1   8  -8 3448.86 222.409  35
  -1   8  -8 3600.81 229.487  26
  -1   8  -7 2478.51 193.241  37
  -1   8  -7 2537.73 214.800  36
  -1   8  -7 2914.11 235.352  26
  -1   8  -6 9297.80 414.429  37
  -1   8  -6 8649.01 415.129  36
  -1   8  -5 51373.1 1108.36  37
  -1   8  -5 49471.8 1115.10  36
  -1   8  -5 52471.3 2341.90  20
  -1   8  -4 14731.4 565.042  37
  -1   8  -4 15581.7 1259.51  20
  -1   8  -4 13511.4 527.561  27
  -1   8  -3 9648.72 991.226  20
  -1   8  -3 9259.95 442.908  34
  -1   8  -3 7780.82 407.349  27
  -1   8  -2 3936.39 611.975  66
  -1   8  -2 5066.79 330.392  34
  -1   8  -2 4317.45 309.017  27
  -1   8  -2 4439.82 641.480  23
  -1   8  -1 327.037 139.214  27
  -1   8  -1 42.3498 164.748  15
  -1   8  -1 11.9319 78.7838  34
  -1   8  -1 278.375 237.324  23
  -1   8   0 263.258 204.418  66
  -1   8   0 724.919 142.137  34
  -1   8   0 289.537 84.8418  33
  -1   8   0 781.702 282.573  15
  -1   8   0 632.735 300.587  23
  -1   8   1 19500.1 1372.99  66
  -1   8   1 17226.7 582.062  33
  -1   8   1 16646.8 603.432  34
  -1   8   1 19328.4 1331.70  15
  -1   8   1 19973.0 1380.13  23
  -1   8   2 205.813 87.3334  33
  -1   8   2 337.399 116.513  34
  -1   8   2 404.807 122.681  27
  -1   8   2 223.445 204.977  66
  -1   8   2 471.668 263.263  15
  -1   8   2 484.087 280.564  23
  -1   8   3 454.286 121.874  34
  -1   8   3 251.681 86.0996  33
  -1   8   3 403.343 232.582  66
  -1   8   3 380.369 117.835  27
  -1   8   3 427.391 233.202  15
  -1   8   3 544.061 289.527  23
  -1   8   4 15072.0 1218.34  66
  -1   8   4 17687.8 618.797  34
  -1   8   4 16527.4 555.217  33
  -1   8   4 18503.9 531.371  29
  -1   8   4 14430.7 542.542  27
  -1   8   4 16146.5 1236.44  23
  -1   8   5 2334.44 215.173  34
  -1   8   5 2508.34 210.757  33
  -1   8   5 2386.55 182.937  29
  -1   8   5 2420.97 182.118  31
  -1   8   5 2392.78 490.216  23
  -1   8   6 17384.0 484.474  31
  -1   8   6 18372.3 544.125  33
  -1   8   6 18978.3 510.450  29
  -1   8   7 2621.60 172.349  29
  -1   8   7 2406.42 175.709  33
  -1   8   7 2460.51 164.208  31
  -1   8   8 2961.83 160.099  31
  -1   8   8 2920.37 162.006  29
  -1   8   9 2824.63 130.055  31
  -1   8   9 2632.54 125.746  29
  -1   9  -8 4416.54 190.522  26
  -1   9  -7 417.011 79.7019  36
  -1   9  -7 468.816 86.4979  35
  -1   9  -7 400.905 86.9025  26
  -1   9  -6 3860.30 229.483  37
  -1   9  -6 3686.72 237.838  36
  -1   9  -5 4977.70 292.208  37
  -1   9  -5 5175.06 301.131  36
  -1   9  -4 4745.10 298.500  37
  -1   9  -4 5134.05 315.091  36
  -1   9  -4 4706.67 267.595   2
  -1   9  -4 4848.33 287.051  27
  -1   9  -3 8348.89 387.061  34
  -1   9  -3 8333.53 398.997  37
  -1   9  -2 1588.92 184.361  37
  -1   9  -2 1188.64 158.252  34
  -1   9  -2 1275.05 165.835  27
  -1   9  -2 941.615 328.243  23
  -1   9  -1 10654.0 465.611  34
  -1   9  -1 8942.31 418.729  27
  -1   9  -1 9456.01 966.212  23
  -1   9   0 4877.02 311.912  34
  -1   9   0 4655.49 278.526  33
  -1   9   0 4321.10 292.829  27
  -1   9   0 4773.04 685.914  23
  -1   9   1 1971.43 205.888  34
  -1   9   1 2170.88 196.271  33
  -1   9   1 1893.51 199.880  27
  -1   9   1 1553.15 406.567  23
  -1   9   2 12988.8 508.841  34
  -1   9   2 12422.9 1065.29  23
  -1   9   2 13915.0 490.808  33
  -1   9   3 22131.5 615.082  33
  -1   9   3 20384.9 644.010  34
  -1   9   3 21317.8 1392.12  23
  -1   9   4 4472.08 276.213  34
  -1   9   4 4207.18 252.395  33
  -1   9   4 3673.67 238.351  27
  -1   9   4 3976.89 240.602   2
  -1   9   5 28.4835 45.8690  29
  -1   9   5 29.2232 58.7829  33
  -1   9   5 29.8621 54.8920  34
  -1   9   6 1610.04 123.564  29
  -1   9   6 1674.40 139.646  33
  -1   9   6 1451.48 113.264  31
  -1   9   7 2573.08 134.629  31
  -1   9   7 2611.24 151.609  33
  -1   9   7 2788.76 142.415  29
  -1  10  -6 2913.02 161.986  36
  -1  10  -5 3414.07 196.420  37
  -1  10  -5 2979.73 189.460  36
  -1  10  -4 2338.31 180.202  37
  -1  10  -4 2255.55 151.917   2
  -1  10  -4 2200.42 178.520  36
  -1  10  -4 2416.87 172.276  27
  -1  10  -3 5156.62 280.028  37
  -1  10  -3 5339.50 286.592  36
  -1  10  -3 5839.14 272.071   2
  -1  10  -3 4968.81 253.537  34
  -1  10  -3 5604.36 280.617  27
  -1  10  -2 5181.36 287.061  37
  -1  10  -2 5146.92 284.742  36
  -1  10  -2 5313.82 283.039  34
  -1  10  -2 5499.17 277.685   2
  -1  10  -2 5242.13 289.098  27
  -1  10  -1 12164.8 451.086  37
  -1  10  -1 11890.5 438.067  36
  -1  10  -1 12742.8 459.975  34
  -1  10   0 8088.43 359.355  37
  -1  10   0 7230.43 326.547  36
  -1  10   0 8267.64 371.784  34
  -1  10   0 7555.34 304.782  33
  -1  10   1 2207.75 172.250  33
  -1  10   1 2172.17 183.309  37
  -1  10   1 2146.21 189.429  34
  -1  10   2 8763.36 347.868  37
  -1  10   2 9593.57 386.405  34
  -1  10   2 9744.78 367.401   2
  -1  10   2 9884.81 364.655  33
  -1  10   2 9383.24 380.819  27
  -1  10   3 5851.14 267.586   2
  -1  10   3 6079.54 296.098  34
  -1  10   3 6097.19 274.101  33
  -1  10   3 6123.31 279.841  27
  -1  10   4 1465.01 140.393  34
  -1  10   4 1669.05 136.986  33
  -1  10   5 6585.13 247.013  34
  -1  10   5 7473.59 263.727  33
  -1  10   6 6191.74 207.709  33
  -1  11  -3 1294.36 108.843  37
  -1  11  -3 1159.41 98.8657  36
  -1  11  -3 1210.17 94.5382  27
  -1  11  -2 822.791 96.5961  37
  -1  11  -2 884.812 92.2210   2
  -1  11  -2 688.011 80.9693  36
  -1  11  -2 777.716 93.3937  27
  -1  11  -2 656.038 75.9462  34
  -1  11  -1 273.304 65.4381  37
  -1  11  -1 262.039 60.1167   2
  -1  11  -1 318.332 73.3463  27
  -1  11  -1 301.955 68.4918  34
  -1  11   0 3779.74 194.562  37
  -1  11   0 3898.86 191.330   2
  -1  11   0 4226.26 213.642  34
  -1  11   0 3898.02 198.756  27
  -1  11   1 504.853 82.2116  34
  -1  11   1 381.502 65.0369  37
  -1  11   1 576.167 78.4841   2
  -1  11   1 645.248 86.5843  27
  -1  11   2 13348.3 342.630   2
  -1  11   2 13912.2 359.866  27
  -1  11   2 13283.5 330.544  33
  -1  11   3 91.1838 38.8389  33
  -1  11   3 44.8278 35.2175  34
   0 -11  -4 3656.24 169.748  40
   0 -11  -4 3953.69 188.937  45
   0 -11  -4 4198.40 185.659  43
   0 -11  -3 8485.49 286.882  40
   0 -11  -3 8931.53 315.459  45
   0 -11  -3 9308.34 312.811  43
   0 -11  -2 25231.5 554.712  40
   0 -11  -2 25507.1 592.837  45
   0 -11  -2 25483.8 582.554  43
   0 -11  -1 400.139 79.7831  40
   0 -11  -1 476.124 90.7551  45
   0 -11  -1 485.995 89.4133  43
   0 -11   0 20627.2 548.490  45
   0 -11   0 21022.8 539.852  43
   0 -11   1 4158.50 233.886  45
   0 -11   1 4133.34 228.884  43
   0 -11   2 7469.72 310.486  45
   0 -11   2 8231.88 312.767  43
   0 -11   3 194.775 86.1672  50
   0 -11   3 662.718 98.5074  43
   0 -10  -7 5307.78 189.238  40
   0 -10  -6 8433.19 281.833  40
   0 -10  -6 9327.81 305.068  45
   0 -10  -6 9155.79 287.769  43
   0 -10  -5 11092.7 359.613  40
   0 -10  -5 12011.6 387.032  45
   0 -10  -5 12233.0 380.711  43
   0 -10  -4 25156.7 608.957  40
   0 -10  -4 26032.0 670.961  25
   0 -10  -4 24624.8 627.570  45
   0 -10  -4 27020.2 641.271  43
   0 -10  -3 14022.2 455.126  40
   0 -10  -3 12914.1 457.176  45
   0 -10  -3 14118.6 500.183  25
   0 -10  -3 13007.0 457.186  43
   0 -10  -2 1649.95 166.226  40
   0 -10  -2 1682.81 185.787  25
   0 -10  -2 1587.60 173.279  45
   0 -10  -2 1477.38 167.981  43
   0 -10  -1 2270.83 193.144  40
   0 -10  -1 2166.69 200.375  43
   0 -10  -1 2168.60 201.097  45
   0 -10   0 19559.2 585.964  40
   0 -10   0 20040.9 627.005  45
   0 -10   0 19638.7 609.397  43
   0 -10   1 17760.4 559.716  40
   0 -10   1 16769.3 536.113  39
   0 -10   1 18576.5 596.179  45
   0 -10   1 18599.9 591.069  43
   0 -10   2 3107.22 225.228  39
   0 -10   2 3081.12 216.845  28
   0 -10   2 3242.11 248.836  45
   0 -10   2 3163.41 243.557  43
   0 -10   3 18295.3 548.317  39
   0 -10   3 19541.8 543.763  28
   0 -10   3 19113.8 604.605  45
   0 -10   3 19582.2 588.876  43
   0 -10   4 27901.2 637.450  28
   0 -10   4 27785.4 688.646  43
   0 -10   5 8509.91 311.482  28
   0 -10   6 4144.30 188.779  28
   0  -9  -8 3055.91 158.056  40
   0  -9  -8 3336.96 165.114  45
   0  -9  -7 7608.45 288.229  40
   0  -9  -7 7677.67 296.625  45
   0  -9  -7 7524.37 282.538  43
   0  -9  -6 4337.50 236.378  40
   0  -9  -6 4146.54 240.328  45
   0  -9  -6 4178.98 236.577  43
   0  -9  -5 21606.3 585.560  40
   0  -9  -5 22154.6 1277.96  24
   0  -9  -5 21338.6 602.368  45
   0  -9  -5 23566.2 627.292  43
   0  -9  -4 4491.08 268.280  40
   0  -9  -4 4411.10 590.262  24
   0  -9  -4 4676.36 290.499  45
   0  -9  -4 4604.99 285.711  43
   0  -9  -3 559.944 113.373  40
   0  -9  -3 505.664 93.0291   4
   0  -9  -3 798.821 143.989  45
   0  -9  -3 594.829 222.574  24
   0  -9  -3 707.942 123.836  43
   0  -9  -2 18779.2 595.278  40
   0  -9  -2 15288.6 1171.38  21
   0  -9  -2 18219.7 607.960  45
   0  -9  -2 20063.6 639.249  43
   0  -9  -2 15239.1 483.002   4
   0  -9  -1 15694.8 554.596  40
   0  -9  -1 15833.6 1206.29  21
   0  -9  -1 17422.5 504.986   4
   0  -9  -1 17707.8 649.701  25
   0  -9  -1 16143.4 588.582  45
   0  -9  -1 16148.4 581.121  43
   0  -9   0 7973.99 393.572  40
   0  -9   0 8099.51 415.729  39
   0  -9   0 7495.76 847.498  21
   0  -9   0 6770.85 309.076   4
   0  -9   0 7512.89 427.418  25
   0  -9   0 7743.39 404.962  45
   0  -9   0 7159.70 389.973  43
   0  -9   1 29103.0 799.170  40
   0  -9   1 28544.2 1676.83  21
   0  -9   1 30011.3 829.404  39
   0  -9   1 28412.7 782.809  28
   0  -9   1 28502.2 669.522   4
   0  -9   1 28746.4 820.368  45
   0  -9   1 30411.1 826.593  43
   0  -9   2 17372.3 606.895  40
   0  -9   2 17582.8 624.554  39
   0  -9   2 17055.2 492.607   4
   0  -9   2 17948.7 608.083  28
   0  -9   2 17587.5 631.178  45
   0  -9   2 17482.3 616.311  43
   0  -9   3 24323.5 733.438  39
   0  -9   3 24527.4 714.735  28
   0  -9   3 22157.1 560.836   4
   0  -9   3 24174.5 749.042  45
   0  -9   3 24661.7 739.599  43
   0  -9   4 2629.82 236.319  39
   0  -9   4 2968.60 237.807  28
   0  -9   4 2722.79 254.010  45
   0  -9   4 2426.08 233.666  43
   0  -9   5 2769.97 216.634  28
   0  -9   5 2496.38 231.832  43
   0  -9   6 268.724 92.7722  39
   0  -9   6 346.335 90.2504  28
   0  -9   6 393.323 116.179  50
   0  -9   7 4767.41 240.338  28
   0  -9   7 4593.36 188.185  51
   0  -9   8 301.093 73.0088  50
   0  -8  -9 5263.37 215.128  40
   0  -8  -9 5320.72 213.343  45
   0  -8  -8 19275.0 496.203  45
   0  -8  -8 17876.6 464.100  43
   0  -8  -7 2699.00 197.165  45
   0  -8  -7 2217.60 392.743  24
   0  -8  -7 2485.00 187.563  43
   0  -8  -6 6302.70 674.221  24
   0  -8  -6 6581.77 329.563  45
   0  -8  -6 6620.30 330.479  43
   0  -8  -5 248.140 91.0980  40
   0  -8  -5 348.452 242.001  16
   0  -8  -5 246.609 94.3703  45
   0  -8  -5 468.733 232.061  24
   0  -8  -5 246.320 92.4560  43
   0  -8  -4 8437.57 388.318  40
   0  -8  -4 9027.28 831.305  16
   0  -8  -4 8466.67 811.327  24
   0  -8  -4 8154.13 393.684  45
   0  -8  -4 8431.91 404.341  43
   0  -8  -3 517.904 112.622  40
   0  -8  -3 180.951 175.442  21
   0  -8  -3 320.914 98.9503  45
   0  -8  -3 321.869 182.671  16
   0  -8  -3 560.557 253.281  24
   0  -8  -3 270.974 82.3847   4
   0  -8  -3 281.137 102.142  43
   0  -8  -2 2378.71 212.923  40
   0  -8  -2 2068.98 427.826  21
   0  -8  -2 2035.50 203.226  45
   0  -8  -2 2428.27 445.212  24
   0  -8  -2 2186.30 220.018  43
   0  -8  -1 17828.7 586.475  40
   0  -8  -1 14030.3 959.835  59
   0  -8  -1 18306.9 1256.83  21
   0  -8  -1 17715.0 1209.03   1
   0  -8  -1 14263.6 989.305  52
   0  -8  -1 13207.2 946.173  61
   0  -8  -1 14301.3 979.394  53
   0  -8  -1 17737.0 609.958  45
   0  -8  -1 17288.5 1178.21  24
   0  -8  -1 14575.4 471.026   4
   0  -8  -1 17640.9 614.815  43
   0  -8  -1 14006.5 968.737  60
   0  -8   0 1282.87 166.605  40
   0  -8   0 1290.41 177.753  39
   0  -8   0 1795.05 401.339  21
   0  -8   0 1171.38 299.035  60
   0  -8   0 1143.82 299.057  59
   0  -8   0 1218.25 314.788  52
   0  -8   0 1018.97 275.913  61
   0  -8   0 1120.02 291.960  53
   0  -8   0 949.081 107.542   4
   0  -8   0 1523.36 205.593  25
   0  -8   0 1549.17 184.415  45
   0  -8   0 1510.75 187.959  43
   0  -8   0 946.538 288.129  55
   0  -8   0 1176.27 309.952   1
   0  -8   1 695.039 137.334  40
   0  -8   1 418.568 116.034  28
   0  -8   1 409.614 110.367  39
   0  -8   1 472.705 234.810   1
   0  -8   1 318.944 221.846  21
   0  -8   1 426.826 117.301  45
   0  -8   1 387.109 110.987  43
   0  -8   2 21465.5 697.096  40
   0  -8   2 21591.6 728.278  39
   0  -8   2 22665.5 1476.86  21
   0  -8   2 22105.7 590.683   4
   0  -8   2 23157.3 727.510  28
   0  -8   2 19993.8 693.509  45
   0  -8   2 21244.4 698.693  43
   0  -8   3 19371.8 681.983  39
   0  -8   3 16787.6 505.690   4
   0  -8   3 19204.7 661.790  28
   0  -8   3 17855.7 656.474  45
   0  -8   3 18844.8 661.389  43
   0  -8   4 6734.39 393.017  39
   0  -8   4 6702.58 382.311  28
   0  -8   4 5237.03 269.704   4
   0  -8   4 6394.38 390.335  45
   0  -8   4 6443.27 383.020  43
   0  -8   5 4335.38 311.658  39
   0  -8   5 4597.15 307.553  28
   0  -8   5 3968.14 306.070  43
   0  -8   6 172.449 93.5987  39
   0  -8   6 85.8806 71.9970  28
   0  -8   6 113.164 64.9596  51
   0  -8   6 120.628 125.639  50
   0  -8   6 125.098 89.9138  43
   0  -8   7 2390.98 203.976  28
   0  -8   7 2853.64 199.398  51
   0  -8   8 913.409 172.218  50
   0  -8   8 1383.57 108.735  42
   0  -8   9 1942.72 122.619  51
   0  -8   9 1448.63 134.768  50
   0  -7 -10 7954.74 261.082  40
   0  -7 -10 7726.27 255.526  45
   0  -7  -9 8323.10 308.308  40
   0  -7  -9 7890.84 304.145  45
   0  -7  -8 19638.9 542.729  40
   0  -7  -8 17723.1 1092.71  24
   0  -7  -8 19471.9 545.099  45
   0  -7  -8 18104.1 521.982  43
   0  -7  -7 20145.0 582.935  40
   0  -7  -7 19831.0 1224.83  16
   0  -7  -7 19397.5 1180.43  24
   0  -7  -7 21051.7 604.364  45
   0  -7  -7 19716.8 596.119  43
   0  -7  -6 1327.73 155.718  40
   0  -7  -6 1485.81 345.549  16
   0  -7  -6 1489.47 170.609  45
   0  -7  -6 1517.94 352.876  24
   0  -7  -6 1480.43 166.134  43
   0  -7  -5 42723.2 928.506  40
   0  -7  -5 44142.7 1812.43  16
   0  -7  -5 44187.6 966.298  45
   0  -7  -5 42840.0 967.948  43
   0  -7  -4 6234.86 323.391  40
   0  -7  -4 5610.01 629.940  21
   0  -7  -4 5306.22 551.447  59
   0  -7  -4 5263.17 546.898  58
   0  -7  -4 6564.73 672.346  16
   0  -7  -4 5458.04 571.749  52
   0  -7  -4 6621.89 678.245  24
   0  -7  -4 5688.83 569.843  53
   0  -7  -4 5928.89 330.414  45
   0  -7  -4 6284.56 343.386  43
   0  -7  -4 6130.12 595.275  61
   0  -7  -4 5505.06 568.709  60
   0  -7  -3 1775.91 370.962  21
   0  -7  -3 2040.38 344.679  61
   0  -7  -3 1950.18 330.218  58
   0  -7  -3 2089.03 344.878  53
   0  -7  -3 1560.01 301.491  60
   0  -7  -3 1400.34 154.278   4
   0  -7  -3 1715.46 314.567  52
   0  -7  -3 1851.91 356.927  16
   0  -7  -3 1710.85 183.995  45
   0  -7  -3 1771.28 317.381  59
   0  -7  -3 2029.90 387.033  24
   0  -7  -3 1577.80 336.377   1
   0  -7  -2 22078.1 1236.89  12
   0  -7  -2 23000.6 646.377  40
   0  -7  -2 24694.1 1140.74  61
   0  -7  -2 23205.5 1277.72  21
   0  -7  -2 22328.8 1222.80   1
   0  -7  -2 23122.6 1095.42  59
   0  -7  -2 22222.7 1082.20  58
   0  -7  -2 21993.4 585.452   4
   0  -7  -2 23492.8 1112.15  60
   0  -7  -2 23608.9 1104.84  53
   0  -7  -2 24112.4 1236.43  16
   0  -7  -2 21234.0 1076.20  52
   0  -7  -2 24407.3 1266.05  24
   0  -7  -2 22242.2 663.710  45
   0  -7  -2 22039.5 668.508  43
   0  -7  -1 4700.37 571.229  12
   0  -7  -1 4255.08 531.613   1
   0  -7  -1 5373.29 592.419  64
   0  -7  -1 5322.85 627.138  21
   0  -7  -1 4887.69 506.601  61
   0  -7  -1 4795.67 502.258  60
   0  -7  -1 3463.70 230.113   4
   0  -7  -1 4661.88 485.805  59
   0  -7  -1 4820.09 491.910  53
   0  -7  -1 4863.36 501.874  52
   0  -7  -1 5105.96 584.428  24
   0  -7  -1 4565.52 289.177  45
   0  -7  -1 4906.75 302.036  43
   0  -7   0 21217.3 1241.85  12
   0  -7   0 21347.6 1160.38   1
   0  -7   0 21434.8 1268.97  21
   0  -7   0 22490.2 1099.00  53
   0  -7   0 18801.8 1049.47  55
   0  -7   0 21223.8 1070.45  60
   0  -7   0 21544.9 1213.25  64
   0  -7   0 20954.8 1052.20  59
   0  -7   0 20029.6 1038.73  61
   0  -7   0 19041.4 1026.28  52
   0  -7   0 21116.2 1205.00  24
   0  -7   1 54307.2 1958.91   1
   0  -7   1 56608.5 2127.06  21
   0  -7   1 50065.4 1748.55  52
   0  -7   1 51884.2 1990.23  64
   0  -7   1 50661.3 1728.58  60
   0  -7   1 48521.5 1692.25  59
   0  -7   1 47261.2 925.628   4
   0  -7   1 49381.6 1725.18  53
   0  -7   1 53153.0 1771.96  61
   0  -7   1 49817.2 1095.72  45
   0  -7   1 50992.5 1083.68  43
   0  -7   1 52521.8 1807.64  55
   0  -7   2 2597.45 236.076  40
   0  -7   2 2467.26 242.285  39
   0  -7   2 3002.68 504.493  21
   0  -7   2 3709.89 525.955   1
   0  -7   2 3013.94 491.242  64
   0  -7   2 2612.04 403.675  53
   0  -7   2 3149.33 208.141   4
   0  -7   2 3098.65 259.424  28
   0  -7   2 3065.91 444.746  52
   0  -7   2 3177.43 265.354  45
   0  -7   2 3372.79 263.871  43
   0  -7   3 5289.36 353.289  39
   0  -7   3 6120.69 727.941  21
   0  -7   3 4693.04 331.041  45
   0  -7   3 5421.16 647.282   1
   0  -7   3 4177.41 246.209   4
   0  -7   3 5714.33 354.971  28
   0  -7   3 5475.17 355.650  43
   0  -7   4 2727.31 259.839  39
   0  -7   4 2700.00 249.652  28
   0  -7   4 2118.90 171.347   4
   0  -7   4 2607.94 258.642  45
   0  -7   4 2391.10 244.012  43
   0  -7   5 28624.8 853.614  39
   0  -7   5 29003.6 824.346  28
   0  -7   5 28826.2 847.078  43
   0  -7   6 48027.1 1074.76  28
   0  -7   6 43676.6 1094.53  39
   0  -7   6 47321.4 973.159  42
   0  -7   6 44308.7 1009.10   8
   0  -7   6 50873.8 1240.66  50
   0  -7   7 7172.83 374.638  28
   0  -7   7 6877.44 325.659  42
   0  -7   8 14536.4 498.307  28
   0  -7   8 14470.4 439.016  42
   0  -7   9 2504.60 177.822  51
   0  -7   9 2041.23 143.918  42
   0  -7  10 5412.68 205.933  51
   0  -7  10 2367.46 165.190  50
   0  -6 -11 21946.6 427.280  40
   0  -6 -11 16808.5 374.626  45
   0  -6 -10 8728.35 312.889  40
   0  -6 -10 8945.02 316.137  45
   0  -6  -9 11479.4 400.211  40
   0  -6  -9 11151.5 856.224  24
   0  -6  -9 11832.7 409.516  45
   0  -6  -9 10290.7 372.207  43
   0  -6  -8 1321.75 154.309  40
   0  -6  -8 955.897 152.386  45
   0  -6  -8 1059.02 297.035  16
   0  -6  -8 833.342 270.483  24
   0  -6  -8 1108.05 144.537  43
   0  -6  -7 6807.88 339.997  40
   0  -6  -7 5997.38 689.379  65
   0  -6  -7 7140.14 736.125  16
   0  -6  -7 6239.50 334.443  43
   0  -6  -6 8390.02 379.863  40
   0  -6  -6 8052.73 769.980  11
   0  -6  -6 10078.6 848.225  16
   0  -6  -6 8550.72 713.407  58
   0  -6  -6 8057.00 688.711  59
   0  -6  -6 7758.84 693.156  52
   0  -6  -6 8361.81 711.315  53
   0  -6  -6 8791.22 787.999  24
   0  -6  -6 8427.87 705.199  61
   0  -6  -6 7915.39 685.784  60
   0  -6  -6 8393.91 398.267  43
   0  -6  -6 9989.21 848.023  65
   0  -6  -5 16942.3 539.377  40
   0  -6  -5 16055.4 1003.18  21
   0  -6  -5 17805.7 1074.56  65
   0  -6  -5 17119.8 950.937  59
   0  -6  -5 17600.1 968.707  61
   0  -6  -5 17253.5 961.439  58
   0  -6  -5 16720.6 943.588  53
   0  -6  -5 18862.1 1106.59  16
   0  -6  -5 15896.1 948.210  52
   0  -6  -5 18571.9 1094.38  24
   0  -6  -5 18245.5 571.113  45
   0  -6  -5 15997.8 559.564  43
   0  -6  -5 17238.3 957.130  60
   0  -6  -4 109.237 108.683   1
   0  -6  -4 306.669 153.931  58
   0  -6  -4 163.341 97.3634  61
   0  -6  -4 53.1530 119.792  21
   0  -6  -4 131.977 105.567  52
   0  -6  -4 45.6182 107.528  65
   0  -6  -4 96.2731 101.836  60
   0  -6  -4 120.947 118.113  59
   0  -6  -4 96.9156 120.919  53
   0  -6  -4 133.768 131.531  16
   0  -6  -4 122.753 145.017  11
   0  -6  -4 99.2612 160.502  24
   0  -6  -3 2311.97 352.499  12
   0  -6  -3 2174.45 347.608   1
   0  -6  -3 2521.20 384.242  21
   0  -6  -3 1799.07 338.046  11
   0  -6  -3 2168.06 312.385  61
   0  -6  -3 2198.72 317.998  59
   0  -6  -3 2128.89 310.671  60
   0  -6  -3 2104.78 310.241  52
   0  -6  -3 2534.48 335.746  53
   0  -6  -3 2554.39 377.516  16
   0  -6  -3 2419.88 382.635  24
   0  -6  -3 2342.32 320.669  58
   0  -6  -2 43107.9 1515.66   1
   0  -6  -2 42823.1 1529.01  12
   0  -6  -2 38918.7 1284.40  53
   0  -6  -2 42281.6 1569.89  21
   0  -6  -2 40501.1 1442.80  64
   0  -6  -2 40867.1 1326.25  61
   0  -6  -2 39637.7 1297.51  58
   0  -6  -2 42891.9 1503.34  16
   0  -6  -2 42809.1 1531.33  24
   0  -6  -2 39805.1 1324.94  52
   0  -6  -2 41483.7 1323.24  59
   0  -6  -2 42242.6 1343.69  60
   0  -6  -1 42554.9 1548.48  12
   0  -6  -1 40978.6 1564.08  21
   0  -6  -1 42217.4 1323.50  61
   0  -6  -1 42358.7 1315.75  59
   0  -6  -1 43293.5 1340.55  60
   0  -6  -1 41855.8 1312.78  58
   0  -6  -1 43456.4 1331.13  53
   0  -6  -1 44857.0 1513.75  16
   0  -6  -1 44204.1 1368.41  52
   0  -6  -1 38810.7 1441.99  64
   0  -6  -1 42643.9 1526.84  24
   0  -6  -1 44917.0 1532.20   1
   0  -6   0 4992.85 530.972  12
   0  -6   0 4519.94 517.681  21
   0  -6   0 4909.57 507.359  64
   0  -6   0 3721.35 383.737  61
   0  -6   0 4529.43 416.350  59
   0  -6   0 4065.51 408.717  52
   0  -6   0 4508.28 427.187  53
   0  -6   0 4222.86 484.273  24
   0  -6   0 4289.25 413.148  60
   0  -6   0 4470.22 477.584   1
   0  -6   1 973.266 213.432  61
   0  -6   1 1054.81 272.024  21
   0  -6   1 899.132 208.100  59
   0  -6   1 995.453 257.493  64
   0  -6   1 886.539 209.432  55
   0  -6   1 998.018 222.523  52
   0  -6   1 938.196 242.566   1
   0  -6   1 855.699 202.695  53
   0  -6   1 1085.91 227.446  60
   0  -6   2 23079.0 1127.65   1
   0  -6   2 24122.1 1151.89  18
   0  -6   2 22621.9 1234.50  21
   0  -6   2 21842.5 1059.76  55
   0  -6   2 22431.0 1198.93  64
   0  -6   2 20837.5 1007.74  61
   0  -6   2 20866.7 1005.56  60
   0  -6   2 22148.2 1034.50  59
   0  -6   2 22001.0 1047.64  53
   0  -6   2 22639.4 1056.62  52
   0  -6   3 24241.6 1329.39  21
   0  -6   3 27510.4 1258.74   1
   0  -6   3 25211.6 1165.64  61
   0  -6   3 23896.2 1142.70  53
   0  -6   3 22511.3 1136.35  55
   0  -6   3 21396.7 1092.12  52
   0  -6   3 28132.5 1318.88  18
   0  -6   3 24112.7 1144.44  60
   0  -6   4 11626.9 494.592  28
   0  -6   4 12509.0 868.209   1
   0  -6   4 12357.0 536.270  45
   0  -6   4 12201.6 925.517  18
   0  -6   4 12064.3 510.854  43
   0  -6   5 5975.77 372.899  39
   0  -6   5 5756.09 350.230  28
   0  -6   5 5875.99 690.494  18
   0  -6   5 4568.57 313.529   8
   0  -6   5 5842.80 370.958  43
   0  -6   5 5390.52 314.588  42
   0  -6   6 8514.17 456.201  39
   0  -6   6 8417.27 425.932   8
   0  -6   6 8968.43 435.660  28
   0  -6   6 9520.26 416.643  42
   0  -6   7 3657.90 275.931  28
   0  -6   7 4005.29 284.728   8
   0  -6   7 3824.75 327.403  50
   0  -6   7 3723.49 261.247  42
   0  -6   8 2249.65 194.771  42
   0  -6   8 2543.46 224.002  51
   0  -6   8 2453.46 226.174  28
   0  -6   9 7094.10 340.950  28
   0  -6   9 7213.41 309.808  42
   0  -6  10 2968.48 184.844  51
   0  -6  10 2599.24 160.494  42
   0  -6  11 15670.4 352.942  51
   0  -5 -12 7320.22 208.609  40
   0  -5 -11 4724.35 215.906  40
   0  -5 -10 5605.88 273.346  40
   0  -5 -10 5398.90 593.439  24
   0  -5 -10 5356.38 269.950  45
   0  -5  -9 9580.94 392.589  40
   0  -5  -9 9288.43 390.718  45
   0  -5  -9 8473.68 799.696  16
   0  -5  -9 9307.05 825.830  24
   0  -5  -9 9297.27 377.058  43
   0  -5  -8 9364.29 404.119  40
   0  -5  -8 10572.3 932.863  65
   0  -5  -8 10062.1 422.495  45
   0  -5  -8 9617.78 852.246  16
   0  -5  -8 9444.75 835.294  24
   0  -5  -8 10335.2 430.451  43
   0  -5  -7 16116.2 540.314  40
   0  -5  -7 14564.5 1038.38  11
   0  -5  -7 17962.8 1177.75  65
   0  -5  -7 15436.5 975.706  61
   0  -5  -7 15254.1 971.412  60
   0  -5  -7 15856.1 988.623  59
   0  -5  -7 15244.7 971.366  58
   0  -5  -7 14678.7 962.765  53
   0  -5  -7 16246.2 1082.20  16
   0  -5  -7 17930.3 1139.15  24
   0  -5  -7 17807.8 571.858  45
   0  -5  -7 17300.9 562.290  43
   0  -5  -6 9843.63 407.730  40
   0  -5  -6 9216.06 722.273  21
   0  -5  -6 10050.8 811.066  11
   0  -5  -6 9749.72 812.659  65
   0  -5  -6 9685.49 723.833  58
   0  -5  -6 10170.7 729.012  61
   0  -5  -6 10053.9 722.110  60
   0  -5  -6 9122.90 693.467  59
   0  -5  -6 9671.27 712.694  53
   0  -5  -6 9995.27 817.619  16
   0  -5  -6 10207.3 811.436  24
   0  -5  -6 10095.9 418.304  45
   0  -5  -6 8596.97 395.866  43
   0  -5  -5 29854.8 1260.65  21
   0  -5  -5 29349.3 1299.41  11
   0  -5  -5 30036.9 1331.64  65
   0  -5  -5 28180.5 1135.27  61
   0  -5  -5 28269.8 1137.37  59
   0  -5  -5 28312.0 1147.38  58
   0  -5  -5 28357.6 1139.75  60
   0  -5  -5 27536.3 1130.02  53
   0  -5  -5 29478.5 1305.78  16
   0  -5  -5 28838.7 1293.94  24
   0  -5  -4 692.046 205.008  11
   0  -5  -4 509.781 157.953  12
   0  -5  -4 666.319 197.401  21
   0  -5  -4 663.235 187.751  65
   0  -5  -4 672.815 176.098  61
   0  -5  -4 680.702 175.767  60
   0  -5  -4 691.780 182.307  59
   0  -5  -4 609.099 166.508  58
   0  -5  -4 699.801 182.854  53
   0  -5  -4 700.882 175.984   1
   0  -5  -4 948.047 238.537  16
   0  -5  -4 777.087 224.619  24
   0  -5  -3 17517.7 861.796   1
   0  -5  -3 17468.6 783.994  60
   0  -5  -3 17857.7 846.331  12
   0  -5  -3 20792.1 968.871  21
   0  -5  -3 17055.7 859.562  11
   0  -5  -3 18418.9 889.477  65
   0  -5  -3 17224.0 810.751  64
   0  -5  -3 18092.2 792.315  61
   0  -5  -3 17842.8 787.797  59
   0  -5  -3 18752.7 809.315  58
   0  -5  -3 18207.1 794.708  53
   0  -5  -3 19655.5 941.474  16
   0  -5  -3 19129.7 935.481  24
   0  -5  -2 3805.77 383.533  12
   0  -5  -2 4475.99 435.469  24
   0  -5  -2 3596.96 402.310  21
   0  -5  -2 3750.53 399.731  11
   0  -5  -2 3827.90 385.455  65
   0  -5  -2 4032.80 392.746  64
   0  -5  -2 3935.60 349.306  61
   0  -5  -2 3966.43 351.221  53
   0  -5  -2 4260.20 364.106  60
   0  -5  -2 4001.21 354.237  58
   0  -5  -2 4015.82 351.905  59
   0  -5  -2 4580.70 424.801  16
   0  -5  -2 3884.04 353.575  52
   0  -5  -2 3953.54 412.841   1
   0  -5  -1 28219.6 1075.74  12
   0  -5  -1 31112.5 1113.81  64
   0  -5  -1 32332.2 1203.87  21
   0  -5  -1 29359.8 943.578  53
   0  -5  -1 28118.9 920.798  58
   0  -5  -1 31052.4 967.974  60
   0  -5  -1 28073.1 1054.01  16
   0  -5  -1 31589.2 991.995  52
   0  -5  -1 30022.6 945.506  59
   0  -5  -1 28990.7 1101.39  24
   0  -5  -1 28671.5 1063.57   1
   0  -5  -1 29538.3 942.880  61
   0  -5   0 10392.3 660.256  12
   0  -5   0 9730.41 664.841  21
   0  -5   0 9935.36 535.463  60
   0  -5   0 9808.03 639.726  64
   0  -5   0 9147.11 512.318  58
   0  -5   0 9542.53 522.768  59
   0  -5   0 9622.58 526.231  53
   0  -5   0 9751.67 536.801  52
   0  -5   0 10611.4 552.895  61
   0  -5   0 9927.82 620.275  16
   0  -5   0 8999.00 613.128  24
   0  -5   0 10419.6 620.091   1
   0  -5   1 3853.05 346.609  61
   0  -5   1 3659.92 424.333  21
   0  -5   1 3997.94 425.883  64
   0  -5   1 3912.07 370.607  55
   0  -5   1 4171.66 363.886  60
   0  -5   1 4147.97 407.731  18
   0  -5   1 3757.14 341.319  59
   0  -5   1 3236.19 332.268  52
   0  -5   1 3549.56 405.902  24
   0  -5   1 3499.17 338.324  53
   0  -5   1 3767.29 386.801   1
   0  -5   2 4704.24 503.422  21
   0  -5   2 4868.47 432.433  55
   0  -5   2 4921.35 495.630  64
   0  -5   2 5129.10 429.508  60
   0  -5   2 4675.61 409.040  59
   0  -5   2 5040.15 435.011  52
   0  -5   2 5172.19 489.848  18
   0  -5   2 4805.44 412.940  61
   0  -5   2 4771.22 448.033   1
   0  -5   3 1010.89 257.206  64
   0  -5   3 927.856 255.118  21
   0  -5   3 940.945 202.537  61
   0  -5   3 1075.72 222.014  60
   0  -5   3 1167.66 236.064  55
   0  -5   3 1193.94 273.668  18
   0  -5   3 853.637 202.834  57
   0  -5   3 776.635 203.902  53
   0  -5   3 906.413 210.580   1
   0  -5   3 1344.81 242.356  52
   0  -5   4 14059.1 926.991  18
   0  -5   4 13705.2 821.888  57
   0  -5   4 14522.2 821.854   9
   0  -5   4 13295.4 817.872  55
   0  -5   4 13708.9 807.414  61
   0  -5   4 14842.4 849.002  52
   0  -5   4 12853.5 789.891  53
   0  -5   4 14021.5 818.750  60
   0  -5   5 6804.22 626.451   9
   0  -5   5 6545.83 689.319  18
   0  -5   6 15253.2 593.323  39
   0  -5   6 15514.5 569.692  28
   0  -5   6 14961.0 1027.88   9
   0  -5   6 13558.3 539.372   8
   0  -5   6 16794.6 687.741  50
   0  -5   6 13875.1 579.155  43
   0  -5   6 14669.8 535.486  42
   0  -5   7 11961.3 988.734   9
   0  -5   7 12672.0 520.030  28
   0  -5   7 13390.7 529.400   8
   0  -5   7 12809.1 489.725  42
   0  -5   8 385.463 135.553  39
   0  -5   8 475.664 118.506  28
   0  -5   8 322.096 117.504  51
   0  -5   8 595.374 162.403  50
   0  -5   8 490.665 119.787   8
   0  -5   8 618.100 120.691  42
   0  -5   9 291.616 106.744  28
   0  -5   9 476.149 115.991  51
   0  -5   9 208.567 134.603  50
   0  -5   9 249.203 97.5443   8
   0  -5   9 392.377 97.2858  42
   0  -5  10 868.902 123.463  51
   0  -5  10 560.418 146.026  50
   0  -5  10 723.510 105.452  42
   0  -4 -12 1293.79 103.710  40
   0  -4 -11 20995.4 516.430  40
   0  -4 -11 19385.8 493.491  45
   0  -4 -10 2566.10 201.681  40
   0  -4 -10 2896.06 207.687  48
   0  -4 -10 2840.58 458.252  24
   0  -4  -9 5464.41 310.532  40
   0  -4  -9 4759.64 660.231  65
   0  -4  -9 4888.39 627.974  16
   0  -4  -9 5262.94 305.640  48
   0  -4  -9 6112.46 686.225  24
   0  -4  -9 5406.89 299.048  43
   0  -4  -8 57414.4 1115.57  40
   0  -4  -8 60303.3 2291.92  65
   0  -4  -8 62088.2 2207.92  16
   0  -4  -8 61111.3 2158.64  24
   0  -4  -7 4200.05 269.836  40
   0  -4  -7 3827.99 521.844  11
   0  -4  -7 3776.41 462.472  59
   0  -4  -7 3957.76 471.430  61
   0  -4  -7 4102.36 481.429  60
   0  -4  -7 3535.13 443.144  58
   0  -4  -7 3663.39 459.102  53
   0  -4  -7 4386.00 552.267  16
   0  -4  -7 4548.17 589.178  65
   0  -4  -7 3260.19 253.941  48
   0  -4  -7 4045.32 529.550  24
   0  -4  -6 39826.3 1404.93  61
   0  -4  -6 39541.2 1386.37  12
   0  -4  -6 39550.8 1442.10  21
   0  -4  -6 41156.1 1577.56  11
   0  -4  -6 44404.6 1703.54  65
   0  -4  -6 39932.2 1394.74  59
   0  -4  -6 39465.5 1386.68  60
   0  -4  -6 40504.4 1416.86  58
   0  -4  -6 39687.2 1405.01  53
   0  -4  -6 42633.2 1617.80  16
   0  -4  -6 41125.4 1581.19  24
   0  -4  -5 35085.0 1203.66  12
   0  -4  -5 38113.3 1333.83  21
   0  -4  -5 37903.9 1390.58  11
   0  -4  -5 36256.8 1402.36  65
   0  -4  -5 37400.6 1235.18  61
   0  -4  -5 36517.4 1225.53  60
   0  -4  -5 36345.3 1221.00  59
   0  -4  -5 35994.3 1223.35  58
   0  -4  -5 36778.1 1242.58  53
   0  -4  -5 38185.1 1417.85  16
   0  -4  -5 38478.2 1422.75  24
   0  -4  -4 83830.5 1760.71   1
   0  -4  -4 71202.4 1708.82  12
   0  -4  -4 90942.0 2010.12  21
   0  -4  -4 86113.7 1997.69  11
   0  -4  -4 79297.6 2004.55  65
   0  -4  -4 84370.0 1787.59  61
   0  -4  -4 82353.6 1773.35  60
   0  -4  -4 87851.4 1795.08  64
   0  -4  -4 82920.1 1782.10  59
   0  -4  -4 83718.2 1777.87  58
   0  -4  -4 82354.8 1788.62  53
   0  -4  -4 76907.6 1957.07  16
   0  -4  -4 80853.7 2003.13  24
   0  -4  -3 25293.7 905.480  12
   0  -4  -3 29569.0 926.173  53
   0  -4  -3 30654.3 1053.07  21
   0  -4  -3 29061.6 1015.87  11
   0  -4  -3 31162.4 1098.14  24
   0  -4  -3 27653.7 1025.69  65
   0  -4  -3 33682.8 1000.03  64
   0  -4  -3 28787.7 901.355  59
   0  -4  -3 29853.4 920.075  60
   0  -4  -3 28894.0 902.659  58
   0  -4  -3 29552.0 906.746  61
   0  -4  -3 29695.5 1057.71  16
   0  -4  -3 28907.4 969.198   1
   0  -4  -2 33056.6 1001.71  12
   0  -4  -2 30815.0 1056.90  21
   0  -4  -2 33172.1 1027.26  11
   0  -4  -2 33835.9 924.260  60
   0  -4  -2 34231.8 1053.25  65
   0  -4  -2 34235.0 921.023  61
   0  -4  -2 32474.0 907.825  59
   0  -4  -2 33554.1 926.276  58
   0  -4  -2 34473.7 934.889  53
   0  -4  -2 33013.4 1052.04  16
   0  -4  -2 33554.3 1085.55  24
   0  -4  -2 34749.8 1005.09  64
   0  -4  -1 9984.94 536.654  12
   0  -4  -1 11601.8 570.124  64
   0  -4  -1 9205.65 548.792  21
   0  -4  -1 9774.40 457.057  58
   0  -4  -1 8907.92 510.069  11
   0  -4  -1 9276.34 509.843  65
   0  -4  -1 9746.55 453.907  59
   0  -4  -1 9696.17 453.153  61
   0  -4  -1 9821.03 458.796  60
   0  -4  -1 9417.75 367.577  54
   0  -4  -1 9931.54 457.788  53
   0  -4  -1 9695.22 527.912  16
   0  -4  -1 9949.36 468.631  52
   0  -4  -1 9841.61 554.387  24
   0  -4  -1 9987.78 542.622   1
   0  -4   0 39467.3 1141.50  12
   0  -4   0 41185.3 1155.62  64
   0  -4   0 41296.1 985.877  61
   0  -4   0 39914.6 1196.18  21
   0  -4   0 40356.9 967.474  59
   0  -4   0 38425.0 955.797  58
   0  -4   0 34353.7 1018.98  18
   0  -4   0 37213.4 1081.15  16
   0  -4   0 42605.7 987.670  53
   0  -4   0 40250.5 983.606  52
   0  -4   0 40015.8 971.561  60
   0  -4   0 38809.3 1158.13  24
   0  -4   0 39099.7 1095.44   1
   0  -4   1 5184.50 423.454  12
   0  -4   1 4961.19 424.767  21
   0  -4   1 5381.61 351.886  59
   0  -4   1 6259.35 461.917  64
   0  -4   1 5439.58 416.099  18
   0  -4   1 5055.95 272.874   9
   0  -4   1 5167.13 347.786  60
   0  -4   1 5179.70 305.735  54
   0  -4   1 4822.02 333.870  53
   0  -4   1 4855.14 337.608  61
   0  -4   1 4762.04 343.175  52
   0  -4   1 4871.65 362.492  55
   0  -4   1 5118.52 430.283  24
   0  -4   1 5603.30 406.322   1
   0  -4   2 69634.8 1800.50  21
   0  -4   2 80540.5 1559.89   9
   0  -4   2 73229.6 1560.06  60
   0  -4   2 75679.4 1808.55  18
   0  -4   2 70857.4 1551.91  53
   0  -4   2 74693.2 1576.34  59
   0  -4   2 78027.3 1634.86  55
   0  -4   2 74814.8 1499.66  54
   0  -4   2 74385.2 1572.79  61
   0  -4   2 77512.7 1676.57   1
   0  -4   2 73235.9 1789.10  64
   0  -4   2 79294.3 1631.32  52
   0  -4   3 31801.1 1249.61  21
   0  -4   3 36206.9 1285.10  64
   0  -4   3 35625.9 1129.92   9
   0  -4   3 34885.6 1269.13  18
   0  -4   3 37062.2 1121.99  61
   0  -4   3 36569.0 1120.78  60
   0  -4   3 35085.9 1103.13  53
   0  -4   3 33295.7 1078.22  52
   0  -4   3 33187.9 1094.65  55
   0  -4   3 37197.2 1108.12   1
   0  -4   4 6403.98 456.037   1
   0  -4   4 6307.07 580.685  18
   0  -4   4 6534.27 498.836  61
   0  -4   4 6817.90 523.942  55
   0  -4   4 5570.68 465.946  57
   0  -4   4 6497.52 534.691   9
   0  -4   4 6067.06 489.841  52
   0  -4   4 6873.42 512.212  60
   0  -4   5 51556.6 1584.72  53
   0  -4   5 47888.0 1575.99  55
   0  -4   5 50631.7 1799.53  18
   0  -4   5 50759.1 1568.06  61
   0  -4   5 50971.1 1597.04  57
   0  -4   5 55894.3 1787.44   9
   0  -4   5 50854.6 1587.67  52
   0  -4   6 843.023 268.939   9
   0  -4   7 10838.0 929.092   9
   0  -4   7 9946.31 457.318  28
   0  -4   7 10086.6 449.501   8
   0  -4   7 10688.6 543.967  50
   0  -4   7 10557.1 433.279  42
   0  -4   8 65159.0 1154.61  32
   0  -4   8 64787.4 1263.84   8
   0  -4   8 63571.0 1271.77  28
   0  -4   8 61375.6 1180.59  44
   0  -4   8 62528.1 1177.85  42
   0  -4   9 2874.83 220.717  44
   0  -4   9 2780.82 208.221  32
   0  -4   9 3166.19 243.677  51
   0  -4   9 2820.01 215.794  42
   0  -4  10 3643.19 203.484  32
   0  -4  10 4059.05 256.898  51
   0  -4  10 3702.91 215.304  44
   0  -4  10 3637.27 227.000  42
   0  -4  11 5683.58 215.124  32
   0  -4  11 4826.39 208.349  44
   0  -4  12 160.712 62.0668  50
   0  -3 -12 9555.20 301.896  40
   0  -3 -12 7874.88 257.397  48
   0  -3 -11 8709.69 346.799  40
   0  -3 -11 9052.32 346.942  48
   0  -3 -10 16802.6 541.617  40
   0  -3 -10 16482.5 1116.83  24
   0  -3 -10 14785.4 1084.26  16
   0  -3 -10 17789.9 567.296  48
   0  -3  -9 10361.4 439.599  40
   0  -3  -9 11091.7 1014.97  65
   0  -3  -9 10405.9 919.213  16
   0  -3  -9 10205.3 460.244  48
   0  -3  -9 11089.4 921.181  24
   0  -3  -8 7548.86 379.497  40
   0  -3  -8 7833.86 776.597  11
   0  -3  -8 7339.42 795.724  65
   0  -3  -8 7899.74 706.706  61
   0  -3  -8 6803.01 649.123  60
   0  -3  -8 7444.60 674.018  59
   0  -3  -8 6403.68 628.828  53
   0  -3  -8 7440.51 747.565  16
   0  -3  -8 6847.83 378.521  48
   0  -3  -8 7086.76 662.217  58
   0  -3  -8 8837.92 799.853  24
   0  -3  -7 63669.3 1905.77  61
   0  -3  -7 57577.5 1749.23  12
   0  -3  -7 65616.7 1921.49  21
   0  -3  -7 62956.8 2076.41  11
   0  -3  -7 65950.0 1911.05  60
   0  -3  -7 63726.8 1878.17  59
   0  -3  -7 61728.3 1850.67  58
   0  -3  -7 65946.8 2132.15  24
   0  -3  -7 58931.6 1835.00  53
   0  -3  -7 62704.0 2082.25  16
   0  -3  -7 64104.6 2222.47  65
   0  -3  -6 2255.69 307.288  12
   0  -3  -6 2290.21 337.785  21
   0  -3  -6 2036.61 345.000  11
   0  -3  -6 1835.64 342.986  65
   0  -3  -6 2131.91 308.997  60
   0  -3  -6 2161.11 280.429  64
   0  -3  -6 2297.11 316.345  61
   0  -3  -6 2179.14 313.831  59
   0  -3  -6 1914.13 279.265  58
   0  -3  -6 2041.31 303.109  53
   0  -3  -6 2176.75 362.835  16
   0  -3  -6 2002.45 353.338  24
   0  -3  -5 10026.8 716.412  65
   0  -3  -5 10170.3 583.104  12
   0  -3  -5 10913.1 642.767  21
   0  -3  -5 11580.7 706.503  11
   0  -3  -5 10197.3 692.886  24
   0  -3  -5 10507.6 558.657  64
   0  -3  -5 10570.2 610.356  61
   0  -3  -5 10511.5 601.529  60
   0  -3  -5 10995.8 614.606  59
   0  -3  -5 11071.4 613.571  58
   0  -3  -5 10625.8 614.835  17
   0  -3  -5 9847.28 589.970  53
   0  -3  -5 9795.40 675.321  16
   0  -3  -4 6362.94 367.870   1
   0  -3  -4 6363.27 415.910  12
   0  -3  -4 6997.44 479.196  21
   0  -3  -4 6611.57 482.934  11
   0  -3  -4 6085.44 416.585  17
   0  -3  -4 5937.33 488.818  65
   0  -3  -4 6335.72 424.992  61
   0  -3  -4 6152.11 410.676  60
   0  -3  -4 6327.10 416.409  59
   0  -3  -4 6177.72 390.511  64
   0  -3  -4 6205.78 409.052  58
   0  -3  -4 6145.54 411.685  53
   0  -3  -4 6532.34 502.904  16
   0  -3  -4 6626.04 504.805  24
   0  -3  -3 22418.9 735.999  12
   0  -3  -3 24510.0 850.167  21
   0  -3  -3 23469.3 822.559  11
   0  -3  -3 22878.7 711.306  64
   0  -3  -3 22530.0 730.978  61
   0  -3  -3 22489.8 718.029  60
   0  -3  -3 22441.0 716.620  59
   0  -3  -3 22985.5 865.720  65
   0  -3  -3 22192.5 712.840  58
   0  -3  -3 20992.7 717.242  17
   0  -3  -3 22066.8 716.811  53
   0  -3  -3 22930.2 855.833  16
   0  -3  -3 25237.3 913.291  24
   0  -3  -3 23103.0 730.418   1
   0  -3  -3 20888.3 566.577  14
   0  -3  -2 88905.5 1595.44  12
   0  -3  -2 101494. 1806.52  21
   0  -3  -2 103840. 1765.16  11
   0  -3  -2 97568.9 1798.17  65
   0  -3  -2 90178.4 1242.67  62
   0  -3  -2 99116.1 1596.49  61
   0  -3  -2 98869.3 1590.22  60
   0  -3  -2 98652.8 1588.08  59
   0  -3  -2 99094.9 1594.72  58
   0  -3  -2 104275. 1657.51  64
   0  -3  -2 97872.2 1603.91  53
   0  -3  -2 90191.6 1744.26  16
   0  -3  -2 90816.1 1646.80   1
   0  -3  -2 94771.0 1838.74  24
   0  -3  -1 50741.9 1105.23  12
   0  -3  -1 57787.5 1257.71  21
   0  -3  -1 54751.3 1150.42  11
   0  -3  -1 53774.1 1162.54  65
   0  -3  -1 54565.6 1133.34  64
   0  -3  -1 56811.1 1048.12  61
   0  -3  -1 58200.0 1068.56  53
   0  -3  -1 55752.6 1044.88  60
   0  -3  -1 54598.6 1037.76  59
   0  -3  -1 51815.5 1164.24   1
   0  -3  -1 55760.5 1049.37  58
   0  -3  -1 51595.7 1171.28  16
   0  -3   0 71893.6 1385.99  12
   0  -3   0 75729.6 1483.27  21
   0  -3   0 71904.5 1212.27  59
   0  -3   0 74028.7 1400.17  64
   0  -3   0 76836.1 1241.89  58
   0  -3   0 76659.6 1243.16  61
   0  -3   0 69585.7 1207.18  60
   0  -3   0 66669.2 849.259   9
   0  -3   0 73659.4 1113.01  54
   0  -3   0 75781.2 1243.45  53
   0  -3   0 67904.4 1359.55  16
   0  -3   0 71057.6 1226.94  52
   0  -3   0 73590.4 1376.58   1
   0  -3   1 11235.4 525.048  12
   0  -3   1 10179.3 522.985  21
   0  -3   1 9532.88 490.626  18
   0  -3   1 10262.9 414.332  59
   0  -3   1 10543.8 397.232   9
   0  -3   1 11297.6 439.653  61
   0  -3   1 10830.1 406.801  54
   0  -3   1 10375.7 423.959  60
   0  -3   1 11434.6 449.928  52
   0  -3   1 10693.5 474.603   1
   0  -3   1 10090.5 497.810  64
   0  -3   1 11103.7 436.385  53
   0  -3   2 60520.6 1254.87  60
   0  -3   2 61507.0 1484.15  21
   0  -3   2 62457.5 1278.30  53
   0  -3   2 64075.5 1465.16  64
   0  -3   2 67447.6 1306.34  61
   0  -3   2 66606.9 1511.47  18
   0  -3   2 63380.5 1082.98  56
   0  -3   2 66567.7 1363.35   9
   0  -3   2 68557.8 1348.60  55
   0  -3   2 64647.5 1305.88  54
   0  -3   2 66007.7 1305.34  52
   0  -3   2 65045.4 1319.84   1
   0  -3   2 63019.3 1272.24  59
   0  -3   3 15759.6 640.385  60
   0  -3   3 13415.1 716.582  21
   0  -3   3 15993.7 709.176   9
   0  -3   3 15616.2 531.999  56
   0  -3   3 14885.4 637.411  55
   0  -3   3 14615.0 614.455  61
   0  -3   3 15612.1 634.974  53
   0  -3   3 14502.4 620.132  52
   0  -3   3 13637.6 613.864  57
   0  -3   3 15374.9 591.941   1
   0  -3   3 14875.7 729.199  18
   0  -3   4 20412.3 689.253   1
   0  -3   4 17798.2 692.676  19
   0  -3   4 18159.7 765.109  61
   0  -3   4 20479.8 815.475  57
   0  -3   4 20995.7 712.394  56
   0  -3   4 20174.6 902.413   9
   0  -3   4 18337.6 788.922  55
   0  -3   4 18462.5 774.026  53
   0  -3   4 20712.4 819.295  52
   0  -3   4 20020.0 804.525  60
   0  -3   4 19271.0 926.503  18
   0  -3   5 3495.11 425.259   9
   0  -3   5 3445.30 361.255  61
   0  -3   5 3366.15 348.249  19
   0  -3   5 3212.44 413.875  18
   0  -3   5 3420.17 369.097  57
   0  -3   5 3461.85 329.481  56
   0  -3   5 3068.12 356.994  55
   0  -3   5 3276.18 355.813  53
   0  -3   5 3405.75 365.788  52
   0  -3   6 3501.23 378.301  19
   0  -3   6 3127.88 385.216  57
   0  -3   6 3198.68 360.509  56
   0  -3   6 3980.22 501.128   9
   0  -3   6 3144.41 376.155  53
   0  -3   6 3394.89 388.339  61
   0  -3   6 2973.77 373.639  52
   0  -3   6 3538.73 414.123  55
   0  -3   7 8377.01 785.548   9
   0  -3   8 17348.6 549.109  32
   0  -3   8 16947.7 1192.92   9
   0  -3   8 16360.2 558.965  44
   0  -3   8 16263.3 535.906  42
   0  -3   9 6404.01 310.831  32
   0  -3   9 6503.23 356.909  51
   0  -3   9 5870.45 329.528  44
   0  -3   9 5398.87 300.222  42
   0  -3  10 6164.54 287.967  32
   0  -3  10 6111.65 318.224  51
   0  -3  10 5844.26 294.045  44
   0  -3  10 5742.48 295.971  42
   0  -3  11 1427.20 128.042  32
   0  -3  11 1503.96 134.849  44
   0  -3  12 6446.63 210.582  32
   0  -2 -13 50.3782 32.8313  40
   0  -2 -12 1318.52 127.827  40
   0  -2 -12 1441.34 127.822  48
   0  -2 -11 13473.7 463.548  40
   0  -2 -11 14039.4 473.005  48
   0  -2 -11 13974.5 993.124  24
   0  -2 -10 30245.8 1548.42  24
   0  -2 -10 29107.1 1558.81  16
   0  -2 -10 29495.7 790.789  48
   0  -2 -10 29287.6 759.539  41
   0  -2  -9 2533.68 505.005  65
   0  -2  -9 2624.11 240.445  48
   0  -2  -9 2370.46 453.138  16
   0  -2  -9 2526.01 450.550  24
   0  -2  -9 2418.78 223.669  41
   0  -2  -8 12693.4 842.696  12
   0  -2  -8 14794.6 931.499  59
   0  -2  -8 14737.5 923.476  21
   0  -2  -8 16000.6 1102.61  11
   0  -2  -8 14586.2 949.782  61
   0  -2  -8 15355.6 948.154  60
   0  -2  -8 13897.6 1104.53  65
   0  -2  -8 12779.0 872.844  53
   0  -2  -8 14742.0 927.485  58
   0  -2  -8 15953.8 1090.70  16
   0  -2  -8 13270.2 546.846  48
   0  -2  -8 14054.2 1014.67  24
   0  -2  -8 12105.5 512.347  41
   0  -2  -7 4555.05 462.500  12
   0  -2  -7 4779.36 502.373  21
   0  -2  -7 3520.77 482.654  11
   0  -2  -7 4282.36 585.262  65
   0  -2  -7 4498.47 483.540  61
   0  -2  -7 4642.18 479.727  60
   0  -2  -7 5112.54 502.321  58
   0  -2  -7 4527.05 550.959  16
   0  -2  -7 5230.70 458.313  64
   0  -2  -7 4609.48 550.584  24
   0  -2  -7 5170.52 508.754  59
   0  -2  -6 17437.8 813.596  12
   0  -2  -6 17316.0 867.403  21
   0  -2  -6 17560.8 947.599  11
   0  -2  -6 15927.5 998.413  65
   0  -2  -6 16572.2 822.856  59
   0  -2  -6 18100.0 785.951  64
   0  -2  -6 17722.1 852.321  58
   0  -2  -6 15627.0 868.899  17
   0  -2  -6 17375.5 845.726  60
   0  -2  -6 17590.8 879.838  61
   0  -2  -6 16068.3 934.029  16
   0  -2  -6 16914.3 970.760  24
   0  -2  -5 763.001 201.539  11
   0  -2  -5 615.962 154.736  12
   0  -2  -5 759.799 184.448  21
   0  -2  -5 1070.38 251.374  65
   0  -2  -5 722.190 159.601  61
   0  -2  -5 760.331 168.702  60
   0  -2  -5 830.915 176.363  59
   0  -2  -5 847.729 175.178  58
   0  -2  -5 822.837 189.878  17
   0  -2  -5 934.385 221.234  16
   0  -2  -5 812.462 216.776  24
   0  -2  -5 748.628 151.031  64
   0  -2  -4 8873.99 585.323  65
   0  -2  -4 9051.87 461.070  12
   0  -2  -4 9167.11 513.575  21
   0  -2  -4 8895.90 540.081  11
   0  -2  -4 7596.31 308.995   1
   0  -2  -4 9226.56 485.635  60
   0  -2  -4 9505.34 485.258  58
   0  -2  -4 9171.49 498.015  61
   0  -2  -4 8851.35 510.971  17
   0  -2  -4 9196.31 441.761  64
   0  -2  -4 8245.32 540.959  16
   0  -2  -4 8556.55 570.476  24
   0  -2  -4 9001.90 474.969  59
   0  -2  -3 84824.1 1453.64  12
   0  -2  -3 88974.1 1624.23  21
   0  -2  -3 91971.7 1675.73  11
   0  -2  -3 90931.8 1452.23  64
   0  -2  -3 85861.4 1765.85  65
   0  -2  -3 83633.7 1484.73  59
   0  -2  -3 83559.4 1486.63  58
   0  -2  -3 78254.2 1528.48  17
   0  -2  -3 84429.3 1532.93  61
   0  -2  -3 83497.9 1488.25  60
   0  -2  -3 92460.6 1766.27  16
   0  -2  -2 16302.1 486.716  12
   0  -2  -2 15377.4 586.125  65
   0  -2  -2 16581.1 472.071  64
   0  -2  -1 102765. 1523.05  12
   0  -2  -1 110831. 1263.54  62
   0  -2  -1 111440. 1669.63  65
   0  -2  -1 117362. 1566.70  64
   0  -2  -1 104580. 1580.06   1
   0  -2   0 37787.4 780.448  12
   0  -2   0 34753.0 759.759  64
   0  -2   0 37904.1 688.109  60
   0  -2   0 39297.8 693.901  59
   0  -2   0 39583.4 698.713  58
   0  -2   0 39708.6 706.900  52
   0  -2   0 38328.5 690.786  61
   0  -2   0 39569.1 615.844  54
   0  -2   0 40025.2 699.212  53
   0  -2   0 35775.5 524.692   9
   0  -2   0 36783.0 772.944   1
   0  -2   1 483625. 5198.72  54
   0  -2   1 490201. 5193.96  61
   0  -2   1 496506. 5043.10  56
   0  -2   1 476104. 5187.18  53
   0  -2   1 486665. 5178.40  59
   0  -2   1 492596. 5217.12  52
   0  -2   1 475788. 5310.01   1
   0  -2   2 598294. 6338.74  56
   0  -2   2 613432. 6564.19  55
   0  -2   2 593800. 6614.60  54
   0  -2   2 607662. 6524.13  53
   0  -2   2 567467. 6490.12  52
   0  -2   2 609185. 6454.25   1
   0  -2   2 578936. 6493.09  60
   0  -2   2 607833. 6856.43  18
   0  -2   2 624015. 6539.16  61
   0  -2   3 11766.3 580.511  18
   0  -2   3 10699.4 465.558  19
   0  -2   3 11371.7 461.559  56
   0  -2   3 11799.8 500.706  60
   0  -2   3 11601.6 507.907  55
   0  -2   3 11082.5 484.297  61
   0  -2   3 11723.5 498.631  53
   0  -2   3 11429.8 406.138   1
   0  -2   3 11614.3 503.887  57
   0  -2   3 11353.6 493.996  52
   0  -2   4 1830.19 226.819  61
   0  -2   4 1694.40 147.917   1
   0  -2   4 1753.50 224.899  19
   0  -2   4 1852.89 228.073  57
   0  -2   4 2081.16 230.234  56
   0  -2   4 1733.64 229.719  55
   0  -2   4 1776.97 266.761   9
   0  -2   4 1783.50 218.377  53
   0  -2   4 1775.51 230.297  52
   0  -2   4 1523.48 242.431  18
   0  -2   4 1533.05 187.049  22
   0  -2   5 2184.83 320.514   9
   0  -2   5 2957.50 315.796  19
   0  -2   5 1710.43 283.924  18
   0  -2   5 1910.11 268.136  57
   0  -2   5 1987.58 262.325  56
   0  -2   5 1829.33 265.558  55
   0  -2   5 1975.43 265.456  53
   0  -2   5 2232.48 273.322  61
   0  -2   5 1701.64 253.385  52
   0  -2   5 1830.84 235.406  22
   0  -2   6 163538. 3015.99  52
   0  -2   6 168362. 3017.00  61
   0  -2   6 163015. 3022.17  57
   0  -2   6 173086. 3127.50  56
   0  -2   6 168193. 3404.97   9
   0  -2   6 159886. 3044.45  55
   0  -2   6 157521. 2951.00  53
   0  -2   7 48731.7 1585.35  19
   0  -2   7 41405.4 1472.40  57
   0  -2   7 43556.1 1575.00  56
   0  -2   7 48164.3 1808.66   9
   0  -2   7 40941.1 1484.04  55
   0  -2   7 41357.5 1465.47  52
   0  -2   8 7498.19 390.451  28
   0  -2   8 8578.09 371.305  32
   0  -2   8 7427.25 695.093  56
   0  -2   8 9451.26 854.880   9
   0  -2   8 8342.14 404.923  51
   0  -2   8 8722.85 405.474  44
   0  -2   8 8418.08 379.876  42
   0  -2   9 4152.26 255.660  32
   0  -2   9 4198.26 286.622  51
   0  -2   9 3937.14 266.217  44
   0  -2   9 3813.03 249.937  42
   0  -2  10 4793.96 277.330  44
   0  -2  10 4987.70 265.238  32
   0  -2  10 5407.05 298.663  51
   0  -2  10 4789.39 269.878  42
   0  -2  11 15313.2 430.910  32
   0  -2  11 15982.1 457.457  44
   0  -2  12 4583.02 205.112  44
   0  -2  12 5125.48 203.477  32
   0  -1 -12 1479.54 142.403  48
   0  -1 -11 385.506 88.5474  41
   0  -1 -11 346.846 102.068  40
   0  -1 -11 435.415 108.521  48
   0  -1 -11 280.629 194.236  24
   0  -1 -10 1669.36 445.721  65
   0  -1 -10 1502.62 381.765  16
   0  -1 -10 1331.05 363.581  24
   0  -1 -10 1618.21 188.025  41
   0  -1  -9 42669.4 2089.59  65
   0  -1  -9 50178.9 2060.92  16
   0  -1  -9 46407.0 1105.27  48
   0  -1  -9 51907.2 2073.59  24
   0  -1  -9 43512.4 1065.23  41
   0  -1  -8 32346.9 1685.27  65
   0  -1  -8 27211.6 1285.38  12
   0  -1  -8 29246.1 1514.32  11
   0  -1  -8 28295.6 1346.83  61
   0  -1  -8 27830.0 1281.01  59
   0  -1  -8 29748.0 1322.98  58
   0  -1  -8 30833.7 1525.77  16
   0  -1  -8 30398.6 1524.34  24
   0  -1  -8 28856.9 1310.20  60
   0  -1  -8 23999.8 774.740  41
   0  -1  -7 29870.0 1232.55  12
   0  -1  -7 30374.1 1426.91  11
   0  -1  -7 32711.1 1574.07  65
   0  -1  -7 32426.6 1321.36  61
   0  -1  -7 34644.0 1327.37  60
   0  -1  -7 33755.6 1300.88  59
   0  -1  -7 34665.5 1308.61  58
   0  -1  -7 32337.0 1459.02  17
   0  -1  -7 32535.2 1466.47  16
   0  -1  -7 35012.7 1527.03  24
   0  -1  -6 2529.86 373.381  11
   0  -1  -6 2564.26 329.760  60
   0  -1  -6 2761.07 359.336  61
   0  -1  -6 2650.39 329.268  59
   0  -1  -6 3015.90 349.855  58
   0  -1  -6 2577.37 377.444  17
   0  -1  -6 2284.12 382.462  16
   0  -1  -6 2459.28 381.505  24
   0  -1  -6 2501.48 413.711  65
   0  -1  -5 29910.0 1230.07  65
   0  -1  -5 32392.1 1019.82  58
   0  -1  -5 30013.0 1106.59  11
   0  -1  -5 30595.9 1007.26  60
   0  -1  -5 31118.5 1045.95  61
   0  -1  -5 31747.0 1016.67  59
   0  -1  -5 28209.9 1140.32  17
   0  -1  -5 29293.4 1145.45  16
   0  -1  -5 33501.2 1247.23  24
   0  -1  -4 8159.52 563.397  65
   0  -1  -4 7701.79 486.835  11
   0  -1  -4 7906.52 444.912  60
   0  -1  -4 8073.86 444.095  59
   0  -1  -4 8373.65 475.344  61
   0  -1  -4 7715.37 436.609  58
   0  -1  -4 7684.90 520.615  17
   0  -1  -4 8187.15 528.463  16
   0  -1  -4 7284.67 511.681  24
   0  -1  -3 315947. 2580.24  11
   0  -1  -3 310591. 2930.51  65
   0  -1  -3 299816. 2374.86  61
   0  -1  -3 309041. 2308.10  60
   0  -1  -3 304381. 2274.17  59
   0  -1  -3 316355. 2321.05  58
   0  -1  -2 1886.98 148.952  12
   0  -1  -2 706.011 143.668  65
   0  -1  -1 274.609 58.6059   1
   0  -1  -1 1164.13 87.9289  12
   0  -1   0 11618.3 298.425   1
   0  -1   0 12620.5 226.945  54
   0  -1   1 150450. 1762.92  59
   0  -1   1 146823. 1757.32  61
   0  -1   1 141801. 1802.66  54
   0  -1   1 146733. 1757.54  60
   0  -1   1 146881. 1758.43  53
   0  -1   1 141427. 1729.79   1
   0  -1   1 156210. 1781.42  52
   0  -1   1 149602. 1777.91  55
   0  -1   2 23202.5 562.881  61
   0  -1   2 24546.7 584.965  57
   0  -1   2 22777.1 613.152  54
   0  -1   2 21751.8 561.453  55
   0  -1   2 22576.6 556.893  53
   0  -1   2 23582.4 572.538  52
   0  -1   2 23250.5 567.257  60
   0  -1   3 119299. 1842.64  57
   0  -1   3 113198. 1834.57  55
   0  -1   3 116917. 1815.61  53
   0  -1   3 114638. 1981.51  18
   0  -1   3 121036. 1849.55  52
   0  -1   3 119140. 1825.43  61
   0  -1   4 3873.68 310.245  22
   0  -1   4 3932.92 303.834  61
   0  -1   4 4069.08 336.394  19
   0  -1   4 3357.98 331.642  18
   0  -1   4 3638.50 303.163  57
   0  -1   4 3701.11 303.074  55
   0  -1   4 3834.69 301.775  53
   0  -1   4 3914.90 308.845  52
   0  -1   5 102914. 1999.37  61
   0  -1   5 100008. 2058.32  19
   0  -1   5 101269. 1996.41  57
   0  -1   5 99169.0 2010.42  55
   0  -1   5 100278. 2216.81   9
   0  -1   5 96706.4 1953.89  53
   0  -1   5 99689.2 1985.11  52
   0  -1   6 35362.1 1198.73  57
   0  -1   6 35563.2 1345.19  56
   0  -1   6 36840.2 1405.72   9
   0  -1   6 35728.0 1226.38  55
   0  -1   6 37101.7 1201.15  53
   0  -1   6 36612.9 1215.05  52
   0  -1   6 41111.5 1324.87  19
   0  -1   6 42433.6 1290.91  22
   0  -1   7 20924.2 1013.40  19
   0  -1   7 18414.7 1039.70  56
   0  -1   7 17159.8 907.666  55
   0  -1   7 17943.7 1059.56   9
   0  -1   7 18057.2 913.820  52
   0  -1   7 19755.8 952.812  22
   0  -1   7 18038.7 919.625  57
   0  -1   8 5699.23 303.649  42
   0  -1   8 6031.88 302.317  32
   0  -1   8 5337.25 288.486  30
   0  -1   8 5837.20 638.899  56
   0  -1   8 6450.71 698.344   9
   0  -1   8 5499.81 320.899  51
   0  -1   8 6016.06 321.737  44
   0  -1   8 6910.11 629.260  19
   0  -1   8 7246.88 617.428  22
   0  -1   9 66478.9 1151.81  32
   0  -1   9 64781.0 1155.33  30
   0  -1   9 62250.0 1216.46  51
   0  -1   9 64330.0 1143.58  49
   0  -1   9 64907.8 1195.42  44
   0  -1   9 64203.7 1164.46  42
   0  -1  10 30768.3 707.986  32
   0  -1  10 31679.9 707.554  49
   0  -1  10 31757.7 751.381  44
   0  -1  10 30724.5 721.374  42
   0  -1  10 32642.9 724.080  30
   0  -1  11 3607.54 200.832  30
   0  -1  11 4226.08 235.698  44
   0  -1  11 4070.45 220.098  32
   0  -1  12 4373.17 194.277  32
   0  -1  12 4770.33 217.177  44
   0   0 -13 91.5035 39.4942  40
   0   0 -13 52.2337 29.2951  45
   0   0 -12 529.371 81.8033  41
   0   0 -12 343.567 93.6662  40
   0   0 -12 522.178 100.335  48
   0   0 -11 9422.77 402.684  41
   0   0 -11 9963.32 431.054  48
   0   0 -11 8982.55 829.521  24
   0   0 -10 40938.5 2091.99  65
   0   0 -10 42370.6 1925.75  24
   0   0 -10 39534.8 1884.03  16
   0   0 -10 44187.1 1056.59  48
   0   0 -10 42370.8 1025.55  41
   0   0  -9 6263.86 811.176  65
   0   0  -9 7111.63 788.461  16
   0   0  -9 7094.36 767.879  24
   0   0  -9 5782.21 376.613  41
   0   0  -8 23252.4 786.988  41
   0   0  -8 25354.8 1238.44  60
   0   0  -8 27701.1 1475.36  11
   0   0  -8 26896.5 1266.48  59
   0   0  -8 26563.2 1490.33  17
   0   0  -8 23505.7 1231.61  61
   0   0  -8 25232.2 1232.20  58
   0   0  -8 29682.1 1520.82  16
   0   0  -8 27539.8 1585.43  65
   0   0  -8 30564.2 1563.79  24
   0   0  -7 28712.3 1480.66  65
   0   0  -7 25862.4 1306.10  11
   0   0  -7 25503.2 1204.11  63
   0   0  -7 24246.3 1166.75  61
   0   0  -7 26347.6 1169.74  60
   0   0  -7 25385.2 1136.71  59
   0   0  -7 25451.3 1131.89  58
   0   0  -7 22223.6 1291.91  17
   0   0  -7 25575.4 1304.90  16
   0   0  -7 25667.2 1340.43  24
   0   0  -6 17246.8 953.923  11
   0   0  -6 18420.6 1082.61  65
   0   0  -6 18196.5 870.563  59
   0   0  -6 17936.8 903.771  61
   0   0  -6 17979.2 876.611  60
   0   0  -6 20076.7 956.697  63
   0   0  -6 18204.3 869.035  58
   0   0  -6 18238.3 1057.63  17
   0   0  -6 19061.8 1021.49  16
   0   0  -6 18086.2 1025.51  24
   0   0  -5 35200.8 1233.82  11
   0   0  -5 34586.6 1159.05  63
   0   0  -5 36677.1 1139.50  60
   0   0  -5 35661.6 1107.86  59
   0   0  -5 30903.2 1276.91  65
   0   0  -5 37951.3 1132.62  58
   0   0  -5 35223.4 1147.61  61
   0   0  -5 38773.1 1338.79  16
   0   0  -5 35076.0 1356.96  17
   0   0  -4 176618. 2965.48  11
   0   0  -4 184370. 2881.01  63
   0   0  -4 186235. 2793.43  59
   0   0  -4 179689. 2788.01  60
   0   0  -4 191250. 3249.82  65
   0   0  -4 184534. 2792.42  58
   0   0  -4 194914. 3120.78  16
   0   0  -3 4427.45 318.159  63
   0   0  -3 4633.31 304.660  60
   0   0  -3 4676.89 299.515  59
   0   0  -3 4636.86 299.930  58
   0   0  -3 3998.87 356.019  17
   0   0  -2 7601.41 297.547  10
   0   0  -2 6898.78 299.244  59
   0   0  -2 6770.05 299.193  60
   0   0  -2 7071.16 299.385  58
   0   0  -1 4927.36 171.254  10
   0   0   1 5249.58 221.382   7
   0   0   2 7431.37 374.408   7
   0   0   2 7174.96 284.390  57
   0   0   2 6805.73 282.571  55
   0   0   2 7469.95 284.797  53
   0   0   2 7244.24 285.414  52
   0   0   2 7173.08 281.023  61
   0   0   3 4974.75 385.093   7
   0   0   3 4714.60 282.614  61
   0   0   3 4808.09 289.714  55
   0   0   3 4770.18 312.914  18
   0   0   3 4794.31 285.912  57
   0   0   3 4884.07 285.602  53
   0   0   3 4948.79 289.227  52
   0   0   4 208649. 2954.02  22
   0   0   4 184306. 3283.71   7
   0   0   4 218385. 3019.12  19
   0   0   4 190884. 2816.67  55
   0   0   4 195448. 2782.82  53
   0   0   4 193234. 2793.44  52
   0   0   4 191133. 2791.53  57
   0   0   5 37498.5 1131.57  22
   0   0   5 36206.9 1075.92  55
   0   0   5 40538.7 1189.87  19
   0   0   5 36977.8 1075.04  57
   0   0   5 39287.6 1242.48   9
   0   0   5 36301.9 1050.40  53
   0   0   5 36790.7 1067.78  52
   0   0   6 17214.7 815.295  55
   0   0   6 19716.4 905.515  19
   0   0   6 17736.0 798.740  53
   0   0   6 18066.1 820.566  57
   0   0   6 19630.3 973.216   9
   0   0   6 19019.6 835.225  52
   0   0   6 19540.6 897.803  22
   0   0   7 24656.5 1071.46  55
   0   0   7 28078.9 1176.90  19
   0   0   7 24991.8 1070.47  57
   0   0   7 25352.1 1238.08   9
   0   0   7 25383.3 1066.32  52
   0   0   7 26115.5 1122.43  22
   0   0   8 24533.6 1172.42  55
   0   0   8 33177.9 1396.70  19
   0   0   8 28794.3 683.528  32
   0   0   8 25951.4 672.627  30
   0   0   8 25617.4 1179.75  57
   0   0   8 30020.4 1482.48   9
   0   0   8 28936.3 1470.89  56
   0   0   8 27485.8 1222.72  52
   0   0   8 27062.4 683.595  49
   0   0   8 26993.9 694.899  44
   0   0   8 23601.2 641.328  42
   0   0   8 31194.5 1333.21  22
   0   0   9 6525.63 312.005  32
   0   0   9 6198.12 318.290  44
   0   0   9 5963.18 307.847  42
   0   0  10 43798.5 877.354  32
   0   0  10 51950.5 1143.27  50
   0   0  10 45127.7 901.889  30
   0   0  10 46451.8 911.705  49
   0   0  10 43756.9 906.490  44
   0   0  10 38494.6 1608.99  22
   0   0  11 10678.9 363.973  32
   0   0  11 10583.8 363.250  30
   0   0  11 10516.3 356.769  49
   0   0  11 10747.1 381.762  44
   0   0  12 660.422 85.9972  32
   0   0  12 752.624 83.2318  30
   0   0  12 612.412 76.0037  49
   0   0  12 604.369 87.3917  44
   0   0  13 288.925 49.1397  32
   0   1 -13 898.708 82.1416  48
   0   1 -12 4349.20 246.957  48
   0   1 -12 3934.20 211.305  41
   0   1 -11 4041.44 279.796  48
   0   1 -11 3129.91 507.094  24
   0   1 -11 3706.43 262.185  41
   0   1 -10 28654.5 1622.59  16
   0   1 -10 29370.5 1623.43  24
   0   1 -10 27977.2 1728.66  65
   0   1 -10 29127.9 850.724  41
   0   1  -9 62864.4 1376.69  41
   0   1  -9 58771.6 2491.48  17
   0   1  -9 64099.9 2452.52  24
   0   1  -9 62512.8 2627.67  65
   0   1  -8 5985.29 711.322  11
   0   1  -8 6030.94 770.899  65
   0   1  -8 6008.35 653.904  63
   0   1  -8 5409.20 729.840  17
   0   1  -8 5970.05 704.831  16
   0   1  -8 6239.38 718.265  24
   0   1  -7 17405.3 1109.13  11
   0   1  -7 16728.3 987.911  61
   0   1  -7 17230.6 966.654  60
   0   1  -7 17967.0 968.947  58
   0   1  -7 17840.8 974.072  59
   0   1  -7 17624.3 1187.26  17
   0   1  -7 17440.4 1177.34  65
   0   1  -7 18120.1 1123.18  16
   0   1  -7 17888.3 1029.82  63
   0   1  -6 34609.5 1433.98  11
   0   1  -6 38097.8 1588.70  65
   0   1  -6 35928.2 1325.28  61
   0   1  -6 36066.0 1298.22  60
   0   1  -6 36173.1 1290.96  59
   0   1  -6 37057.7 1301.36  58
   0   1  -6 40066.9 1657.08  17
   0   1  -6 34283.0 1307.17  63
   0   1  -6 35956.5 1463.47  16
   0   1  -5 106976. 2113.67  10
   0   1  -5 100794. 2301.75  11
   0   1  -5 111338. 2569.55  65
   0   1  -5 97410.8 2077.79  60
   0   1  -5 101664. 2088.32  59
   0   1  -5 99998.2 2065.91  58
   0   1  -5 99124.2 2483.40  17
   0   1  -5 104556. 2183.90  63
   0   1  -5 102401. 2353.25  16
   0   1  -4 3703.72 397.391  65
   0   1  -4 3498.33 316.771  60
   0   1  -4 3784.40 326.120  59
   0   1  -4 4216.33 432.897  17
   0   1  -4 3854.14 330.987  58
   0   1  -4 3650.19 319.502  10
   0   1  -3 101877. 1898.34  20
   0   1  -3 116313. 1850.94  10
   0   1  -3 110429. 1837.01  60
   0   1  -3 111483. 1837.34  59
   0   1  -3 115006. 1832.55  58
   0   1  -3 99563.9 2075.59  17
   0   1  -2 22722.2 609.657  59
   0   1  -2 22876.6 600.986  58
   0   1  -1 151548. 1797.78  10
   0   1  -1 142393. 1772.91  58
   0   1   0 12390.1 272.103   7
   0   1   1 341.304 66.5324   7
   0   1   1 312.939 42.1575   9
   0   1   2 949.403 146.548   7
   0   1   2 1074.61 129.723  15
   0   1   3 311453. 3632.35  55
   0   1   3 296838. 3763.46  19
   0   1   3 296735. 3686.19   9
   0   1   3 317535. 3602.52  53
   0   1   3 318553. 3632.48  52
   0   1   3 309318. 3617.21  57
   0   1   3 291039. 4011.47   7
   0   1   4 8508.26 474.647  22
   0   1   4 8184.15 464.307  19
   0   1   4 7570.99 406.388  53
   0   1   4 7728.57 421.891  55
   0   1   4 7937.61 457.460   9
   0   1   4 8362.02 434.770  52
   0   1   4 8146.90 438.059  15
   0   1   4 7466.22 561.054   7
   0   1   4 7623.32 413.862  57
   0   1   5 31403.3 1049.87  22
   0   1   5 29121.7 1284.72   7
   0   1   5 27961.8 993.224  19
   0   1   5 29589.6 955.105  55
   0   1   5 31292.0 970.922  57
   0   1   5 32626.3 1087.43   9
   0   1   5 31239.1 950.712  53
   0   1   5 31200.6 967.868  52
   0   1   6 2663.24 335.739  22
   0   1   6 2614.17 456.356   7
   0   1   6 2824.99 338.876  19
   0   1   6 2390.34 297.756  53
   0   1   6 2486.03 302.541  57
   0   1   6 2732.49 357.063   9
   0   1   6 2765.53 327.921  55
   0   1   6 2673.77 309.072  52
   0   1   7 30194.7 1662.73   7
   0   1   7 33931.0 1410.38   9
   0   1   7 33616.6 1250.52  55
   0   1   7 34750.1 1261.87  52
   0   1   7 33161.2 1251.66  57
   0   1   7 35228.8 1319.92  19
   0   1   7 37062.4 1358.75  22
   0   1   8 32027.6 1356.57  19
   0   1   8 28116.3 687.315  32
   0   1   8 30173.4 718.707  30
   0   1   8 28625.9 1246.99  57
   0   1   8 30249.6 1446.77   9
   0   1   8 29223.8 1267.96  55
   0   1   8 30204.2 1275.09  52
   0   1   8 30548.2 865.515  50
   0   1   8 31130.8 723.394  49
   0   1   8 28289.6 716.647  44
   0   1   9 46715.4 973.986  44
   0   1   9 49037.7 957.732  32
   0   1   9 48453.8 982.040  30
   0   1  10 1705.10 160.330  32
   0   1  10 1724.13 168.530  30
   0   1  10 1798.77 228.598  50
   0   1  10 1639.44 161.554  49
   0   1  10 1681.05 169.348  44
   0   1  10 2063.10 384.953  22
   0   1  11 474.665 88.3800  32
   0   1  11 567.061 99.1365  30
   0   1  11 511.717 91.8294  49
   0   1  11 546.780 101.013  44
   0   1  12 1863.91 129.659  30
   0   1  12 1701.74 125.274  49
   0   1  12 1759.37 138.707  44
   0   1  12 1997.06 131.735  32
   0   2 -12 4560.97 241.194  48
   0   2 -12 4164.22 218.525  41
   0   2 -11 11493.5 939.704  24
   0   2 -11 12852.5 502.356  41
   0   2 -10 4301.13 329.837  41
   0   2 -10 3741.43 647.941  65
   0   2 -10 2771.46 560.065  17
   0   2 -10 4071.57 623.538  16
   0   2 -10 4134.99 640.506  24
   0   2  -9 3251.66 285.364  35
   0   2  -9 3188.53 614.669  65
   0   2  -9 3537.68 544.107  63
   0   2  -9 3667.11 649.363  17
   0   2  -9 3481.42 588.015  16
   0   2  -9 3858.58 608.530  24
   0   2  -8 9120.89 921.378  11
   0   2  -8 9435.60 973.646  65
   0   2  -8 7941.64 902.827  17
   0   2  -8 8721.71 807.478  63
   0   2  -8 9244.24 896.504  16
   0   2  -7 43002.4 1875.63  11
   0   2  -7 42695.9 1604.21  59
   0   2  -7 47467.5 1763.97  63
   0   2  -7 48079.7 2071.10  65
   0   2  -7 50840.7 2135.12  17
   0   2  -7 45435.3 1873.98  16
   0   2  -6 157803. 3512.19  11
   0   2  -6 165638. 3724.42  65
   0   2  -6 170863. 3339.38  63
   0   2  -6 162401. 3201.67  60
   0   2  -6 165497. 3189.51  59
   0   2  -6 167280. 3186.05  58
   0   2  -6 168856. 3829.14  17
   0   2  -6 160320. 3475.81  16
   0   2  -5 1986.55 286.332  59
   0   2  -5 2553.27 355.285  20
   0   2  -5 3131.74 442.748  65
   0   2  -5 2043.56 292.343  60
   0   2  -5 1796.02 262.486  58
   0   2  -5 1879.03 283.305  10
   0   2  -5 1967.75 376.435  17
   0   2  -4 1808.97 249.860  58
   0   2  -4 1935.80 291.972  20
   0   2  -4 1547.38 234.939  60
   0   2  -4 2083.98 269.196  59
   0   2  -4 1391.83 286.312  17
   0   2  -4 1740.10 244.277  10
   0   2  -3 12154.9 634.367  20
   0   2  -3 11138.5 534.074  59
   0   2  -3 11871.5 543.074  58
   0   2  -3 10480.1 634.993  17
   0   2  -3 12254.5 560.402  10
   0   2  -2 579939. 6913.80  20
   0   2  -2 596390. 6584.09  58
   0   2  -2 584016. 6920.54  13
   0   2  -1 475698. 5582.74  66
   0   2  -1 490104. 5394.90  58
   0   2  -1 514652. 5490.19  15
   0   2  -1 502133. 5438.42  10
   0   2   0 38246.2 708.663  55
   0   2   0 36829.8 709.299   7
   0   2   0 39415.0 857.350  15
   0   2   1 115408. 1714.79  13
   0   2   1 114862. 1649.10   7
   0   2   2 19151.6 673.636  66
   0   2   2 15806.2 381.830   9
   0   2   2 19926.7 664.623  15
   0   2   2 14820.8 566.723   7
   0   2   3 65923.8 1148.39  13
   0   2   3 92224.5 1649.09  22
   0   2   3 73387.1 1572.50  66
   0   2   3 74588.5 1459.48  19
   0   2   3 79338.3 1317.66   9
   0   2   3 88877.4 1446.69  52
   0   2   3 85650.0 1436.45  55
   0   2   3 76451.2 1591.26  15
   0   2   3 81246.5 1734.20   7
   0   2   3 85329.5 1425.70  57
   0   2   4 9135.36 515.003  22
   0   2   4 8511.88 449.349  57
   0   2   4 8216.02 476.928  19
   0   2   4 9686.75 478.146   9
   0   2   4 9308.36 469.151  55
   0   2   4 9575.64 470.446  52
   0   2   4 8692.83 613.864   7
   0   2   5 727.552 178.597  22
   0   2   5 780.961 243.397   7
   0   2   5 988.941 201.429  19
   0   2   5 641.714 151.912   9
   0   2   5 701.163 159.814  55
   0   2   5 680.578 158.583  57
   0   2   5 689.675 163.883  52
   0   2   5 1042.59 238.377  15
   0   2   6 18744.0 897.724  22
   0   2   6 18210.4 829.565  52
   0   2   6 17961.7 827.639  55
   0   2   6 19596.9 911.344  19
   0   2   6 17483.0 815.674  57
   0   2   6 15565.6 1116.14   7
   0   2   7 4460.61 667.668   7
   0   2   7 5666.27 535.836  19
   0   2   7 4472.13 454.275  57
   0   2   7 4874.39 504.567   9
   0   2   7 4982.50 475.991  55
   0   2   7 4935.20 468.867  52
   0   2   7 5367.35 519.714  22
   0   2   8 12370.1 1241.80   7
   0   2   8 14747.6 923.679  19
   0   2   8 13079.9 444.149  32
   0   2   8 12895.9 472.434  31
   0   2   8 14339.6 867.971  57
   0   2   8 13448.4 490.707  29
   0   2   8 15258.0 914.943  55
   0   2   8 14524.8 888.033  52
   0   2   8 14551.3 472.230  49
   0   2   8 14259.2 480.069  44
   0   2   8 16505.2 985.373  22
   0   2   9 1999.83 420.169  19
   0   2   9 2579.55 209.487  31
   0   2   9 2627.94 206.801  30
   0   2   9 3037.22 209.616  32
   0   2   9 2971.25 209.730  49
   0   2   9 2744.88 210.952  44
   0   2   9 3127.68 463.843  22
   0   2  10 29794.1 675.208  32
   0   2  10 30476.8 698.864  30
   0   2  10 30149.3 694.101  49
   0   2  10 28577.4 699.415  44
   0   2  11 15601.1 447.202  30
   0   2  11 14836.5 433.042  49
   0   2  11 15931.9 427.268  32
   0   2  11 15200.0 447.879  44
   0   2  12 1543.48 115.867  32
   0   2  12 1571.12 121.540  30
   0   2  12 1596.35 123.108  49
   0   3 -12 5365.77 250.671  48
   0   3 -12 5625.97 243.052  41
   0   3 -11 1264.45 190.175  48
   0   3 -11 1262.08 159.247  41
   0   3 -10 5834.20 371.690  41
   0   3 -10 5352.63 329.793  35
   0   3  -9 6017.99 393.606  35
   0   3  -9 5817.11 821.405  65
   0   3  -9 4981.98 656.687  63
   0   3  -9 6068.20 868.209  17
   0   3  -9 5591.63 750.081  16
   0   3  -9 6690.42 800.414  24
   0   3  -8 17145.7 1316.19  11
   0   3  -8 16801.4 1350.66  65
   0   3  -8 16734.9 1378.04  17
   0   3  -8 16739.2 1160.81  63
   0   3  -8 17088.0 1261.60  16
   0   3  -7 7241.22 848.092  17
   0   3  -7 7983.18 841.094  11
   0   3  -7 7978.51 884.563  65
   0   3  -7 6093.21 647.957  63
   0   3  -7 7368.48 778.739  16
   0   3  -6 3479.92 478.101  20
   0   3  -6 3816.35 560.331  65
   0   3  -6 3341.10 448.505  10
   0   3  -6 3247.97 428.233  60
   0   3  -6 3220.29 424.189  59
   0   3  -6 3632.48 444.850  58
   0   3  -6 2900.12 505.942  17
   0   3  -5 3292.36 447.944  20
   0   3  -5 4111.14 521.257  65
   0   3  -5 3210.42 405.230  10
   0   3  -5 3191.56 388.449  60
   0   3  -5 3734.59 415.063  59
   0   3  -5 3401.44 391.806  58
   0   3  -5 3316.39 489.235  17
   0   3  -4 18545.0 951.571  20
   0   3  -4 19083.8 887.382  10
   0   3  -4 21062.3 907.026  59
   0   3  -4 20274.7 877.206  58
   0   3  -4 18258.2 1033.92  17
   0   3  -3 9683.38 520.599  66
   0   3  -3 13061.5 733.504  20
   0   3  -3 14585.3 676.608  59
   0   3  -3 15438.1 685.744  58
   0   3  -3 16259.8 723.465  10
   0   3  -3 11603.6 726.407  17
   0   3  -2 43808.5 1193.81  66
   0   3  -2 63355.2 1325.26  58
   0   3  -2 66015.6 1550.99  20
   0   3  -2 44890.1 1120.85  15
   0   3  -2 66743.1 1369.30  10
   0   3  -2 60696.5 1541.74  13
   0   3  -1 9836.91 530.203  20
   0   3  -1 10948.5 546.127  66
   0   3  -1 10102.0 457.289  10
   0   3  -1 10799.8 468.247  58
   0   3  -1 10800.1 419.067   7
   0   3  -1 10927.8 505.924  15
   0   3  -1 11679.4 606.079  23
   0   3  -1 10742.5 568.055  13
   0   3   0 75379.3 1285.22  55
   0   3   0 71618.2 1538.76  66
   0   3   0 69965.4 1278.56  10
   0   3   0 72239.4 1257.83   7
   0   3   0 70123.9 1469.89  15
   0   3   0 76611.2 1663.52  23
   0   3   0 72768.4 1547.69  13
   0   3   1 49769.8 1283.03  66
   0   3   1 53703.8 1026.53  57
   0   3   1 55631.7 1056.99  55
   0   3   1 62407.8 1355.80  15
   0   3   1 56441.1 1176.17   7
   0   3   1 59880.7 1448.80  23
   0   3   1 52732.9 1252.02  13
   0   3   2 85999.2 1597.19  22
   0   3   2 110046. 2036.74  66
   0   3   2 74640.0 1392.65  19
   0   3   2 99648.1 1577.45  55
   0   3   2 91450.5 1873.75  15
   0   3   2 95205.4 1801.35   7
   0   3   2 96957.1 2047.26  23
   0   3   2 102301. 1768.58  13
   0   3   3 22254.6 782.027  22
   0   3   3 22375.0 918.938  66
   0   3   3 21999.7 691.582  57
   0   3   3 21573.6 516.066   9
   0   3   3 20154.0 854.299  15
   0   3   3 22802.7 717.621  55
   0   3   3 21609.3 715.193  19
   0   3   3 22449.8 917.938   7
   0   3   3 21017.2 931.845  23
   0   3   3 24103.9 752.489  13
   0   3   4 6142.84 452.215  22
   0   3   4 4171.39 433.527  66
   0   3   4 5832.88 414.342  19
   0   3   4 6181.99 397.296  57
   0   3   4 6016.26 337.592   9
   0   3   4 6291.82 406.569  55
   0   3   4 6263.03 405.267  52
   0   3   4 4520.68 440.660  15
   0   3   4 6321.82 555.342   7
   0   3   5 10794.3 647.327  22
   0   3   5 12850.4 802.534  66
   0   3   5 10363.4 617.959  19
   0   3   5 10858.5 596.404  55
   0   3   5 10453.0 583.263  57
   0   3   5 10578.0 600.131  52
   0   3   5 12957.0 807.290  15
   0   3   5 9231.14 775.048   7
   0   3   6 2414.74 312.969  52
   0   3   6 2239.31 301.074  55
   0   3   6 2178.76 293.732  57
   0   3   6 2016.92 308.664  19
   0   3   6 2164.31 328.996  15
   0   3   6 2470.07 476.365   7
   0   3   6 2170.79 337.679  22
   0   3   7 69200.1 1987.18  19
   0   3   7 63225.1 1808.04  57
   0   3   7 63318.9 1842.15  52
   0   3   7 64142.6 1846.21  55
   0   3   7 66577.7 1958.11  22
   0   3   8 7002.13 973.434   7
   0   3   8 7449.16 655.171  55
   0   3   8 6635.29 307.346  32
   0   3   8 8644.96 378.587  31
   0   3   8 7701.05 339.540  30
   0   3   8 6888.82 615.269  57
   0   3   8 7533.12 655.390  52
   0   3   8 8266.19 355.995  49
   0   3   8 7261.07 340.059  44
   0   3   8 8476.11 719.389  22
   0   3   9 9671.88 369.209  32
   0   3   9 9852.45 410.471  31
   0   3   9 10061.0 391.566  30
   0   3   9 10866.5 431.026  29
   0   3   9 10517.4 404.019  44
   0   3   9 10962.9 845.657  22
   0   3  10 16789.2 471.140  32
   0   3  10 17719.1 517.122  31
   0   3  10 16929.8 495.400  30
   0   3  10 17406.3 516.056  29
   0   3  10 17050.9 494.058  49
   0   3  10 18224.8 513.618  44
   0   3  10 18240.4 1088.46  22
   0   3  11 8351.90 305.804  31
   0   3  11 8707.08 294.166  32
   0   3  11 9225.54 320.677  30
   0   3  11 9147.93 318.888  49
   0   3  12 10770.4 297.628  30
   0   3  12 10458.6 291.606  49
   0   4 -12 1440.33 119.716  48
   0   4 -12 1194.90 104.715  41
   0   4 -11 4547.37 240.004  35
   0   4 -10 3089.18 249.521  35
   0   4 -10 2866.76 528.770  24
   0   4  -9 2656.59 583.563  65
   0   4  -9 3463.57 674.232  17
   0   4  -9 2474.94 520.207  16
   0   4  -8 68574.1 2853.75  65
   0   4  -8 63972.7 2807.19  17
   0   4  -8 56924.8 2268.48  63
   0   4  -8 61660.3 1334.21  26
   0   4  -8 62516.0 2541.09  16
   0   4  -7 11762.4 1111.73  65
   0   4  -7 12253.1 1155.02  17
   0   4  -7 10798.5 1034.55  11
   0   4  -6 1259.63 304.116  20
   0   4  -6 786.136 286.664  65
   0   4  -6 1050.70 288.528  10
   0   4  -6 880.497 326.427  17
   0   4  -5 48465.8 1883.70  20
   0   4  -5 50002.1 1718.50  59
   0   4  -5 54100.2 1752.19  58
   0   4  -5 47211.9 1975.36  17
   0   4  -4 4652.79 533.218  20
   0   4  -4 6288.06 570.141  10
   0   4  -4 7023.75 572.463  59
   0   4  -4 6591.17 543.753  58
   0   4  -4 5226.88 600.938  17
   0   4  -3 31870.6 1289.45  20
   0   4  -3 26729.0 1046.27  66
   0   4  -3 39194.8 1246.36  58
   0   4  -3 33205.8 1169.67  59
   0   4  -3 33771.4 1014.18   7
   0   4  -3 36214.9 1252.83  10
   0   4  -3 23659.5 1049.77  23
   0   4  -2 71859.1 1812.11  20
   0   4  -2 77076.1 1669.47  58
   0   4  -2 75394.9 1645.04  10
   0   4  -2 79249.7 1452.19   7
   0   4  -2 49692.4 1372.78  15
   0   4  -2 40190.4 1351.82  66
   0   4  -2 54785.8 1690.75  13
   0   4  -1 5474.10 455.203  20
   0   4  -1 4920.83 431.040  66
   0   4  -1 6103.89 416.674  58
   0   4  -1 5511.87 393.307  10
   0   4  -1 5707.50 361.059   7
   0   4  -1 4635.86 392.929  15
   0   4  -1 5038.99 457.268  23
   0   4  -1 5541.26 487.723  13
   0   4   0 37342.2 980.361  55
   0   4   0 37246.2 1187.13  20
   0   4   0 38825.6 1243.76  66
   0   4   0 37188.0 1006.08  10
   0   4   0 41435.4 1032.06   7
   0   4   0 38514.8 1190.76  15
   0   4   0 40583.7 1340.92  23
   0   4   0 39731.5 1293.90  13
   0   4   1 9178.84 471.443  10
   0   4   1 8485.73 570.884  66
   0   4   1 9375.92 466.148  55
   0   4   1 10032.7 534.911   7
   0   4   1 9833.16 610.917  15
   0   4   1 8623.91 601.129  23
   0   4   1 10331.2 617.845  13
   0   4   2 33626.5 1221.43  66
   0   4   2 32616.9 895.541  57
   0   4   2 32686.1 917.302  55
   0   4   2 24580.7 1016.02  15
   0   4   2 31181.6 1061.78   7
   0   4   2 27604.0 1159.85  23
   0   4   2 34915.1 1132.07  13
   0   4   2 31595.8 905.167  22
   0   4   3 27917.5 936.890  22
   0   4   3 25129.0 800.787  19
   0   4   3 18335.6 977.217  66
   0   4   3 29678.3 924.487  55
   0   4   3 29649.4 899.997  57
   0   4   3 29051.3 911.775  52
   0   4   3 21048.5 1016.91  15
   0   4   3 28320.9 1155.68   7
   0   4   3 32291.1 1067.23  13
   0   4   4 83313.9 1789.11  55
   0   4   4 83612.8 1769.73  19
   0   4   4 82090.1 1753.26  57
   0   4   4 85219.7 1803.42  52
   0   4   5 34913.0 1181.17  19
   0   4   5 36007.0 1507.96  66
   0   4   5 36970.3 1195.72  57
   0   4   5 36700.2 1223.96  55
   0   4   5 34581.5 1205.59  52
   0   4   5 34248.4 1525.68  23
   0   4   5 34124.9 1640.14   7
   0   4   5 37010.2 1283.66  22
   0   4   6 37927.8 1369.30  19
   0   4   6 40065.3 1358.18  57
   0   4   6 40233.5 1392.70  55
   0   4   6 39887.9 1393.90  52
   0   4   6 44316.7 1708.45  15
   0   4   6 37202.0 1929.09   7
   0   4   6 45862.6 1537.96  22
   0   4   7 4358.74 480.424  55
   0   4   7 3749.23 245.410  31
   0   4   7 3675.78 231.788  30
   0   4   7 4026.48 456.380  57
   0   4   7 4126.18 274.137  29
   0   4   7 3672.23 447.635  52
   0   4   7 3842.36 239.184  49
   0   4   7 4070.97 489.772  22
   0   4   7 3963.77 708.680   7
   0   4   8 41962.0 2559.86   7
   0   4   8 58056.9 1115.39  31
   0   4   8 56318.2 1071.44  30
   0   4   8 75396.1 1263.80  29
   0   4   8 61864.8 1103.29  49
   0   4   8 63304.0 2082.18  22
   0   4   9 5194.81 284.836  31
   0   4   9 5208.40 275.126  30
   0   4   9 5300.14 299.272  29
   0   4   9 5568.16 285.209  49
   0   4   9 5426.09 611.002  22
   0   4  10 2520.04 189.523  31
   0   4  10 2668.32 188.818  30
   0   4  10 2341.96 182.876  29
   0   4  10 2600.15 184.021  49
   0   4  11 20869.1 487.759  31
   0   4  11 21647.5 491.433  30
   0   4  11 19910.0 469.499  29
   0   4  11 20707.8 479.654  49
   0   4  12 1409.65 98.1286  30
   0   4  12 1418.92 100.191  49
   0   5 -11 9137.52 352.617  41
   0   5 -11 8174.41 300.956  35
   0   5 -10 777.322 133.638  35
   0   5  -9 474.613 107.993  26
   0   5  -8 653.395 312.564  65
   0   5  -8 459.371 326.734  17
   0   5  -8 676.516 149.731  26
   0   5  -8 677.648 322.237  16
   0   5  -7 11866.4 1088.15  20
   0   5  -7 13860.9 1268.76  65
   0   5  -7 14185.7 1302.13  17
   0   5  -6 14403.1 1158.24  20
   0   5  -6 16586.1 1326.49  65
   0   5  -6 15693.9 1295.24  17
   0   5  -5 8425.11 872.848  20
   0   5  -5 6295.39 700.683  10
   0   5  -5 6022.27 744.357  17
   0   5  -4 14396.2 1010.22  20
   0   5  -4 15850.1 1024.85  10
   0   5  -4 12539.5 869.030  59
   0   5  -4 14215.2 908.622  58
   0   5  -4 12621.8 1000.98  17
   0   5  -4 15069.0 767.542   7
   0   5  -3 849.704 259.772  20
   0   5  -3 931.106 240.908  66
   0   5  -3 979.416 234.480  10
   0   5  -3 970.102 232.205  59
   0   5  -3 1149.10 248.219  58
   0   5  -3 1197.14 214.764   7
   0   5  -3 1297.18 276.457  23
   0   5  -2 4917.59 517.739  20
   0   5  -2 5060.16 471.976  10
   0   5  -2 5123.95 479.142  58
   0   5  -2 5340.43 408.302   7
   0   5  -2 3654.60 393.801  15
   0   5  -1 4234.40 402.368  58
   0   5  -1 3606.63 426.789  20
   0   5  -1 2150.30 337.076  66
   0   5  -1 4256.27 402.629  10
   0   5  -1 4305.51 368.890   7
   0   5  -1 2209.74 305.299  15
   0   5  -1 2570.40 382.732  13
   0   5   0 9121.48 659.043  20
   0   5   0 6495.74 551.381  15
   0   5   0 9041.80 551.182  10
   0   5   0 9642.97 556.656  55
   0   5   0 6892.44 605.087  66
   0   5   0 10584.4 593.089   7
   0   5   0 9768.07 716.523  13
   0   5   1 28093.6 1144.51  20
   0   5   1 23502.7 1116.88  66
   0   5   1 29462.3 997.614  10
   0   5   1 28995.0 978.931  55
   0   5   1 22100.8 1063.93  15
   0   5   1 31857.2 1113.77   7
   0   5   1 32226.9 1293.30  13
   0   5   2 3875.32 414.252  20
   0   5   2 2856.02 404.601  66
   0   5   2 4073.50 374.108  55
   0   5   2 4270.53 379.335  10
   0   5   2 4002.39 431.706   7
   0   5   2 3927.35 438.197  13
   0   5   3 17848.6 807.004  10
   0   5   3 17400.0 770.934  57
   0   5   3 18814.5 829.887  55
   0   5   3 10805.6 795.146  15
   0   5   3 18878.5 1064.76   7
   0   5   3 10662.0 738.380  13
   0   5   3 17897.5 775.461  22
   0   5   4 624.703 178.171  22
   0   5   4 463.153 222.051   7
   0   5   4 687.527 170.074  57
   0   5   4 779.692 188.757  55
   0   5   5 26433.4 1090.25  57
   0   5   5 32811.6 1590.71  66
   0   5   5 28191.3 1141.87  55
   0   5   5 26446.3 1112.52  52
   0   5   5 32836.1 1552.66  15
   0   5   5 38015.9 1718.25  23
   0   5   5 25777.4 1542.86   7
   0   5   5 30536.2 1212.86  22
   0   5   6 8775.28 415.027  33
   0   5   6 9576.22 399.277  29
   0   5   6 8721.72 370.956  31
   0   5   6 7844.38 336.648  30
   0   5   6 9412.73 681.449  57
   0   5   6 9739.82 714.973  55
   0   5   6 9063.43 692.010  52
   0   5   6 10089.3 887.016  15
   0   5   6 8728.64 1015.40   7
   0   5   6 10220.4 760.172  22
   0   5   7 16039.5 509.660  31
   0   5   7 15414.9 485.869  30
   0   5   7 13771.7 893.689  57
   0   5   7 13732.2 927.370  52
   0   5   7 14234.6 934.695  55
   0   5   7 18476.3 535.117  49
   0   5   7 13185.5 1382.45   7
   0   5   7 17717.2 1043.60  22
   0   5   8 9451.19 389.389  31
   0   5   8 9588.00 375.018  30
   0   5   8 10220.3 422.322  29
   0   5   8 9708.12 380.808  49
   0   5   9 9361.57 374.990  31
   0   5   9 9563.58 361.751  30
   0   5   9 9623.59 387.566  29
   0   5   9 9298.44 354.823  49
   0   5   9 9508.89 806.091  22
   0   5  10 5716.52 266.861  31
   0   5  10 5475.50 251.390  30
   0   5  10 5633.57 266.345  29
   0   5  10 5265.19 244.520  49
   0   5  11 4589.84 199.838  29
   0   5  11 4819.74 199.892  49
   0   5  11 4553.79 202.829  31
   0   5  11 5026.01 203.850  30
   0   5  12 6028.93 176.068  30
   0   5  12 6917.32 184.479  49
   0   6 -11 11166.9 329.801  41
   0   6 -10 2133.03 185.160  35
   0   6  -9 7147.78 356.769  26
   0   6  -8 2408.07 569.442  17
   0   6  -8 2583.03 256.240  26
   0   6  -7 3947.62 316.984  36
   0   6  -7 4305.31 684.766  20
   0   6  -7 4609.65 756.755  65
   0   6  -7 3520.09 666.396  17
   0   6  -6 8711.48 928.614  20
   0   6  -6 9412.89 1042.91  65
   0   6  -6 8339.25 984.931  17
   0   6  -5 5475.76 728.014  10
   0   6  -5 6282.41 816.970  17
   0   6  -5 5532.99 553.285   7
   0   6  -4 14506.1 1114.97  20
   0   6  -4 11840.6 997.426  10
   0   6  -4 12060.2 1074.94  17
   0   6  -4 13351.4 824.922   7
   0   6  -3 24198.5 1357.84  20
   0   6  -3 22808.3 1203.33  66
   0   6  -3 22716.3 1249.85  59
   0   6  -3 25622.4 1304.55  58
   0   6  -3 24456.7 1416.75  17
   0   6  -3 28608.8 1144.34   7
   0   6  -3 24797.5 1299.24  23
   0   6  -3 25895.0 1342.44  10
   0   6  -2 22505.8 1231.09  20
   0   6  -2 18149.7 1088.36  66
   0   6  -2 22228.3 1137.42  10
   0   6  -2 21724.4 1141.96  58
   0   6  -2 23102.7 1131.68  15
   0   6  -2 24178.6 1047.45   7
   0   6  -2 17603.2 1087.89  23
   0   6  -1 1242.33 245.152   7
   0   6  -1 895.765 270.786  20
   0   6  -1 1068.23 247.250  10
   0   6  -1 1090.58 252.840  58
   0   6  -1 794.553 221.121  15
   0   6  -1 216.493 134.539  23
   0   6   0 4232.05 439.939  10
   0   6   0 4294.87 519.456  20
   0   6   0 3305.02 444.522  15
   0   6   0 5178.34 499.482   7
   0   6   1 42225.7 1407.44  10
   0   6   1 44981.9 1424.90  55
   0   6   1 42514.4 1523.41   7
   0   6   2 39976.5 1370.64  10
   0   6   2 39121.3 1521.26  20
   0   6   2 41116.2 1376.15  55
   0   6   2 39540.0 1582.89   7
   0   6   3 1861.57 389.487   7
   0   6   3 2000.49 314.509  10
   0   6   3 2205.70 328.400  55
   0   6   3 2737.71 520.580  15
   0   6   4 0.61566 174.600   7
   0   6   4 75.7703 100.967  10
   0   6   4 152.281 127.369  55
   0   6   5 22701.6 1465.24  66
   0   6   5 14705.4 907.251  10
   0   6   5 16003.4 513.385  31
   0   6   5 16979.1 592.451  33
   0   6   5 16073.0 920.477  57
   0   6   5 16634.6 972.340  55
   0   6   5 16292.3 539.250  29
   0   6   5 20907.3 1335.81  15
   0   6   5 23101.8 1422.95  23
   0   6   5 15445.8 1310.94   7
   0   6   5 16670.2 910.671  22
   0   6   6 8420.53 374.268  31
   0   6   6 9050.00 431.996  33
   0   6   6 7856.15 674.597  57
   0   6   6 8474.27 722.881  55
   0   6   6 8987.93 392.845  29
   0   6   6 9678.60 889.203  15
   0   6   6 8071.30 1067.27   7
   0   6   6 10418.6 769.733  22
   0   6   7 5594.80 330.535  33
   0   6   7 6172.40 317.910  31
   0   6   7 6124.21 292.899  30
   0   6   7 6470.00 630.170  22
   0   6   8 1151.10 296.301  22
   0   6   8 1093.22 141.753  31
   0   6   8 1132.56 132.358  30
   0   6   8 1088.26 139.872  29
   0   6   8 1192.57 125.168  49
   0   6   9 10665.5 380.107  31
   0   6   9 11388.9 366.862  30
   0   6   9 11641.0 402.442  29
   0   6   9 11483.1 360.635  49
   0   6  10 8871.19 308.358  31
   0   6  10 9099.54 291.925  30
   0   6  10 9279.96 319.494  29
   0   6  10 9310.07 289.268  49
   0   6  11 21318.3 415.211  29
   0   6  11 20315.0 381.877  49
   0   7 -10 4329.05 224.444  41
   0   7 -10 4199.39 211.453  35
   0   7  -9 2046.88 172.062  26
   0   7  -8 15421.2 549.829  26
   0   7  -7 6725.43 383.416  36
   0   7  -7 6038.37 835.198  17
   0   7  -6 46916.2 2285.80  20
   0   7  -6 43597.6 2301.62  17
   0   7  -6 41638.2 2223.37  65
   0   7  -5 35046.7 1932.93  20
   0   7  -5 32072.2 1932.87  17
   0   7  -4 2442.82 500.943  10
   0   7  -4 2422.27 557.867  17
   0   7  -4 2482.64 408.557   7
   0   7  -3 6341.66 747.098  10
   0   7  -3 5775.16 754.942  17
   0   7  -3 5109.48 561.647   7
   0   7  -2 5706.55 768.173  20
   0   7  -2 3915.50 584.568  66
   0   7  -2 2804.32 250.632  34
   0   7  -2 3643.21 520.566  10
   0   7  -2 3903.49 490.091   7
   0   7  -2 4889.99 686.328  23
   0   7  -1 50921.9 2078.52  20
   0   7  -1 54797.1 2144.40  66
   0   7  -1 52637.0 1934.88  10
   0   7  -1 48220.5 1885.95  58
   0   7  -1 61174.5 2011.50   7
   0   7  -1 56775.1 2054.92  15
   0   7  -1 53445.9 2142.62  23
   0   7   0 20128.6 1245.30  20
   0   7   0 19555.2 1286.77  66
   0   7   0 22051.1 1204.70  58
   0   7   0 21055.3 1278.30  15
   0   7   0 22624.8 1208.02   7
   0   7   0 18249.3 1290.83  23
   0   7   0 21665.3 1154.52  10
   0   7   1 4675.43 607.175  20
   0   7   1 5879.69 737.275  66
   0   7   1 4948.84 556.114  10
   0   7   1 5504.68 683.648  15
   0   7   1 4624.50 576.294   7
   0   7   2 21085.9 1243.99  20
   0   7   2 21801.1 1419.43  66
   0   7   2 20532.0 645.166  33
   0   7   2 22925.9 1176.38  10
   0   7   2 22473.9 1168.56  55
   0   7   2 22396.1 1366.04  15
   0   7   2 22151.6 1364.11   7
   0   7   2 24576.0 1566.51  23
   0   7   3 1654.56 418.595   7
   0   7   3 1584.86 314.212  55
   0   7   3 1162.75 279.519  10
   0   7   3 2416.57 259.900  33
   0   7   4 6868.46 373.669  33
   0   7   4 5293.83 590.343  10
   0   7   4 5447.84 290.778  31
   0   7   4 5519.84 604.675  55
   0   7   4 5692.55 317.545  29
   0   7   4 7016.63 857.318  15
   0   7   4 6163.25 844.590   7
   0   7   5 41686.3 985.595  33
   0   7   5 42482.3 2034.23  66
   0   7   5 43227.0 900.765  31
   0   7   5 42355.2 929.954  29
   0   7   5 46427.7 2112.97  15
   0   7   5 45756.6 2104.45  23
   0   7   6 1493.47 186.528  34
   0   7   6 1290.82 168.530  33
   0   7   6 1437.66 154.939  31
   0   7   6 1530.41 168.649  29
   0   7   6 895.272 295.533  15
   0   7   7 18996.4 548.766  31
   0   7   7 18217.9 552.599  29
   0   7   7 19677.6 597.256  33
   0   7   8 18111.3 515.852  31
   0   7   8 19284.6 537.993  29
   0   7   8 18162.9 521.866  33
   0   7   9 7876.54 296.902  31
   0   7   9 7956.93 304.345  29
   0   7  10 7687.90 252.374  31
   0   7  10 8324.19 262.907  29
   0   8  -9 977.757 93.1336  26
   0   8  -8 1346.40 126.931  36
   0   8  -7 2499.26 213.478  36
   0   8  -6 77.8102 69.9593  37
   0   8  -6 126.370 105.699  36
   0   8  -5 4268.28 302.209  37
   0   8  -5 3652.46 626.356  20
   0   8  -5 3364.84 639.072  17
   0   8  -4 5501.24 815.420  17
   0   8  -4 5165.31 330.987  27
   0   8  -3 19345.6 1472.28  17
   0   8  -3 19070.8 675.863  27
   0   8  -2 20331.4 1354.32  66
   0   8  -2 20117.1 677.982  34
   0   8  -2 21537.9 1494.63  17
   0   8  -2 22241.1 1433.29  23
   0   8  -1 522.114 245.227   7
   0   8  -1 679.943 357.277  66
   0   8  -1 527.390 133.303  34
   0   8  -1 212.871 184.242  17
   0   8   0 1014.26 330.788   7
   0   8   0 1598.57 201.697  34
   0   8   0 1275.83 165.176  33
   0   8   0 1825.69 440.975  15
   0   8   1 30292.8 1746.43  20
   0   8   1 23873.0 1538.24  66
   0   8   1 16336.0 1164.22  58
   0   8   1 19596.7 1359.35  15
   0   8   1 16277.1 588.360  33
   0   8   1 17288.1 1326.41   7
   0   8   1 27656.8 1682.16  23
   0   8   2 2500.34 234.986  33
   0   8   2 2285.59 503.533  15
   0   8   3 600.247 141.624  33
   0   8   3 244.134 231.137  15
   0   8   4 8074.61 918.780  66
   0   8   4 7767.05 412.849  34
   0   8   4 8598.68 374.446  29
   0   8   4 8991.36 910.579  15
   0   8   4 7266.46 377.533  33
   0   8   5 76.1757 177.536  66
   0   8   5 236.385 88.9811  29
   0   8   5 280.208 78.5611  31
   0   8   5 388.044 112.134  33
   0   8   5 356.202 123.428  34
   0   8   5 305.942 269.219  23
   0   8   6 5768.18 325.899  34
   0   8   6 6175.66 321.435  33
   0   8   6 6129.42 290.363  31
   0   8   6 6110.61 298.845  29
   0   8   7 2876.50 202.267  33
   0   8   7 2459.78 186.320  29
   0   8   7 2707.17 186.287  31
   0   8   8 19333.6 473.635  31
   0   8   8 18680.3 477.730  33
   0   8   8 19427.2 481.547  29
   0   8   9 5396.91 210.149  31
   0   8   9 5291.99 209.700  29
   0   9  -8 178.053 58.8319  35
   0   9  -8 177.043 50.7034  26
   0   9  -7 4926.01 247.014  36
   0   9  -7 5343.97 269.722  26
   0   9  -6 363.063 82.5666  37
   0   9  -6 444.501 104.235  36
   0   9  -5 2920.28 225.750  37
   0   9  -4 3066.13 248.227  37
   0   9  -3 25235.3 1612.50  20
   0   9  -3 20264.7 639.997  27
   0   9  -2 18203.9 610.480  34
   0   9  -2 14701.8 559.452  27
   0   9  -1 22621.7 1514.39  66
   0   9  -1 28652.2 803.215  34
   0   9  -1 31582.2 845.048  27
   0   9  -1 25920.5 1611.50  23
   0   9   0 7352.00 872.621  66
   0   9   0 6211.62 333.272  33
   0   9   0 7879.15 895.452  23
   0   9   0 7203.68 393.510  34
   0   9   1 17394.6 1343.15  66
   0   9   1 15387.5 577.159  34
   0   9   1 14955.1 532.534  33
   0   9   1 16858.1 1305.83  23
   0   9   2 19227.4 1397.87  66
   0   9   2 17100.4 604.241  34
   0   9   2 17452.9 581.350  33
   0   9   2 17897.7 1323.96  23
   0   9   3 728.321 144.991  34
   0   9   3 620.220 120.719  33
   0   9   3 785.869 334.378  23
   0   9   4 4714.17 300.415  34
   0   9   4 3660.44 259.088  27
   0   9   4 3651.80 598.050  23
   0   9   4 4335.39 269.502  33
   0   9   5 20867.3 618.165  34
   0   9   5 20467.5 581.422  33
   0   9   5 21624.1 534.718  29
   0   9   6 3769.69 231.338  34
   0   9   6 3787.73 196.228  31
   0   9   6 4232.72 216.097  29
   0   9   6 4175.63 237.753  33
   0   9   7 7470.91 258.933  31
   0   9   7 6896.95 277.233  33
   0   9   8 3014.25 141.636  31
   0   9   8 3019.14 147.872  29
   0  10  -6 4201.30 205.907  36
   0  10  -6 4375.29 215.765  26
   0  10  -5 8304.04 314.956  37
   0  10  -5 8201.15 331.939  36
   0  10  -4 27334.0 664.666  37
   0  10  -4 28006.4 676.492  36
   0  10  -4 24784.2 587.665  27
   0  10  -4 23542.0 548.471   2
   0  10  -3 20162.6 577.606  37
   0  10  -3 12892.4 463.057  27
   0  10  -2 3338.80 232.105  34
   0  10  -2 2783.55 214.068  27
   0  10  -1 17921.8 566.497  34
   0  10  -1 16064.0 539.216  27
   0  10   0 19180.3 593.169  34
   0  10   0 16317.3 540.797  27
   0  10   1 2072.80 195.385  34
   0  10   1 2053.28 172.378  33
   0  10   1 1922.43 189.402  27
   0  10   2 1370.79 150.204  33
   0  10   2 1277.18 160.175  34
   0  10   2 1251.17 152.591  27
   0  10   3 13109.8 432.631  33
   0  10   3 13053.0 462.428  34
   0  10   4 26107.8 657.472  34
   0  10   4 26946.3 622.259  33
   0  10   4 26222.2 631.133  27
   0  10   5 11693.1 391.554  34
   0  10   5 12071.9 373.315  33
   0  10   6 6812.68 247.713  34
   0  10   6 9798.89 300.746  33
   0  11  -4 1756.80 120.703  37
   0  11  -3 827.738 100.682  37
   0  11  -3 766.367 100.154  36
   0  11  -3 663.749 76.0121   2
   0  11  -3 706.880 82.8568  27
   0  11  -2 7210.99 292.793  37
   0  11  -2 7255.43 294.156  36
   0  11  -2 7579.51 279.335   2
   0  11  -2 7635.90 292.297  27
   0  11  -1 3929.18 219.316  37
   0  11  -1 3911.84 215.353  36
   0  11  -1 3903.92 212.725  34
   0  11   0 20560.2 523.122  37
   0  11   0 20562.9 525.253  34
   0  11   1 443.564 83.7173  37
   0  11   1 385.134 66.0015  33
   0  11   1 412.670 84.4102  27
   0  11   1 436.601 86.1147  34
   0  11   2 25410.4 582.159  34
   0  11   2 24963.9 524.113  33
   0  11   3 9396.90 296.143  33
   0  11   3 8207.86 274.350   2
   0  11   3 9355.72 322.828  34
   0  11   3 8174.01 282.059  27
   0  11   4 4474.97 202.915  34
   0  11   4 4675.00 192.555  33
   0  11   5 8227.71 230.849  33
   1 -11  -3 52.2622 43.1666  45
   1 -11  -3 45.2052 37.0547  43
   1 -11  -2 13517.5 376.476  45
   1 -11  -2 14548.5 382.281  43
   1 -11  -1 610.875 89.0057  45
   1 -11  -1 434.013 77.7333  43
   1 -11   0 4059.79 212.101  45
   1 -11   0 3884.21 206.106  43
   1 -11   1 324.641 76.5288  45
   1 -11   1 324.179 71.6959  43
   1 -11   2 763.880 97.7704  45
   1 -11   2 901.089 102.287  43
   1 -11   3 588.843 94.0359  50
   1 -11   3 1269.66 109.718  43
   1 -10  -6 5952.51 212.180  45
   1 -10  -6 5367.53 191.648  43
   1 -10  -5 7849.85 278.667  45
   1 -10  -5 7702.88 270.721  43
   1 -10  -4 1395.96 117.532  40
   1 -10  -4 1382.20 136.805  45
   1 -10  -4 1548.65 138.799  43
   1 -10  -3 5621.53 253.193  40
   1 -10  -3 6079.38 285.516  45
   1 -10  -3 6355.89 291.305  43
   1 -10  -2 8796.17 336.275  40
   1 -10  -2 9333.21 378.634  45
   1 -10  -1 2217.17 171.933  40
   1 -10  -1 2320.79 184.177  39
   1 -10  -1 2131.69 189.150  45
   1 -10  -1 2274.78 191.689  43
   1 -10   0 8474.21 366.629  39
   1 -10   0 7791.58 327.742  28
   1 -10   0 8243.55 375.045  45
   1 -10   0 8328.84 367.702  43
   1 -10   1 12620.6 455.969  39
   1 -10   1 12553.6 428.675  28
   1 -10   1 12641.7 467.609  45
   1 -10   1 13039.7 466.195  43
   1 -10   2 4924.82 280.376  39
   1 -10   2 5351.40 275.847  28
   1 -10   2 5373.43 299.944  45
   1 -10   2 5675.82 299.114  43
   1 -10   3 5785.58 293.905  39
   1 -10   3 5919.75 282.478  28
   1 -10   3 6607.30 325.835  45
   1 -10   3 5922.75 303.355  43
   1 -10   4 2484.39 186.634  39
   1 -10   4 2445.37 174.326  28
   1 -10   4 2389.10 188.335  43
   1 -10   5 3291.81 189.555  28
   1 -10   6 3013.70 156.833  28
   1  -9  -7 3264.70 172.677  45
   1  -9  -7 3081.32 162.827  43
   1  -9  -6 1583.40 129.943  40
   1  -9  -6 1623.42 143.628  45
   1  -9  -6 1612.88 141.061  43
   1  -9  -5 88.5664 61.1084  40
   1  -9  -5 32.5810 65.5499  45
   1  -9  -5 14.9028 60.9128  43
   1  -9  -4 4232.74 243.704  40
   1  -9  -4 3884.18 540.075  24
   1  -9  -4 4348.17 260.422  45
   1  -9  -4 4410.29 261.294  43
   1  -9  -3 21123.7 588.878  40
   1  -9  -3 22348.3 629.417  39
   1  -9  -3 21876.7 1315.87  24
   1  -9  -3 22632.7 637.336  45
   1  -9  -3 22869.7 640.746  43
   1  -9  -2 13878.2 485.190  40
   1  -9  -2 13673.4 503.349  39
   1  -9  -2 13081.8 1074.72  21
   1  -9  -2 14262.5 511.875  45
   1  -9  -2 13862.2 505.088  43
   1  -9  -1 2255.16 196.759  40
   1  -9  -1 2196.66 210.803  39
   1  -9  -1 1847.07 419.632  21
   1  -9  -1 2055.46 194.630  28
   1  -9  -1 2067.63 206.440  45
   1  -9  -1 2396.92 215.280  43
   1  -9   0 4579.83 288.291  40
   1  -9   0 5115.43 320.414  39
   1  -9   0 4624.01 658.760  21
   1  -9   0 5352.09 318.541  28
   1  -9   0 4807.43 312.511  45
   1  -9   0 5104.32 313.700  43
   1  -9   1 10204.6 432.320  40
   1  -9   1 12056.1 497.186  39
   1  -9   1 10752.5 1017.21  21
   1  -9   1 10558.2 454.939  28
   1  -9   1 10317.8 462.305  45
   1  -9   1 10467.1 456.613  43
   1  -9   2 1324.00 172.582  39
   1  -9   2 1146.86 352.582  21
   1  -9   2 1274.10 164.564  28
   1  -9   2 1246.59 173.786  45
   1  -9   2 1423.63 176.917  43
   1  -9   3 8156.43 411.233  39
   1  -9   3 8488.51 400.753  28
   1  -9   3 9010.18 430.988  45
   1  -9   3 8467.61 409.909  43
   1  -9   4 5047.00 309.469  39
   1  -9   4 5145.73 304.864  28
   1  -9   4 4804.21 321.974  45
   1  -9   4 4867.58 306.994  43
   1  -9   5 5503.94 312.792  39
   1  -9   5 5637.26 301.498  28
   1  -9   5 5185.77 300.842  43
   1  -9   6 3751.16 230.327  28
   1  -9   7 291.642 81.2843  39
   1  -9   7 345.225 77.2714  28
   1  -9   7 316.420 57.1480  51
   1  -9   7 444.516 101.283  50
   1  -8  -9 2590.37 122.994  40
   1  -8  -9 2788.79 134.987  45
   1  -8  -8 2891.12 161.563  40
   1  -8  -8 2877.20 172.072  45
   1  -8  -8 3089.72 169.923  43
   1  -8  -7 2476.19 173.606  40
   1  -8  -7 2327.05 174.584  45
   1  -8  -7 2617.32 184.237  43
   1  -8  -6 19216.8 530.747  40
   1  -8  -6 17580.3 1112.03  24
   1  -8  -6 18544.7 543.578  45
   1  -8  -6 18652.0 545.729  43
   1  -8  -5 2549.82 199.898  40
   1  -8  -5 2253.68 189.357  39
   1  -8  -5 2664.16 458.701  24
   1  -8  -5 2327.60 200.457  45
   1  -8  -5 2410.40 205.078  43
   1  -8  -4 18605.9 566.210  40
   1  -8  -4 17531.7 575.785  39
   1  -8  -4 16990.0 1187.70  21
   1  -8  -4 16462.7 1117.59  16
   1  -8  -4 18342.4 1179.80  24
   1  -8  -4 18414.4 578.623  45
   1  -8  -4 18848.4 595.245  43
   1  -8  -3 502.274 104.584  40
   1  -8  -3 450.345 106.351  39
   1  -8  -3 456.392 235.289  21
   1  -8  -3 424.991 106.893  45
   1  -8  -3 540.919 239.371  24
   1  -8  -3 485.897 115.994  43
   1  -8  -2 294.322 91.2289  40
   1  -8  -2 388.017 111.005  39
   1  -8  -2 305.301 200.161  21
   1  -8  -2 426.170 107.650  45
   1  -8  -2 222.437 181.941  24
   1  -8  -2 329.429 96.8987  43
   1  -8  -1 18588.4 594.395  40
   1  -8  -1 19321.3 646.308  39
   1  -8  -1 18894.6 1293.70  21
   1  -8  -1 18002.9 530.977   4
   1  -8  -1 17644.8 619.559  28
   1  -8  -1 19152.5 1232.72  24
   1  -8  -1 18437.3 610.883  45
   1  -8  -1 18847.0 615.757  43
   1  -8   0 613.730 121.425  40
   1  -8   0 501.964 124.138  39
   1  -8   0 464.692 249.226  12
   1  -8   0 532.764 269.539  21
   1  -8   0 474.798 243.484  64
   1  -8   0 457.573 112.472  28
   1  -8   0 561.317 125.318  45
   1  -8   0 451.227 92.7585   4
   1  -8   0 608.784 127.237  43
   1  -8   1 103.367 70.8964  40
   1  -8   1 33.5068 75.6929  39
   1  -8   1-64.5422 162.605  21
   1  -8   1-36.2833 139.440  64
   1  -8   1 14.1746 65.7277  28
   1  -8   1 7.25150 77.6210  45
   1  -8   1 0.65443 61.4421   4
   1  -8   1 88.3871 85.3435  43
   1  -8   2 4788.04 312.402  40
   1  -8   2 4963.91 336.004  39
   1  -8   2 5139.15 699.223  21
   1  -8   2 4742.01 674.593  64
   1  -8   2 4683.68 261.588   4
   1  -8   2 4797.79 322.152  28
   1  -8   2 4723.36 328.090  45
   1  -8   2 5255.07 331.025  43
   1  -8   3 9666.65 466.863  39
   1  -8   3 9511.64 959.495  21
   1  -8   3 9201.85 448.607  28
   1  -8   3 8965.14 456.336  45
   1  -8   3 8736.77 436.244  43
   1  -8   4 15755.6 601.273  39
   1  -8   4 15339.0 574.727  28
   1  -8   4 15465.1 604.517  45
   1  -8   4 14706.2 574.399  43
   1  -8   5 52545.1 1152.97  39
   1  -8   5 52689.9 1114.83  28
   1  -8   5 51041.3 1171.71  45
   1  -8   5 54390.8 1161.68  43
   1  -8   6 9429.83 437.255  39
   1  -8   6 9203.04 412.388  28
   1  -8   7 2698.97 210.603  28
   1  -8   7 2794.33 198.067  51
   1  -8   7 2572.10 170.358  42
   1  -8   8 3098.37 202.975  28
   1  -8   8 2965.92 156.977  42
   1  -8   9 6364.51 212.266  51
   1  -8   9 3004.02 174.278  50
   1  -7 -10 10282.4 258.928  40
   1  -7 -10 9952.23 258.675  45
   1  -7  -9 2431.55 152.670  40
   1  -7  -9 2480.22 160.180  45
   1  -7  -8 3842.05 216.905  40
   1  -7  -8 3810.81 226.041  45
   1  -7  -8 3717.05 218.634  43
   1  -7  -7 2117.70 175.941  40
   1  -7  -7 2059.19 181.396  45
   1  -7  -7 2240.22 408.708  24
   1  -7  -7 2018.49 175.810  43
   1  -7  -6 5970.22 307.151  40
   1  -7  -6 6190.26 313.554  39
   1  -7  -6 5881.10 670.563  16
   1  -7  -6 6390.27 682.352  24
   1  -7  -6 6448.36 326.231  45
   1  -7  -6 6639.39 334.979  43
   1  -7  -5 20460.5 597.797  40
   1  -7  -5 21009.2 622.548  39
   1  -7  -5 17852.0 1187.47  21
   1  -7  -5 20291.6 1230.01  16
   1  -7  -5 21429.4 1255.95  24
   1  -7  -5 20391.0 607.587  45
   1  -7  -5 19765.0 620.746  43
   1  -7  -4 43302.5 921.417  40
   1  -7  -4 39941.9 931.986  39
   1  -7  -4 46737.8 1926.32  21
   1  -7  -4 45157.8 1810.89  16
   1  -7  -4 45220.8 1828.39  24
   1  -7  -4 41879.4 923.787  45
   1  -7  -4 42262.0 947.932  43
   1  -7  -3 4110.52 572.573   1
   1  -7  -3 4017.67 567.457  12
   1  -7  -3 4485.99 290.161  39
   1  -7  -3 4670.16 598.248  21
   1  -7  -3 4413.44 523.223  61
   1  -7  -3 4207.75 502.070  59
   1  -7  -3 3685.40 474.373  58
   1  -7  -3 4539.05 527.649  60
   1  -7  -3 4368.13 511.741  53
   1  -7  -3 4510.90 559.229  16
   1  -7  -3 4187.22 510.355  52
   1  -7  -3 4789.02 585.493  24
   1  -7  -3 4541.05 282.208  45
   1  -7  -3 4879.27 299.184  43
   1  -7  -2 24770.6 1354.55   1
   1  -7  -2 22167.4 638.428  40
   1  -7  -2 21663.4 1294.98  12
   1  -7  -2 20713.7 669.218  28
   1  -7  -2 23798.7 1195.19  61
   1  -7  -2 24037.9 701.269  39
   1  -7  -2 22987.8 1311.89  21
   1  -7  -2 25029.5 1334.95  64
   1  -7  -2 22530.0 1153.26  59
   1  -7  -2 23697.3 1178.45  53
   1  -7  -2 26847.4 1319.37  16
   1  -7  -2 24289.0 1217.49  52
   1  -7  -2 24809.5 1304.14  24
   1  -7  -2 24112.3 677.488  45
   1  -7  -2 25720.4 700.768  43
   1  -7  -2 23432.1 1188.33  60
   1  -7  -1 27309.9 732.791  40
   1  -7  -1 31489.1 1573.43  12
   1  -7  -1 28263.7 785.352  39
   1  -7  -1 33018.0 1589.46  21
   1  -7  -1 32061.0 1387.26  60
   1  -7  -1 26335.4 771.339  28
   1  -7  -1 29860.1 1338.23  61
   1  -7  -1 30809.0 1341.07  59
   1  -7  -1 31139.4 1356.42  53
   1  -7  -1 30340.7 1374.14  52
   1  -7  -1 32612.5 1543.19  64
   1  -7  -1 33042.3 1505.35  24
   1  -7  -1 31858.5 796.051  45
   1  -7  -1 30334.7 778.896  43
   1  -7   0 8931.76 405.648  40
   1  -7   0 10565.8 919.964  12
   1  -7   0 10012.6 454.967  39
   1  -7   0 11600.1 941.086  21
   1  -7   0 10282.9 787.518  60
   1  -7   0 11880.9 943.139  64
   1  -7   0 10634.9 794.832  61
   1  -7   0 9708.63 756.414  59
   1  -7   0 8803.30 432.989  28
   1  -7   0 9074.84 769.343  55
   1  -7   0 10931.4 819.717  53
   1  -7   0 10414.4 804.947  52
   1  -7   0 10599.8 855.276  24
   1  -7   0 10295.8 444.540  45
   1  -7   0 10654.6 446.531  43
   1  -7   1 6036.67 728.346  12
   1  -7   1 4726.24 304.971  40
   1  -7   1 6152.31 625.856  60
   1  -7   1 5654.07 347.178  39
   1  -7   1 6076.66 699.976  21
   1  -7   1 5951.35 614.897  61
   1  -7   1 5501.95 277.309   4
   1  -7   1 6068.28 691.482  64
   1  -7   1 5221.63 598.882  55
   1  -7   1 5592.74 604.311  59
   1  -7   1 5795.63 350.054  28
   1  -7   1 5773.27 612.515  53
   1  -7   1 5207.59 586.729  52
   1  -7   1 5996.12 346.952  45
   1  -7   1 5810.20 341.473  43
   1  -7   1 5528.37 637.929   1
   1  -7   2 34346.5 919.986  39
   1  -7   2 38229.7 1782.49  21
   1  -7   2 33230.3 1537.17  60
   1  -7   2 36902.1 1766.83  64
   1  -7   2 35282.1 1569.81  59
   1  -7   2 34136.1 1594.25  55
   1  -7   2 37994.0 947.464  28
   1  -7   2 34194.8 1570.44  53
   1  -7   2 33656.5 1564.44  52
   1  -7   2 35761.9 921.329  45
   1  -7   2 33781.9 1547.97  61
   1  -7   2 35940.7 914.231  43
   1  -7   2 41043.8 1767.54   1
   1  -7   3 5071.42 630.033   1
   1  -7   3 5340.13 347.168  39
   1  -7   3 4814.26 659.721  21
   1  -7   3 4878.28 658.361  64
   1  -7   3 3730.50 524.945  61
   1  -7   3 4704.18 264.396   4
   1  -7   3 3002.21 506.565  57
   1  -7   3 3815.40 553.072  55
   1  -7   3 4439.13 310.574  28
   1  -7   3 4183.32 575.438  53
   1  -7   3 3587.35 521.894  60
   1  -7   3 3480.50 518.525  52
   1  -7   3 5136.30 345.913  45
   1  -7   3 5038.24 333.684  43
   1  -7   4 4852.99 336.106  39
   1  -7   4 5272.02 719.983  21
   1  -7   4 4196.48 605.654   1
   1  -7   4 4649.50 623.375  18
   1  -7   4 4709.57 322.961  28
   1  -7   4 4570.68 340.270  45
   1  -7   4 4909.66 335.609  43
   1  -7   5 4457.14 321.935  39
   1  -7   5 3945.93 600.519  18
   1  -7   5 4745.69 317.993  28
   1  -7   5 4481.87 309.537   8
   1  -7   5 4306.27 325.379  43
   1  -7   5 4422.20 291.337  42
   1  -7   6 3970.36 304.944  39
   1  -7   6 4292.84 298.361  28
   1  -7   6 3968.98 281.734   8
   1  -7   6 4909.30 369.011  50
   1  -7   6 3870.37 304.491  43
   1  -7   6 4248.29 272.221  42
   1  -7   7 12139.2 488.445  28
   1  -7   7 11868.0 465.472   8
   1  -7   7 12117.1 438.739  42
   1  -7   8 12447.0 458.582  28
   1  -7   8 12586.5 411.663  42
   1  -7   9 1046.76 128.831  28
   1  -7   9 1322.65 130.081  51
   1  -7   9 952.951 143.871  50
   1  -7   9 1087.39 110.292  42
   1  -7  10 541.490 74.2744  51
   1  -7  10 382.495 56.2015  42
   1  -6 -10 6285.62 236.401  40
   1  -6 -10 5952.57 238.032  45
   1  -6  -9 4206.97 225.374  40
   1  -6  -9 4229.55 234.249  45
   1  -6  -9 4014.37 219.586  43
   1  -6  -8 142.573 81.3528  40
   1  -6  -8 58.1572 60.8229  39
   1  -6  -8 56.1603 74.2059  45
   1  -6  -8 260.485 199.256  24
   1  -6  -8 63.8840 68.3630  43
   1  -6  -7 17718.9 548.990  40
   1  -6  -7 17676.4 1162.09  16
   1  -6  -7 16934.2 1118.30  24
   1  -6  -7 18952.0 579.664  45
   1  -6  -7 18355.2 571.510  43
   1  -6  -6 11537.2 442.699  40
   1  -6  -6 11071.5 896.827  21
   1  -6  -6 10924.0 895.485  16
   1  -6  -6 11884.0 932.951  24
   1  -6  -6 11665.0 453.807  45
   1  -6  -6 11425.0 454.675  43
   1  -6  -5 71558.5 1278.31  40
   1  -6  -5 76474.4 2387.66  21
   1  -6  -5 67494.6 2101.05  61
   1  -6  -5 66702.0 2083.37  60
   1  -6  -5 66901.2 2076.28  59
   1  -6  -5 67358.4 2092.74  58
   1  -6  -5 70850.3 2134.75  53
   1  -6  -5 79198.5 2393.40  16
   1  -6  -5 64054.8 2081.65  52
   1  -6  -5 80278.4 2412.54  24
   1  -6  -5 75727.9 1297.85  45
   1  -6  -5 76492.5 1328.62  43
   1  -6  -4 2627.24 206.920  40
   1  -6  -4 3123.24 456.486  12
   1  -6  -4 2715.43 224.962  39
   1  -6  -4 2895.39 446.962  21
   1  -6  -4 3178.58 466.236  11
   1  -6  -4 3018.58 399.209  59
   1  -6  -4 2821.12 385.265  58
   1  -6  -4 3041.95 395.322  53
   1  -6  -4 3073.02 442.685  16
   1  -6  -4 3230.92 414.720  61
   1  -6  -4 2495.42 380.041  52
   1  -6  -4 3337.47 478.887  24
   1  -6  -4 3086.07 225.607  45
   1  -6  -4 3142.53 230.689  43
   1  -6  -4 3119.57 408.469  60
   1  -6  -3 1474.72 272.952  59
   1  -6  -3 1396.88 306.527  12
   1  -6  -3 1709.10 334.397  21
   1  -6  -3 1311.11 291.527  11
   1  -6  -3 1288.57 279.445  64
   1  -6  -3 1553.63 277.835  60
   1  -6  -3 1451.94 266.825  58
   1  -6  -3 1280.48 286.863   1
   1  -6  -3 1505.01 274.232  61
   1  -6  -3 1596.17 282.201  53
   1  -6  -3 1437.47 273.145  52
   1  -6  -3 1616.86 308.233  16
   1  -6  -3 1517.36 319.721  24
   1  -6  -2 1781.05 324.526   1
   1  -6  -2 1632.70 280.870  61
   1  -6  -2 1713.75 325.915  12
   1  -6  -2 1694.88 321.935  21
   1  -6  -2 1739.52 318.070  64
   1  -6  -2 1419.69 259.628  60
   1  -6  -2 1704.87 277.813  59
   1  -6  -2 1480.70 266.040  58
   1  -6  -2 1604.70 273.933  53
   1  -6  -2 1875.25 324.881  16
   1  -6  -2 1490.10 272.896  52
   1  -6  -2 1647.43 314.957  24
   1  -6  -1 29831.3 1356.62  12
   1  -6  -1 31817.9 1389.17  21
   1  -6  -1 27980.9 1145.46  60
   1  -6  -1 27831.1 1135.92  59
   1  -6  -1 28555.6 1150.28  58
   1  -6  -1 29011.9 1164.08  61
   1  -6  -1 29219.8 1157.19  53
   1  -6  -1 30748.7 1255.71  16
   1  -6  -1 28104.8 1164.23  52
   1  -6  -1 29485.9 1287.72  24
   1  -6  -1 29562.6 1310.33   1
   1  -6  -1 29199.0 1309.25  64
   1  -6   0 34947.7 1487.11  12
   1  -6   0 34697.8 1472.12  21
   1  -6   0 36388.8 1482.84  64
   1  -6   0 36617.8 1332.56  61
   1  -6   0 33520.7 1281.99  60
   1  -6   0 34267.3 1280.51  59
   1  -6   0 34965.9 1304.14  53
   1  -6   0 32841.1 1289.07  52
   1  -6   0 34725.8 1418.60  24
   1  -6   0 36398.7 1436.53   1
   1  -6   1 11710.8 877.179  12
   1  -6   1 10062.3 799.692  21
   1  -6   1 10383.1 718.586  60
   1  -6   1 10909.8 733.589  61
   1  -6   1 11522.2 808.730  18
   1  -6   1 10021.8 701.499  59
   1  -6   1 10557.5 722.680  53
   1  -6   1 10402.9 727.092  52
   1  -6   1 10945.5 785.017   1
   1  -6   1 10852.5 825.202  64
   1  -6   1 9783.59 717.968  55
   1  -6   2 46386.0 1842.43  12
   1  -6   2 44089.5 1741.81  21
   1  -6   2 47806.0 1822.17  64
   1  -6   2 41938.8 1560.48  61
   1  -6   2 44420.3 1601.09  60
   1  -6   2 50983.4 1806.56  18
   1  -6   2 44378.3 1590.11  59
   1  -6   2 44730.6 1621.50  53
   1  -6   2 41530.1 1566.39  52
   1  -6   2 46018.3 1674.14  55
   1  -6   2 47599.8 1704.70   1
   1  -6   3 34857.7 1625.76  21
   1  -6   3 36002.4 1506.82  61
   1  -6   3 33931.9 1470.06  60
   1  -6   3 31291.7 1449.04  55
   1  -6   3 35406.9 1515.26  53
   1  -6   3 32345.6 1457.07  52
   1  -6   3 36455.4 1614.52  18
   1  -6   3 36029.5 1649.82  64
   1  -6   3 38018.1 1549.57   1
   1  -6   4 5998.71 360.566  39
   1  -6   4 5575.77 685.048  21
   1  -6   4 6489.83 702.527  18
   1  -6   4 5669.80 635.532  53
   1  -6   4 5788.80 635.472  60
   1  -6   4 5525.90 624.338  61
   1  -6   4 5049.93 605.588  57
   1  -6   4 5359.39 623.836  55
   1  -6   4 6196.80 357.601  28
   1  -6   4 5236.09 346.187  45
   1  -6   4 5482.50 626.304  52
   1  -6   4 5588.46 353.912  43
   1  -6   4 6173.90 636.207   1
   1  -6   5 13568.9 563.476  39
   1  -6   5 14271.0 1111.65  18
   1  -6   5 13514.1 539.930  28
   1  -6   5 12492.4 529.409   8
   1  -6   5 12714.6 554.592  43
   1  -6   5 13385.0 520.281  42
   1  -6   6 47411.4 1119.24  39
   1  -6   6 49133.9 1108.49  28
   1  -6   6 48931.6 1121.64   8
   1  -6   6 49793.7 1170.82  43
   1  -6   6 52171.7 2202.19  18
   1  -6   6 52875.6 1100.73  42
   1  -6   7 2898.01 273.081  39
   1  -6   7 3296.36 267.684  28
   1  -6   7 3090.42 262.860   8
   1  -6   7 3785.99 268.853  42
   1  -6   8 5877.83 331.617   8
   1  -6   8 5648.99 338.156  28
   1  -6   8 6067.60 319.835  42
   1  -6   9 18311.9 561.995  28
   1  -6   9 19545.7 529.870  42
   1  -6  10 1557.31 143.936  51
   1  -6  10 1352.95 123.691  42
   1  -6  11 5816.82 207.987  51
   1  -5 -11 29767.8 537.008  40
   1  -5 -11 28418.1 534.145  45
   1  -5 -10 32282.5 648.798  40
   1  -5 -10 27569.9 601.234  43
   1  -5  -9 3044.03 212.958  40
   1  -5  -9 3459.76 496.565  24
   1  -5  -9 3090.72 220.064  45
   1  -5  -9 3257.76 214.301  43
   1  -5  -8 10529.3 417.687  40
   1  -5  -8 11310.3 938.367  16
   1  -5  -8 9920.98 854.172  24
   1  -5  -8 10381.1 417.726  45
   1  -5  -8 10920.1 437.619  43
   1  -5  -7 80052.5 1384.05  40
   1  -5  -7 79958.8 2449.77  21
   1  -5  -7 81185.1 2572.62  16
   1  -5  -7 87648.5 2628.29  24
   1  -5  -7 80587.6 1380.17  45
   1  -5  -7 83165.1 1426.27  43
   1  -5  -6 4874.32 290.857  40
   1  -5  -6 3249.54 468.034  12
   1  -5  -6 4683.81 551.186  21
   1  -5  -6 4633.54 577.366  11
   1  -5  -6 4660.09 530.314  59
   1  -5  -6 4728.80 536.595  61
   1  -5  -6 4539.78 518.525  60
   1  -5  -6 4703.69 560.216  65
   1  -5  -6 4446.07 515.916  58
   1  -5  -6 4630.23 522.411  53
   1  -5  -6 4657.97 540.754  52
   1  -5  -6 4978.95 592.880  16
   1  -5  -6 4901.98 590.242  24
   1  -5  -6 4711.57 285.043  45
   1  -5  -6 5016.33 297.083  43
   1  -5  -5 300.224 83.9117  40
   1  -5  -5 341.389 164.752  12
   1  -5  -5 460.128 197.330  21
   1  -5  -5 387.924 194.654  65
   1  -5  -5 224.770 140.988  64
   1  -5  -5 307.512 139.039  61
   1  -5  -5 408.183 166.039  60
   1  -5  -5 352.173 172.710  11
   1  -5  -5 256.911 147.291  59
   1  -5  -5 372.722 163.741  58
   1  -5  -5 252.797 149.231  53
   1  -5  -5 426.173 179.077  52
   1  -5  -5 265.687 82.5472  45
   1  -5  -5 267.209 191.627  16
   1  -5  -5 338.772 204.833  24
   1  -5  -5 347.010 93.0304  43
   1  -5  -4 64980.2 1779.14  59
   1  -5  -4 67893.3 1965.25  12
   1  -5  -4 67024.0 1998.57  21
   1  -5  -4 64809.0 1959.16  11
   1  -5  -4 66643.6 1898.15  65
   1  -5  -4 64027.8 1771.67  61
   1  -5  -4 64203.2 1775.80  60
   1  -5  -4 64676.2 1778.90  58
   1  -5  -4 69999.2 2008.81  16
   1  -5  -4 65986.9 1800.29  53
   1  -5  -4 61433.3 1769.67  52
   1  -5  -4 76732.5 2125.69  24
   1  -5  -4 71059.2 1932.43  64
   1  -5  -4 64476.5 1870.99   1
   1  -5  -3 26294.3 1132.66  12
   1  -5  -3 25174.5 1140.08  21
   1  -5  -3 23919.7 1084.85  11
   1  -5  -3 26072.6 1059.76  65
   1  -5  -3 23920.2 968.623  61
   1  -5  -3 23492.7 965.202  60
   1  -5  -3 23984.1 973.976  58
   1  -5  -3 24139.9 974.344  53
   1  -5  -3 22894.2 1032.95  64
   1  -5  -3 25867.6 1111.06  16
   1  -5  -3 22195.6 960.632  52
   1  -5  -3 26439.9 1152.50  24
   1  -5  -3 22583.1 1037.24   1
   1  -5  -3 23784.4 965.577  59
   1  -5  -2 34020.3 1266.46  12
   1  -5  -2 33236.4 1295.52  21
   1  -5  -2 30560.8 1225.99  11
   1  -5  -2 34807.4 1260.83  64
   1  -5  -2 32736.2 1104.97  61
   1  -5  -2 32296.2 1093.81  59
   1  -5  -2 32087.3 1090.26  58
   1  -5  -2 33194.7 1105.09  53
   1  -5  -2 33913.9 1211.73  16
   1  -5  -2 31013.7 1095.33  52
   1  -5  -2 34353.2 1270.80  24
   1  -5  -2 33796.3 1116.55  60
   1  -5  -1 15304.6 836.493  12
   1  -5  -1 19292.2 926.349  64
   1  -5  -1 16031.3 876.906  21
   1  -5  -1 16845.2 766.990  61
   1  -5  -1 15686.1 737.140  60
   1  -5  -1 16059.4 740.199  59
   1  -5  -1 14152.8 778.119  18
   1  -5  -1 16066.7 743.159  58
   1  -5  -1 17124.2 821.538  16
   1  -5  -1 16863.7 772.705  52
   1  -5  -1 16890.8 873.287   1
   1  -5  -1 17866.8 879.238  24
   1  -5  -1 16521.9 745.602  53
   1  -5   0 37018.0 1337.51  12
   1  -5   0 38446.1 1371.83  21
   1  -5   0 35840.3 1151.54  61
   1  -5   0 34922.1 1139.20  60
   1  -5   0 30571.3 1197.38  18
   1  -5   0 34044.6 1120.29  59
   1  -5   0 36205.9 1152.25  53
   1  -5   0 39175.9 1257.17  16
   1  -5   0 36215.4 1172.90  52
   1  -5   0 37919.4 1293.18   1
   1  -5   0 37007.6 1292.08  24
   1  -5   0 38717.1 1343.57  64
   1  -5   1 57234.0 1744.53  12
   1  -5   1 55294.2 1725.54  21
   1  -5   1 56248.8 1537.07  61
   1  -5   1 53639.0 1490.59  59
   1  -5   1 55479.5 1574.60  55
   1  -5   1 56505.8 1536.38  53
   1  -5   1 57968.9 1575.79  52
   1  -5   1 56751.5 1726.33  64
   1  -5   1 61235.5 1690.68   1
   1  -5   1 53861.7 1652.07  24
   1  -5   1 56392.4 1534.53  60
   1  -5   2 45291.8 1614.81  12
   1  -5   2 41634.9 1541.62  21
   1  -5   2 42277.3 1411.62  52
   1  -5   2 43166.1 1403.85  61
   1  -5   2 46144.8 1612.55  18
   1  -5   2 42861.5 1391.01  59
   1  -5   2 42347.3 1431.57  55
   1  -5   2 45595.8 1587.17  64
   1  -5   2 40957.8 1390.49  53
   1  -5   2 42987.7 1396.37  60
   1  -5   2 47035.6 1500.59   1
   1  -5   3 3795.84 483.148  21
   1  -5   3 4167.38 496.897  18
   1  -5   3 3792.45 453.435  55
   1  -5   3 3774.36 432.440  60
   1  -5   3 4074.83 460.395  53
   1  -5   3 3937.94 444.032  52
   1  -5   3 3900.81 444.123  61
   1  -5   3 3756.10 425.663   1
   1  -5   3 3645.54 470.319  64
   1  -5   4 5733.34 634.900  21
   1  -5   4 6323.94 592.011  61
   1  -5   4 6626.10 669.136  18
   1  -5   4 5634.77 575.869  57
   1  -5   4 7404.60 658.835  55
   1  -5   4 6466.41 610.016  53
   1  -5   4 6385.12 593.728  60
   1  -5   4 6385.65 608.266  52
   1  -5   4 6831.60 595.152   1
   1  -5   4 5984.54 635.092  64
   1  -5   5 6234.70 638.467  57
   1  -5   5 6697.07 644.209   9
   1  -5   5 6933.80 680.739  55
   1  -5   5 6566.92 655.683  53
   1  -5   5 6877.73 674.564  52
   1  -5   5 6595.29 712.752  18
   1  -5   5 7046.28 667.545  61
   1  -5   5 7122.05 671.351  60
   1  -5   6 67481.7 1345.61  39
   1  -5   6 56714.6 2081.93  61
   1  -5   6 72033.8 2505.66  18
   1  -5   6 62455.3 2203.46   9
   1  -5   6 56243.4 2124.67  55
   1  -5   6 59497.4 2134.84  53
   1  -5   6 65570.4 1319.78   8
   1  -5   6 57608.6 2121.69  52
   1  -5   6 70757.7 1338.27  28
   1  -5   6 58005.8 2123.99  57
   1  -5   6 57068.0 1278.62  43
   1  -5   6 68634.1 1278.32  42
   1  -5   7 40247.5 1022.77  39
   1  -5   7 43797.5 1988.44  18
   1  -5   7 41278.7 990.939  28
   1  -5   7 39753.1 984.504   8
   1  -5   7 42193.4 955.989  42
   1  -5   8 8325.56 409.323   8
   1  -5   8 7581.71 397.543  28
   1  -5   8 8016.25 384.389  42
   1  -5   9 2777.18 233.366   8
   1  -5   9 2953.11 220.133  42
   1  -5  10 10560.4 391.525  51
   1  -5  10 8861.21 343.017  42
   1  -5  11 12223.3 365.688  51
   1  -5  11 11417.0 329.139  42
   1  -4 -12 4692.99 161.411  40
   1  -4 -11 2194.38 151.781  40
   1  -4 -11 1433.06 112.158  43
   1  -4 -10 3961.78 233.878  40
   1  -4 -10 3604.32 493.386  24
   1  -4 -10 3779.79 221.090  43
   1  -4  -9 3411.82 241.314  40
   1  -4  -9 3032.93 494.220  16
   1  -4  -9 3381.42 504.979  24
   1  -4  -8 6371.26 337.640  40
   1  -4  -8 4486.19 559.838  21
   1  -4  -8 5058.40 650.408  65
   1  -4  -8 6104.28 703.159  16
   1  -4  -8 5859.78 672.915  24
   1  -4  -7 4603.94 286.083  40
   1  -4  -7 3388.43 483.314  12
   1  -4  -7 4500.38 550.383  21
   1  -4  -7 4134.67 576.165  11
   1  -4  -7 5197.93 625.245  65
   1  -4  -7 3770.87 477.419  61
   1  -4  -7 3929.13 490.503  60
   1  -4  -7 3470.54 462.031  59
   1  -4  -7 4214.99 508.991  58
   1  -4  -7 4029.29 490.524  53
   1  -4  -7 4828.74 598.939  16
   1  -4  -7 4762.81 602.986  24
   1  -4  -6 2525.87 213.323  40
   1  -4  -6 2768.39 397.819  12
   1  -4  -6 2768.04 414.133  21
   1  -4  -6 2796.69 426.249  11
   1  -4  -6 2568.35 413.599  65
   1  -4  -6 2901.78 386.747  61
   1  -4  -6 2723.66 376.119  60
   1  -4  -6 2689.14 370.018  59
   1  -4  -6 2549.12 372.520  58
   1  -4  -6 2707.31 379.103  53
   1  -4  -6 2928.18 442.718  16
   1  -4  -6 2833.44 376.779  64
   1  -4  -6 2601.98 425.615  24
   1  -4  -5 15519.1 820.024  60
   1  -4  -5 17222.4 923.444  12
   1  -4  -5 18126.5 971.477  21
   1  -4  -5 18302.4 994.874  11
   1  -4  -5 16677.1 950.874  65
   1  -4  -5 14406.5 797.738  61
   1  -4  -5 15334.7 817.426  59
   1  -4  -5 14408.2 797.384  58
   1  -4  -5 15847.3 833.915  53
   1  -4  -5 17670.2 995.760  16
   1  -4  -5 17428.2 869.359  64
   1  -4  -5 17613.7 999.067  24
   1  -4  -4 24305.9 1024.62  12
   1  -4  -4 24909.6 1077.74  21
   1  -4  -4 23359.3 1048.40  11
   1  -4  -4 22988.1 1026.22  65
   1  -4  -4 24922.0 990.603  64
   1  -4  -4 22464.1 917.929  60
   1  -4  -4 21192.3 895.551  59
   1  -4  -4 23478.9 946.258  58
   1  -4  -4 22702.7 912.774  61
   1  -4  -4 23419.9 942.986  53
   1  -4  -4 25529.7 1110.48  16
   1  -4  -4 23087.7 1069.85  24
   1  -4  -4 22928.6 932.060   1
   1  -4  -3 20870.6 894.730  12
   1  -4  -3 20517.2 925.929  21
   1  -4  -3 21085.2 913.699  11
   1  -4  -3 20819.5 884.321  65
   1  -4  -3 21028.4 871.006  64
   1  -4  -3 20795.9 807.724  61
   1  -4  -3 20219.8 803.259  60
   1  -4  -3 20076.0 797.155  59
   1  -4  -3 20947.8 821.561  58
   1  -4  -3 21116.5 860.318  18
   1  -4  -3 20453.1 813.554  53
   1  -4  -3 20458.5 910.889  16
   1  -4  -3 19023.0 828.872   1
   1  -4  -3 20056.8 922.124  24
   1  -4  -2 18006.1 789.840  12
   1  -4  -2 16739.7 800.542  21
   1  -4  -2 16799.0 764.339  11
   1  -4  -2 17110.2 727.571  65
   1  -4  -2 19910.2 823.472  64
   1  -4  -2 16916.2 684.210  59
   1  -4  -2 17067.2 689.114  60
   1  -4  -2 17997.5 765.590  18
   1  -4  -2 16999.3 684.125  58
   1  -4  -2 16124.3 655.597  54
   1  -4  -2 17512.2 692.269  53
   1  -4  -2 16964.5 700.491  52
   1  -4  -2 17132.7 805.522  24
   1  -4  -2 17293.9 687.341  61
   1  -4  -1 50707.7 1363.87  12
   1  -4  -1 50173.2 1396.94  21
   1  -4  -1 49711.3 1332.30  11
   1  -4  -1 47836.3 1331.44  64
   1  -4  -1 48223.2 1184.83  61
   1  -4  -1 48829.8 1184.44  59
   1  -4  -1 57150.1 1418.70  18
   1  -4  -1 48746.1 1187.87  58
   1  -4  -1 50461.0 1167.33  54
   1  -4  -1 49403.4 1182.48  53
   1  -4  -1 45035.4 1323.35   1
   1  -4  -1 52388.2 1316.47  16
   1  -4  -1 49030.9 1207.26  52
   1  -4  -1 53400.6 1410.07  24
   1  -4  -1 49424.2 1196.61  60
   1  -4   0 8305.35 532.389  12
   1  -4   0 7874.73 524.631  21
   1  -4   0 7856.05 445.087  59
   1  -4   0 7825.48 450.477  61
   1  -4   0 7534.92 443.030  60
   1  -4   0 9045.39 558.422  18
   1  -4   0 7745.35 443.712  58
   1  -4   0 8419.02 454.170  54
   1  -4   0 8236.07 451.052  53
   1  -4   0 8211.90 518.023   1
   1  -4   0 7750.09 474.478  16
   1  -4   0 7863.19 457.215  52
   1  -4   0 8171.00 521.643  24
   1  -4   0 8913.88 552.195  64
   1  -4   1 102386. 2140.28  12
   1  -4   1 112270. 2214.93  64
   1  -4   1 95901.3 2097.65  21
   1  -4   1 99840.7 1914.73  60
   1  -4   1 87703.1 2053.75  18
   1  -4   1 97060.3 1874.83  59
   1  -4   1 95877.3 1939.24  55
   1  -4   1 103443. 1934.42  54
   1  -4   1 101766. 1928.38  53
   1  -4   1 106622. 2087.04   1
   1  -4   1 99393.5 1940.12  52
   1  -4   1 95863.5 2080.14  24
   1  -4   1 100212. 1907.64  61
   1  -4   2 5936.58 498.555  12
   1  -4   2 8317.76 590.141  21
   1  -4   2 6674.44 521.220  64
   1  -4   2 6113.94 451.753  61
   1  -4   2 5931.67 446.743  60
   1  -4   2 5853.44 509.349  18
   1  -4   2 5697.70 433.231  59
   1  -4   2 5684.51 455.564  55
   1  -4   2 6830.27 474.858  54
   1  -4   2 6227.67 461.193  53
   1  -4   2 5922.47 452.321  52
   1  -4   2 6608.31 477.489   1
   1  -4   3 94403.5 2300.63  21
   1  -4   3 94648.8 2127.29  53
   1  -4   3 101725. 2220.26  55
   1  -4   3 97382.4 2126.89  61
   1  -4   3 98221.9 2144.85  60
   1  -4   3 93200.5 2229.17  64
   1  -4   3 98993.5 2373.71  18
   1  -4   3 106431. 2243.30  54
   1  -4   3 101056. 2184.88  52
   1  -4   3 102088. 2102.82   1
   1  -4   4 2645.83 390.701  21
   1  -4   4 2967.32 366.910  60
   1  -4   4 2453.51 336.792  53
   1  -4   4 2704.72 350.029  61
   1  -4   4 2535.33 379.123  64
   1  -4   4 2785.34 369.691  57
   1  -4   4 2846.86 373.738  55
   1  -4   4 3064.46 385.484  54
   1  -4   4 2636.90 397.752  18
   1  -4   4 2618.57 355.062  52
   1  -4   4 2663.56 316.088   1
   1  -4   5 7017.37 617.246  60
   1  -4   5 6794.93 607.969  57
   1  -4   5 6349.35 623.232   9
   1  -4   5 6530.22 610.061  55
   1  -4   5 6658.04 605.192  53
   1  -4   5 6275.64 584.477  52
   1  -4   5 7071.52 615.526  61
   1  -4   5 6849.16 651.703  18
   1  -4   6 1854.62 356.001  55
   1  -4   6 2211.29 402.319   9
   1  -4   6 2068.80 364.925  61
   1  -4   6 1892.01 376.935  18
   1  -4   6 1576.85 319.095  57
   1  -4   6 1660.58 325.332  53
   1  -4   6 1935.75 353.341  52
   1  -4   7 12160.7 523.703  39
   1  -4   7 13889.0 1041.92  18
   1  -4   7 10414.0 852.124  61
   1  -4   7 9879.31 839.830  57
   1  -4   7 12514.3 1009.66   9
   1  -4   7 10303.7 868.628  55
   1  -4   7 12027.3 502.858  28
   1  -4   7 9865.70 832.058  53
   1  -4   7 12036.4 499.319   8
   1  -4   7 9423.73 829.166  52
   1  -4   7 10982.9 474.736  44
   1  -4   7 12013.4 471.494  42
   1  -4   8 3054.45 230.951  32
   1  -4   8 3100.29 257.490  28
   1  -4   8 3174.96 256.982   8
   1  -4   8 3267.09 252.533  44
   1  -4   8 2946.92 230.368  42
   1  -4   9 8334.08 355.630  32
   1  -4   9 7356.73 385.154  28
   1  -4   9 7845.61 392.027   8
   1  -4   9 7960.55 375.679  44
   1  -4   9 7686.27 360.230  42
   1  -4  10 879.570 110.565  32
   1  -4  10 779.553 133.953  51
   1  -4  10 674.453 154.285  50
   1  -4  10 701.110 128.699   8
   1  -4  10 906.528 119.734  44
   1  -4  10 794.516 120.298  42
   1  -4  11 1461.34 146.834  51
   1  -4  11 1466.09 123.799  44
   1  -4  11 1580.22 138.034  42
   1  -4  11 1509.41 119.803  32
   1  -4  12 2057.98 96.0425  32
   1  -4  12 481.433 74.2286  50
   1  -3 -12 2634.57 139.330  40
   1  -3 -12 2186.98 126.909  45
   1  -3 -11 4176.34 226.672  40
   1  -3 -11 3870.44 200.432  43
   1  -3 -10 8758.11 372.162  40
   1  -3 -10 7792.74 742.782  24
   1  -3  -9 17505.9 571.765  40
   1  -3  -9 18826.0 1244.38  16
   1  -3  -9 17382.7 1155.42  24
   1  -3  -8 6488.11 349.344  40
   1  -3  -8 4711.23 570.915  12
   1  -3  -8 5957.52 634.225  21
   1  -3  -8 7440.99 807.568  65
   1  -3  -8 6005.46 699.428  16
   1  -3  -8 7572.60 763.446  24
   1  -3  -7 22088.8 652.640  40
   1  -3  -7 19815.1 1080.38  12
   1  -3  -7 23962.6 1220.40  21
   1  -3  -7 21207.6 1228.08  11
   1  -3  -7 19532.7 1217.23  65
   1  -3  -7 19839.6 1018.71  64
   1  -3  -7 20385.1 1053.75  61
   1  -3  -7 19512.5 1031.95  60
   1  -3  -7 19225.9 1026.87  59
   1  -3  -7 19865.8 1035.21  58
   1  -3  -7 19397.3 1030.30  53
   1  -3  -7 22535.7 1272.87  16
   1  -3  -7 20829.4 1212.27  24
   1  -3  -6 98137.2 2258.24  64
   1  -3  -6 101681. 2405.35  12
   1  -3  -6 104354. 2515.02  21
   1  -3  -6 96459.0 2549.09  11
   1  -3  -6 97429.7 2637.41  65
   1  -3  -6 102587. 2322.30  61
   1  -3  -6 104125. 2322.83  60
   1  -3  -6 97748.4 2268.98  59
   1  -3  -6 104117. 2324.85  58
   1  -3  -6 92970.5 2244.66  53
   1  -3  -6 98399.4 2611.19  16
   1  -3  -6 103402. 2668.04  24
   1  -3  -5 9599.77 621.479  12
   1  -3  -5 10311.7 681.951  21
   1  -3  -5 9265.78 682.614  11
   1  -3  -5 8950.62 578.994  64
   1  -3  -5 9337.27 586.082  60
   1  -3  -5 8749.87 678.399  65
   1  -3  -5 8950.16 577.579  59
   1  -3  -5 9046.16 574.604  58
   1  -3  -5 9673.46 606.915  61
   1  -3  -5 9041.32 591.360  53
   1  -3  -5 9246.41 697.436  16
   1  -3  -5 9377.25 708.888  24
   1  -3  -4 14258.4 701.818  12
   1  -3  -4 15146.2 772.634  21
   1  -3  -4 14810.5 777.058  11
   1  -3  -4 14149.9 776.705  65
   1  -3  -4 14899.9 667.285  61
   1  -3  -4 15242.8 677.171  60
   1  -3  -4 15870.5 693.506  59
   1  -3  -4 15427.7 684.163  58
   1  -3  -4 15275.4 690.288  53
   1  -3  -4 16073.2 836.511  16
   1  -3  -4 15573.7 828.801  24
   1  -3  -4 15939.2 724.703  64
   1  -3  -3 74586.3 1603.29  12
   1  -3  -3 72816.9 1679.10  21
   1  -3  -3 70076.1 1631.14  11
   1  -3  -3 72883.3 1655.35  65
   1  -3  -3 65598.4 1480.15  64
   1  -3  -3 71859.9 1469.80  61
   1  -3  -3 70574.3 1459.39  60
   1  -3  -3 71092.2 1464.98  59
   1  -3  -3 70777.9 1462.08  58
   1  -3  -3 72859.7 1483.34  53
   1  -3  -3 66423.5 1641.61  16
   1  -3  -3 71930.5 1735.85  24
   1  -3  -3 71152.4 1430.30  14
   1  -3  -2 10570.9 528.567  12
   1  -3  -2 9956.27 545.684  21
   1  -3  -2 10658.5 538.308  11
   1  -3  -2 10827.6 525.342  65
   1  -3  -2 10855.2 520.291  64
   1  -3  -2 10900.2 435.236  62
   1  -3  -2 10689.9 477.777  61
   1  -3  -2 10634.6 479.557  60
   1  -3  -2 10836.9 482.279  59
   1  -3  -2 10950.5 485.777  58
   1  -3  -2 13061.7 616.181  18
   1  -3  -2 10909.8 483.226  53
   1  -3  -2 10632.8 549.777  16
   1  -3  -2 11200.4 592.858  24
   1  -3  -2 11312.8 489.168  14
   1  -3  -1 78775.8 1519.28  12
   1  -3  -1 70547.6 1523.18  21
   1  -3  -1 73943.6 1463.87  11
   1  -3  -1 69333.8 1362.12  65
   1  -3  -1 74249.1 1485.79  64
   1  -3  -1 72147.3 1281.30  62
   1  -3  -1 72192.3 1339.93  61
   1  -3  -1 73169.5 1347.50  60
   1  -3  -1 73568.8 1352.71  58
   1  -3  -1 74406.7 1541.71  18
   1  -3  -1 72658.7 1339.37  59
   1  -3  -1 72143.9 1497.91   1
   1  -3  -1 77920.3 1367.92  54
   1  -3  -1 71121.1 1353.61  52
   1  -3  -1 75669.2 1356.85  53
   1  -3  -1 74831.1 1472.84  16
   1  -3  -1 76154.1 1579.11  24
   1  -3   0 46527.7 1134.99  12
   1  -3   0 45862.5 1155.80  21
   1  -3   0 48235.6 1148.39  64
   1  -3   0 46488.7 1015.69  60
   1  -3   0 46399.5 1016.09  61
   1  -3   0 46602.8 1071.47  16
   1  -3   0 44606.4 992.564  59
   1  -3   0 50195.7 1215.59  18
   1  -3   0 45309.5 1003.63  58
   1  -3   0 45315.5 1128.94   1
   1  -3   0 48271.6 1023.58  54
   1  -3   0 46475.6 1002.54  53
   1  -3   0 44845.7 1009.45  52
   1  -3   1 166966. 2631.41  12
   1  -3   1 176415. 2729.02  21
   1  -3   1 171061. 2655.12  64
   1  -3   1 167172. 2469.77  61
   1  -3   1 177120. 2763.11  18
   1  -3   1 165672. 2465.27  60
   1  -3   1 176169. 2613.80   1
   1  -3   1 157903. 2417.00  59
   1  -3   1 150488. 2449.98  55
   1  -3   1 178717. 2520.33  54
   1  -3   1 164986. 2442.69  53
   1  -3   1 167878. 2498.39  52
   1  -3   2 12619.4 630.534  12
   1  -3   2 12826.3 580.061  53
   1  -3   2 13601.2 667.659  21
   1  -3   2 13377.7 584.936  59
   1  -3   2 13979.8 699.163  18
   1  -3   2 13308.4 604.746  55
   1  -3   2 14346.2 618.882   1
   1  -3   2 14943.5 646.361  54
   1  -3   2 13692.9 595.285  60
   1  -3   2 13542.1 603.190  52
   1  -3   2 13257.1 586.763  61
   1  -3   2 12931.7 631.555  64
   1  -3   3 28371.4 1066.41  21
   1  -3   3 31258.7 1084.41  64
   1  -3   3 28731.0 965.214  61
   1  -3   3 31582.9 1125.85  18
   1  -3   3 32274.1 1073.37  54
   1  -3   3 33423.2 972.303   1
   1  -3   3 29551.5 985.112  53
   1  -3   3 32038.5 1033.05  52
   1  -3   3 32347.0 1048.19  55
   1  -3   3 30458.4 998.366  60
   1  -3   4 29298.3 1158.92  21
   1  -3   4 29786.6 1077.89  60
   1  -3   4 25596.0 925.112  19
   1  -3   4 29033.1 1135.61  64
   1  -3   4 30283.8 1077.84  61
   1  -3   4 29673.4 1185.66  18
   1  -3   4 29639.6 1085.93  57
   1  -3   4 29008.9 1092.20  55
   1  -3   4 27972.7 1055.41  53
   1  -3   4 30041.9 1134.68  54
   1  -3   4 28842.9 1073.54  52
   1  -3   4 31768.3 967.928   1
   1  -3   5 4706.92 461.450  60
   1  -3   5 4366.44 405.941  19
   1  -3   5 4766.79 462.289  61
   1  -3   5 5000.86 490.881  55
   1  -3   5 4761.23 512.392  18
   1  -3   5 4703.87 462.637  57
   1  -3   5 4804.32 495.921  54
   1  -3   5 5008.31 475.662  53
   1  -3   5 4616.02 460.095  52
   1  -3   6 29555.2 1365.22  18
   1  -3   6 31508.5 1309.55  61
   1  -3   6 30963.4 1320.11  57
   1  -3   6 30802.3 1336.92  55
   1  -3   6 29679.1 1429.45   9
   1  -3   6 30969.2 1301.28  53
   1  -3   6 30603.1 1311.57  52
   1  -3   6 29785.5 1181.72  19
   1  -3   7 13927.4 928.659  61
   1  -3   7 14570.9 1022.83  18
   1  -3   7 13132.9 918.604  57
   1  -3   7 14397.3 1054.53   9
   1  -3   7 13876.9 952.571  55
   1  -3   7 14069.5 936.128  53
   1  -3   7 12632.8 907.111  52
   1  -3   8 42613.9 1942.90   9
   1  -3   8 39629.7 937.559   8
   1  -3   8 42313.6 919.415  32
   1  -3   8 41987.2 972.461  44
   1  -3   8 39615.4 901.762  42
   1  -3   9 117.273 79.2614  32
   1  -3   9 136.805 88.2479  28
   1  -3   9 16.0173 105.745  50
   1  -3   9 178.218 80.8287   8
   1  -3   9 144.549 85.6613  44
   1  -3   9 119.033 82.4428  42
   1  -3  10 12525.9 431.058  32
   1  -3  10 12382.9 457.065  44
   1  -3  10 12034.4 439.133  42
   1  -3  11 170.768 61.4793  32
   1  -3  11 101.799 70.5418  51
   1  -3  11 39.9389 85.6384  50
   1  -3  11 132.432 63.6792  44
   1  -3  11 20.8341 59.0291  42
   1  -3  12 1604.24 112.179  32
   1  -3  12 1523.34 117.652  44
   1  -2 -12 4279.09 193.041  40
   1  -2 -11 12148.4 404.982  40
   1  -2 -10 8188.22 785.561  24
   1  -2  -9 6383.74 670.516  21
   1  -2  -9 6159.10 786.327  65
   1  -2  -9 8442.63 838.458  16
   1  -2  -9 7843.76 781.801  24
   1  -2  -8 3640.80 489.033  12
   1  -2  -8 4050.63 540.218  21
   1  -2  -8 3716.76 574.581  11
   1  -2  -8 4157.26 628.888  65
   1  -2  -8 4028.75 480.319  64
   1  -2  -8 4625.37 617.356  16
   1  -2  -8 4057.11 558.775  24
   1  -2  -7 14993.3 917.067  12
   1  -2  -7 14984.9 936.478  21
   1  -2  -7 14588.8 1013.05  11
   1  -2  -7 14460.1 1059.69  65
   1  -2  -7 15294.3 866.566  61
   1  -2  -7 14183.4 837.760  59
   1  -2  -7 14142.9 835.038  60
   1  -2  -7 15993.8 878.938  58
   1  -2  -7 12930.0 816.846  53
   1  -2  -7 16435.9 1080.72  16
   1  -2  -7 15476.8 1025.99  24
   1  -2  -7 14646.9 850.409  64
   1  -2  -6 33869.6 1262.41  12
   1  -2  -6 30052.7 1257.47  21
   1  -2  -6 33943.8 1408.94  11
   1  -2  -6 34568.1 1500.72  65
   1  -2  -6 32188.7 1179.41  64
   1  -2  -6 33146.1 1171.90  60
   1  -2  -6 31361.0 1153.89  59
   1  -2  -6 35688.0 1217.88  58
   1  -2  -6 31913.6 1165.36  53
   1  -2  -6 32120.0 1392.51  16
   1  -2  -6 30255.7 1356.60  24
   1  -2  -6 33342.7 1203.04  61
   1  -2  -5 16471.1 776.392  12
   1  -2  -5 17589.8 874.205  21
   1  -2  -5 17488.8 897.307  11
   1  -2  -5 15160.9 905.693  65
   1  -2  -5 15724.0 736.605  64
   1  -2  -5 16899.6 753.966  61
   1  -2  -5 15962.9 723.311  60
   1  -2  -5 15522.6 715.521  59
   1  -2  -5 15453.4 708.253  58
   1  -2  -5 16251.1 900.923  16
   1  -2  -5 14350.4 856.358  24
   1  -2  -4 39911.3 1131.44  12
   1  -2  -4 41239.2 1222.98  21
   1  -2  -4 40407.1 1244.07  11
   1  -2  -4 35292.5 1251.47  65
   1  -2  -4 41133.9 1113.22  64
   1  -2  -4 39615.6 1066.92  61
   1  -2  -4 39231.8 1039.81  60
   1  -2  -4 37905.8 1030.15  59
   1  -2  -4 40396.6 1054.12  58
   1  -2  -4 39835.1 1056.93  53
   1  -2  -4 39876.2 1297.42  16
   1  -2  -4 39170.7 1310.00  24
   1  -2  -3 266343. 3506.90  12
   1  -2  -3 238446. 3544.34  21
   1  -2  -3 265526. 3663.89  11
   1  -2  -3 256236. 3724.30  65
   1  -2  -3 257426. 3436.09  64
   1  -2  -3 258424. 3342.96  61
   1  -2  -3 254711. 3316.20  60
   1  -2  -3 252850. 3311.25  59
   1  -2  -3 252251. 3309.32  58
   1  -2  -3 252540. 3338.23  53
   1  -2  -3 245840. 3776.94  24
   1  -2  -2 53098.6 1038.62  60
   1  -2  -2 50974.4 1107.77  12
   1  -2  -2 51829.0 1187.76  21
   1  -2  -2 52935.6 1180.47  11
   1  -2  -2 48609.6 1144.19  65
   1  -2  -2 54401.2 1115.27  64
   1  -2  -2 54208.3 1048.06  61
   1  -2  -2 54509.2 1048.64  59
   1  -2  -2 53604.7 1043.83  58
   1  -2  -2 55033.9 1059.76  53
   1  -2  -2 51512.2 1221.78  16
   1  -2  -1 352880. 2159.86  60
   1  -2  -1 342767. 2353.87  12
   1  -2  -1 342527. 2385.06  11
   1  -2  -1 316867. 2142.29  65
   1  -2  -1 348160. 2141.68  59
   1  -2  -1 355096. 2170.52  58
   1  -2  -1 358482. 2186.68  53
   1  -2  -1 339180. 2160.54  52
   1  -2  -1 322415. 2411.22  16
   1  -2  -1 351802. 2064.21  62
   1  -2  -1 368442. 2421.29  64
   1  -2  -1 355297. 2160.54  61
   1  -2  -1 356064. 2265.76  14
   1  -2   0 663186. 6972.25  11
   1  -2   0 654821. 6887.13  62
   1  -2   1 344912. 4288.43  21
   1  -2   1 350621. 4137.06  54
   1  -2   2 63940.7 1349.05  12
   1  -2   2 68616.4 1305.99  61
   1  -2   2 67644.2 1298.74  60
   1  -2   2 64376.6 1384.90  21
   1  -2   2 61726.7 1325.37  64
   1  -2   2 68183.0 1300.09  59
   1  -2   2 67071.4 1448.45  18
   1  -2   2 68428.6 1335.79  55
   1  -2   2 68292.8 1364.94  54
   1  -2   2 67316.5 1299.11  53
   1  -2   2 66195.1 1300.28  52
   1  -2   3 113128. 2121.21  21
   1  -2   3 120845. 2140.79  54
   1  -2   3 111575. 1960.52  19
   1  -2   3 119085. 2026.39  61
   1  -2   3 115921. 2009.97  60
   1  -2   3 116816. 2168.64  18
   1  -2   3 110034. 2051.34  64
   1  -2   3 111558. 2008.39  57
   1  -2   3 111369. 1565.14  56
   1  -2   3 112296. 2021.08  55
   1  -2   3 112227. 1984.98  53
   1  -2   3 118274. 2036.71  52
   1  -2   4 31149.9 1020.97  60
   1  -2   4 28616.3 1032.47  64
   1  -2   4 31305.8 1015.75  61
   1  -2   4 29859.0 1088.05  18
   1  -2   4 30303.9 1020.48  57
   1  -2   4 32251.6 857.874  56
   1  -2   4 32723.4 1068.68  55
   1  -2   4 32276.2 848.517   1
   1  -2   4 29912.7 997.147  53
   1  -2   4 30465.8 1018.22  52
   1  -2   4 31766.6 1020.30  19
   1  -2   4 29788.1 1066.19  54
   1  -2   5 43455.6 1330.58  19
   1  -2   5 39443.7 1278.83  61
   1  -2   5 37119.6 1338.49  18
   1  -2   5 39909.5 1306.71  57
   1  -2   5 43051.7 1162.70  56
   1  -2   5 39509.4 1319.98  55
   1  -2   5 40181.3 1384.07  54
   1  -2   5 37842.6 1255.30  53
   1  -2   5 38881.3 1286.88  52
   1  -2   6 46918.5 1573.06  52
   1  -2   6 48844.6 1573.54  61
   1  -2   6 48529.5 1589.93  57
   1  -2   6 46945.2 1391.27  56
   1  -2   6 47685.5 1603.78  55
   1  -2   6 49066.1 1573.59  53
   1  -2   6 52812.3 1733.60  18
   1  -2   7 7726.91 661.688  61
   1  -2   7 7643.68 699.218  18
   1  -2   7 7546.02 662.515  57
   1  -2   7 6879.67 645.795  55
   1  -2   7 8420.19 776.995   9
   1  -2   7 7702.43 654.143  53
   1  -2   7 7928.88 647.290  19
   1  -2   7 7394.05 663.319  52
   1  -2   8 2591.25 214.138  32
   1  -2   8 2911.99 427.944  19
   1  -2   8 2106.46 377.041  57
   1  -2   8 2616.11 486.910   9
   1  -2   8 2130.19 406.502  55
   1  -2   8 2185.24 211.565  28
   1  -2   8 2554.09 222.116   8
   1  -2   8 2112.84 390.020  53
   1  -2   8 2008.83 378.015  52
   1  -2   8 2658.06 233.107  44
   1  -2   8 2456.51 208.894  42
   1  -2   9 8052.28 713.969  19
   1  -2   9 8156.15 368.147  32
   1  -2   9 7230.52 372.356   8
   1  -2   9 7833.28 385.499  44
   1  -2   9 7466.28 362.520  42
   1  -2  10 35550.1 783.369  32
   1  -2  10 36416.0 840.971  51
   1  -2  10 33742.9 804.224  44
   1  -2  11 3843.93 218.373  32
   1  -2  11 3512.29 223.855  51
   1  -2  11 4062.17 237.949  44
   1  -2  11 3562.25 218.265  42
   1  -2  12 6997.54 253.306  32
   1  -2  12 7400.06 270.049  44
   1  -2  13 5047.19 162.029  32
   1  -1 -11 6288.54 298.044  48
   1  -1 -10 1414.81 178.084  48
   1  -1 -10 1415.38 360.494  16
   1  -1 -10 1196.59 341.779  24
   1  -1  -9 17731.6 1145.39  21
   1  -1  -9 13855.5 947.190  64
   1  -1  -9 17087.0 1325.15  65
   1  -1  -9 17019.0 1199.04  16
   1  -1  -9 18106.1 648.263  48
   1  -1  -9 18035.3 1210.34  24
   1  -1  -8 921.491 237.795  64
   1  -1  -8 768.734 246.038  12
   1  -1  -8 728.186 236.200  21
   1  -1  -8 1022.33 335.632  65
   1  -1  -8 499.667 270.248  11
   1  -1  -8 814.128 149.366  48
   1  -1  -8 1188.59 352.110  16
   1  -1  -8 794.250 299.907  24
   1  -1  -7 8073.21 668.451  12
   1  -1  -7 7780.46 728.387  11
   1  -1  -7 7914.86 614.588  61
   1  -1  -7 8564.83 624.054  60
   1  -1  -7 8071.72 604.204  59
   1  -1  -7 7532.75 777.256  65
   1  -1  -7 8493.95 616.688  58
   1  -1  -7 6942.90 562.321  53
   1  -1  -7 8660.13 798.409  16
   1  -1  -7 8099.17 758.803  24
   1  -1  -6 52349.5 1598.28  12
   1  -1  -6 51566.2 1747.61  11
   1  -1  -6 52646.6 1926.67  65
   1  -1  -6 55434.3 1496.29  60
   1  -1  -6 55001.0 1492.47  59
   1  -1  -6 51405.0 1471.03  53
   1  -1  -6 59314.3 1538.57  58
   1  -1  -6 59563.9 1939.27  16
   1  -1  -6 51149.7 1817.93  24
   1  -1  -6 57757.6 1565.73  61
   1  -1  -5 95155.3 2068.45  12
   1  -1  -5 99310.9 2271.07  11
   1  -1  -5 93699.1 2420.58  65
   1  -1  -5 105822. 2016.40  61
   1  -1  -5 103637. 1970.70  60
   1  -1  -5 107388. 1979.30  59
   1  -1  -5 103694. 1954.42  58
   1  -1  -5 94559.2 1901.48  53
   1  -1  -5 104920. 2450.86  16
   1  -1  -5 102290. 2413.72  24
   1  -1  -4 29553.0 952.971  12
   1  -1  -4 32159.0 1079.41  11
   1  -1  -4 33179.2 918.349  61
   1  -1  -4 34399.6 915.482  60
   1  -1  -4 36411.3 934.212  59
   1  -1  -4 30409.1 1168.85  65
   1  -1  -4 33253.6 892.493  58
   1  -1  -4 25319.6 917.382  17
   1  -1  -4 29664.1 855.950  53
   1  -1  -4 32441.6 1155.76  16
   1  -1  -4 33809.4 1204.79  24
   1  -1  -3 101470. 1766.47  12
   1  -1  -3 100766. 1894.62  11
   1  -1  -3 105577. 1662.14  61
   1  -1  -3 106395. 1638.93  60
   1  -1  -3 104424. 1627.72  59
   1  -1  -3 105617. 1635.74  58
   1  -1  -3 101485. 1622.91  53
   1  -1  -3 109744. 2056.02  16
   1  -1  -2 764452. 7856.50  58
   1  -1  -2 740049. 8154.33  11
   1  -1  -2 713615. 8266.86  65
   1  -1  -2 746076. 7860.39  61
   1  -1  -2 773741. 7857.76  60
   1  -1  -2 761746. 7848.63  59
   1  -1  -2 761136. 7867.46  53
   1  -1  -2 717192. 8305.76  16
   1  -1  -1 792236. 8642.77  11
   1  -1  -1 862502. 8508.26  61
   1  -1  -1 820959. 8486.69  60
   1  -1  -1 834871. 8495.29  59
   1  -1  -1 818843. 8496.69  58
   1  -1  -1 854938. 8515.51  53
   1  -1   0 13856.6 374.078  11
   1  -1   0 13860.9 389.302  62
   1  -1   0 14027.5 372.858  61
   1  -1   0 13910.4 371.162  60
   1  -1   0 13996.0 369.171  59
   1  -1   0 13721.6 367.797  58
   1  -1   0 14220.9 372.038  53
   1  -1   0 13939.4 376.521  52
   1  -1   1 118979. 1683.64  12
   1  -1   1 129518. 1736.01  64
   1  -1   2 401519. 4683.42  12
   1  -1   2 419493. 4733.73  64
   1  -1   3 35140.4 925.585  64
   1  -1   3 36047.5 978.351  19
   1  -1   3 35070.4 914.538  61
   1  -1   3 34916.5 992.152  18
   1  -1   3 35242.5 926.113  57
   1  -1   3 36287.4 955.992  55
   1  -1   3 34381.6 965.408  54
   1  -1   3 34618.1 921.987  52
   1  -1   3 34270.8 905.431  53
   1  -1   3 35333.8 921.347  60
   1  -1   4 67631.0 1469.45  22
   1  -1   4 61501.6 1432.98  61
   1  -1   4 65587.4 1552.77  18
   1  -1   4 64264.5 1472.72  57
   1  -1   4 62250.3 1483.59  55
   1  -1   4 62955.6 1545.46  54
   1  -1   4 63226.2 1438.88  53
   1  -1   4 64097.9 1471.11  52
   1  -1   5 13980.8 732.931  19
   1  -1   5 13638.8 744.984  18
   1  -1   5 12691.2 684.632  57
   1  -1   5 13151.1 695.975  55
   1  -1   5 13487.9 686.966  61
   1  -1   5 13410.2 687.970  53
   1  -1   5 13179.2 689.462  52
   1  -1   6 6583.24 518.671  22
   1  -1   6 6855.93 554.260  19
   1  -1   6 6227.81 522.652  61
   1  -1   6 5839.36 511.146  57
   1  -1   6 5836.79 523.091  55
   1  -1   6 6258.19 525.922  53
   1  -1   6 6309.62 531.775  52
   1  -1   6 6123.94 541.784  18
   1  -1   7 32047.8 1222.39  22
   1  -1   7 31514.5 1278.63  19
   1  -1   7 27792.5 1241.78  57
   1  -1   7 26557.8 1229.20  55
   1  -1   7 27446.3 1389.77   9
   1  -1   7 27053.3 1198.45  53
   1  -1   7 27764.3 1234.71  52
   1  -1   8 16255.2 990.879  19
   1  -1   8 12726.0 470.252  32
   1  -1   8 12917.0 899.268  57
   1  -1   8 12502.0 911.250  56
   1  -1   8 13914.4 1056.23   9
   1  -1   8 12831.9 911.433  55
   1  -1   8 12399.3 488.217   8
   1  -1   8 11947.8 854.025  53
   1  -1   8 12845.9 900.589  52
   1  -1   8 13287.1 495.016  44
   1  -1   8 14452.7 876.234  22
   1  -1   9 29015.3 1399.51  19
   1  -1   9 26511.3 695.226  30
   1  -1   9 27929.7 1591.92   9
   1  -1   9 19865.3 1208.88  55
   1  -1   9 27495.8 740.846   8
   1  -1   9 16631.3 1075.66  53
   1  -1   9 19802.4 1186.27  52
   1  -1   9 24896.7 653.846  49
   1  -1   9 27746.8 736.758  44
   1  -1   9 26168.3 695.267  42
   1  -1   9 20605.7 1214.70  57
   1  -1   9 27951.3 696.318  32
   1  -1  10 4276.12 555.545  19
   1  -1  10 4583.84 268.418  32
   1  -1  10 4720.74 268.971  30
   1  -1  10 4527.26 256.123  49
   1  -1  10 4479.59 284.258  44
   1  -1  10 4406.38 264.912  42
   1  -1  11 1673.93 153.419  32
   1  -1  11 1680.53 144.254  30
   1  -1  11 1594.71 201.403  50
   1  -1  11 1792.39 166.407  44
   1  -1  11 1589.48 151.837  42
   1  -1  12 1673.44 129.530  32
   1  -1  12 1670.71 136.637  44
   1  -1  13 5974.00 193.615  32
   1  -1  13 6014.27 202.671  44
   1   0 -12 3835.76 188.580  48
   1   0 -11 1458.61 155.824  48
   1   0 -11 1162.94 308.089  24
   1   0 -10 11455.4 987.988  16
   1   0 -10 11260.7 484.444  48
   1   0 -10 11813.0 993.920  24
   1   0  -9 1313.45 347.897  21
   1   0  -9 1229.22 382.089  65
   1   0  -9 1432.91 208.837  48
   1   0  -9 1696.35 389.634  16
   1   0  -9 1262.97 348.238  24
   1   0  -8 3923.93 530.710  12
   1   0  -8 5531.32 736.158  65
   1   0  -8 5192.84 664.763  16
   1   0  -8 5323.76 682.701  24
   1   0  -7 4418.22 560.759  11
   1   0  -7 4915.71 653.409  65
   1   0  -7 5408.30 640.283  16
   1   0  -7 3890.05 542.107  24
   1   0  -6 923.063 258.586  11
   1   0  -6 526.461 244.251  65
   1   0  -6 683.912 169.138  61
   1   0  -6 671.384 165.877  60
   1   0  -6 663.493 163.771  59
   1   0  -6 543.838 161.802  58
   1   0  -6 752.793 238.749  17
   1   0  -6 701.255 243.012  16
   1   0  -6 508.551 203.378  63
   1   0  -6 797.291 257.066  24
   1   0  -5 221473. 3759.82  11
   1   0  -5 184138. 3777.79  65
   1   0  -5 211009. 3574.65  63
   1   0  -5 219759. 3231.45  61
   1   0  -5 225795. 3199.70  60
   1   0  -5 223983. 3181.15  59
   1   0  -5 211834. 3126.42  58
   1   0  -5 206108. 3781.47  16
   1   0  -5 200490. 3730.26  17
   1   0  -5 219682. 3880.97  24
   1   0  -4 27114.5 1004.64  11
   1   0  -4 28161.5 980.663  63
   1   0  -4 30030.5 1164.99  65
   1   0  -4 24838.7 788.709  61
   1   0  -4 28378.2 802.065  60
   1   0  -4 27863.8 792.522  59
   1   0  -4 28408.8 802.274  58
   1   0  -4 26864.2 1036.12  17
   1   0  -4 28038.1 1073.95  16
   1   0  -3 1975.25 246.779  11
   1   0  -3 1743.28 257.393  65
   1   0  -3 1921.16 179.878  61
   1   0  -3 2048.37 237.210  63
   1   0  -3 1793.89 168.879  60
   1   0  -3 2033.13 177.241  59
   1   0  -3 1993.42 179.769  58
   1   0  -3 1592.95 232.728  17
   1   0  -3 1775.86 250.535  16
   1   0  -2 1296.93 173.970  11
   1   0  -2 1387.69 193.439  65
   1   0  -2 1373.30 173.811  63
   1   0  -2 1320.75 116.811  60
   1   0  -2 1155.67 111.278  58
   1   0  -2 1252.50 122.626  61
   1   0  -2 1481.07 190.576  16
   1   0  -2 1185.44 110.162  59
   1   0  -1 6528.77 281.929  11
   1   0  -1 6443.52 289.579  63
   1   0  -1 7096.66 201.593  61
   1   0  -1 6734.87 195.450  60
   1   0  -1 6445.07 191.629  59
   1   0  -1 7045.88 199.900  58
   1   0  -1 6775.16 198.579  53
   1   0   0 288546. 3119.10  53
   1   0   0 301758. 3193.69  12
   1   0   0 304133. 3101.22  11
   1   0   0 296170. 3119.02  61
   1   0   0 302212. 3124.56  60
   1   0   0 314204. 3126.22  59
   1   0   0 282746. 3117.64  52
   1   0   1 21363.9 412.121  12
   1   0   1 22071.9 483.998  60
   1   0   1 22383.1 486.663  61
   1   0   1 21325.7 484.440  57
   1   0   1 22166.2 498.574  55
   1   0   1 20295.3 474.631  52
   1   0   2 149087. 2246.69   7
   1   0   2 137610. 1821.06  64
   1   0   3 204812. 2844.82  19
   1   0   3 205493. 2805.61  18
   1   0   4 20879.4 766.314  22
   1   0   4 18721.7 893.112   7
   1   0   4 18990.7 750.203  19
   1   0   4 18666.8 730.280  18
   1   0   4 17250.3 689.746  57
   1   0   4 17624.3 710.362  55
   1   0   4 17804.8 730.309  54
   1   0   4 18259.5 695.399  61
   1   0   4 18047.2 688.201  53
   1   0   4 17700.4 695.727  52
   1   0   5 473.327 154.445  22
   1   0   5 344.279 133.194  61
   1   0   5 554.822 154.896  19
   1   0   5 435.189 141.012  18
   1   0   5 272.676 109.741  57
   1   0   5 262.836 116.905  55
   1   0   5 443.962 142.383  53
   1   0   5 265.680 124.997  52
   1   0   6 94863.7 2183.84  19
   1   0   6 91212.3 2106.98  57
   1   0   6 90723.2 2138.73  55
   1   0   6 92654.7 2094.94  53
   1   0   6 91211.4 2110.80  52
   1   0   7 58299.6 1722.61  22
   1   0   7 53702.0 1702.00  52
   1   0   7 53253.2 1690.38  57
   1   0   7 54468.2 1731.53  55
   1   0   7 53131.2 1911.08   9
   1   0   7 53818.8 1675.37  53
   1   0   8 1496.44 312.914  55
   1   0   8 1804.85 338.465  19
   1   0   8 1268.06 284.725  57
   1   0   8 1550.93 360.371   9
   1   0   8 1323.45 295.502  53
   1   0   8 1496.23 306.565  52
   1   0   8 2334.56 364.026  22
   1   0   9 10150.4 831.608  19
   1   0   9 9518.04 394.282  32
   1   0   9 7892.79 734.283  55
   1   0   9 9124.51 906.255   9
   1   0   9 6097.40 619.267  53
   1   0   9 8285.66 747.866  52
   1   0   9 9740.33 414.787  44
   1   0   9 8303.76 372.430  42
   1   0   9 8083.72 734.006  57
   1   0   9 11965.7 855.129  22
   1   0  10 42350.3 1754.70  19
   1   0  10 40678.8 858.572  32
   1   0  10 42187.7 889.145  30
   1   0  10 40204.7 890.180  44
   1   0  10 40883.3 860.542  42
   1   0  10 41231.5 1656.14  22
   1   0  11 20882.4 546.241  32
   1   0  11 21683.9 547.631  49
   1   0  11 20691.5 567.543  44
   1   0  12 1581.80 126.015  30
   1   0  12 1570.02 132.636  32
   1   0  12 1435.93 119.302  49
   1   0  12 1585.18 138.638  44
   1   0  13 2681.84 131.819  32
   1   0  13 2589.32 137.375  44
   1   1 -12 378.623 78.7199  40
   1   1 -12 503.815 85.4860  48
   1   1 -11 5534.16 304.891  48
   1   1 -10 12685.6 970.710  21
   1   1 -10 14644.2 1137.08  16
   1   1 -10 15521.3 1168.56  24
   1   1  -9 33295.5 935.356  41
   1   1  -9 36071.3 2018.84  65
   1   1  -9 37182.4 1844.84  24
   1   1  -8 1375.25 402.439  11
   1   1  -8 2194.76 470.430  65
   1   1  -8 2024.09 413.675  63
   1   1  -8 2160.11 453.568  16
   1   1  -8 2002.93 462.486  24
   1   1  -7 26060.5 1409.64  11
   1   1  -7 27310.2 1556.21  65
   1   1  -7 27505.8 1349.66  63
   1   1  -7 22986.6 1357.79  17
   1   1  -7 26707.3 1414.69  16
   1   1  -7 25707.3 1406.82  24
   1   1  -6 4092.46 514.575  11
   1   1  -6 4959.92 610.433  65
   1   1  -6 4509.86 497.897  63
   1   1  -6 4216.30 543.059  17
   1   1  -6 4766.75 560.044  16
   1   1  -5 23455.2 1105.53  11
   1   1  -5 27393.2 1282.73  65
   1   1  -5 25104.6 1065.32  63
   1   1  -5 23908.7 886.702  61
   1   1  -5 23325.1 829.959  60
   1   1  -5 24324.4 836.306  59
   1   1  -5 26047.6 869.414  58
   1   1  -5 22993.8 1143.94  17
   1   1  -5 23359.4 1120.48  16
   1   1  -4 5954.29 535.840  17
   1   1  -4 5230.91 466.401  11
   1   1  -4 5651.30 525.723  65
   1   1  -4 6045.98 372.490  61
   1   1  -4 5991.42 362.981  60
   1   1  -4 5780.65 350.232  59
   1   1  -4 5569.97 345.056  58
   1   1  -3 10004.6 406.437  61
   1   1  -3 10369.1 402.724  60
   1   1  -3 9796.88 388.800  59
   1   1  -3 9520.41 373.003  10
   1   1  -3 10369.6 399.415  58
   1   1  -3 9877.26 583.750  17
   1   1  -3 11612.9 488.197  13
   1   1  -2 10857.4 337.906  61
   1   1  -2 12110.4 341.149  60
   1   1  -2 11729.4 332.115  59
   1   1  -2 11717.2 331.028  58
   1   1  -1 218734. 2363.39  10
   1   1   0 472463. 4692.48  55
   1   1   0 470305. 4687.57  57
   1   1   0 474325. 4693.04  52
   1   1   0 470141. 4801.87   7
   1   1   1 64715.4 948.074  61
   1   1   1 63376.3 947.634  57
   1   1   1 64511.0 959.662  55
   1   1   1 62623.7 939.281  53
   1   1   1 62954.8 947.960  52
   1   1   1 66614.1 1108.13   7
   1   1   2 9531.08 361.646  61
   1   1   2 9672.20 376.103  55
   1   1   2 9331.25 365.065  57
   1   1   2 9518.95 359.184  53
   1   1   2 9188.89 362.831  52
   1   1   2 10062.8 477.148   7
   1   1   3 20817.1 675.205  54
   1   1   3 20186.0 824.867   7
   1   1   4 113936. 2440.61   7
   1   1   4 115209. 2088.06  22
   1   1   4 111985. 1830.02  66
   1   1   4 125735. 2178.08  19
   1   1   4 113745. 1993.02  57
   1   1   4 115284. 2019.96  55
   1   1   4 117198. 1980.56  53
   1   1   4 114165. 1989.94  52
   1   1   4 128235. 1940.46  15
   1   1   4 106500. 1918.13  18
   1   1   5 15006.2 722.835  22
   1   1   5 14689.6 899.445   7
   1   1   5 15038.6 702.088  55
   1   1   5 15273.1 738.984  19
   1   1   5 14894.7 691.364  57
   1   1   5 15181.9 681.316  53
   1   1   5 15224.9 696.599  52
   1   1   6 36625.9 1620.85   7
   1   1   6 43514.1 1394.23  19
   1   1   6 39846.0 1294.56  57
   1   1   6 39853.3 1313.67  55
   1   1   6 39671.1 1268.24  53
   1   1   6 40330.3 1303.06  52
   1   1   7 1367.50 283.187  22
   1   1   7 1095.09 336.771   7
   1   1   7 1129.95 264.488  19
   1   1   7 1284.58 252.901  57
   1   1   7 1451.21 270.293  55
   1   1   7 1142.40 272.717   9
   1   1   7 1242.38 248.803  53
   1   1   7 1364.53 258.272  52
   1   1   8 2496.24 389.054  22
   1   1   8 2057.78 358.179  19
   1   1   8 1973.80 347.082  57
   1   1   8 2018.58 345.706  55
   1   1   8 1977.30 383.802   9
   1   1   8 1641.43 323.757  53
   1   1   8 2160.67 357.943  52
   1   1   9 91671.6 1457.31  32
   1   1   9 101251. 1513.43  30
   1   1   9 79052.5 2408.68  57
   1   1   9 76117.8 2623.43   9
   1   1   9 78996.8 2414.80  55
   1   1   9 68429.9 2227.63  53
   1   1   9 79708.9 2408.63  52
   1   1   9 91455.8 1466.96  49
   1   1   9 89494.6 1487.94  44
   1   1   9 106115. 2749.27  19
   1   1   9 98948.0 2629.57  22
   1   1  10 50399.3 1891.11  19
   1   1  10 45373.3 917.779  32
   1   1  10 46205.5 944.002  30
   1   1  10 48702.5 953.905  49
   1   1  10 45578.9 957.338  44
   1   1  10 48332.6 1823.96  22
   1   1  11 17926.6 499.395  32
   1   1  11 18597.7 513.553  49
   1   1  11 19439.3 538.465  44
   1   1  12 2442.00 156.692  32
   1   1  12 2620.48 163.708  30
   1   1  12 2313.83 149.796  49
   1   1  12 2627.17 171.343  44
   1   1  13 86.2485 36.3260  32
   1   1  13 97.4790 36.1709  30
   1   1  13 100.091 30.8341  49
   1   1  13 71.4666 42.4017  44
   1   2 -12 213.731 65.9416  48
   1   2 -11 3784.95 259.885  48
   1   2 -10 593.651 135.168  41
   1   2 -10 722.580 314.781  24
   1   2  -9 10936.8 1145.23  65
   1   2  -9 12350.8 1095.52  16
   1   2  -9 12970.9 1120.60  24
   1   2  -8 3858.88 634.862  11
   1   2  -8 3944.32 668.409  65
   1   2  -8 4622.03 617.986  63
   1   2  -8 4938.05 712.817  17
   1   2  -8 3928.60 612.615  16
   1   2  -8 4324.96 644.817  24
   1   2  -7 596.001 240.386  11
   1   2  -7 832.096 331.186  65
   1   2  -7 749.692 257.724  63
   1   2  -7 606.982 260.047  17
   1   2  -7 682.501 277.557  16
   1   2  -6 1698.16 335.525  63
   1   2  -6 1523.39 340.127  11
   1   2  -6 1655.79 379.349  65
   1   2  -6 1850.74 408.137  17
   1   2  -6 1650.02 350.190  16
   1   2  -5 31920.9 1352.63  11
   1   2  -5 36343.2 1550.16  17
   1   2  -5 34024.8 1508.61  65
   1   2  -4 256.941 118.341  20
   1   2  -4 313.842 101.710  60
   1   2  -4 461.875 129.379  10
   1   2  -4 378.709 109.235  59
   1   2  -4 380.240 106.127  58
   1   2  -4 350.494 184.420  17
   1   2  -3 44071.4 1037.71  10
   1   2  -3 43610.7 974.624  60
   1   2  -3 44721.4 967.636  58
   1   2  -3 45364.6 1220.56  13
   1   2  -2 142684. 2013.78  10
   1   2  -2 147119. 1926.82  59
   1   2  -2 142718. 1899.10  58
   1   2  -1 53050.5 906.360  10
   1   2  -1 47180.4 760.945  58
   1   2   0 271549. 2967.10  57
   1   2   0 277057. 3125.84   7
   1   2   1 514591. 5470.73  57
   1   2   1 517926. 5478.37  55
   1   2   1 518260. 5480.78  52
   1   2   1 527113. 5721.09   7
   1   2   2 18366.3 536.671  57
   1   2   2 18547.9 544.699  55
   1   2   2 18358.8 526.939  53
   1   2   2 18446.7 536.047  52
   1   2   2 19645.5 642.512  15
   1   2   2 17799.0 660.483   7
   1   2   3 18949.1 701.200  22
   1   2   3 19325.2 704.009  66
   1   2   3 15283.4 637.227  19
   1   2   3 16640.0 584.237  57
   1   2   3 16763.0 588.535  55
   1   2   3 16652.9 567.944  53
   1   2   3 16700.6 581.333  52
   1   2   3 17397.1 655.124  15
   1   2   3 15845.7 731.161   7
   1   2   4 22625.4 845.025  22
   1   2   4 22349.9 832.467  19
   1   2   4 19534.7 751.791  66
   1   2   4 18653.3 697.205  57
   1   2   4 18629.7 703.847  55
   1   2   4 18569.7 675.877  53
   1   2   4 18452.5 700.092  52
   1   2   4 18955.9 744.357  15
   1   2   4 19179.8 795.090  23
   1   2   4 17644.1 892.476   7
   1   2   5 268276. 4026.43  22
   1   2   5 264180. 3864.70  66
   1   2   5 273310. 4081.81  19
   1   2   5 270597. 3881.69  57
   1   2   5 275673. 3912.30  55
   1   2   5 276783. 3850.79  53
   1   2   5 281620. 3912.65  52
   1   2   5 274200. 3945.33  15
   1   2   6 20077.7 1231.52   7
   1   2   6 19542.3 948.631  19
   1   2   6 20765.4 914.508  57
   1   2   6 21726.0 940.574  55
   1   2   6 19690.9 943.754   9
   1   2   6 21650.1 914.446  53
   1   2   6 22408.8 948.326  52
   1   2   7 11749.3 773.446  22
   1   2   7 10104.9 973.544   7
   1   2   7 11164.0 767.979  19
   1   2   7 11043.2 726.278  57
   1   2   7 11406.1 744.142  55
   1   2   7 9455.72 735.198   9
   1   2   7 10825.6 719.320  52
   1   2   7 10902.9 713.620  53
   1   2   8 26404.3 1253.59  22
   1   2   8 22535.2 1599.93   7
   1   2   8 23706.4 1138.53  53
   1   2   8 23122.9 1180.07  19
   1   2   8 19250.6 569.237  32
   1   2   8 22283.2 605.116  30
   1   2   8 24653.9 1173.70  57
   1   2   8 21693.8 1212.70   9
   1   2   8 24518.0 1189.52  55
   1   2   8 23631.5 1164.24  52
   1   2   8 21796.4 598.645  49
   1   2   8 19783.2 601.246  44
   1   2   9 19164.7 1128.19  19
   1   2   9 18668.9 549.803  32
   1   2   9 18395.3 567.779  31
   1   2   9 18504.7 559.419  30
   1   2   9 17933.8 1074.16  57
   1   2   9 17122.4 1065.15  55
   1   2   9 17549.7 1077.53  52
   1   2   9 19637.5 588.442  44
   1   2  10 13556.5 971.778  19
   1   2  10 13098.7 438.527  32
   1   2  10 12462.6 442.555  31
   1   2  10 13070.3 449.589  30
   1   2  10 13189.8 451.068  49
   1   2  10 12897.4 456.223  44
   1   2  10 14267.8 983.331  22
   1   2  11 1083.90 122.509  32
   1   2  11 1142.24 132.457  30
   1   2  11 1195.43 130.406  49
   1   2  11 1154.73 130.119  44
   1   2  12 837.933 92.2343  32
   1   2  12 884.625 99.4884  30
   1   2  12 923.323 103.401  49
   1   2  12 809.391 101.645  44
   1   2  13 731.003 62.9428  32
   1   2  13 895.586 75.2355  30
   1   2  13 897.526 73.9721  49
   1   3 -11 8490.12 368.859  48
   1   3 -11 6819.52 306.149  41
   1   3  -9 3588.95 666.608  65
   1   3  -9 3683.48 623.900  16
   1   3  -9 3275.36 571.323  24
   1   3  -8 4395.32 712.665  65
   1   3  -8 4225.49 603.053  63
   1   3  -8 3966.69 670.638  17
   1   3  -8 4647.66 684.189  16
   1   3  -7 15413.8 1192.36  11
   1   3  -7 15470.3 1256.58  65
   1   3  -7 15508.5 1095.54  63
   1   3  -7 15858.3 1274.84  17
   1   3  -7 15961.9 1183.88  16
   1   3  -6 2900.94 516.448  11
   1   3  -6 3507.37 562.890  65
   1   3  -6 2686.30 494.701  17
   1   3  -5 5545.06 560.154  20
   1   3  -5 6843.67 707.374  17
   1   3  -4 75014.8 1737.77  10
   1   3  -4 72201.3 2142.17  17
   1   3  -3 523.271 170.161  13
   1   3  -3 241.244 112.468  20
   1   3  -3 245.906 103.531  10
   1   3  -3 433.866 117.454  59
   1   3  -3 456.635 121.397  58
   1   3  -2 126275. 1984.55  10
   1   3  -2 110982. 1802.98  59
   1   3  -2 117183. 1811.93  58
   1   3  -2 127779. 1774.80   7
   1   3  -2 109110. 1873.69  15
   1   3  -2 101142. 2037.76  23
   1   3  -2 120751. 2285.48  13
   1   3  -1 27687.9 749.409  10
   1   3  -1 29461.4 694.770   5
   1   3  -1 28479.5 893.941  66
   1   3  -1 27552.9 678.449  58
   1   3  -1 29404.6 692.821   7
   1   3  -1 28273.2 824.503  15
   1   3   0 472.807 99.0137   7
   1   3   0 510.814 125.804  66
   1   3   0 687.403 100.056  55
   1   3   0 512.659 129.161  15
   1   3   1 78818.0 1588.61  66
   1   3   1 77213.4 1219.61  57
   1   3   1 77555.3 1234.66  55
   1   3   1 76384.3 1230.36  52
   1   3   1 74487.2 1419.46   7
   1   3   2 87984.4 1775.99  66
   1   3   2 87963.3 1448.63  57
   1   3   2 89265.4 1478.89  55
   1   3   2 91241.5 1486.28  52
   1   3   2 91038.6 1785.37   7
   1   3   3 111380. 2017.18  22
   1   3   3 95820.0 1841.14  19
   1   3   3 107113. 1798.16  57
   1   3   3 105618. 1810.86  55
   1   3   3 104653. 1805.00  52
   1   3   3 103721. 2068.58  15
   1   3   3 100693. 2152.01   7
   1   3   3 114098. 2275.12  23
   1   3   4 80804.7 1807.18  22
   1   3   4 78362.6 1861.40  66
   1   3   4 83256.7 1776.92  19
   1   3   4 80187.4 1633.04  57
   1   3   4 80527.8 1644.76  55
   1   3   4 82943.8 1650.29  52
   1   3   4 86212.9 1921.31  15
   1   3   4 74348.9 2025.57   7
   1   3   4 85548.2 2018.44  23
   1   3   5 42880.9 1380.34  66
   1   3   5 40198.9 1279.42  19
   1   3   5 41516.5 1206.91  57
   1   3   5 38957.2 1195.95  55
   1   3   5 37691.6 1130.73   9
   1   3   5 39181.4 1151.37  53
   1   3   5 39282.4 1189.66  52
   1   3   5 44208.9 1391.64  15
   1   3   5 37383.7 1558.94   7
   1   3   6 3686.24 415.075  22
   1   3   6 3289.03 391.704  19
   1   3   6 3206.58 365.682  57
   1   3   6 3676.75 391.044  55
   1   3   6 3420.55 367.847  52
   1   3   6 2792.04 493.288   7
   1   3   7 105137. 2516.99  22
   1   3   7 99804.4 2473.61  19
   1   3   7 98622.3 2347.68  57
   1   3   7 97810.2 2364.27  55
   1   3   7 99229.1 2356.58  52
   1   3   8 112726. 3934.20   7
   1   3   8 133682. 3125.14  19
   1   3   8 144385. 1980.07  31
   1   3   8 136054. 1905.22  30
   1   3   8 137948. 3037.17  57
   1   3   8 134330. 3047.75  55
   1   3   8 129331. 1974.45  29
   1   3   8 132594. 3054.61  52
   1   3   8 129995. 1865.76  49
   1   3   8 113062. 1823.63  44
   1   3   8 164892. 3386.26  22
   1   3   9 59627.1 2044.36  19
   1   3   9 48035.2 957.060  32
   1   3   9 56148.6 1069.53  31
   1   3   9 53884.4 1017.09  30
   1   3   9 46065.6 1015.40  29
   1   3   9 55343.2 1025.83  49
   1   3   9 52698.6 1022.34  44
   1   3   9 60287.2 2033.05  22
   1   3  10 859.459 259.592  22
   1   3  10 1024.76 135.766  31
   1   3  10 921.351 125.828  30
   1   3  10 1143.45 138.413  29
   1   3  10 777.599 267.280  19
   1   3  10 1000.95 122.604  32
   1   3  10 1022.22 128.908  49
   1   3  10 1116.22 131.700  44
   1   3  11 5070.20 230.366  32
   1   3  11 5000.99 243.712  31
   1   3  11 4974.41 247.733  30
   1   3  11 5371.63 254.955  49
   1   3  11 5193.75 252.269  44
   1   3  12 3487.50 160.438  32
   1   3  12 3969.78 190.977  30
   1   3  12 3635.52 181.935  49
   1   3  13 1034.10 75.8432  30
   1   3  13 1054.61 75.9029  49
   1   4 -11 3962.05 242.064  48
   1   4 -11 3121.08 197.424  41
   1   4 -10 1200.87 176.939  41
   1   4 -10 644.592 279.814  24
   1   4  -9 5397.14 352.344  35
   1   4  -9 4405.25 682.112  16
   1   4  -9 4929.94 693.493  24
   1   4  -8 26062.8 1749.29  65
   1   4  -8 23035.2 1452.21  63
   1   4  -8 24228.0 1715.65  17
   1   4  -8 27473.7 1682.42  16
   1   4  -7 16732.7 1316.09  11
   1   4  -7 14859.8 1273.91  65
   1   4  -7 17328.6 1199.41  63
   1   4  -7 16977.2 1400.81  17
   1   4  -7 18448.3 1323.93  16
   1   4  -6 13285.5 1165.54  17
   1   4  -6 12628.5 1060.23  11
   1   4  -6 12088.6 1072.70  65
   1   4  -5 5074.69 604.262  20
   1   4  -5 5024.00 683.831  17
   1   4  -4 2426.97 385.845  20
   1   4  -4 2652.10 353.163  10
   1   4  -4 2443.27 450.046  17
   1   4  -3 9220.97 674.682  20
   1   4  -3 11265.4 656.748  10
   1   4  -3 11469.3 523.451   7
   1   4  -3 11356.3 769.518  13
   1   4  -2 196624. 3200.94  66
   1   4  -2 182234. 2818.07  58
   1   4  -2 199194. 3045.61  10
   1   4  -2 190807. 2682.37   7
   1   4  -2 183461. 2940.97  15
   1   4  -2 184092. 3255.57  23
   1   4  -2 194318. 3425.70  13
   1   4  -1 47240.2 1351.82  66
   1   4  -1 47310.0 1185.94  10
   1   4  -1 49203.8 1122.73   7
   1   4  -1 48701.6 1295.16  15
   1   4  -1 53474.1 1184.21  58
   1   4  -1 48942.3 1468.42  23
   1   4  -1 48089.0 1428.96  13
   1   4   0 42493.7 1306.66  13
   1   4   0 41922.6 1057.22  10
   1   4   0 44980.3 1001.76  55
   1   4   0 44108.2 1075.03   7
   1   4   0 41126.5 1202.34  15
   1   4   0 44292.3 1368.88  23
   1   4   0 42316.9 1275.25  66
   1   4   1 2608.67 323.669  66
   1   4   1 3170.44 245.107  57
   1   4   1 3254.36 253.879  55
   1   4   1 2681.57 305.588  15
   1   4   1 3268.72 311.681   7
   1   4   1 2841.69 342.645  23
   1   4   2 15840.3 787.089  66
   1   4   2 15755.0 579.617  57
   1   4   2 16286.9 602.250  55
   1   4   2 15968.9 599.911  52
   1   4   2 15982.3 768.370  15
   1   4   2 14647.3 724.694   7
   1   4   2 15208.4 804.201  23
   1   4   3 82095.4 1747.86  22
   1   4   3 89853.1 2068.74  66
   1   4   3 61568.5 1437.99  19
   1   4   3 71519.8 1481.11  57
   1   4   3 75843.6 1543.96  55
   1   4   3 74696.0 1541.67  52
   1   4   3 69821.5 1821.30  15
   1   4   3 69787.7 1890.62   7
   1   4   3 77757.7 2013.95  23
   1   4   4 26983.6 964.549  19
   1   4   4 29394.1 967.467  57
   1   4   4 29598.3 980.385  52
   1   4   4 28457.0 1181.30  15
   1   4   4 29646.1 984.006  55
   1   4   4 31290.0 1240.48  66
   1   4   4 27088.7 1253.41   7
   1   4   4 32844.0 1318.63  23
   1   4   5 4076.17 432.726  22
   1   4   5 3775.16 397.934  19
   1   4   5 4378.81 489.015  66
   1   4   5 4258.09 394.478  57
   1   4   5 3742.71 378.688  55
   1   4   5 4224.88 406.577  52
   1   4   5 4034.38 467.101  15
   1   4   5 3577.83 468.424  23
   1   4   5 3228.55 480.751   7
   1   4   6 3123.89 411.443  22
   1   4   6 3272.23 403.682  19
   1   4   6 3409.66 386.233  57
   1   4   6 3299.62 391.103  55
   1   4   6 3383.99 400.506  52
   1   4   6 3050.51 537.559   7
   1   4   7 1085.65 284.261  22
   1   4   7 1033.36 352.934   7
   1   4   7 1216.30 267.649  19
   1   4   7 996.549 130.258  31
   1   4   7 1416.94 284.649  55
   1   4   7 1053.20 142.759  29
   1   4   7 1180.16 250.020  57
   1   4   7 1351.33 275.509  52
   1   4   7 962.174 134.332  49
   1   4   8 12740.3 1336.27   7
   1   4   8 15744.8 516.550  31
   1   4   8 14725.2 493.150  30
   1   4   8 14660.5 922.864  57
   1   4   8 13617.2 922.291  55
   1   4   8 15893.7 549.355  29
   1   4   8 13689.5 922.966  52
   1   4   8 16035.4 513.122  49
   1   4   8 15224.6 980.996  19
   1   4   8 16588.4 1051.10  22
   1   4   9 39273.4 867.835  31
   1   4   9 40185.2 852.833  30
   1   4   9 37990.2 879.845  29
   1   4   9 37734.0 824.368  49
   1   4   9 41285.8 1697.94  22
   1   4  10 28732.9 678.280  30
   1   4  10 27011.9 685.968  29
   1   4  10 28449.9 671.700  49
   1   4  11 27382.2 597.102  31
   1   4  11 26738.2 590.203  30
   1   4  11 27248.3 585.356  49
   1   4  12 5166.27 203.822  30
   1   4  12 5273.60 203.462  49
   1   5 -11 3871.25 212.909  48
   1   5 -11 2504.25 154.215  41
   1   5 -10 3742.51 235.732  35
   1   5  -8 19834.7 1566.16  65
   1   5  -8 15786.4 1444.90  17
   1   5  -8 19874.6 1454.27  16
   1   5  -7 66687.1 2871.00  65
   1   5  -7 62416.7 2854.74  17
   1   5  -6 22118.4 1431.82  20
   1   5  -6 22812.8 1594.97  65
   1   5  -6 21537.1 1605.14  17
   1   5  -5 30829.3 1583.72  20
   1   5  -5 29805.4 1718.54  17
   1   5  -4 14182.8 1014.74  20
   1   5  -4 14321.6 1088.78  17
   1   5  -4 14503.8 736.093   7
   1   5  -3 44929.8 1681.87  20
   1   5  -3 49484.6 1646.44  10
   1   5  -3 48305.6 1315.51   7
   1   5  -2 6180.17 575.331  20
   1   5  -2 7478.05 598.458  66
   1   5  -2 7248.87 552.056  10
   1   5  -2 7035.45 488.280   7
   1   5  -2 6971.32 529.285  15
   1   5  -2 7287.80 621.712  23
   1   5  -2 6828.26 636.189  13
   1   5  -1 8330.64 625.166  66
   1   5  -1 8447.27 548.949  10
   1   5  -1 8438.23 525.259  58
   1   5  -1 7389.82 480.664   7
   1   5  -1 8162.76 584.214  15
   1   5  -1 8800.39 677.629  23
   1   5  -1 7947.43 643.402  13
   1   5   0 94568.9 2283.74  66
   1   5   0 89157.4 1886.23  10
   1   5   0 85659.8 1742.32  55
   1   5   0 91205.3 2158.32  15
   1   5   0 93188.0 1958.20   7
   1   5   0 93296.5 2321.96  23
   1   5   0 91168.4 2264.96  13
   1   5   1 78802.0 2056.53  66
   1   5   1 80514.2 1727.57  10
   1   5   1 75149.2 1599.43  55
   1   5   1 82179.5 2038.15  15
   1   5   1 82705.3 1920.91   7
   1   5   1 75731.7 2080.42  23
   1   5   1 75355.1 2016.80  13
   1   5   2 143147. 2992.22  66
   1   5   2 143521. 2424.59  57
   1   5   2 154134. 2538.91  55
   1   5   2 154065. 3022.78  15
   1   5   2 135781. 2871.47   7
   1   5   2 150981. 3143.96  23
   1   5   2 154691. 3034.26  13
   1   5   3 75248.8 1775.11  22
   1   5   3 74629.4 2151.42  66
   1   5   3 79425.1 1735.17  57
   1   5   3 84742.1 1814.99  55
   1   5   3 82898.5 1789.55  52
   1   5   3 83954.8 2180.42  15
   1   5   3 78429.7 2219.76   7
   1   5   3 80139.8 2287.27  23
   1   5   3 75357.9 2011.43  13
   1   5   4 49549.0 1501.39  22
   1   5   4 52807.3 1824.18  66
   1   5   4 52291.1 1437.19  57
   1   5   4 54625.8 1490.71  55
   1   5   4 53077.3 1482.10  52
   1   5   4 46853.8 1708.21  15
   1   5   4 48724.5 1906.58   7
   1   5   4 50664.0 1862.25  23
   1   5   5 1107.25 242.161  22
   1   5   5 1127.89 338.820   7
   1   5   5 866.673 285.710  66
   1   5   5 1073.85 220.996  57
   1   5   5 1201.73 239.559  55
   1   5   5 1085.04 232.667  52
   1   5   5 1232.40 332.810  15
   1   5   6 37485.6 1459.29  22
   1   5   6 36661.8 1343.00  19
   1   5   6 37824.3 1385.43  57
   1   5   6 40102.0 1450.09  55
   1   5   6 39957.4 1442.47  52
   1   5   6 45134.6 1879.46  15
   1   5   6 30840.8 1601.54  23
   1   5   6 34057.9 1921.57   7
   1   5   7 40771.6 1537.59  19
   1   5   7 44802.7 913.503  31
   1   5   7 37193.8 841.130  30
   1   5   7 41630.8 1547.93  57
   1   5   7 41585.0 1574.63  55
   1   5   7 46330.6 961.786  29
   1   5   7 40901.3 1570.05  52
   1   5   7 38914.1 858.104  49
   1   5   7 40185.1 2312.29   7
   1   5   7 43636.7 1668.40  22
   1   5   8 6182.65 318.713  31
   1   5   8 6471.68 313.483  30
   1   5   8 6367.54 341.168  29
   1   5   8 6871.41 325.672  49
   1   5   8 6863.72 680.206  22
   1   5   9 14164.0 473.944  31
   1   5   9 13544.7 445.851  30
   1   5   9 13660.1 482.975  29
   1   5   9 12715.6 438.567  49
   1   5   9 12943.6 948.736  22
   1   5  10 21788.4 566.743  31
   1   5  10 22732.0 556.000  30
   1   5  10 22355.9 578.242  29
   1   5  10 22699.3 557.843  49
   1   5  11 7591.95 279.395  31
   1   5  11 7549.34 278.670  30
   1   5  11 7813.26 281.818  29
   1   5  11 7815.07 277.714  49
   1   5  12 1965.55 113.035  30
   1   5  12 2158.27 115.378  49
   1   5  12 1793.14 103.877  31
   1   6 -11 2833.28 145.207  48
   1   6 -10 6715.86 306.596  41
   1   6 -10 5629.86 263.944  35
   1   6  -7 20452.8 1636.61  17
   1   6  -7 19598.3 1580.45  65
   1   6  -6 5587.75 824.605  20
   1   6  -6 4487.09 744.406  65
   1   6  -6 4158.68 728.959  17
   1   6  -5 16182.8 1257.99  20
   1   6  -5 17309.9 1378.57  17
   1   6  -4 14504.9 1136.99  20
   1   6  -4 16463.3 1254.68  17
   1   6  -3 7827.58 764.890  20
   1   6  -3 8441.47 755.625  10
   1   6  -2 15756.8 1018.93  20
   1   6  -2 17085.2 974.916  10
   1   6  -2 18110.2 899.744   7
   1   6  -2 15029.1 1071.15  13
   1   6  -1 8775.13 654.255  10
   1   6  -1 8189.82 707.879  20
   1   6  -1 8038.92 705.582  66
   1   6  -1 8371.16 675.280  15
   1   6  -1 8462.93 617.794   7
   1   6  -1 8443.20 755.059  23
   1   6  -1 9274.83 798.475  13
   1   6   0 8347.09 715.437  66
   1   6   0 8116.20 605.476  10
   1   6   0 8703.13 714.050  15
   1   6   0 7583.10 608.019   7
   1   6   0 8257.86 755.855  23
   1   6   0 7999.55 729.362  13
   1   6   1 7456.10 691.809  66
   1   6   1 6928.13 540.147  10
   1   6   1 6823.37 509.949  55
   1   6   1 7585.25 670.768  15
   1   6   1 6355.24 587.602   7
   1   6   1 7023.38 685.683  23
   1   6   1 6622.93 654.326  13
   1   6   2 867.160 253.523  13
   1   6   2 783.667 248.492   7
   1   6   2 835.772 198.102  10
   1   6   2 730.147 183.367  55
   1   6   2 883.023 261.647  66
   1   6   2 834.982 239.095  15
   1   6   2 839.789 266.623  23
   1   6   3 561.051 199.897  13
   1   6   3 582.168 242.261   7
   1   6   3 435.621 202.576  66
   1   6   3 582.938 165.084  10
   1   6   3 487.313 155.526  57
   1   6   3 599.044 173.053  55
   1   6   3 528.444 195.262  15
   1   6   3 235.219 168.838  23
   1   6   4 21025.7 1282.16  66
   1   6   4 27081.1 1112.07  57
   1   6   4 27723.2 1168.30  55
   1   6   4 19415.3 1206.23  15
   1   6   4 25311.9 1517.60   7
   1   6   5 885.141 216.910  22
   1   6   5 999.360 374.097   7
   1   6   5 983.582 132.994  31
   1   6   5 1000.04 234.124  57
   1   6   5 1261.13 154.117  29
   1   6   5 1109.95 261.750  55
   1   6   6 20347.0 596.591  31
   1   6   6 19223.1 1055.44  57
   1   6   6 19992.1 1103.61  55
   1   6   6 19683.9 614.489  29
   1   6   6 19363.1 1082.29  52
   1   6   6 27220.9 1590.08  15
   1   6   6 28056.7 1715.50  23
   1   6   6 25847.6 753.589  33
   1   6   6 19511.3 1575.23   7
   1   6   6 20824.0 1095.85  22
   1   6   7 16022.2 582.223  33
   1   6   7 16637.5 538.980  31
   1   6   7 16303.6 537.339  29
   1   6   7 15643.2 491.335  49
   1   6   7 14426.3 1137.15  15
   1   6   7 17833.0 1085.70  22
   1   6   8 90.5377 135.175  22
   1   6   8 161.501 80.3567  31
   1   6   8 148.453 70.8516  30
   1   6   8 262.138 94.4155  29
   1   6   8 180.979 70.4337  49
   1   6   9 13823.7 450.564  31
   1   6   9 14284.4 431.111  30
   1   6   9 15580.8 496.630  29
   1   6   9 14437.0 432.358  49
   1   6  10 14324.3 418.209  31
   1   6  10 14708.2 397.982  30
   1   6  10 14604.5 429.680  29
   1   6  10 14441.3 395.576  49
   1   6  11 3576.83 175.224  31
   1   6  11 3571.70 160.437  30
   1   6  11 3436.78 170.412  29
   1   6  11 3566.10 160.617  49
   1   7 -10 5145.57 219.645  41
   1   7  -9 2323.88 200.964  35
   1   7  -6 4674.25 717.948  20
   1   7  -6 6234.50 891.618  65
   1   7  -6 6743.28 918.894  17
   1   7  -5 37238.5 2050.73  20
   1   7  -5 33353.7 2011.84  17
   1   7  -4 1352.40 526.869  20
   1   7  -4 387.763 300.781  17
   1   7  -3 19356.5 1316.93  20
   1   7  -3 16218.8 1173.61  10
   1   7  -2 3112.07 506.362  20
   1   7  -2 3316.20 504.107  10
   1   7  -2 3846.94 498.982   7
   1   7  -1 10663.3 902.969  20
   1   7  -1 11241.2 853.246  10
   1   7  -1 7858.86 752.661  15
   1   7  -1 12042.1 870.797   7
   1   7  -1 7174.04 803.540  13
   1   7   0 2593.24 434.503  20
   1   7   0 3141.79 444.202  10
   1   7   0 2779.75 437.191   7
   1   7   0 1504.87 325.869  15
   1   7   0 1763.26 378.176  66
   1   7   0 2710.19 482.289  13
   1   7   1 1974.73 396.108   7
   1   7   1 1815.92 358.633  20
   1   7   1 1833.48 337.018  10
   1   7   1 1422.00 332.444  15
   1   7   1 1744.37 375.651  66
   1   7   1 2333.03 451.374  13
   1   7   2 16987.3 1086.55  20
   1   7   2 12460.4 1010.18  66
   1   7   2 17361.9 987.807  10
   1   7   2 17299.5 968.111  55
   1   7   2 11674.8 961.382  15
   1   7   2 18950.4 1278.79   7
   1   7   2 17533.7 1208.06  13
   1   7   3 19836.1 1173.29  20
   1   7   3 14185.0 1109.10  66
   1   7   3 21654.0 1134.98  10
   1   7   3 22021.0 1130.99  55
   1   7   3 14434.3 1109.23  15
   1   7   3 23022.1 1495.30   7
   1   7   3 18729.1 1245.22  13
   1   7   4 7680.04 689.581  10
   1   7   4 7249.81 672.108  55
   1   7   4 7863.66 374.143  29
   1   7   4 8409.84 969.519   7
   1   7   5 4882.29 569.793  10
   1   7   5 5348.81 297.441  31
   1   7   5 5135.29 593.827  55
   1   7   5 6659.58 349.168  29
   1   7   5 5087.17 818.097   7
   1   7   6 26455.8 1609.87  66
   1   7   6 19241.0 573.124  31
   1   7   6 19535.2 603.403  29
   1   7   6 22721.2 708.993  33
   1   7   6 23647.1 1540.39  15
   1   7   6 20159.8 1518.51  23
   1   7   7 5455.97 319.080  33
   1   7   7 5735.09 300.778  31
   1   7   7 5539.58 310.679  29
   1   7   8 8242.35 359.366  33
   1   7   8 8093.87 344.309  31
   1   7   9 8411.97 322.473  31
   1   7   9 8417.18 326.405  29
   1   7  10 3684.02 187.436  31
   1   7  10 3632.71 191.253  29
   1   7  11 7660.85 220.417  31
   1   7  11 7764.59 217.924  29
   1   8  -9 3799.51 192.526  35
   1   8  -7 6140.90 315.494  36
   1   8  -5 4324.50 302.401  37
   1   8  -5 4153.60 748.528  17
   1   8  -4 53339.8 2449.78  20
   1   8  -4 35929.2 2102.01  17
   1   8  -3 19093.5 1434.27  20
   1   8  -3 12795.1 1211.85  17
   1   8  -2 15127.3 1216.72  20
   1   8  -2 16507.4 1235.48  23
   1   8  -1-54.2740 167.671   7
   1   8  -1 225.591 194.703  20
   1   8  -1-5.15760 138.172  10
   1   8  -1 109.048 165.363  66
   1   8  -1-184.836 161.088  23
   1   8   0 8756.34 822.941  10
   1   8   0 8557.27 866.093  20
   1   8   0 6751.86 359.259  33
   1   8   0 6205.35 751.952  15
   1   8   0 4521.16 677.481  23
   1   8   1 17647.9 1228.54  20
   1   8   1 15850.5 1078.38  10
   1   8   1 13564.7 518.725  33
   1   8   1 12630.8 1077.42  15
   1   8   1 9269.77 963.103  23
   1   8   2 13586.6 1071.00  20
   1   8   2 12666.8 953.804  10
   1   8   2 11793.4 488.634  33
   1   8   2 11107.7 1039.10  15
   1   8   2 12073.1 1175.39   7
   1   8   2 9298.60 1012.19  23
   1   8   3 5922.23 361.842  33
   1   8   3 5162.58 825.822  15
   1   8   4 2820.56 223.337  29
   1   8   4 9941.23 1072.45  15
   1   8   5 6125.75 307.301  31
   1   8   5 5987.23 320.057  29
   1   8   6 7186.98 328.750  31
   1   8   6 7230.60 368.627  33
   1   8   6 7256.15 344.950  29
   1   8   6 6733.86 819.464  23
   1   8   7 6747.97 334.509  34
   1   8   7 6831.09 333.953  33
   1   8   8 7398.62 311.358  33
   1   8   8 7661.24 303.034  31
   1   8   8 8164.24 319.919  29
   1   8   9 16837.9 418.096  31
   1   8   9 17228.5 430.359  29
   1   8  10 4969.38 180.046  31
   1   8  10 4746.43 177.645  29
   1   9  -8 5503.53 225.910  35
   1   9  -7 7243.29 281.776  36
   1   9  -7 9199.97 343.821  26
   1   9  -6 3369.78 236.302  36
   1   9  -5 361.336 94.2086  37
   1   9  -3 10670.1 1129.29  17
   1   9  -3 15204.9 570.349  27
   1   9  -2 25522.7 734.691  34
   1   9  -2 22938.4 1610.72  17
   1   9  -1 22168.5 1495.51  66
   1   9  -1 27769.1 782.564  34
   1   9  -1 21716.8 1534.40  17
   1   9  -1 27534.0 1699.23  23
   1   9   0 20172.6 1476.45  20
   1   9   0 11678.0 501.373  34
   1   9   0 10046.0 437.481  33
   1   9   0 20540.3 1498.11  23
   1   9   1 14728.5 1285.78  20
   1   9   1 6694.98 375.116  33
   1   9   1 6668.64 841.984  15
   1   9   1 16909.9 1415.26  23
   1   9   2 20046.5 1520.81  66
   1   9   2 11275.3 473.427  33
   1   9   2 9130.96 997.849  15
   1   9   2 25662.7 1669.40  23
   1   9   3 26257.1 1671.11  66
   1   9   3 17184.1 597.298  33
   1   9   4 16531.1 1374.69  23
   1   9   4 13071.8 500.404  33
   1   9   5 6511.04 352.575  34
   1   9   5 5842.01 319.641  33
   1   9   5 6558.30 298.672  29
   1   9   6 9961.50 410.668  34
   1   9   6 10742.5 350.688  31
   1   9   6 10960.2 408.504  33
   1   9   7 17257.3 482.772  33
   1   9   7 18589.7 449.928  31
   1   9   7 18681.2 471.065  29
   1   9   8 10575.3 300.942  31
   1   9   8 10567.9 313.910  29
   1   9   8 9719.96 306.083  33
   1   9   9 2742.90 124.555  31
   1   9   9 3225.81 139.987  29
   1  10  -6 2364.36 153.100  36
   1  10  -5 1284.92 119.438  37
   1  10  -5 1537.05 153.763  36
   1  10  -4 2350.50 187.710  37
   1  10  -3 1252.78 146.140  27
   1  10  -2 4587.53 285.136  27
   1  10  -1 4045.28 270.452  34
   1  10  -1 10789.4 470.056  27
   1  10   0 2414.34 218.882  34
   1  10   1 12130.8 477.917  34
   1  10   1 11384.5 419.780  33
   1  10   2 12411.8 485.665  34
   1  10   2 11918.3 435.631  33
   1  10   3 5807.68 327.503  34
   1  10   3 5677.71 295.685  33
   1  10   4 1658.76 173.845  34
   1  10   4 1507.48 148.922  33
   1  10   4 1311.40 158.810  27
   1  10   5 1165.55 135.898  34
   1  10   5 1019.57 118.627  33
   1  10   5 789.376 100.178  27
   1  10   6 18282.4 477.321  34
   1  10   6 17887.0 464.885  33
   1  10   7 9535.21 286.325  33
   1  10   7 8010.67 224.673  29
   1  11  -4 4968.22 221.835  36
   1  11  -3 3722.70 172.667   2
   1  11  -3 3867.71 182.426  27
   1  11  -2 2761.64 188.334  37
   1  11  -2 2340.70 166.148  27
   1  11  -1 3019.21 188.213  34
   1  11  -1 2816.79 195.879  27
   1  11   0 20190.0 540.254  34
   1  11   1 348.743 83.1222  34
   1  11   1 319.305 65.9291  33
   1  11   1 474.182 94.4155  27
   1  11   2 1722.04 154.624  34
   1  11   2 1634.71 133.908  33
   1  11   2 1473.10 144.125  27
   1  11   3 17872.2 455.012  33
   1  11   3 18046.6 489.087  34
   1  11   4 11571.5 365.130  34
   1  11   4 11658.0 342.449  33
   1  11   5 5375.98 218.606  34
   1  11   5 5611.41 210.116  33
   1  12   0 3152.86 147.682  37
   1  12   1 4541.34 176.287  27
   2 -11  -1 5587.72 197.104  43
   2 -11   0 5746.17 212.249  45
   2 -11   0 5740.00 206.173  43
   2 -11   1 4280.49 182.722  45
   2 -10  -5 918.868 81.7107  45
   2 -10  -5 1006.18 80.4187  43
   2 -10  -4 15656.2 396.907  45
   2 -10  -4 16276.7 392.217  43
   2 -10  -3 1844.01 127.315  39
   2 -10  -3 2098.80 154.248  45
   2 -10  -3 2256.88 153.742  43
   2 -10  -2 338.070 74.2190  39
   2 -10  -2 277.016 78.3089  45
   2 -10  -2 363.127 77.1522  43
   2 -10  -1 308.637 84.1965  39
   2 -10  -1 412.916 72.6738  28
   2 -10  -1 416.616 89.4134  45
   2 -10  -1 482.803 88.9425  43
   2 -10   0 392.837 88.3658  39
   2 -10   0 446.855 79.0010  28
   2 -10   0 414.774 93.4089  45
   2 -10   0 380.881 83.3183  43
   2 -10   1 237.138 69.7410  39
   2 -10   1 300.597 73.5519  28
   2 -10   1 257.353 83.0858  45
   2 -10   1 315.647 80.9411  43
   2 -10   2 16933.2 493.841  39
   2 -10   2 16510.4 496.433  45
   2 -10   2 16450.9 478.284  43
   2 -10   2 17768.0 477.001  28
   2 -10   3 1921.45 161.700  39
   2 -10   3 2118.03 158.077  28
   2 -10   3 2066.75 171.686  45
   2 -10   3 1941.30 156.481  43
   2 -10   4 4594.20 228.271  39
   2 -10   4 4812.22 223.734  28
   2 -10   5 3366.03 177.761  39
   2 -10   5 3108.00 165.529  28
   2  -9  -7 4516.69 164.657  45
   2  -9  -6 3247.93 169.099  45
   2  -9  -6 3197.90 167.963  43
   2  -9  -5 5023.19 222.990  39
   2  -9  -5 5496.11 246.842  45
   2  -9  -5 5831.46 254.841  43
   2  -9  -4 4862.16 246.893  39
   2  -9  -4 5130.97 263.897  45
   2  -9  -4 5285.04 260.556  43
   2  -9  -3 4169.34 248.817  39
   2  -9  -3 4077.27 249.416  45
   2  -9  -3 4014.77 244.843  43
   2  -9  -2 3048.16 223.416  39
   2  -9  -2 3113.95 228.138  45
   2  -9  -2 2997.56 219.004  43
   2  -9  -2 2934.69 208.459  28
   2  -9  -1 2520.38 212.514  39
   2  -9  -1 2727.53 213.580  28
   2  -9  -1 2659.85 217.283  45
   2  -9  -1 2760.11 219.622  43
   2  -9   0 2174.47 205.032  39
   2  -9   0 2698.48 216.841  28
   2  -9   0 2398.13 216.774  45
   2  -9   0 2679.64 218.134  43
   2  -9   1 352.444 102.608  39
   2  -9   1 429.226 103.625  28
   2  -9   1 357.705 106.853  45
   2  -9   1 425.184 107.186  43
   2  -9   2 147.690 90.4974  39
   2  -9   2 194.728 85.4500  28
   2  -9   2 213.110 93.4484  45
   2  -9   2 148.533 83.9921  43
   2  -9   3 25427.9 709.471  39
   2  -9   3 26197.7 692.033  28
   2  -9   3 25971.6 717.881  45
   2  -9   3 25104.9 689.847  43
   2  -9   4 2249.21 203.192  39
   2  -9   4 2184.27 192.020  28
   2  -9   4 1977.40 196.152  45
   2  -9   4 2218.86 195.847  43
   2  -9   5 11283.8 420.338  39
   2  -9   5 11559.2 408.154  28
   2  -9   5 10377.9 387.342  43
   2  -9   6 950.078 115.598  28
   2  -9   6 1179.53 131.616  50
   2  -9   7 32.2995 46.7624  39
   2  -9   7 31.3039 40.8278  28
   2  -8  -8 30.3325 33.3499  45
   2  -8  -8 93.6441 37.8982  43
   2  -8  -7 1089.75 94.4238  40
   2  -8  -7 1021.40 94.7659  39
   2  -8  -7 1389.74 121.150  45
   2  -8  -7 1506.78 126.407  43
   2  -8  -6 1253.87 116.982  40
   2  -8  -6 1386.57 131.409  39
   2  -8  -6 1341.03 133.823  45
   2  -8  -6 1358.91 139.618  43
   2  -8  -5 22500.9 559.536  40
   2  -8  -5 22511.2 597.218  39
   2  -8  -5 24108.2 612.432  45
   2  -8  -5 24936.9 623.843  43
   2  -8  -4 2230.07 189.947  39
   2  -8  -4 1404.70 339.718  21
   2  -8  -4 2097.93 185.872  45
   2  -8  -4 1631.52 357.055  24
   2  -8  -4 2108.78 188.853  43
   2  -8  -3 10294.7 432.039  39
   2  -8  -3 9638.39 895.420  21
   2  -8  -3 10253.4 423.877  28
   2  -8  -3 8117.53 776.069  24
   2  -8  -3 9635.34 408.642  45
   2  -8  -3 10108.4 416.761  43
   2  -8  -2 9633.13 432.732  39
   2  -8  -2 9661.52 911.447  21
   2  -8  -2 9783.71 430.685  28
   2  -8  -2 8585.07 803.732  24
   2  -8  -2 9727.68 421.595  45
   2  -8  -2 9940.50 425.481  43
   2  -8  -1 15447.0 557.717  39
   2  -8  -1 14931.3 1143.26  21
   2  -8  -1 15289.2 553.344  28
   2  -8  -1 14388.9 530.353  45
   2  -8  -1 14333.8 525.165  43
   2  -8   0 9188.92 432.265  39
   2  -8   0 8426.54 874.636  21
   2  -8   0 8333.57 870.754  64
   2  -8   0 9237.03 433.287  28
   2  -8   0 9028.53 425.548  45
   2  -8   0 9313.43 423.489  43
   2  -8   1 12921.1 524.312  39
   2  -8   1 13558.2 1108.70  21
   2  -8   1 11405.4 1034.47  64
   2  -8   1 13244.7 528.244  28
   2  -8   1 12449.1 512.011  45
   2  -8   1 13248.7 515.031  43
   2  -8   2 3011.95 254.598  39
   2  -8   2 3149.10 558.396  21
   2  -8   2 2407.32 482.442  64
   2  -8   2 3182.84 254.996  28
   2  -8   2 2827.44 248.810  45
   2  -8   2 2985.88 248.156  43
   2  -8   3 9698.54 457.484  39
   2  -8   3 9199.21 938.942  21
   2  -8   3 10048.9 452.211  28
   2  -8   3 9279.10 452.420  45
   2  -8   3 9600.32 444.402  43
   2  -8   4 7500.73 398.826  39
   2  -8   4 7896.01 392.565  28
   2  -8   4 7418.14 370.890   8
   2  -8   4 7392.35 401.808  45
   2  -8   4 7696.20 393.762  43
   2  -8   5 39507.5 931.349  39
   2  -8   5 40288.4 915.515  28
   2  -8   5 39059.5 879.838   8
   2  -8   5 36565.1 925.420  45
   2  -8   5 39350.8 921.691  43
   2  -8   6 7949.11 377.107  39
   2  -8   6 7926.60 365.412  28
   2  -8   6 8029.91 349.596   8
   2  -8   6 9166.34 429.389  50
   2  -8   6 7869.98 364.071  43
   2  -8   6 8096.35 321.981  42
   2  -8   7 2708.56 212.931  39
   2  -8   7 2770.40 205.919  28
   2  -8   7 2688.54 186.030   8
   2  -8   7 3038.10 224.559  50
   2  -8   7 2720.04 169.865  42
   2  -8   8 2240.43 163.175  28
   2  -8   8 1575.56 122.546   8
   2  -8   8 2393.92 152.896  51
   2  -8   8 1619.34 139.207  50
   2  -8   8 2140.74 128.858  42
   2  -8   9 655.983 75.1581  28
   2  -8   9 1040.37 83.0843  51
   2  -7  -9 5161.55 195.845  45
   2  -7  -9 4844.40 181.431  43
   2  -7  -8 234.082 63.2166  40
   2  -7  -8 340.660 64.3850  39
   2  -7  -8 314.929 71.5824  45
   2  -7  -8 372.979 77.4104  43
   2  -7  -7 12796.0 392.485  40
   2  -7  -7 12988.3 406.745  39
   2  -7  -7 13225.9 423.549  45
   2  -7  -7 13710.9 433.874  43
   2  -7  -6 20978.3 550.324  40
   2  -7  -6 20477.1 569.349  39
   2  -7  -6 19145.5 1155.25  24
   2  -7  -6 21083.3 579.945  45
   2  -7  -6 21303.6 585.707  43
   2  -7  -5 1513.87 150.593  40
   2  -7  -5 1664.05 172.237  39
   2  -7  -5 1421.97 365.418  21
   2  -7  -5 1662.18 170.638  45
   2  -7  -5 1217.27 307.834  24
   2  -7  -5 1668.20 173.390  43
   2  -7  -4 8221.50 391.421  39
   2  -7  -4 8315.77 817.642  21
   2  -7  -4 9176.26 406.370  28
   2  -7  -4 9110.90 803.350  24
   2  -7  -4 9039.69 394.849  45
   2  -7  -4 8960.26 391.108  43
   2  -7  -3 17314.3 573.781  39
   2  -7  -3 18032.6 1201.29  21
   2  -7  -3 15673.0 1114.35  64
   2  -7  -3 16925.7 580.323  28
   2  -7  -3 19330.0 1165.93  24
   2  -7  -3 17618.4 569.269  45
   2  -7  -3 17104.9 562.130  43
   2  -7  -2 18982.1 1282.86  12
   2  -7  -2 20264.8 645.874  39
   2  -7  -2 22064.8 1324.13  21
   2  -7  -2 19864.3 1263.48  64
   2  -7  -2 21647.7 668.977  28
   2  -7  -2 21707.9 1232.34  24
   2  -7  -2 21098.7 638.893  45
   2  -7  -1 1733.22 185.338  39
   2  -7  -1 977.805 291.454  55
   2  -7  -1 1351.22 345.081  12
   2  -7  -1 1463.63 356.097  21
   2  -7  -1 1252.48 290.458  60
   2  -7  -1 1286.45 351.452   1
   2  -7  -1 1409.63 318.386  59
   2  -7  -1 1553.64 179.571  28
   2  -7  -1 1103.63 265.489  61
   2  -7  -1 1333.38 307.882  53
   2  -7  -1 1112.61 281.710  52
   2  -7  -1 1243.94 329.323  64
   2  -7  -1 1367.75 166.131  45
   2  -7  -1 1468.92 327.748  24
   2  -7  -1 1604.12 177.943  43
   2  -7   0 12147.5 1027.15  12
   2  -7   0 12204.9 495.165  39
   2  -7   0 12785.6 1004.03  21
   2  -7   0 11265.6 957.133  64
   2  -7   0 11154.2 883.289  60
   2  -7   0 10908.3 873.192  61
   2  -7   0 10477.7 854.588  59
   2  -7   0 10946.0 908.474  55
   2  -7   0 11462.5 493.137  28
   2  -7   0 10451.5 861.141  53
   2  -7   0 10609.0 871.569  52
   2  -7   0 12459.6 496.989  45
   2  -7   0 10983.8 925.554   1
   2  -7   0 12309.8 485.893  43
   2  -7   1 891.196 298.240  64
   2  -7   1 812.731 259.263  61
   2  -7   1 901.882 144.353  39
   2  -7   1 412.060 236.953  12
   2  -7   1 969.106 296.991  21
   2  -7   1 844.737 261.627  60
   2  -7   1 929.820 265.710  59
   2  -7   1 973.216 300.898  55
   2  -7   1 880.568 142.568  28
   2  -7   1 1075.61 294.736  53
   2  -7   1 985.573 278.094  52
   2  -7   1 987.784 153.734  45
   2  -7   1 857.537 135.051  43
   2  -7   1 994.547 292.471   1
   2  -7   2 1091.18 158.437  39
   2  -7   2 1402.11 386.967  12
   2  -7   2 1364.07 365.318  21
   2  -7   2 1270.61 369.167  64
   2  -7   2 1832.31 391.781   1
   2  -7   2 1164.92 303.828  55
   2  -7   2 1333.07 174.834  28
   2  -7   2 1035.52 281.532  61
   2  -7   2 1088.58 313.691  53
   2  -7   2 1059.41 289.393  60
   2  -7   2 1154.55 316.839  52
   2  -7   2 1251.97 169.137   8
   2  -7   2 1367.04 176.750  45
   2  -7   2 1270.30 169.004  43
   2  -7   2 957.241 274.709  59
   2  -7   3 3189.54 268.639  39
   2  -7   3 3281.70 551.571  21
   2  -7   3 3396.01 574.296  64
   2  -7   3 3669.11 560.763  18
   2  -7   3 3626.73 277.804  28
   2  -7   3 3483.92 278.774   8
   2  -7   3 3431.97 281.759  45
   2  -7   3 3644.44 282.520  43
   2  -7   4 4591.99 319.202  39
   2  -7   4 4149.93 646.559  21
   2  -7   4 5283.46 711.837  64
   2  -7   4 4772.68 654.720  18
   2  -7   4 4838.70 314.388  28
   2  -7   4 4676.86 325.007   8
   2  -7   4 5059.68 343.552  45
   2  -7   4 4931.99 330.189  43
   2  -7   4 4769.08 304.399  42
   2  -7   5 18130.5 649.177  39
   2  -7   5 17825.2 1280.48  18
   2  -7   5 20082.0 654.753  28
   2  -7   5 18927.1 651.423   8
   2  -7   5 19423.3 690.536  45
   2  -7   5 19529.8 669.704  43
   2  -7   5 19967.3 624.047  42
   2  -7   6 15324.6 578.307  39
   2  -7   6 15399.1 561.310  28
   2  -7   6 15664.1 565.437   8
   2  -7   6 14887.1 563.726  43
   2  -7   6 16140.8 535.975  42
   2  -7   7 4733.34 309.738  39
   2  -7   7 4842.51 299.960  28
   2  -7   7 4640.42 287.824   8
   2  -7   7 5214.24 343.351  50
   2  -7   7 4640.25 269.470  42
   2  -7   8 9551.59 385.464  28
   2  -7   8 9000.41 363.729   8
   2  -7   8 8937.27 342.077  42
   2  -7   9 4950.76 247.698  28
   2  -7   9 5261.13 228.265  42
   2  -7  10 1540.76 106.296  51
   2  -7  10 1362.21 91.9987  42
   2  -6 -10 2745.77 136.611  45
   2  -6  -9 1239.29 110.110  40
   2  -6  -9 1032.13 97.1978  39
   2  -6  -9 1364.61 120.969  45
   2  -6  -9 1205.00 114.969  43
   2  -6  -8 4510.53 232.700  40
   2  -6  -8 4277.03 232.529  39
   2  -6  -8 4089.05 232.046  45
   2  -6  -8 4206.45 232.446  43
   2  -6  -7 2808.44 203.577  40
   2  -6  -7 3776.86 519.596  24
   2  -6  -7 3770.64 239.058  45
   2  -6  -7 3318.87 230.617  43
   2  -6  -6 2480.39 195.609  40
   2  -6  -6 2459.16 449.655  21
   2  -6  -6 2318.34 418.524  16
   2  -6  -6 2525.39 440.751  24
   2  -6  -6 2586.01 208.815  45
   2  -6  -6 2554.19 212.773  43
   2  -6  -5 21155.8 600.955  40
   2  -6  -5 22253.6 1298.92  21
   2  -6  -5 20711.9 620.939  28
   2  -6  -5 18688.1 1128.29  16
   2  -6  -5 22405.2 1253.69  24
   2  -6  -5 21025.5 609.479  45
   2  -6  -5 18147.5 580.179  43
   2  -6  -4 14575.5 499.875  40
   2  -6  -4 14924.5 1066.58  12
   2  -6  -4 16817.4 549.105  39
   2  -6  -4 16050.3 1086.83  21
   2  -6  -4 13251.3 973.832  64
   2  -6  -4 16270.6 557.407  28
   2  -6  -4 16095.1 1010.08  16
   2  -6  -4 16774.4 1058.71  24
   2  -6  -4 16010.8 528.705  45
   2  -6  -4 16442.2 535.813  43
   2  -6  -3 12375.4 951.062  12
   2  -6  -3 12137.6 463.756  39
   2  -6  -3 12490.6 933.069  21
   2  -6  -3 11514.3 829.093  60
   2  -6  -3 13980.6 975.251  64
   2  -6  -3 11309.8 821.213  61
   2  -6  -3 10699.6 795.193  59
   2  -6  -3 10801.9 795.028  58
   2  -6  -3 11075.6 459.791  28
   2  -6  -3 11672.3 822.470  53
   2  -6  -3 12002.1 833.458  16
   2  -6  -3 11019.8 822.027  52
   2  -6  -3 13192.8 906.175  24
   2  -6  -3 12493.6 463.603  45
   2  -6  -3 10508.4 856.626   1
   2  -6  -3 12300.2 463.526  43
   2  -6  -2 1624.56 170.473  39
   2  -6  -2 1691.17 340.935  12
   2  -6  -2 1585.44 348.392  21
   2  -6  -2 1428.09 341.807   1
   2  -6  -2 1599.80 333.633  64
   2  -6  -2 1266.79 271.228  61
   2  -6  -2 1312.36 280.762  60
   2  -6  -2 1269.23 270.393  59
   2  -6  -2 1586.06 174.076  28
   2  -6  -2 1449.80 286.681  53
   2  -6  -2 1706.03 330.953  52
   2  -6  -2 1512.21 285.793  16
   2  -6  -2 1698.64 171.234  45
   2  -6  -2 1882.21 347.657  24
   2  -6  -2 1737.52 176.663  43
   2  -6  -1 1406.64 156.285  39
   2  -6  -1 1375.19 311.036  12
   2  -6  -1 1636.76 351.767  21
   2  -6  -1 1544.83 344.354   1
   2  -6  -1 1710.76 311.042  61
   2  -6  -1 1578.80 298.805  60
   2  -6  -1 1692.63 306.645  59
   2  -6  -1 1271.95 304.005  64
   2  -6  -1 1256.76 289.918  55
   2  -6  -1 1300.68 271.247  53
   2  -6  -1 1469.43 295.404  52
   2  -6  -1 1370.60 263.682  16
   2  -6  -1 1671.89 174.095  45
   2  -6  -1 1384.97 301.767  24
   2  -6  -1 1607.64 170.572  43
   2  -6   0 16406.8 1063.36  12
   2  -6   0 17347.0 1064.50  21
   2  -6   0 17158.6 1076.53  64
   2  -6   0 16179.0 948.952  61
   2  -6   0 15257.0 921.398  60
   2  -6   0 15310.3 913.554  59
   2  -6   0 16665.1 1025.27  18
   2  -6   0 14709.0 942.386  55
   2  -6   0 15326.5 929.595  53
   2  -6   0 15067.3 932.068  52
   2  -6   0 16709.3 1025.50   1
   2  -6   0 16340.3 982.294  24
   2  -6   1 10900.3 880.246  12
   2  -6   1 9681.22 815.134  21
   2  -6   1 13085.7 951.403  64
   2  -6   1 13221.2 935.509  18
   2  -6   1 11376.3 805.280  59
   2  -6   1 10816.1 795.383  61
   2  -6   1 11673.6 821.137  60
   2  -6   1 11263.9 837.895  55
   2  -6   1 10336.8 784.038  53
   2  -6   1 11681.2 835.488  52
   2  -6   1 10874.6 835.544   1
   2  -6   2 12098.7 947.991  12
   2  -6   2 10543.6 459.397  39
   2  -6   2 11150.4 900.230  21
   2  -6   2 11967.7 874.197  61
   2  -6   2 11677.4 862.201  60
   2  -6   2 12242.3 936.151  18
   2  -6   2 12582.6 896.588  59
   2  -6   2 11214.2 872.811  55
   2  -6   2 11004.8 466.492  28
   2  -6   2 12072.2 883.323  53
   2  -6   2 11918.0 882.173  52
   2  -6   2 12468.7 910.014   1
   2  -6   2 11697.8 921.601  64
   2  -6   3 11156.4 477.582  39
   2  -6   3 12738.5 1003.34  21
   2  -6   3 12321.3 970.801  64
   2  -6   3 11945.3 916.494  61
   2  -6   3 12383.0 977.393  18
   2  -6   3 12068.5 942.248  55
   2  -6   3 11737.8 484.043  28
   2  -6   3 12839.0 964.589  53
   2  -6   3 12044.5 935.104  52
   2  -6   3 10681.7 483.292   8
   2  -6   3 12628.8 945.251   1
   2  -6   3 10649.1 484.465  45
   2  -6   3 10060.7 464.478  43
   2  -6   3 12193.4 933.870  60
   2  -6   3 9852.23 453.214  42
   2  -6   4 22379.9 726.533  39
   2  -6   4 26919.4 1524.34  21
   2  -6   4 24586.7 1445.03  64
   2  -6   4 26334.1 1507.73  18
   2  -6   4 24717.6 1408.13  57
   2  -6   4 24394.6 1429.05  55
   2  -6   4 24225.1 1392.41  61
   2  -6   4 25820.5 756.661  28
   2  -6   4 23388.8 1382.10  53
   2  -6   4 25109.1 1432.25  52
   2  -6   4 25005.6 769.289   8
   2  -6   4 23221.8 758.843  45
   2  -6   4 26436.4 1403.80   1
   2  -6   4 22044.5 720.171  43
   2  -6   4 24374.1 1394.39  60
   2  -6   4 24073.6 724.010  42
   2  -6   5 3373.57 279.462  39
   2  -6   5 3370.67 542.146  60
   2  -6   5 2974.33 513.451  61
   2  -6   5 4018.56 602.111  18
   2  -6   5 2856.19 508.564  57
   2  -6   5 3138.26 528.970  55
   2  -6   5 4029.82 291.359  28
   2  -6   5 2771.22 523.698  53
   2  -6   5 3171.87 534.425  52
   2  -6   5 3787.43 293.677   8
   2  -6   5 3500.23 300.052  45
   2  -6   5 3066.03 267.723  43
   2  -6   5 4222.54 311.773  42
   2  -6   6 2172.16 236.455  39
   2  -6   6 2222.85 476.941  18
   2  -6   6 2271.78 223.076  28
   2  -6   6 2316.43 228.937   8
   2  -6   6 2155.54 210.200  42
   2  -6   7 1031.36 168.562  39
   2  -6   7 1057.89 344.375  18
   2  -6   7 1250.33 172.748  28
   2  -6   7 1273.81 179.080   8
   2  -6   7 1104.31 201.957  50
   2  -6   7 1260.99 164.049  42
   2  -6   8 6254.71 345.681  28
   2  -6   8 6017.34 336.477   8
   2  -6   8 6482.38 325.773  42
   2  -6   9 7720.98 358.115  28
   2  -6   9 8579.49 357.952   8
   2  -6   9 8175.55 331.311  42
   2  -6  10 4366.21 208.316  42
   2  -6  11 1379.74 97.5222  51
   2  -6  11 1284.55 90.6265  42
   2  -5 -10 3648.83 179.155  40
   2  -5 -10 3052.32 154.696  39
   2  -5 -10 3652.37 181.064  45
   2  -5 -10 3217.78 168.518  43
   2  -5  -9 4512.40 232.209  40
   2  -5  -9 4846.67 244.757  43
   2  -5  -8 3417.70 222.793  40
   2  -5  -8 3199.50 475.425  24
   2  -5  -8 3429.29 231.478  45
   2  -5  -8 3433.09 236.879  43
   2  -5  -7 21008.0 601.069  40
   2  -5  -7 18880.9 1182.25  21
   2  -5  -7 18233.2 1169.15  16
   2  -5  -7 22014.0 1275.33  24
   2  -5  -7 20868.3 601.987  45
   2  -5  -7 22476.7 623.975  43
   2  -5  -6 27415.3 708.674  40
   2  -5  -6 27582.7 1434.24  21
   2  -5  -6 27346.3 1406.19  16
   2  -5  -6 30499.1 1491.22  24
   2  -5  -6 27317.9 702.149  45
   2  -5  -6 27865.8 717.113  43
   2  -5  -5 13573.2 487.229  40
   2  -5  -5 13544.0 975.194  12
   2  -5  -5 15504.4 1036.35  21
   2  -5  -5 16379.0 1077.20  11
   2  -5  -5 15744.1 1008.69  64
   2  -5  -5 14027.9 922.272  61
   2  -5  -5 13658.9 912.052  60
   2  -5  -5 13676.8 905.863  59
   2  -5  -5 15095.7 954.987  58
   2  -5  -5 14557.8 938.105  53
   2  -5  -5 12817.6 913.998  16
   2  -5  -5 13326.9 916.816  52
   2  -5  -5 15974.9 1044.56  24
   2  -5  -5 15819.4 523.490  45
   2  -5  -5 15526.5 516.934  43
   2  -5  -4 585.875 115.607  40
   2  -5  -4 768.325 234.046  12
   2  -5  -4 544.382 200.744  21
   2  -5  -4 960.976 264.299  11
   2  -5  -4 446.932 199.112  64
   2  -5  -4 536.902 178.076  61
   2  -5  -4 801.998 222.770  60
   2  -5  -4 763.547 218.431  59
   2  -5  -4 688.539 192.066  58
   2  -5  -4 768.416 215.194  53
   2  -5  -4 616.247 207.037  54
   2  -5  -4 727.127 218.573  52
   2  -5  -4 744.844 233.386  16
   2  -5  -4 716.389 118.497  45
   2  -5  -4 576.858 218.202  24
   2  -5  -4 776.895 125.341  43
   2  -5  -3 21668.8 1133.49  12
   2  -5  -3 24397.9 1192.38  21
   2  -5  -3 21795.6 1107.82  64
   2  -5  -3 20217.9 991.348  61
   2  -5  -3 20661.2 994.996  59
   2  -5  -3 20856.9 1003.64  58
   2  -5  -3 20040.3 991.051  54
   2  -5  -3 21541.6 1017.35  53
   2  -5  -3 23254.4 1081.45  16
   2  -5  -3 20975.1 1023.63  52
   2  -5  -3 21760.3 1135.68   1
   2  -5  -3 23276.7 1123.15  24
   2  -5  -3 21060.6 1013.18  60
   2  -5  -2 522.900 199.922   1
   2  -5  -2 731.588 228.566  12
   2  -5  -2 467.043 183.613  21
   2  -5  -2 658.406 201.741  11
   2  -5  -2 665.499 191.339  61
   2  -5  -2 787.916 225.824  64
   2  -5  -2 525.050 172.431  60
   2  -5  -2 536.665 171.338  59
   2  -5  -2 631.999 185.889  58
   2  -5  -2 644.966 203.143  18
   2  -5  -2 674.809 180.426  54
   2  -5  -2 640.956 182.395  53
   2  -5  -2 571.919 175.766  52
   2  -5  -2 721.426 190.158  16
   2  -5  -2 596.805 186.947  24
   2  -5  -1 1708.05 320.794  12
   2  -5  -1 1987.89 327.607  64
   2  -5  -1 1629.97 314.652  21
   2  -5  -1 1664.41 272.966  61
   2  -5  -1 1645.28 275.552  60
   2  -5  -1 1494.52 263.007  59
   2  -5  -1 1653.76 298.627  18
   2  -5  -1 1736.69 279.909  54
   2  -5  -1 1709.59 271.741  53
   2  -5  -1 1792.10 272.449  16
   2  -5  -1 1611.03 268.747  52
   2  -5  -1 2243.11 361.054   1
   2  -5  -1 1684.50 289.226  24
   2  -5   0 37359.8 1431.73  12
   2  -5   0 35333.7 1383.44  21
   2  -5   0 39752.4 1466.96  64
   2  -5   0 35123.1 1255.89  61
   2  -5   0 33550.2 1230.95  60
   2  -5   0 33630.0 1216.79  59
   2  -5   0 39018.2 1459.62  18
   2  -5   0 32065.9 1247.33  55
   2  -5   0 35217.7 1252.84  53
   2  -5   0 36991.2 1429.44   1
   2  -5   0 34606.8 1266.34  52
   2  -5   0 37204.0 1351.31  24
   2  -5   1 10109.9 751.660  12
   2  -5   1 9848.79 735.170  21
   2  -5   1 9083.90 711.503  64
   2  -5   1 9691.16 662.935  61
   2  -5   1 9515.38 660.668  60
   2  -5   1 8728.67 629.389  59
   2  -5   1 10596.2 770.147  18
   2  -5   1 9848.56 692.525  55
   2  -5   1 9321.64 660.811  54
   2  -5   1 9954.31 674.684  53
   2  -5   1 10014.8 718.539   1
   2  -5   1 9660.64 672.774  52
   2  -5   1 9764.78 699.614  24
   2  -5   2 51387.8 1806.91  12
   2  -5   2 50561.9 1709.10  55
   2  -5   2 51679.5 1796.17  21
   2  -5   2 51598.2 1796.30  64
   2  -5   2 52938.4 1683.21  59
   2  -5   2 52908.6 1702.05  61
   2  -5   2 50164.7 1655.05  60
   2  -5   2 51787.6 1816.65  18
   2  -5   2 50233.8 1675.64  53
   2  -5   2 55198.7 1770.57   1
   2  -5   2 49839.0 1668.92  54
   2  -5   2 52045.2 1709.60  52
   2  -5   3 42099.5 1707.30  12
   2  -5   3 41843.7 1680.08  21
   2  -5   3 42138.6 1677.63  64
   2  -5   3 40743.0 1580.42  61
   2  -5   3 39779.6 1560.57  60
   2  -5   3 42210.3 1700.92  18
   2  -5   3 41599.0 1630.90  55
   2  -5   3 41012.5 1580.87  54
   2  -5   3 39992.9 1576.72  53
   2  -5   3 40631.2 1596.38  52
   2  -5   3 43687.0 1593.36   1
   2  -5   4 38504.5 1684.63  21
   2  -5   4 35921.9 1631.58  64
   2  -5   4 38287.0 1623.81  61
   2  -5   4 35871.9 1581.22  60
   2  -5   4 42806.5 1782.20  18
   2  -5   4 34565.3 1569.19  57
   2  -5   4 36133.4 1618.68  55
   2  -5   4 35889.1 1583.49  54
   2  -5   4 35189.0 1580.72  53
   2  -5   4 37736.2 1639.06  52
   2  -5   4 39741.0 1543.27   1
   2  -5   5 6295.62 370.892  39
   2  -5   5 6370.23 715.302  21
   2  -5   5 6972.24 723.368  60
   2  -5   5 7058.50 744.448  64
   2  -5   5 6931.83 725.934  61
   2  -5   5 7262.15 767.028  18
   2  -5   5 6124.19 687.677  57
   2  -5   5 6509.84 716.276  55
   2  -5   5 5204.61 631.566  54
   2  -5   5 5871.56 348.936  28
   2  -5   5 6174.33 694.488  53
   2  -5   5 6715.35 718.534  52
   2  -5   5 5815.01 354.569   8
   2  -5   5 5271.63 361.874  45
   2  -5   5 6101.85 349.527  42
   2  -5   6 9778.09 473.227  39
   2  -5   6 9783.82 925.901  18
   2  -5   6 7932.47 817.646  57
   2  -5   6 8613.37 870.800  55
   2  -5   6 9871.28 461.077  28
   2  -5   6 8430.02 843.993  52
   2  -5   6 9358.77 455.107   8
   2  -5   6 8068.46 822.353  61
   2  -5   6 9270.93 882.132  53
   2  -5   6 10321.5 458.265  42
   2  -5   7 8819.22 453.075  39
   2  -5   7 8419.54 433.062   8
   2  -5   7 8860.03 437.169  28
   2  -5   7 8988.58 918.624  18
   2  -5   7 8700.71 414.529  42
   2  -5   8 12948.3 1101.94  18
   2  -5   8 12804.5 513.802  28
   2  -5   8 12263.4 505.641   8
   2  -5   8 12667.9 489.754  42
   2  -5   9 2174.50 209.440  28
   2  -5   9 2451.47 214.289   8
   2  -5   9 2242.18 184.097  44
   2  -5   9 2632.47 208.670  42
   2  -5  10 2692.89 200.887  28
   2  -5  10 3052.33 214.117   8
   2  -5  10 2533.21 171.349  44
   2  -5  10 3091.53 201.445  42
   2  -5  11 8666.09 299.619  51
   2  -5  11 8891.98 285.570  42
   2  -4 -11 422.656 61.8253  40
   2  -4 -11 305.659 61.0957  45
   2  -4 -11 309.429 49.3146  43
   2  -4 -10 309.982 79.2865  40
   2  -4 -10 293.037 73.6005  43
   2  -4  -9 6100.96 293.762  40
   2  -4  -9 5545.80 628.238  24
   2  -4  -9 5693.20 295.847  45
   2  -4  -9 6354.93 296.305  43
   2  -4  -8 14829.6 500.153  40
   2  -4  -8 12185.6 939.119  21
   2  -4  -8 12546.9 1001.86  16
   2  -4  -8 15037.3 1057.85  24
   2  -4  -8 14260.4 493.692  45
   2  -4  -7 25011.6 688.971  40
   2  -4  -7 25098.6 1356.46  21
   2  -4  -7 25289.5 1395.93  16
   2  -4  -7 28435.9 1460.02  24
   2  -4  -7 25107.5 685.875  45
   2  -4  -6 12086.6 469.853  40
   2  -4  -6 12518.7 926.593  12
   2  -4  -6 12780.1 921.146  21
   2  -4  -6 13754.2 999.876  11
   2  -4  -6 12547.9 869.075  64
   2  -4  -6 10580.7 784.002  61
   2  -4  -6 10034.5 764.846  60
   2  -4  -6 10193.0 770.835  59
   2  -4  -6 10706.7 788.213  58
   2  -4  -6 9807.46 753.684  53
   2  -4  -6 10143.8 782.254  52
   2  -4  -6 14433.0 1008.88  16
   2  -4  -6 13232.7 960.090  24
   2  -4  -6 13564.6 492.016  45
   2  -4  -5 11170.2 816.439  12
   2  -4  -5 11687.8 839.201  21
   2  -4  -5 11300.5 851.135  11
   2  -4  -5 10835.0 766.629  64
   2  -4  -5 10376.1 724.285  61
   2  -4  -5 9987.66 715.276  60
   2  -4  -5 11027.9 746.325  59
   2  -4  -5 10620.2 734.420  58
   2  -4  -5 11624.2 813.274  18
   2  -4  -5 10115.8 717.247  53
   2  -4  -5 10418.0 745.776  52
   2  -4  -5 10613.5 804.789  16
   2  -4  -5 11332.1 834.728  24
   2  -4  -5 11050.3 427.421  45
   2  -4  -4 3023.42 398.579  12
   2  -4  -4 3207.66 419.527  21
   2  -4  -4 3182.26 421.861  11
   2  -4  -4 3113.95 367.462  61
   2  -4  -4 2940.40 362.331  60
   2  -4  -4 2631.19 342.851  59
   2  -4  -4 3199.67 372.965  58
   2  -4  -4 3860.52 449.654  18
   2  -4  -4 2898.27 378.449  64
   2  -4  -4 3180.00 366.288  53
   2  -4  -4 3066.54 372.756  52
   2  -4  -4 2909.98 395.264  16
   2  -4  -4 3164.89 419.601  24
   2  -4  -3 2120.70 322.971  12
   2  -4  -3 1865.89 329.689  21
   2  -4  -3 1851.16 307.636  11
   2  -4  -3 1908.39 297.366  64
   2  -4  -3 2172.10 288.756  61
   2  -4  -3 1947.48 280.640  60
   2  -4  -3 1990.48 276.377  59
   2  -4  -3 1852.19 271.072  58
   2  -4  -3 2374.58 334.547  18
   2  -4  -3 1851.58 283.963  54
   2  -4  -3 1878.92 275.660  53
   2  -4  -3 1815.17 276.474  52
   2  -4  -3 2180.43 315.020  16
   2  -4  -3 1999.44 316.967  24
   2  -4  -3 2048.75 292.944  14
   2  -4  -2 612.917 161.197  59
   2  -4  -2 492.176 177.774  12
   2  -4  -2 431.291 158.218  21
   2  -4  -2 455.357 154.607  64
   2  -4  -2 529.508 144.222  62
   2  -4  -2 478.617 136.171  61
   2  -4  -2 423.067 132.751  60
   2  -4  -2 570.618 160.485  58
   2  -4  -2 350.558 151.540  18
   2  -4  -2 843.810 185.753  54
   2  -4  -2 572.667 157.702  53
   2  -4  -2 601.347 158.290  52
   2  -4  -2 449.849 160.869  11
   2  -4  -2 583.198 173.315  16
   2  -4  -2 462.302 168.557  24
   2  -4  -2 765.508 195.807   1
   2  -4  -1 9806.65 629.936  12
   2  -4  -1 8913.28 610.388  21
   2  -4  -1 10206.6 625.401  11
   2  -4  -1 9434.93 562.667  61
   2  -4  -1 9824.50 572.169  60
   2  -4  -1 9410.33 551.725  59
   2  -4  -1 9507.16 626.737  18
   2  -4  -1 9293.20 551.895  58
   2  -4  -1 9219.61 555.667  54
   2  -4  -1 9867.84 565.489  53
   2  -4  -1 9516.84 557.092  16
   2  -4  -1 9017.98 554.551  52
   2  -4  -1 8346.22 581.337  64
   2  -4  -1 9832.94 609.549  24
   2  -4   0 10613.6 655.033  12
   2  -4   0 10614.0 661.193  21
   2  -4   0 12008.8 696.168  64
   2  -4   0 11340.4 610.280  61
   2  -4   0 10968.0 605.891  60
   2  -4   0 10891.1 598.239  59
   2  -4   0 11337.8 698.319  18
   2  -4   0 12266.7 713.551   1
   2  -4   0 11721.5 638.634  54
   2  -4   0 11437.1 613.826  53
   2  -4   0 10550.1 573.250  16
   2  -4   0 11163.2 622.101  52
   2  -4   0 10888.8 633.113  24
   2  -4   1 5357.40 478.329  12
   2  -4   1 5303.54 481.680  21
   2  -4   1 5613.34 490.678  64
   2  -4   1 4858.54 415.959  61
   2  -4   1 5726.33 453.403  60
   2  -4   1 4600.44 406.660  59
   2  -4   1 4940.86 477.657  18
   2  -4   1 5044.68 451.801   1
   2  -4   1 4913.08 433.622  55
   2  -4   1 5074.24 439.333  54
   2  -4   1 5436.74 442.649  53
   2  -4   1 4892.72 423.673  52
   2  -4   1 4792.30 428.531  24
   2  -4   2 69166.9 1887.36  12
   2  -4   2 65534.5 1833.23  21
   2  -4   2 64207.3 1792.89  64
   2  -4   2 63562.4 1705.67  61
   2  -4   2 65006.4 1724.37  53
   2  -4   2 64752.8 1721.72  60
   2  -4   2 64498.9 1713.02  59
   2  -4   2 67984.9 1928.33  18
   2  -4   2 68501.0 1780.14   1
   2  -4   2 62594.2 1745.54  55
   2  -4   2 66702.7 1773.80  54
   2  -4   2 64866.3 1755.97  52
   2  -4   3 123097. 2805.89  12
   2  -4   3 123692. 2798.27  21
   2  -4   3 133052. 2855.83  64
   2  -4   3 118932. 2649.25  61
   2  -4   3 134402. 2946.59  18
   2  -4   3 126418. 2771.31  55
   2  -4   3 135296. 2846.46  54
   2  -4   3 132938. 2674.97   1
   2  -4   3 122771. 2678.46  53
   2  -4   3 124210. 2719.38  52
   2  -4   3 124377. 2697.15  60
   2  -4   4 24188.3 1206.41  21
   2  -4   4 24299.6 1192.73  64
   2  -4   4 23858.3 1158.23  60
   2  -4   4 24527.3 1235.80  18
   2  -4   4 23108.4 1144.72  57
   2  -4   4 23867.9 1180.16  55
   2  -4   4 23776.2 1188.21  54
   2  -4   4 23715.6 1147.27  61
   2  -4   4 22591.4 1129.58  53
   2  -4   4 26198.1 1114.02   1
   2  -4   4 24436.9 1183.31  52
   2  -4   5 2797.16 444.655  21
   2  -4   5 3337.31 481.193  64
   2  -4   5 2910.27 431.379  61
   2  -4   5 3401.08 472.896  60
   2  -4   5 3045.38 469.887  18
   2  -4   5 2846.73 433.854  57
   2  -4   5 2945.03 446.315  55
   2  -4   5 2689.25 427.271  54
   2  -4   5 2512.66 410.382  53
   2  -4   5 2671.22 422.693  52
   2  -4   5 2710.77 374.358   1
   2  -4   6 11628.1 911.224  61
   2  -4   6 11897.4 950.477  18
   2  -4   6 12171.3 943.403  57
   2  -4   6 11047.9 918.365  55
   2  -4   6 10076.1 875.755  54
   2  -4   6 11016.6 889.702  53
   2  -4   6 11646.8 929.137  52
   2  -4   6 10201.0 459.888   8
   2  -4   6 10494.1 448.683  42
   2  -4   7 51035.4 1140.27  39
   2  -4   7 53160.3 2114.25  18
   2  -4   7 45373.7 1962.72  57
   2  -4   7 45984.8 2004.86  55
   2  -4   7 47262.1 2068.02   9
   2  -4   7 46166.9 1069.03  28
   2  -4   7 45711.1 1940.23  53
   2  -4   7 48733.5 1088.73   8
   2  -4   7 43808.5 997.052  32
   2  -4   7 43714.4 1935.30  52
   2  -4   7 47069.0 1088.00  44
   2  -4   7 49109.2 1048.85  42
   2  -4   7 45778.3 1937.54  61
   2  -4   8 12021.4 1051.30  18
   2  -4   8 11473.6 456.229  32
   2  -4   8 10847.4 486.013  28
   2  -4   8 10640.7 473.539   8
   2  -4   8 11407.1 488.745  44
   2  -4   8 10714.6 448.994  42
   2  -4   9 10597.2 459.025  28
   2  -4   9 10568.8 456.786   8
   2  -4   9 11162.9 456.295  44
   2  -4   9 10775.0 439.216  42
   2  -4  10 12960.8 411.194  32
   2  -4  10 12039.8 456.428   8
   2  -4  10 12575.5 436.364  44
   2  -4  10 12847.1 442.663  42
   2  -4  11 1975.99 135.682  32
   2  -4  11 1963.19 146.629  44
   2  -4  11 2050.88 158.160  42
   2  -4  12 3199.64 122.230  32
   2  -4  12 3469.10 137.569  44
   2  -3 -11 8671.77 281.570  40
   2  -3 -11 8264.93 265.086  43
   2  -3 -10 1.69887 59.6616  40
   2  -3 -10 57.3052 71.2246  45
   2  -3  -9 14789.2 491.673  40
   2  -3  -9 15137.7 1058.62  24
   2  -3  -8 16808.0 561.204  40
   2  -3  -8 15440.8 1058.91  21
   2  -3  -8 16680.8 1177.96  16
   2  -3  -8 16322.5 1127.14  24
   2  -3  -7 1209.73 292.206  64
   2  -3  -7 1406.34 173.463  40
   2  -3  -7 1119.42 306.858  12
   2  -3  -7 1141.86 305.552  21
   2  -3  -7 1063.03 312.962  16
   2  -3  -7 1445.92 349.969  24
   2  -3  -6 759.839 132.282  40
   2  -3  -6 902.729 241.497  12
   2  -3  -6 818.811 251.175  21
   2  -3  -6 1001.92 290.165  11
   2  -3  -6 812.167 217.234  64
   2  -3  -6 872.237 230.817  61
   2  -3  -6 758.899 209.909  60
   2  -3  -6 859.905 212.199  59
   2  -3  -6 820.856 218.583  58
   2  -3  -6 878.436 219.213  53
   2  -3  -6 653.334 195.460  52
   2  -3  -6 944.996 282.960  16
   2  -3  -6 708.921 248.247  24
   2  -3  -5 16829.5 931.508  12
   2  -3  -5 16869.9 965.179  21
   2  -3  -5 16127.3 965.482  11
   2  -3  -5 16839.2 893.964  64
   2  -3  -5 15699.8 819.882  61
   2  -3  -5 15795.2 825.831  60
   2  -3  -5 15804.5 819.460  59
   2  -3  -5 15544.3 815.899  58
   2  -3  -5 15803.4 814.175  53
   2  -3  -5 15893.3 838.108  52
   2  -3  -5 17239.2 997.245  16
   2  -3  -5 16543.0 986.439  24
   2  -3  -5 14886.2 812.031  14
   2  -3  -4 27234.0 1114.08  12
   2  -3  -4 27783.9 1164.73  21
   2  -3  -4 29718.8 1194.90  11
   2  -3  -4 26403.8 999.997  61
   2  -3  -4 27786.4 1020.99  59
   2  -3  -4 29700.9 1050.02  58
   2  -3  -4 25917.8 1053.90  64
   2  -3  -4 29030.5 1041.95  53
   2  -3  -4 29128.2 1061.80  52
   2  -3  -4 30777.2 1228.01  16
   2  -3  -4 29894.3 1228.71  24
   2  -3  -4 26318.0 999.482  60
   2  -3  -4 27504.5 1034.31  14
   2  -3  -3 2512.38 314.767  12
   2  -3  -3 2586.80 331.037  21
   2  -3  -3 2516.82 321.003  11
   2  -3  -3 2270.31 268.151  61
   2  -3  -3 2399.04 276.599  60
   2  -3  -3 2111.12 256.748  59
   2  -3  -3 2375.04 272.872  58
   2  -3  -3 2966.78 365.739  18
   2  -3  -3 2329.37 295.257  64
   2  -3  -3 2478.89 278.851  53
   2  -3  -3 2338.56 278.262  52
   2  -3  -3 2438.80 316.878  16
   2  -3  -3 2241.88 311.817  24
   2  -3  -3 2608.63 299.020  14
   2  -3  -2 261938. 3927.16  12
   2  -3  -2 269756. 3724.10  62
   2  -3  -2 266759. 4014.31  21
   2  -3  -2 278113. 3952.38  11
   2  -3  -2 279528. 3769.82  61
   2  -3  -2 264823. 3717.18  60
   2  -3  -2 268482. 3725.40  59
   2  -3  -2 259478. 3700.36  58
   2  -3  -2 271304. 3813.70  54
   2  -3  -2 275302. 3750.12  53
   2  -3  -2 263933. 3745.52  52
   2  -3  -2 276267. 3920.00  16
   2  -3  -2 259613. 3984.74  24
   2  -3  -2 291274. 3938.16  14
   2  -3  -2 266169. 3908.90  64
   2  -3  -1 19003.8 771.689  12
   2  -3  -1 18573.3 787.762  21
   2  -3  -1 18743.2 739.922  11
   2  -3  -1 19133.6 773.688  64
   2  -3  -1 19415.3 719.985  62
   2  -3  -1 18183.0 693.399  61
   2  -3  -1 18814.7 700.378  60
   2  -3  -1 17986.8 681.543  59
   2  -3  -1 18249.3 690.216  58
   2  -3  -1 19613.0 827.151  18
   2  -3  -1 20160.2 741.954  54
   2  -3  -1 19385.0 703.231  53
   2  -3  -1 18359.9 696.671  16
   2  -3  -1 18028.1 695.094  52
   2  -3  -1 17556.7 741.905  24
   2  -3  -1 18133.1 749.753  14
   2  -3   0 40255.5 1150.60  12
   2  -3   0 41501.0 1197.98  21
   2  -3   0 42688.5 1127.36  11
   2  -3   0 40601.8 1071.29  61
   2  -3   0 41328.0 1073.67  59
   2  -3   0 42584.4 1243.88  18
   2  -3   0 44605.8 1143.89  54
   2  -3   0 42634.7 1091.71  53
   2  -3   0 37287.4 977.487  16
   2  -3   0 39363.8 1076.41  52
   2  -3   0 44201.3 1199.27  64
   2  -3   0 43635.7 1154.61  62
   2  -3   0 35759.6 1066.59  24
   2  -3   0 42725.8 1098.34  60
   2  -3   1 27947.9 970.748  12
   2  -3   1 25458.8 944.968  21
   2  -3   1 28234.7 970.642  64
   2  -3   1 26618.4 891.177  61
   2  -3   1 25778.7 873.561  59
   2  -3   1 27175.4 1008.13  18
   2  -3   1 26635.1 890.612  60
   2  -3   1 25697.5 904.681  55
   2  -3   1 28160.0 933.657  54
   2  -3   1 26740.1 894.650  53
   2  -3   1 26481.1 905.520  52
   2  -3   2 11529.8 650.101  12
   2  -3   2 11001.3 599.755  60
   2  -3   2 11705.9 653.426  21
   2  -3   2 9891.59 530.640  19
   2  -3   2 11180.5 599.917  61
   2  -3   2 11456.8 606.651  59
   2  -3   2 11845.7 688.892  18
   2  -3   2 10926.4 616.900  55
   2  -3   2 11595.6 635.582  54
   2  -3   2 11416.4 607.748  53
   2  -3   2 11274.1 612.505  52
   2  -3   2 11306.4 641.602  64
   2  -3   3 22339.3 970.353  12
   2  -3   3 21494.9 949.070  21
   2  -3   3 22097.3 959.295  64
   2  -3   3 19487.6 813.904  19
   2  -3   3 21549.5 907.628  61
   2  -3   3 22854.3 1022.35  18
   2  -3   3 20865.8 923.570  55
   2  -3   3 21204.2 947.562  54
   2  -3   3 21560.4 911.258  53
   2  -3   3 21416.5 923.200  52
   2  -3   3 21542.0 914.039  60
   2  -3   4 152481. 3039.78  21
   2  -3   4 155514. 3051.68  64
   2  -3   4 146765. 2766.73  19
   2  -3   4 157124. 3155.63  18
   2  -3   4 156248. 2993.44  61
   2  -3   4 159084. 3027.34  60
   2  -3   4 148252. 2974.07  57
   2  -3   4 165667. 2834.42   1
   2  -3   4 162211. 3110.18  55
   2  -3   4 150543. 3090.10  54
   2  -3   4 159407. 3024.23  53
   2  -3   4 156637. 3035.69  52
   2  -3   5 17570.9 887.607  19
   2  -3   5 18014.0 997.110  64
   2  -3   5 18060.8 983.884  61
   2  -3   5 17517.8 968.578  60
   2  -3   5 18056.9 1018.14  18
   2  -3   5 17414.2 978.084  57
   2  -3   5 17851.5 1003.54  55
   2  -3   5 17656.5 1027.07  54
   2  -3   5 17501.5 966.747  53
   2  -3   5 16607.1 952.914  52
   2  -3   6 3045.01 429.404  61
   2  -3   6 3506.82 500.285  18
   2  -3   6 3094.46 455.703  57
   2  -3   6 3501.69 482.535  55
   2  -3   6 3216.16 472.410  54
   2  -3   6 2845.52 415.839  53
   2  -3   6 3552.68 480.624  52
   2  -3   7 44104.7 1059.83  39
   2  -3   7 51115.5 1943.10  61
   2  -3   7 54549.2 2053.09  18
   2  -3   7 47415.1 1904.30  57
   2  -3   7 52421.1 2018.16  55
   2  -3   7 50749.0 1942.91  53
   2  -3   7 45692.1 1042.11   8
   2  -3   7 49028.7 1941.17  52
   2  -3   7 47045.9 1081.02  44
   2  -3   7 48899.6 1030.99  42
   2  -3   8 3789.45 558.028  61
   2  -3   8 4919.98 653.355  18
   2  -3   8 5011.87 311.275  32
   2  -3   8 3978.62 568.251  57
   2  -3   8 4323.60 604.904  55
   2  -3   8 5204.07 719.846   9
   2  -3   8 4679.49 314.965  28
   2  -3   8 3648.55 527.979  53
   2  -3   8 4722.40 308.497   8
   2  -3   8 4072.95 589.974  52
   2  -3   8 5124.80 374.101  50
   2  -3   8 5152.73 334.768  44
   2  -3   8 5270.65 314.383  42
   2  -3   9 16705.5 546.307  32
   2  -3   9 15004.6 557.312   8
   2  -3   9 15913.2 575.434  44
   2  -3   9 15403.7 538.563  42
   2  -3  10 11834.6 427.880  32
   2  -3  10 11201.4 450.145   8
   2  -3  10 11557.7 453.604  44
   2  -3  10 12320.2 450.307  42
   2  -3  11 14459.6 420.830  32
   2  -3  11 14418.9 442.522  44
   2  -3  11 14938.4 445.032  42
   2  -3  12 1229.24 101.075  32
   2  -3  12 1223.74 105.632  44
   2  -3  12 1255.22 108.941  42
   2  -2 -12 592.279 60.9316  40
   2  -2 -12 547.359 58.6526  45
   2  -2 -10 6955.15 693.758  24
   2  -2  -9 3488.10 505.945  21
   2  -2  -9 3920.79 586.492  16
   2  -2  -9 3552.00 537.407  24
   2  -2  -8 252.073 180.990  21
   2  -2  -8 231.053 167.790  64
   2  -2  -8 229.418 190.853  16
   2  -2  -8 297.657 214.912  24
   2  -2  -7 2437.13 405.762  12
   2  -2  -7 3273.48 473.889  21
   2  -2  -7 2685.78 474.979  11
   2  -2  -7 2351.70 430.722  65
   2  -2  -7 2622.09 400.135  64
   2  -2  -7 3128.87 501.126  16
   2  -2  -7 3197.69 506.608  24
   2  -2  -6 13139.2 848.671  12
   2  -2  -6 14726.4 920.845  21
   2  -2  -6 13026.7 928.577  11
   2  -2  -6 13184.4 937.541  65
   2  -2  -6 9978.06 656.727  61
   2  -2  -6 10782.0 687.367  60
   2  -2  -6 11905.7 725.551  59
   2  -2  -6 11311.0 707.023  58
   2  -2  -6 10789.9 679.912  53
   2  -2  -6 13945.6 968.348  16
   2  -2  -6 13584.8 829.797  64
   2  -2  -6 13319.3 934.872  24
   2  -2  -5 2715.92 352.303  12
   2  -2  -5 3040.08 398.639  21
   2  -2  -5 3076.83 407.692  11
   2  -2  -5 2906.92 409.216  65
   2  -2  -5 2997.72 359.841  64
   2  -2  -5 2828.51 320.326  61
   2  -2  -5 2619.38 308.442  60
   2  -2  -5 3308.21 343.108  59
   2  -2  -5 3026.06 330.299  58
   2  -2  -5 2807.98 328.357  53
   2  -2  -5 2526.70 392.781  16
   2  -2  -5 2544.61 382.801  24
   2  -2  -4 8539.46 565.025  12
   2  -2  -4 8934.84 615.363  21
   2  -2  -4 8466.46 603.392  11
   2  -2  -4 8709.77 611.435  65
   2  -2  -4 8614.56 558.950  64
   2  -2  -4 9759.36 533.441  61
   2  -2  -4 8254.65 495.051  60
   2  -2  -4 7866.94 482.823  59
   2  -2  -4 7895.53 485.744  58
   2  -2  -4 8205.64 502.801  53
   2  -2  -4 7832.24 598.604  16
   2  -2  -4 8821.07 643.287  24
   2  -2  -3 13705.6 654.615  12
   2  -2  -3 13914.4 698.038  21
   2  -2  -3 14153.8 701.673  11
   2  -2  -3 12280.4 635.567  65
   2  -2  -3 13834.5 649.324  64
   2  -2  -3 13955.0 585.679  61
   2  -2  -3 14512.9 598.787  60
   2  -2  -3 14023.3 586.594  59
   2  -2  -3 13683.2 583.848  58
   2  -2  -3 13404.5 577.284  53
   2  -2  -3 14035.5 599.373  52
   2  -2  -3 14636.8 735.618  16
   2  -2  -3 14404.8 751.737  24
   2  -2  -2 52708.2 1268.78  12
   2  -2  -2 53676.4 1345.78  21
   2  -2  -2 54260.1 1301.99  11
   2  -2  -2 45880.7 1121.42  65
   2  -2  -2 56019.6 1274.78  64
   2  -2  -2 52431.8 1147.30  61
   2  -2  -2 54266.7 1162.08  60
   2  -2  -2 54297.6 1157.73  59
   2  -2  -2 54327.9 1162.88  58
   2  -2  -2 53304.3 1157.07  53
   2  -2  -2 54801.0 1183.05  52
   2  -2  -2 56416.1 1342.35  16
   2  -2  -2 47638.7 1310.58  24
   2  -2  -2 53395.9 1251.99  14
   2  -2  -1 42809.0 1074.82  12
   2  -2  -1 42765.2 1128.32  21
   2  -2  -1 43402.1 1051.45  11
   2  -2  -1 44885.3 1005.90  60
   2  -2  -1 40993.7 1040.42  64
   2  -2  -1 43215.2 1030.59  62
   2  -2  -1 44293.5 1000.29  61
   2  -2  -1 45880.0 1008.39  59
   2  -2  -1 44046.5 995.855  58
   2  -2  -1 44620.3 1054.14  54
   2  -2  -1 43916.5 982.734  53
   2  -2  -1 44623.8 1015.24  52
   2  -2  -1 38229.8 979.921  16
   2  -2  -1 41652.4 1071.23  14
   2  -2   0 351142. 4434.95  12
   2  -2   0 356215. 4523.29  21
   2  -2   0 350952. 4296.91  11
   2  -2   0 338951. 4390.55  64
   2  -2   0 355117. 4327.34  61
   2  -2   0 358698. 4336.85  60
   2  -2   0 364570. 4335.52  59
   2  -2   0 358027. 4399.81  62
   2  -2   0 380788. 4645.55  18
   2  -2   0 366488. 4418.24  54
   2  -2   0 367361. 4340.10  53
   2  -2   0 342626. 4319.20  52
   2  -2   0 354833. 4485.22  14
   2  -2   1 160948. 2475.93  12
   2  -2   1 161573. 2520.49  21
   2  -2   1 159185. 2412.78  61
   2  -2   1 160491. 2424.18  60
   2  -2   1 155816. 2390.39  59
   2  -2   1 163205. 2597.58  18
   2  -2   1 152722. 2433.94  55
   2  -2   1 158238. 2453.25  54
   2  -2   1 165139. 2440.77  53
   2  -2   1 158515. 2438.30  52
   2  -2   1 159231. 2460.86  64
   2  -2   2 271264. 3755.45  12
   2  -2   2 272635. 3771.91  21
   2  -2   2 288027. 3819.63  64
   2  -2   2 268591. 3669.88  19
   2  -2   2 264841. 3686.00  61
   2  -2   2 270089. 3710.42  60
   2  -2   2 267205. 3694.25  59
   2  -2   2 273851. 3887.79  18
   2  -2   2 274587. 3778.52  55
   2  -2   2 272373. 3788.42  54
   2  -2   2 271411. 3714.90  53
   2  -2   2 274292. 3743.93  52
   2  -2   3 14553.1 684.098  12
   2  -2   3 11891.4 559.066  22
   2  -2   3 13157.1 654.622  21
   2  -2   3 13583.3 663.948  64
   2  -2   3 13927.4 662.479  19
   2  -2   3 14135.4 666.154  60
   2  -2   3 13446.9 706.430  18
   2  -2   3 12736.6 642.144  57
   2  -2   3 14417.7 689.646  55
   2  -2   3 14222.2 710.429  54
   2  -2   3 13983.8 659.774  61
   2  -2   3 13857.2 655.086  53
   2  -2   3 13603.2 656.559  52
   2  -2   4 228209. 3679.48  21
   2  -2   4 239041. 3717.45  64
   2  -2   4 243670. 3702.02  19
   2  -2   4 237805. 3695.97  61
   2  -2   4 241397. 3710.62  60
   2  -2   4 235586. 3862.83  18
   2  -2   4 235025. 3718.04  57
   2  -2   4 235518. 3762.02  55
   2  -2   4 242673. 3870.71  54
   2  -2   4 236083. 3688.21  53
   2  -2   4 237887. 3720.43  52
   2  -2   5 17313.1 887.566  64
   2  -2   5 17765.0 899.946  61
   2  -2   5 17739.8 953.857  18
   2  -2   5 17200.1 906.175  57
   2  -2   5 17469.1 927.483  55
   2  -2   5 17521.4 953.182  54
   2  -2   5 17626.7 896.759  53
   2  -2   5 18369.9 920.490  60
   2  -2   5 17619.0 912.770  52
   2  -2   5 18611.7 906.541  19
   2  -2   6 58392.0 1856.76  61
   2  -2   6 62322.0 1971.99  18
   2  -2   6 58196.6 1870.28  57
   2  -2   6 56776.5 1889.54  55
   2  -2   6 59958.9 1974.20  54
   2  -2   6 58854.9 1857.13  53
   2  -2   6 58798.7 1887.55  52
   2  -2   7 8280.49 689.496  19
   2  -2   7 8255.14 727.898  61
   2  -2   7 8979.95 799.421  18
   2  -2   7 7912.49 724.912  57
   2  -2   7 8571.23 761.101  55
   2  -2   7 7978.12 718.111  53
   2  -2   7 7975.93 735.690  52
   2  -2   8 47893.7 1777.51  19
   2  -2   8 46136.5 1926.87  18
   2  -2   8 41996.0 1808.95  57
   2  -2   8 41699.3 1773.33  61
   2  -2   8 40837.2 1811.68  55
   2  -2   8 39318.9 1731.65  53
   2  -2   8 42073.2 987.337   8
   2  -2   8 46244.7 999.234  32
   2  -2   8 41502.3 1796.31  52
   2  -2   8 41874.9 1003.82  44
   2  -2   8 41509.1 947.046  42
   2  -2   9 7131.90 694.684  19
   2  -2   9 8675.46 392.121  32
   2  -2   9 7416.72 383.079   8
   2  -2   9 7111.47 381.309  44
   2  -2   9 7142.60 361.557  42
   2  -2  10 27737.2 748.335   8
   2  -2  10 28828.3 727.051  32
   2  -2  10 29396.0 763.182  44
   2  -2  10 29379.9 729.030  42
   2  -2  11 3490.48 217.308  32
   2  -2  11 3414.36 228.015  44
   2  -2  11 3309.38 211.033  42
   2  -2  12 15228.9 396.601  32
   2  -2  12 15474.3 413.428  44
   2  -2  12 14133.2 379.466  42
   2  -2  13 1345.16 88.0557  32
   2  -2  13 1214.52 88.3734  44
   2  -1 -12 3137.34 144.615  40
   2  -1 -10 7350.69 738.753  24
   2  -1  -9 15617.5 1078.90  21
   2  -1  -9 16806.9 1219.31  16
   2  -1  -9 17094.1 1195.10  24
   2  -1  -8 2556.10 441.430  12
   2  -1  -8 2522.15 454.471  21
   2  -1  -8 2896.71 522.819  65
   2  -1  -8 2807.50 429.855  64
   2  -1  -8 2603.78 494.997  16
   2  -1  -8 2235.66 444.218  24
   2  -1  -7 41523.7 1649.27  12
   2  -1  -7 42726.7 1715.09  21
   2  -1  -7 41566.0 1826.18  11
   2  -1  -7 43080.0 1918.66  65
   2  -1  -7 42114.4 1582.00  64
   2  -1  -7 42521.4 1842.16  16
   2  -1  -7 40674.3 1772.46  24
   2  -1  -6 18953.4 1008.78  12
   2  -1  -6 19612.6 1056.80  21
   2  -1  -6 20852.3 1220.11  65
   2  -1  -6 20154.7 1000.32  64
   2  -1  -6 21238.6 1213.08  16
   2  -1  -6 18622.7 1128.68  24
   2  -1  -5 33426.8 1224.35  12
   2  -1  -5 33009.2 1333.89  11
   2  -1  -5 31439.7 1379.77  65
   2  -1  -5 31651.2 1005.10  61
   2  -1  -5 33731.8 1035.02  60
   2  -1  -5 33590.9 1183.39  64
   2  -1  -5 33174.0 1028.00  59
   2  -1  -5 32445.2 1027.42  53
   2  -1  -5 32444.3 1396.19  16
   2  -1  -5 33166.8 1397.71  24
   2  -1  -4 18767.6 813.858  12
   2  -1  -4 19041.1 895.910  11
   2  -1  -4 18471.1 932.771  65
   2  -1  -4 19130.1 804.638  64
   2  -1  -4 20362.1 705.214  61
   2  -1  -4 19658.4 694.093  60
   2  -1  -4 19766.4 693.057  59
   2  -1  -4 19569.4 694.400  58
   2  -1  -4 19325.1 692.499  53
   2  -1  -4 17620.7 921.672  16
   2  -1  -4 18612.9 949.017  24
   2  -1  -3 47349.1 1231.87  12
   2  -1  -3 47851.5 1313.57  11
   2  -1  -3 47990.4 1216.15  64
   2  -1  -3 48646.2 1060.82  61
   2  -1  -3 53198.5 1105.20  60
   2  -1  -3 53741.0 1112.13  59
   2  -1  -3 54834.2 1121.76  58
   2  -1  -3 47801.0 1370.07  65
   2  -1  -3 51490.3 1097.82  53
   2  -1  -3 54557.2 1485.01  16
   2  -1  -3 48875.6 1435.24  24
   2  -1  -2 390617. 4753.08  12
   2  -1  -2 393960. 4925.39  21
   2  -1  -2 395173. 4822.67  11
   2  -1  -2 376789. 4686.48  64
   2  -1  -2 408148. 4501.62  61
   2  -1  -2 397427. 4489.21  60
   2  -1  -2 402127. 4484.90  59
   2  -1  -2 391396. 4472.78  58
   2  -1  -2 401537. 4491.77  53
   2  -1  -2 377131. 4466.85  52
   2  -1  -2 378095. 4936.77  16
   2  -1  -1 907180. 9638.89  12
   2  -1  -1 933454. 9844.03  21
   2  -1  -1 904730. 9422.70  59
   2  -1  -1 886820. 9549.90  11
   2  -1  -1 875534. 9601.62  64
   2  -1  -1 884475. 9408.40  61
   2  -1  -1 910985. 9426.18  58
   2  -1  -1 923704. 9425.59  53
   2  -1  -1 919447. 9453.05  52
   2  -1  -1 888391. 9627.96  14
   2  -1  -1 903430. 9426.65  60
   2  -1   0 542617. 5641.28  12
   2  -1   0 538032. 5744.89  21
   2  -1   0 532824. 5426.26  11
   2  -1   0 515673. 5637.91  62
   2  -1   0 516855. 5513.45  61
   2  -1   0 510130. 5491.96  59
   2  -1   0 545386. 5636.38  64
   2  -1   0 514304. 5508.64  53
   2  -1   0 494328. 5512.11  52
   2  -1   0 521898. 5526.82  60
   2  -1   0 502766. 5648.96  14
   2  -1   1 11517.2 442.305  12
   2  -1   1 11582.2 476.441  62
   2  -1   1 12264.7 462.472  61
   2  -1   1 11969.4 458.824  60
   2  -1   1 11420.4 446.551  59
   2  -1   1 12298.5 517.632  18
   2  -1   1 12300.5 479.540  55
   2  -1   1 12213.1 464.332  53
   2  -1   1 11315.5 453.426  52
   2  -1   1 11997.1 461.471  64
   2  -1   2 293408. 3761.67  12
   2  -1   2 310528. 3838.85  64
   2  -1   2 291009. 3875.65  19
   2  -1   2 301180. 3858.75  61
   2  -1   2 299352. 3472.30   5
   2  -1   2 299351. 3895.54  55
   2  -1   2 312795. 3936.36  54
   2  -1   2 300392. 3859.52  53
   2  -1   2 302683. 3883.01  52
   2  -1   2 295475. 3845.18  60
   2  -1   3 9053.26 469.090  12
   2  -1   3 9724.57 508.183  22
   2  -1   3 9467.42 510.310  60
   2  -1   3 10504.9 512.435  64
   2  -1   3 9544.98 531.074  19
   2  -1   3 9523.18 509.983  61
   2  -1   3 9107.78 532.516  18
   2  -1   3 9370.60 512.997  57
   2  -1   3 9797.41 528.418  55
   2  -1   3 9090.30 520.156  54
   2  -1   3 9400.99 504.314  53
   2  -1   3 9262.13 509.335  52
   2  -1   4 51820.7 1333.50  64
   2  -1   4 51028.7 1448.28  18
   2  -1   4 51779.6 1394.41  57
   2  -1   4 51865.8 1414.07  55
   2  -1   4 51650.5 1455.93  54
   2  -1   4 53700.9 1401.65  60
   2  -1   4 51398.7 1366.97  53
   2  -1   4 51698.1 1386.94  52
   2  -1   4 51836.2 1375.18  61
   2  -1   4 57383.1 1482.67  19
   2  -1   5 11142.3 656.591  22
   2  -1   5 10541.4 678.333  19
   2  -1   5 10646.6 658.390  61
   2  -1   5 10484.0 680.618  18
   2  -1   5 10910.9 676.333  57
   2  -1   5 10311.6 683.125  55
   2  -1   5 11416.1 718.220  54
   2  -1   5 10534.7 650.067  53
   2  -1   5 10430.6 666.387  52
   2  -1   6 1158.73 247.334  22
   2  -1   6 1222.55 267.466  19
   2  -1   6 1141.01 258.659  18
   2  -1   6 1219.96 252.850  57
   2  -1   6 1198.59 260.600  55
   2  -1   6 1180.43 270.363  54
   2  -1   6 1156.18 254.533  53
   2  -1   6 1109.91 243.278  52
   2  -1   6 942.058 230.681  61
   2  -1   7 5960.92 592.834  19
   2  -1   7 5921.51 586.800  61
   2  -1   7 5873.22 600.789  18
   2  -1   7 6203.86 614.470  57
   2  -1   7 6234.35 619.771  55
   2  -1   7 6117.93 596.791  53
   2  -1   7 6219.15 616.910  52
   2  -1   8 6225.59 588.472  22
   2  -1   8 5693.97 323.390  32
   2  -1   8 6060.57 637.256  19
   2  -1   8 6577.90 697.139  18
   2  -1   8 5603.05 627.848  57
   2  -1   8 5697.45 648.166  55
   2  -1   8 5704.32 630.961  53
   2  -1   8 5182.68 319.361   8
   2  -1   8 5604.50 633.388  52
   2  -1   8 5937.97 340.456  44
   2  -1   8 5099.20 303.008  42
   2  -1   9 46139.5 1825.11  19
   2  -1   9 42566.6 926.418  32
   2  -1   9 41406.1 920.637  30
   2  -1   9 34636.1 1663.26  57
   2  -1   9 34437.1 1688.17  55
   2  -1   9 41717.0 961.336   8
   2  -1   9 31559.5 1557.84  53
   2  -1   9 34079.9 1659.53  52
   2  -1   9 42537.5 966.667  44
   2  -1   9 39444.5 900.221  42
   2  -1  10 9952.40 848.171  19
   2  -1  10 9948.36 406.285  32
   2  -1  10 10316.4 411.263  30
   2  -1  10 10028.6 426.464  44
   2  -1  10 9896.42 405.701  42
   2  -1  11 3500.84 220.875  32
   2  -1  11 3284.00 205.956  30
   2  -1  11 3152.45 223.607  44
   2  -1  11 3339.00 212.779  42
   2  -1  12 790.065 100.383  32
   2  -1  12 929.291 112.266  44
   2  -1  12 589.008 82.5553  42
   2  -1  13 1295.93 91.5053  32
   2  -1  13 1212.20 95.1805  44
   2   0 -11 615.932 108.902  40
   2   0 -10 15731.3 1099.42  24
   2   0  -9 2895.00 482.498  21
   2   0  -9 1852.71 447.618  65
   2   0  -9 2810.56 528.411  16
   2   0  -9 2708.13 507.163  24
   2   0  -8 14343.9 1034.51  12
   2   0  -8 14334.7 1042.06  21
   2   0  -8 14172.7 1196.34  65
   2   0  -8 14505.3 970.696  64
   2   0  -8 14628.9 1160.94  16
   2   0  -8 15528.5 1158.78  24
   2   0  -7 12941.3 900.086  12
   2   0  -7 13917.8 1044.01  11
   2   0  -7 14066.1 1147.40  65
   2   0  -7 12942.6 1018.66  24
   2   0  -6 526.916 190.040  12
   2   0  -6 561.397 223.903  11
   2   0  -6 779.769 284.351  65
   2   0  -6 560.358 201.993  63
   2   0  -6 770.058 285.411  16
   2   0  -6 665.270 264.620  24
   2   0  -5 17617.9 898.613  12
   2   0  -5 18773.2 1007.74  11
   2   0  -5 18407.8 1075.58  65
   2   0  -5 19977.8 1012.43  63
   2   0  -5 19706.8 1077.32  16
   2   0  -5 20780.3 1103.55  24
   2   0  -4 39208.1 1232.35  12
   2   0  -4 42051.7 1362.97  11
   2   0  -4 44226.4 1527.15  65
   2   0  -4 46921.9 1026.21  61
   2   0  -4 40759.9 967.306  60
   2   0  -4 41262.4 973.741  59
   2   0  -4 46074.5 1018.51  58
   2   0  -4 40275.5 1323.02  63
   2   0  -4 43573.2 996.434  53
   2   0  -4 40816.8 1430.31  16
   2   0  -4 45752.3 1528.09  24
   2   0  -3 43282.1 1177.36  12
   2   0  -3 45013.4 1264.76  11
   2   0  -3 48031.7 1436.69  65
   2   0  -3 46683.2 1287.84  63
   2   0  -3 49588.3 942.056  61
   2   0  -3 47021.7 926.901  60
   2   0  -3 47116.4 925.430  59
   2   0  -3 46136.7 925.056  58
   2   0  -3 48022.2 932.328  53
   2   0  -3 46887.7 1375.63  16
   2   0  -2 19584.9 673.884  12
   2   0  -2 20638.1 707.702  11
   2   0  -2 19433.5 758.449  65
   2   0  -2 19815.9 722.059  63
   2   0  -2 18300.3 483.708  61
   2   0  -2 18586.5 489.604  60
   2   0  -2 20711.7 512.428  59
   2   0  -2 21559.8 525.579  58
   2   0  -2 21668.9 514.276  53
   2   0  -2 22943.2 540.596  52
   2   0  -2 19092.9 763.140  16
   2   0  -1 222551. 2850.81  12
   2   0  -1 225266. 2798.50  11
   2   0  -1 229940. 2932.56  63
   2   0  -1 195495. 2524.63  61
   2   0  -1 213592. 2554.23  60
   2   0  -1 205396. 2534.28  59
   2   0  -1 220199. 2580.38  58
   2   0  -1 230262. 2571.92  53
   2   0   0 15427.0 427.830  59
   2   0   0 15547.0 467.363  12
   2   0   0 15646.2 383.028  11
   2   0   0 15563.9 475.513  64
   2   0   0 15219.3 432.610  63
   2   0   0 15548.0 432.419  61
   2   0   0 15669.4 431.620  60
   2   0   0 15633.3 444.690  55
   2   0   0 17425.9 521.880  54
   2   0   0 16584.4 445.306  53
   2   0   0 15188.0 432.368  52
   2   0   0 16017.0 510.441  14
   2   0   1 3569.39 208.427  12
   2   0   1 3793.09 225.709  64
   2   0   1 3641.77 230.324  61
   2   0   1 3676.88 234.391  60
   2   0   1 3600.53 263.080  18
   2   0   1 3258.25 223.794  57
   2   0   1 3741.18 242.129  55
   2   0   1 3265.90 238.651  54
   2   0   1 3665.58 237.264  53
   2   0   1 4228.57 252.978  52
   2   0   1 3702.19 252.904  14
   2   0   2 309728. 3556.40  12
   2   0   2 301719. 3596.22  64
   2   0   2 290212. 3845.49  19
   2   0   2 311779. 3816.40  61
   2   0   2 313888. 3824.65  60
   2   0   2 315661. 3611.34   5
   2   0   2 302960. 3867.98  18
   2   0   2 305360. 3813.40  57
   2   0   2 316020. 3864.70  55
   2   0   2 304391. 3859.22  54
   2   0   2 306043. 3788.94  53
   2   0   2 298033. 3805.43  52
   2   0   3 29810.1 905.175  22
   2   0   3 30183.8 930.039  19
   2   0   3 28295.1 873.237  61
   2   0   3 29590.6 912.674  18
   2   0   3 29674.5 898.241  57
   2   0   3 28268.5 896.868  55
   2   0   3 27969.5 864.576  53
   2   0   3 28938.6 891.612  52
   2   0   3 28632.7 763.629  64
   2   0   4 17176.2 742.351  22
   2   0   4 16062.0 705.255  61
   2   0   4 14024.7 671.642  18
   2   0   4 15239.7 697.332  57
   2   0   4 15014.7 706.713  55
   2   0   4 16299.1 745.682  54
   2   0   4 15319.6 686.144  53
   2   0   4 15134.2 694.970  52
   2   0   4 15623.0 726.118  19
   2   0   5 196662. 3209.31  22
   2   0   5 185589. 3224.33  19
   2   0   5 179633. 3086.54  61
   2   0   5 188183. 3168.12  18
   2   0   5 177019. 3101.92  57
   2   0   5 179581. 3138.80  55
   2   0   5 177193. 3210.84  54
   2   0   5 180871. 3075.38  53
   2   0   5 170394. 3074.95  52
   2   0   6 21362.0 990.123  22
   2   0   6 20762.1 1015.11  19
   2   0   6 19017.4 935.674  61
   2   0   6 19063.0 952.921  18
   2   0   6 19024.8 949.204  57
   2   0   6 18859.3 957.467  55
   2   0   6 19246.1 945.431  53
   2   0   6 18754.9 948.634  52
   2   0   7 35331.9 1423.02  19
   2   0   7 34786.2 1398.08  61
   2   0   7 33146.8 1378.96  18
   2   0   7 33338.9 1390.53  57
   2   0   7 33752.8 1403.92  55
   2   0   7 35299.1 1401.68  53
   2   0   7 33436.4 1389.40  52
   2   0   8 4552.19 521.082  22
   2   0   8 5403.22 595.375  19
   2   0   8 4543.47 553.133  57
   2   0   8 4167.59 542.002  55
   2   0   8 4573.16 561.358  52
   2   0   9 2022.33 371.818  22
   2   0   9 2064.38 396.027  19
   2   0   9 1826.02 184.390  32
   2   0   9 1721.90 182.875  30
   2   0   9 1582.61 350.867  57
   2   0   9 1144.89 309.475  55
   2   0   9 1563.83 403.676   9
   2   0   9 1493.22 175.387   8
   2   0   9 1393.40 330.085  53
   2   0   9 1832.15 392.946  52
   2   0   9 1560.96 204.518  50
   2   0   9 1752.55 189.672  44
   2   0   9 1341.78 157.019  42
   2   0  10 16770.4 537.520  32
   2   0  10 18201.2 559.282  30
   2   0  10 17976.3 544.023  49
   2   0  10 16486.8 557.094  44
   2   0  10 18990.0 1183.26  19
   2   0  10 15948.6 1022.49  22
   2   0  11 970.532 127.257  32
   2   0  11 1061.22 131.084  30
   2   0  11 1172.27 162.028  50
   2   0  11 1113.74 125.405  49
   2   0  11 1039.90 142.822  44
   2   0  12 4590.33 227.137  32
   2   0  12 4786.70 220.284  30
   2   0  12 4739.25 209.129  49
   2   0  12 4865.53 237.965  44
   2   0  13 6798.48 215.940  32
   2   0  13 6945.25 227.001  44
   2   1 -12 283.404 60.1910  40
   2   1 -10 8083.39 381.822  48
   2   1 -10 9578.14 868.358  24
   2   1  -9 757.345 350.032  65
   2   1  -9 1052.09 334.311  16
   2   1  -9 1136.57 369.716  24
   2   1  -8 5497.33 644.340  12
   2   1  -8 6999.69 881.739  65
   2   1  -8 5229.21 708.741  16
   2   1  -8 6992.30 800.701  24
   2   1  -7 31587.3 1511.38  12
   2   1  -7 38251.4 1808.70  11
   2   1  -7 37764.2 1919.96  65
   2   1  -7 37099.9 1671.24  63
   2   1  -7 40272.6 1858.33  16
   2   1  -7 38275.3 1806.75  24
   2   1  -6 4087.43 541.743  11
   2   1  -6 3690.77 557.719  65
   2   1  -6 3528.76 475.522  63
   2   1  -6 4206.41 560.773  16
   2   1  -6 4093.39 555.009  24
   2   1  -5 3385.14 440.643  11
   2   1  -5 2142.32 403.392  65
   2   1  -5 3300.01 423.801  63
   2   1  -5 3522.71 471.512  16
   2   1  -4 116907. 2521.64  11
   2   1  -4 117228. 2723.20  65
   2   1  -4 115786. 2447.01  63
   2   1  -4 120769. 2649.99  17
   2   1  -4 115853. 2623.14  16
   2   1  -3 10923.5 619.654  11
   2   1  -3 13012.8 750.796  65
   2   1  -3 12333.1 647.898  63
   2   1  -3 10297.4 620.029  17
   2   1  -2 17808.8 691.113  11
   2   1  -2 16665.1 324.409  61
   2   1  -2 16480.0 321.194  60
   2   1  -2 16134.5 318.043  59
   2   1  -2 17017.9 325.941  58
   2   1  -2 16770.5 315.018  53
   2   1  -2 15345.4 313.105  52
   2   1  -1 40930.6 913.080  11
   2   1   0 4245.08 226.738  12
   2   1   0 4532.24 198.923  11
   2   1   0 4280.10 173.058  61
   2   1   0 4208.15 173.430  57
   2   1   0 4253.87 178.936  55
   2   1   0 4110.50 246.037  54
   2   1   0 4664.81 183.471  52
   2   1   1 3256.78 244.374   7
   2   1   1 2610.63 138.255  12
   2   1   1 2603.89 155.228  64
   2   1   1 3099.79 197.271  61
   2   1   1 3034.43 219.792  62
   2   1   1 3368.30 208.086  57
   2   1   1 2912.74 197.522  55
   2   1   1 3252.65 216.128  54
   2   1   1 2682.16 188.301  53
   2   1   1 3113.97 202.638  52
   2   1   1 2989.39 208.417  14
   2   1   2 78947.8 1626.92   7
   2   1   2 77209.3 1368.39  61
   2   1   2 85397.9 1410.08   5
   2   1   2 85266.3 1535.05  19
   2   1   2 75720.9 1374.62  57
   2   1   2 77745.3 1403.05  55
   2   1   2 73229.1 1363.16  54
   2   1   2 74142.7 1343.26  53
   2   1   2 75589.5 1374.49  52
   2   1   3 9916.50 605.405   7
   2   1   3 11457.5 551.723  22
   2   1   3 11580.0 570.642  19
   2   1   3 9656.45 479.674  61
   2   1   3 7613.07 410.138  18
   2   1   3 9877.22 493.843  57
   2   1   3 9536.11 490.730  55
   2   1   3 9773.44 496.415  54
   2   1   3 10096.6 486.492  53
   2   1   3 9562.52 483.233  52
   2   1   4 143151. 2927.70   7
   2   1   4 144195. 2573.68  22
   2   1   4 161924. 2693.19  19
   2   1   4 150169. 2502.92  61
   2   1   4 140294. 2386.49  18
   2   1   4 150769. 2530.33  57
   2   1   4 149579. 2541.95  55
   2   1   4 153574. 2605.69  54
   2   1   4 152177. 2498.19  53
   2   1   4 148260. 2509.33  52
   2   1   5 5600.55 470.082  22
   2   1   5 4551.12 525.464   7
   2   1   5 5413.01 477.198  19
   2   1   5 4715.94 397.410  18
   2   1   5 5018.03 428.622  57
   2   1   5 5049.16 435.153  55
   2   1   5 5379.89 468.534  54
   2   1   5 5346.62 437.618  61
   2   1   5 5401.54 435.912  53
   2   1   5 5084.68 431.914  52
   2   1   5 4820.56 374.936  15
   2   1   6 7790.54 596.602  22
   2   1   6 6953.34 705.729   7
   2   1   6 6807.89 530.716  18
   2   1   6 8506.39 630.846  19
   2   1   6 6705.06 548.023  57
   2   1   6 6319.54 540.835  55
   2   1   6 6364.54 524.548  53
   2   1   6 6610.06 540.201  52
   2   1   7 6853.92 618.655  19
   2   1   7 5743.94 551.214  57
   2   1   7 6355.32 583.598  55
   2   1   7 6381.44 575.460  53
   2   1   7 6041.39 567.450  52
   2   1   8 6920.25 654.869  22
   2   1   8 7234.34 678.370  19
   2   1   8 5905.80 614.598  57
   2   1   8 5815.73 615.397  55
   2   1   8 6216.61 624.639  52
   2   1   9 12634.0 919.493  22
   2   1   9 13567.8 976.788  19
   2   1   9 12536.3 470.384  32
   2   1   9 13345.4 486.608  30
   2   1   9 12652.7 955.476  57
   2   1   9 11343.6 907.840  55
   2   1   9 10949.9 1015.74   9
   2   1   9 11874.0 920.618  52
   2   1   9 14187.6 494.805  49
   2   1   9 12741.9 493.432  44
   2   1  10 7502.55 350.033  32
   2   1  10 8201.55 368.234  30
   2   1  10 7465.63 363.440  44
   2   1  10 7776.81 752.431  19
   2   1  10 7890.48 738.496  22
   2   1  11 185.049 161.704  22
   2   1  11 280.581 82.2776  32
   2   1  11 193.879 79.3756  30
   2   1  11 202.443 77.8291  49
   2   1  11 187.720 84.3805  44
   2   1  12 7023.55 273.187  32
   2   1  12 6952.64 273.349  30
   2   1  12 6739.80 265.268  49
   2   1  12 7207.68 288.284  44
   2   1  13 3460.41 153.709  32
   2   1  13 3087.82 144.957  30
   2   1  13 3407.48 158.768  44
   2   2 -12 47.2196 39.0573  40
   2   2 -11 3618.65 210.187  48
   2   2 -10 1208.63 164.938  48
   2   2 -10 908.488 288.706  24
   2   2  -9 9753.33 1066.47  65
   2   2  -9 9879.70 983.450  16
   2   2  -9 11069.7 1021.48  24
   2   2  -8 58504.9 2610.67  65
   2   2  -8 49690.2 2106.32  63
   2   2  -8 56920.4 2381.16  16
   2   2  -8 54296.8 2306.95  24
   2   2  -7 4505.61 645.589  11
   2   2  -7 4658.22 705.191  65
   2   2  -7 4706.73 603.092  63
   2   2  -7 4873.17 675.955  16
   2   2  -6 2681.88 462.036  11
   2   2  -6 3143.84 546.287  65
   2   2  -6 2893.01 452.524  63
   2   2  -6 3260.31 515.865  17
   2   2  -6 2446.34 450.210  16
   2   2  -5 53215.1 1886.78  11
   2   2  -5 56293.5 2080.29  65
   2   2  -5 51113.3 1759.98  63
   2   2  -4 69663.9 1972.77  11
   2   2  -4 77317.6 2226.73  65
   2   2  -3 13001.9 656.467  13
   2   2  -3 10903.7 690.968  11
   2   2  -2 8381.41 318.243  10
   2   2  -1 24658.0 547.791  10
   2   2  -1 17182.6 345.227   7
   2   2   0 55336.9 698.642  57
   2   2   0 58502.0 714.569  55
   2   2   0 66028.6 1005.35  54
   2   2   0 58227.5 711.446  52
   2   2   0 68564.3 1049.58   7
   2   2   1 143999. 1912.24  62
   2   2   1 136705. 1783.66  57
   2   2   1 137775. 1802.99  55
   2   2   1 137944. 1797.28  52
   2   2   1 142206. 2131.72   7
   2   2   1 134974. 1817.74  14
   2   2   2 41253.6 1070.71  22
   2   2   2 41372.8 914.125  57
   2   2   2 41194.2 923.146  55
   2   2   2 44601.2 937.799  54
   2   2   2 41222.0 898.722  53
   2   2   2 41382.2 921.708  52
   2   2   2 42171.3 1167.29   7
   2   2   3 101336. 1844.20  57
   2   2   3 102185. 1855.82  55
   2   2   3 103882. 1840.67  54
   2   2   3 101441. 1822.53  53
   2   2   3 101838. 1849.45  52
   2   2   3 101141. 2215.96   7
   2   2   4 53002.0 1430.09  22
   2   2   4 58479.4 1490.32  19
   2   2   4 51516.5 1329.09  57
   2   2   4 54194.3 1361.54  55
   2   2   4 55965.2 1369.31  54
   2   2   4 54867.0 1339.02  53
   2   2   4 54725.3 1357.79  52
   2   2   4 53682.6 1394.53  15
   2   2   4 51490.5 1653.69   7
   2   2   5 76934.7 2292.94   7
   2   2   5 89496.3 2032.33  22
   2   2   5 90335.4 2075.82  19
   2   2   5 82697.6 1885.54  57
   2   2   5 82373.1 1905.27  55
   2   2   5 85115.8 1861.96  53
   2   2   5 83964.0 1897.38  52
   2   2   5 86082.4 1894.48  15
   2   2   6 1805.03 314.281  22
   2   2   6 1286.55 331.193   7
   2   2   6 1786.06 310.414  19
   2   2   6 1729.34 282.967  57
   2   2   6 1592.02 267.229  55
   2   2   6 1620.65 268.883  53
   2   2   6 1606.70 269.157  52
   2   2   7 3391.87 564.551   7
   2   2   7 4301.65 499.400  19
   2   2   7 3774.89 442.996  57
   2   2   7 4004.84 458.693  55
   2   2   7 3832.48 432.708  53
   2   2   7 3996.16 452.907  52
   2   2   8 18475.4 1072.38  22
   2   2   8 20218.0 1134.01  19
   2   2   8 14989.4 510.356  30
   2   2   8 16215.2 995.586  57
   2   2   8 16133.8 1006.52  55
   2   2   8 17270.8 1024.96  52
   2   2   8 16821.3 540.588  49
   2   2   9 14437.0 995.809  22
   2   2   9 13627.8 985.913  19
   2   2   9 14973.1 505.082  32
   2   2   9 14104.0 500.446  31
   2   2   9 14827.2 506.769  30
   2   2   9 13457.6 967.827  57
   2   2   9 13746.4 982.658  55
   2   2   9 13290.4 943.155  53
   2   2   9 13218.4 953.231  52
   2   2   9 14702.7 520.303  44
   2   2  10 96886.2 2795.87  19
   2   2  10 102442. 1565.51  32
   2   2  10 105826. 1587.38  31
   2   2  10 100513. 1576.76  30
   2   2  10 100665. 1603.09  44
   2   2  11 1296.39 303.150  22
   2   2  11 1358.60 138.836  32
   2   2  11 1469.94 152.831  30
   2   2  11 1677.05 159.671  49
   2   2  11 1626.69 157.067  44
   2   2  12 4844.34 217.902  32
   2   2  12 4785.32 228.734  30
   2   2  12 4569.05 219.550  49
   2   2  12 4787.10 228.472  44
   2   2  13 5116.86 175.362  32
   2   2  13 5192.43 188.703  30
   2   2  13 5491.93 187.162  49
   2   3 -11 43.1343 49.6702  48
   2   3 -10 3021.79 501.573  24
   2   3  -9 13818.0 1164.79  16
   2   3  -9 16517.3 1230.26  24
   2   3  -8 26806.1 1791.24  65
   2   3  -8 24238.7 1474.95  63
   2   3  -8 25070.7 1586.75  16
   2   3  -8 26172.5 1617.61  24
   2   3  -7 15418.5 1248.99  11
   2   3  -7 19296.8 1459.80  65
   2   3  -7 15931.2 1148.15  63
   2   3  -7 15997.2 1282.02  17
   2   3  -7 15952.4 1234.50  16
   2   3  -6 18532.6 1257.34  11
   2   3  -6 19510.0 1371.79  65
   2   3  -6 18799.6 1155.91  63
   2   3  -6 19080.3 1321.47  17
   2   3  -6 18018.9 1249.51  16
   2   3  -5 47808.9 1981.81  65
   2   3  -5 41947.8 1850.77  17
   2   3  -4 36531.7 1396.55  20
   2   3  -4 38980.9 1608.70  17
   2   3  -4 38349.2 1444.32  13
   2   3  -3 42121.9 1384.17  13
   2   3  -2 6192.69 353.358  10
   2   3  -2 4294.71 224.859   7
   2   3  -1 13496.2 508.165  10
   2   3  -1 11209.0 392.902   7
   2   3   0 26998.3 796.907   5
   2   3   0 26851.3 530.845  55
   2   3   1 37945.0 1020.87  22
   2   3   1 38673.8 978.954  19
   2   3   1 40347.9 780.285  62
   2   3   1 38022.9 995.002   5
   2   3   1 41449.5 783.911  57
   2   3   1 42268.8 806.315  55
   2   3   1 42733.7 819.877  52
   2   3   1 40613.9 1061.36   7
   2   3   1 35020.5 687.990  14
   2   3   2 43577.4 1140.59  19
   2   3   2 47499.2 1000.92  57
   2   3   2 48407.5 1017.22  55
   2   3   2 47375.8 988.437  53
   2   3   2 48398.7 1016.38  52
   2   3   2 46782.8 1283.28  15
   2   3   2 48118.0 1327.39   7
   2   3   3 26252.2 947.038  22
   2   3   3 23912.0 882.863  19
   2   3   3 25928.5 802.314  57
   2   3   3 26168.4 812.617  55
   2   3   3 26423.6 792.971  53
   2   3   3 26665.0 819.396  52
   2   3   3 28637.8 1021.02  15
   2   3   3 26100.7 1063.15   7
   2   3   4 180269. 2961.14  22
   2   3   4 189608. 2975.22  19
   2   3   4 143749. 2507.05  57
   2   3   4 152097. 2506.39  53
   2   3   4 148302. 2555.34  55
   2   3   4 148864. 2538.43  52
   2   3   4 148265. 2774.09  15
   2   3   4 135186. 3036.75   7
   2   3   5 19247.8 929.869  22
   2   3   5 19055.2 921.993  66
   2   3   5 22476.4 996.429  19
   2   3   5 19123.3 844.397  57
   2   3   5 19262.5 858.617  55
   2   3   5 18978.8 823.301  53
   2   3   5 19579.4 860.109  52
   2   3   5 20152.3 942.394  15
   2   3   5 16911.8 1079.37   7
   2   3   6 11672.1 984.639   7
   2   3   6 13507.5 827.993  22
   2   3   6 13113.1 818.084  19
   2   3   6 13219.9 763.912  57
   2   3   6 13688.4 785.281  55
   2   3   6 13191.0 748.634  53
   2   3   6 13587.9 769.614  52
   2   3   6 13115.3 804.392  15
   2   3   7 42819.3 2082.92   7
   2   3   7 45503.8 1694.95  19
   2   3   7 49030.5 1650.41  57
   2   3   7 49123.4 1670.68  55
   2   3   7 48261.8 1597.56  53
   2   3   7 47767.9 1627.30  52
   2   3   8 16596.7 1033.93  22
   2   3   8 12551.3 1235.49   7
   2   3   8 17079.6 1071.86  19
   2   3   8 15694.4 527.903  31
   2   3   8 15693.4 522.928  30
   2   3   8 15079.7 958.877  57
   2   3   8 15222.9 964.436  55
   2   3   8 13195.0 504.647  29
   2   3   8 15302.8 943.769  53
   2   3   8 15280.1 965.278  52
   2   3   8 14726.4 505.422  49
   2   3   9 63442.7 2148.85  22
   2   3   9 66196.5 2226.97  19
   2   3   9 53702.2 1059.40  32
   2   3   9 67036.0 1184.28  31
   2   3   9 58071.9 1103.75  30
   2   3   9 58088.9 1143.65  29
   2   3   9 58529.3 1097.66  49
   2   3   9 55692.2 1104.98  44
   2   3  10 1248.73 327.459  22
   2   3  10 1508.86 352.299  19
   2   3  10 1106.65 129.739  32
   2   3  10 1288.68 151.772  31
   2   3  10 1380.02 151.837  30
   2   3  10 1335.72 151.272  49
   2   3  10 1523.20 157.614  44
   2   3  11 14896.7 424.727  32
   2   3  11 15970.0 458.073  31
   2   3  11 15260.3 457.263  30
   2   3  11 15945.5 462.260  49
   2   3  11 15627.4 450.892  44
   2   3  12 50.0689 38.2733  32
   2   3  12 9.93028 53.4349  30
   2   3  12 68.6072 57.2753  49
   2   3  12 77.1414 47.0680  44
   2   3  13 552.624 63.2862  30
   2   3  13 517.970 61.8940  49
   2   4 -11 1944.03 148.790  48
   2   4  -9 27269.6 1596.21  24
   2   4  -8 43242.2 2312.29  65
   2   4  -8 38696.0 1996.23  16
   2   4  -7 92.9221 210.427  65
   2   4  -7 288.713 236.894  63
   2   4  -7 0.77853 179.439  17
   2   4  -7 158.467 196.435  16
   2   4  -6 3974.10 664.301  11
   2   4  -6 5427.05 770.066  65
   2   4  -6 4373.86 710.897  17
   2   4  -5 7674.08 795.686  11
   2   4  -5 7477.63 843.362  17
   2   4  -4 3383.45 462.986  20
   2   4  -4 3935.06 510.135  13
   2   4  -3 1635.47 289.483  20
   2   4  -3 1230.90 202.174   5
   2   4  -3 1606.49 304.695  13
   2   4  -2 7436.84 597.992  13
   2   4  -2 8140.10 575.327  66
   2   4  -2 7040.96 455.955  10
   2   4  -2 6797.51 427.675   5
   2   4  -2 7683.23 519.443  15
   2   4  -1 294404. 4264.50  66
   2   4  -1 266240. 3674.30  10
   2   4  -1 258441. 3535.77   7
   2   4  -1 284670. 4089.09  15
   2   4   0 35541.0 1016.05   5
   2   4   0 32631.8 770.169  55
   2   4   0 32889.0 953.542   7
   2   4   0 32182.6 1125.19  15
   2   4   1 6790.11 442.567  22
   2   4   1 8339.56 372.302  57
   2   4   1 8762.89 390.317  55
   2   4   1 7854.94 544.649  15
   2   4   1 8310.90 532.014   7
   2   4   2 20747.9 841.116  22
   2   4   2 22063.5 956.148  66
   2   4   2 22625.4 689.949  57
   2   4   2 24175.0 723.275  55
   2   4   2 23945.7 727.464  52
   2   4   2 21642.6 912.507  15
   2   4   2 21080.4 936.066   7
   2   4   3 18064.0 813.904  22
   2   4   3 16623.5 858.670  66
   2   4   3 14925.5 630.204  57
   2   4   3 16074.2 658.223  55
   2   4   3 15908.6 658.809  52
   2   4   3 15575.4 811.124  15
   2   4   3 14941.0 851.474   7
   2   4   4 1925.56 291.743  22
   2   4   4 1701.29 344.632   7
   2   4   4 1468.76 276.769  66
   2   4   4 1777.85 246.136  57
   2   4   4 1918.89 256.183  55
   2   4   4 1997.54 260.160  52
   2   4   4 1930.99 310.705  15
   2   4   4 1456.69 248.589  19
   2   4   4 1867.97 334.603  23
   2   4   5 12402.9 768.878  22
   2   4   5 10060.5 677.845  19
   2   4   5 10974.6 654.093  57
   2   4   5 11584.7 677.406  55
   2   4   5 10798.5 662.874  52
   2   4   5 9672.51 717.153  15
   2   4   5 11613.7 833.927  23
   2   4   5 9419.95 862.802   7
   2   4   6 17798.8 1014.15  66
   2   4   6 19037.4 998.731  19
   2   4   6 16797.0 896.619  57
   2   4   6 17679.0 924.717  55
   2   4   6 16346.3 888.162  52
   2   4   6 17122.4 1011.41  15
   2   4   6 19804.7 1120.18  23
   2   4   6 15316.7 1187.84   7
   2   4   7 26031.3 1701.11   7
   2   4   7 29427.1 1379.63  22
   2   4   7 30303.6 1369.34  19
   2   4   7 30456.1 750.338  31
   2   4   7 32506.9 1344.40  57
   2   4   7 30736.7 1312.62  55
   2   4   7 30997.1 1328.25  52
   2   4   8 12.9255 141.537  22
   2   4   8 242.511 254.935   7
   2   4   8-5.82005 110.791  19
   2   4   8 66.3677 69.2230  31
   2   4   8 43.1123 61.5322  30
   2   4   8 71.5175 126.120  57
   2   4   8-31.1481 78.6145  29
   2   4   8 90.1973 121.186  55
   2   4   8 114.981 129.153  52
   2   4   8 25.7981 57.0164  49
   2   4   9 23931.7 1316.29  19
   2   4   9 22100.0 633.561  31
   2   4   9 23088.3 633.391  30
   2   4   9 25320.3 694.987  29
   2   4   9 22519.2 628.242  49
   2   4  10 1271.78 316.521  22
   2   4  10 1385.58 328.060  19
   2   4  10 1472.30 153.427  31
   2   4  10 1334.94 149.722  30
   2   4  10 1465.28 158.243  29
   2   4  10 1366.25 149.198  49
   2   4  11 1192.64 127.213  31
   2   4  11 1328.23 130.389  30
   2   4  11 1199.09 122.551  29
   2   4  11 1317.55 132.625  49
   2   4  12 6792.05 246.031  30
   2   4  12 7109.34 247.224  49
   2   4  13 1267.86 82.0105  30
   2   4  13 1369.69 81.5906  49
   2   5  -9 5365.10 693.843  24
   2   5  -8 1071.66 339.187  16
   2   5  -7 2054.84 531.833  65
   2   5  -7 1967.72 539.895  17
   2   5  -7 1845.36 465.927  16
   2   5  -6 9542.14 1053.25  65
   2   5  -6 8903.02 1043.24  17
   2   5  -5 10568.5 953.332  20
   2   5  -5 12593.5 1176.89  17
   2   5  -4 5007.26 617.692  20
   2   5  -4 4804.90 628.405  13
   2   5  -3 4543.72 541.643  20
   2   5  -3 5921.70 653.058  13
   2   5  -2 15088.1 792.209  10
   2   5  -2 15028.7 880.699  66
   2   5  -2 12729.3 752.739  15
   2   5  -2 14013.5 895.710  23
   2   5  -2 13861.4 926.208  13
   2   5  -1 54804.3 1818.79  13
   2   5  -1 55500.3 1732.10  66
   2   5  -1 54425.4 1475.06  10
   2   5  -1 56873.6 1429.56   7
   2   5  -1 56247.3 1647.77  15
   2   5  -1 58058.1 1878.70  23
   2   5   0 761.840 182.415   7
   2   5   0 893.461 237.411  66
   2   5   0 655.982 162.286  10
   2   5   0 662.669 187.744  15
   2   5   0 877.873 231.402  23
   2   5   1 6460.18 571.791  66
   2   5   1 6077.35 384.741  55
   2   5   1 6037.28 534.456  15
   2   5   1 5417.29 477.890   7
   2   5   1 6361.07 596.825  23
   2   5   2 4631.13 347.562  57
   2   5   2 4513.24 352.186  55
   2   5   2 4733.57 498.187  15
   2   5   2 4421.52 484.316   7
   2   5   2 4690.47 515.663  23
   2   5   3 7900.42 575.809  22
   2   5   3 10266.7 769.477  66
   2   5   3 8945.35 528.391  57
   2   5   3 9602.78 555.567  55
   2   5   3 9936.79 568.161  52
   2   5   3 9079.66 683.737  15
   2   5   3 8397.13 723.609   7
   2   5   3 9159.44 761.233  23
   2   5   4 3853.06 432.947  22
   2   5   4 3613.78 483.495  66
   2   5   4 3732.09 369.907  57
   2   5   4 3616.70 365.810  55
   2   5   4 3408.28 364.348  52
   2   5   4 3724.01 485.463  15
   2   5   4 3888.45 539.898   7
   2   5   4 3439.65 488.276  23
   2   5   5 27435.5 1341.53  66
   2   5   5 25222.3 1054.66  57
   2   5   5 25193.1 1079.20  55
   2   5   5 24232.7 1063.98  52
   2   5   5 26536.3 1323.01  15
   2   5   5 26148.2 1369.28  23
   2   5   5 23849.2 1472.44   7
   2   5   6 11032.5 887.975  66
   2   5   6 9070.69 692.206  19
   2   5   6 9861.43 700.578  57
   2   5   6 9602.43 703.945  55
   2   5   6 9685.97 711.321  52
   2   5   6 10250.2 868.924  15
   2   5   6 9739.85 866.953  23
   2   5   6 9066.24 992.972   7
   2   5   7 5876.47 638.067  22
   2   5   7 5222.75 558.341  19
   2   5   7 5321.81 294.757  31
   2   5   7 4488.30 266.656  30
   2   5   7 5035.82 539.997  57
   2   5   7 4797.45 544.341  55
   2   5   7 5586.04 315.587  29
   2   5   7 4942.33 550.579  52
   2   5   7 4427.41 271.672  49
   2   5   7 4444.92 768.844   7
   2   5   8 78364.6 2431.72  22
   2   5   8 70232.3 2238.10  19
   2   5   8 77346.3 1326.76  31
   2   5   8 75247.4 1321.23  30
   2   5   8 82979.5 1413.98  29
   2   5   8 81894.1 1350.09  49
   2   5   9 60398.6 1104.28  31
   2   5   9 59395.2 1144.58  29
   2   5   9 60787.1 1094.36  49
   2   5   9 59947.0 2100.72  22
   2   5  10 3751.59 229.804  31
   2   5  10 3383.11 215.349  30
   2   5  10 3437.89 230.936  29
   2   5  10 3650.08 222.803  49
   2   5  10 3008.65 458.458  22
   2   5  11 3642.79 199.593  31
   2   5  11 3799.80 203.687  29
   2   5  11 3887.35 200.480  49
   2   5  12 855.029 81.1271  31
   2   5  12 887.686 86.6548  30
   2   5  12 943.434 85.2349  49
   2   6  -9 4047.51 243.633  35
   2   6  -7 56752.3 2787.04  17
   2   6  -7 54225.3 2428.44  16
   2   6  -6 13823.9 1336.58  65
   2   6  -6 14136.1 1377.86  17
   2   6  -5 7867.63 888.331  20
   2   6  -5 9195.13 1078.48  17
   2   6  -4 8909.42 904.125  20
   2   6  -4 9737.42 1015.75  17
   2   6  -3 14359.7 1071.75  20
   2   6  -3 16118.8 1200.19  13
   2   6  -2 7281.35 714.644  20
   2   6  -2 7057.15 676.461  66
   2   6  -2 6598.33 604.222  10
   2   6  -2 8163.29 757.180  23
   2   6  -2 7434.83 769.035  13
   2   6  -1 37501.8 1555.89  66
   2   6  -1 36765.0 1379.11  10
   2   6  -1 34465.7 1423.16  15
   2   6  -1 35725.5 1346.96   7
   2   6  -1 35356.7 1580.40  23
   2   6  -1 37209.4 1660.62  13
   2   6   0 21492.3 1173.59  66
   2   6   0 20819.6 984.269  10
   2   6   0 21694.7 1133.82  15
   2   6   0 20245.2 1051.59   7
   2   6   0 22220.0 1252.43  23
   2   6   0 21308.1 1208.45  13
   2   6   1 24442.2 1290.12  13
   2   6   1 24697.2 1283.91  66
   2   6   1 26413.4 1100.70  10
   2   6   1 27870.7 1312.29  15
   2   6   1 26199.8 1276.73   7
   2   6   1 26761.9 1376.33  23
   2   6   2 10042.4 817.427  13
   2   6   2 9718.79 786.720  66
   2   6   2 9846.61 608.737  55
   2   6   2 9820.03 792.295  15
   2   6   2 9093.98 806.877   7
   2   6   2 9863.84 818.263  23
   2   6   3 3895.20 514.603  13
   2   6   3 3971.29 515.915  66
   2   6   3 3443.40 367.005  57
   2   6   3 3331.72 384.105  55
   2   6   3 3674.98 486.472  15
   2   6   3 3632.82 533.103   7
   2   6   3 4048.49 550.294  23
   2   6   4 50101.2 1876.14  13
   2   6   4 50426.5 1963.84  66
   2   6   4 52432.0 1578.70  57
   2   6   4 56556.6 1675.97  55
   2   6   4 53067.8 1631.45  52
   2   6   4 58713.4 2085.72  15
   2   6   4 47862.4 2120.35   7
   2   6   4 51389.5 2038.42  23
   2   6   5 3512.95 439.209  22
   2   6   5 3444.03 538.817  66
   2   6   5 2985.31 224.087  31
   2   6   5 3129.23 401.555  57
   2   6   5 3558.68 440.507  55
   2   6   5 3194.66 243.843  29
   2   6   5 3183.22 416.004  52
   2   6   5 3207.23 500.593  15
   2   6   5 3621.71 554.948  23
   2   6   5 3275.84 609.060   7
   2   6   6 7990.37 704.853  22
   2   6   6 6335.82 762.030  66
   2   6   6 7476.54 352.339  31
   2   6   6 8015.85 677.659  57
   2   6   6 7421.97 671.272  55
   2   6   6 7083.54 359.030  29
   2   6   6 7166.73 655.527  52
   2   6   6 7576.87 817.971  15
   2   6   6 7036.90 938.116   7
   2   6   7 12171.4 895.424  22
   2   6   7 11477.0 440.473  31
   2   6   7 11944.9 467.657  29
   2   6   7 10243.5 419.673  49
   2   6   8 3511.28 244.472  31
   2   6   8 3325.11 222.082  30
   2   6   8 3850.83 262.106  29
   2   6   8 3322.63 224.615  49
   2   6   8 3874.31 522.871  22
   2   6   9 16010.2 491.477  31
   2   6   9 15426.7 462.373  30
   2   6   9 15364.6 501.471  29
   2   6   9 15472.1 469.162  49
   2   6   9 14572.2 1009.15  22
   2   6  10 1542.81 148.621  31
   2   6  10 1544.55 133.261  30
   2   6  10 1747.11 159.498  29
   2   6  10 1698.32 139.895  49
   2   6  11 2592.34 157.438  31
   2   6  11 2599.59 146.035  30
   2   6  11 2472.20 150.141  29
   2   6  11 2663.90 147.683  49
   2   6  12 6075.75 180.503  31
   2   7  -9 156.253 57.2913  35
   2   7  -6 475.585 327.241  17
   2   7  -5 33040.6 1890.95  20
   2   7  -5 35328.6 2142.86  17
   2   7  -4 362.381 255.669  20
   2   7  -4 244.502 266.802  17
   2   7  -3 21751.4 1431.77  20
   2   7  -2 2731.59 491.128  20
   2   7  -2 2030.67 426.763  66
   2   7  -2 2523.43 437.360  10
   2   7  -2 3081.79 561.102  13
   2   7  -1 5047.88 585.107  10
   2   7  -1 6477.18 707.678  20
   2   7  -1 7034.02 750.833  66
   2   7  -1 6377.72 675.134  15
   2   7  -1 6928.76 766.358  23
   2   7  -1 6436.16 762.210  13
   2   7   0 546.048 255.555  13
   2   7   0 715.530 251.135   7
   2   7   0 474.314 256.572  66
   2   7   0 435.360 190.649  10
   2   7   0 715.470 243.802  15
   2   7   0 759.916 282.484  23
   2   7   1 9134.80 863.767  66
   2   7   1 9028.49 732.095  10
   2   7   1 9082.44 835.005  15
   2   7   1 9690.37 906.589   7
   2   7   1 10225.8 927.989  23
   2   7   1 9615.65 904.962  13
   2   7   2 10684.5 922.945  66
   2   7   2 10459.6 775.287  10
   2   7   2 11406.5 1014.57   7
   2   7   2 11157.9 961.951  23
   2   7   2 10052.1 917.354  13
   2   7   3 5248.42 665.449  66
   2   7   3 5533.24 572.727  10
   2   7   3 4498.77 496.564  55
   2   7   3 5000.22 656.334  15
   2   7   3 6334.74 744.944  23
   2   7   3 4879.49 645.342  13
   2   7   4 9276.30 924.849  66
   2   7   4 9070.22 744.890  10
   2   7   4 7993.36 687.122  55
   2   7   4 8169.06 388.877  29
   2   7   4 9604.52 920.730  15
   2   7   4 10189.0 977.571  23
   2   7   4 7999.91 950.289   7
   2   7   5 1947.52 522.954   7
   2   7   5 1470.69 424.305  66
   2   7   5 2271.29 196.956  31
   2   7   5 2001.75 350.178  57
   2   7   5 2121.15 384.455  55
   2   7   5 2470.88 216.512  29
   2   7   5 1867.14 457.064  15
   2   7   6 23167.0 635.754  31
   2   7   6 20786.6 640.508  29
   2   7   7 53489.1 1140.04  33
   2   7   7 55898.1 1047.56  31
   2   7   7 52241.2 1062.87  29
   2   7   7 50377.9 2270.79  15
   2   7   8 850.710 126.098  31
   2   7   8 802.829 130.116  29
   2   7   9 7716.11 319.492  31
   2   7   9 7109.95 316.923  29
   2   7   9 7409.23 276.444  49
   2   7  10 1354.01 122.367  31
   2   7  10 1438.52 127.220  29
   2   7  10 1114.03 95.0515  49
   2   7  11 613.506 72.0294  31
   2   7  11 415.795 57.7892  29
   2   8  -5 449.351 318.612  17
   2   8  -4 8704.45 1039.50  20
   2   8  -4 6427.04 877.402  17
   2   8  -3 14737.8 1258.56  20
   2   8  -3 16795.5 1385.65  17
   2   8  -2 40720.9 2019.77  20
   2   8  -1 2612.43 540.766  13
   2   8  -1 3055.19 536.317  20
   2   8  -1 1228.51 377.479  66
   2   8   0 21294.6 1375.68  20
   2   8   0 15884.2 1240.50  66
   2   8   0 18562.1 1213.00  10
   2   8   0 14642.1 1160.89  15
   2   8   0 21865.2 1538.78  13
   2   8   1 5707.45 703.177  20
   2   8   1 4367.55 643.197  66
   2   8   1 5054.55 612.895  10
   2   8   1 4922.94 683.410  15
   2   8   1 6036.57 808.752  13
   2   8   2 8065.93 832.554  20
   2   8   2 6356.45 804.648  66
   2   8   2 7901.64 765.304  10
   2   8   2 7088.97 823.597  15
   2   8   2 9063.78 983.996  13
   2   8   3 2729.94 651.000   7
   2   8   3 3178.59 517.974  20
   2   8   3 1943.92 465.503  66
   2   8   3 1855.38 448.921  15
   2   8   3 2901.53 559.033  13
   2   8   4 1728.37 469.523  66
   2   8   4 1665.96 176.820  29
   2   8   4 1183.00 426.734  15
   2   8   5 36.4335 58.9011  31
   2   8   5 87.6053 84.4567  29
   2   8   6 29281.8 1742.16  66
   2   8   6 29343.1 802.951  33
   2   8   6 18858.7 554.989  31
   2   8   6 19460.4 600.328  29
   2   8   6 26171.6 1770.17  23
   2   8   7 9689.37 409.747  33
   2   8   7 8890.15 359.573  31
   2   8   7 8505.99 369.064  29
   2   8   8 11861.2 394.234  31
   2   8   8 12458.7 413.941  29
   2   8   9 8821.15 303.002  31
   2   8   9 8677.60 308.220  29
   2   8  10 5198.99 196.291  31
   2   8  10 5175.48 197.411  29
   2   9  -6 2346.16 188.390  36
   2   9  -2 1946.51 627.512  20
   2   9  -2 60.5194 190.854  17
   2   9  -1 450.160 317.110  20
   2   9  -1 105.540 244.416  66
   2   9  -1 431.870 347.423  23
   2   9   0 34783.7 1875.89  20
   2   9   1 1708.17 416.948  20
   2   9   1 1589.92 189.329  33
   2   9   1 867.453 348.924  15
   2   9   1 1246.79 421.370  23
   2   9   2 30764.0 1836.32  15
   2   9   2 23521.1 1621.79  23
   2   9   3 23937.9 710.613  33
   2   9   3 22936.4 1624.14  23
   2   9   4 48873.3 1053.99  33
   2   9   4 57536.8 2527.18  23
   2   9   5 11685.5 471.295  33
   2   9   5 5311.03 281.947  29
   2   9   6 1546.41 185.006  33
   2   9   6 1100.87 133.773  29
   2   9   7 13653.6 388.688  31
   2   9   7 13849.1 419.817  29
   2   9   8 2091.71 136.407  31
   2   9   8 2141.10 147.011  29
   2   9   9 6092.82 200.062  31
   2   9   9 6554.02 217.791  29
   2  10  -4 5376.84 259.443  37
   2  10  -3 104.197 64.0641  27
   2  10  -1 16160.0 530.642  34
   2  10   0 4420.67 284.949  34
   2  10   1 18143.4 544.285  33
   2  10   2 14835.1 498.268  33
   2  10   3 4331.96 275.591  33
   2  10   4 447.903 115.898  33
   2  10   5 2229.30 204.197  34
   2  10   5 2383.58 186.602  33
   2  10   6 559.276 99.4912  34
   2  10   6 387.881 84.3265  33
   2  10   6 309.460 57.2075  29
   2  10   7 2077.81 138.211  34
   2  10   7 2296.33 150.311  33
   2  10   7 2459.04 131.869  29
   2  11  -4 1299.56 111.741  36
   2  11  -3 3713.63 190.230  37
   2  11  -2 8091.92 316.538  37
   2  11  -2 6244.89 265.739  27
   2  11  -1 1936.87 167.356  27
   2  11   0 6518.17 295.022  34
   2  11   0 8231.95 357.341  27
   2  11   1 13838.2 454.901  34
   2  11   1 19679.2 528.562  27
   2  11   2 370.568 97.9818  34
   2  11   2 149.738 53.4333  33
   2  11   3 5874.49 277.440  34
   2  11   3 6450.40 281.929  27
   2  11   4 561.168 93.2343  34
   2  11   4 432.849 73.1364  33
   2  11   4 469.229 81.9320  27
   2  11   5 2579.36 159.991  34
   2  11   5 2441.15 144.574  33
   2  11   6 2731.84 134.623  33
   2  12   0 5454.30 203.229  37
   2  12   1 160.574 46.0548  37
   2  12   1 84.7638 37.0353  27
   3 -10  -2 7479.05 238.865  39
   3 -10  -2 6732.63 234.779  45
   3 -10  -2 7278.92 243.144  43
   3 -10  -1 7745.96 269.353  45
   3 -10  -1 8366.71 274.659  43
   3 -10   0 5165.88 209.120  28
   3 -10   0 4976.52 221.855  45
   3 -10   0 4930.28 214.876  43
   3 -10   1 2931.10 172.909  39
   3 -10   1 2952.60 163.172  28
   3 -10   1 2498.47 155.843  45
   3 -10   1 2275.96 143.859  43
   3 -10   2 12599.2 360.446  39
   3 -10   2 13304.4 350.614  28
   3 -10   2 10585.7 318.971  45
   3 -10   2 8966.81 284.860  43
   3 -10   3 4849.26 212.801  39
   3 -10   3 4881.94 203.743  28
   3 -10   4 4674.78 194.100  39
   3 -10   4 4647.26 184.418  28
   3  -9  -5 1054.19 90.5284  45
   3  -9  -5 863.601 82.1057  43
   3  -9  -4 14614.8 385.504  39
   3  -9  -4 14803.0 395.322  45
   3  -9  -4 14939.7 393.928  43
   3  -9  -3 7785.79 300.219  39
   3  -9  -3 6745.16 260.800  28
   3  -9  -3 7546.82 296.432  45
   3  -9  -3 7414.10 289.425  43
   3  -9  -2 25567.7 614.849  39
   3  -9  -2 24796.6 583.439  28
   3  -9  -2 24578.7 601.946  45
   3  -9  -2 26252.3 608.394  43
   3  -9  -1 3915.65 240.640  39
   3  -9  -1 3979.66 231.778  28
   3  -9  -1 3768.13 230.262  45
   3  -9  -1 3922.06 231.570  43
   3  -9   0 6373.32 313.617  39
   3  -9   0 6314.71 301.832  28
   3  -9   0 5913.92 299.320  45
   3  -9   0 5936.54 293.032  43
   3  -9   1 2660.73 206.014  39
   3  -9   1 2723.41 202.823  28
   3  -9   1 2511.18 200.253  45
   3  -9   1 2646.13 198.298  43
   3  -9   2 1487.74 161.404  39
   3  -9   2 1480.45 152.940  28
   3  -9   2 1373.98 150.768  45
   3  -9   2 1477.56 147.042  43
   3  -9   3 4385.29 260.330  39
   3  -9   3 4470.23 250.672  28
   3  -9   3 4336.29 254.246  45
   3  -9   3 4091.27 234.046  43
   3  -9   4 16920.5 501.772  39
   3  -9   4 17928.0 498.278  28
   3  -9   5 6106.03 273.925  39
   3  -9   5 6055.80 264.856  28
   3  -9   6 4093.28 203.885  39
   3  -9   6 4333.92 202.047  28
   3  -9   7 1291.51 93.1750  28
   3  -8  -7 1786.13 106.794  45
   3  -8  -6 1244.65 105.633  39
   3  -8  -6 1142.52 105.756  45
   3  -8  -6 1324.48 111.799  43
   3  -8  -5 6487.52 276.898  39
   3  -8  -5 6701.66 278.787  45
   3  -8  -5 7034.82 284.005  43
   3  -8  -4 8727.87 349.472  39
   3  -8  -4 9360.13 349.991  28
   3  -8  -4 8877.62 349.300  45
   3  -8  -4 9071.00 350.631  43
   3  -8  -3 8833.95 371.739  39
   3  -8  -3 8728.18 362.749  28
   3  -8  -3 8360.24 357.185  45
   3  -8  -3 8720.84 362.266  43
   3  -8  -2 1918.18 184.876  39
   3  -8  -2 1944.84 180.279  28
   3  -8  -2 1862.11 180.812  45
   3  -8  -2 1740.78 167.411  43
   3  -8  -1 743.027 128.873  39
   3  -8  -1 973.703 311.468  21
   3  -8  -1 711.484 129.030  28
   3  -8  -1 786.713 127.456  45
   3  -8  -1 633.251 115.712  43
   3  -8   0 1923.69 189.456  39
   3  -8   0 1650.55 382.175  21
   3  -8   0 1714.42 186.228  28
   3  -8   0 1895.96 189.703  45
   3  -8   0 1654.58 175.806  43
   3  -8   1 678.356 122.584  39
   3  -8   1 733.148 130.853  28
   3  -8   1 733.199 126.372   8
   3  -8   1 541.664 112.754  45
   3  -8   1 609.814 113.686  43
   3  -8   2 5148.75 314.793  39
   3  -8   2 5002.45 674.258  21
   3  -8   2 5756.06 324.843  28
   3  -8   2 5528.64 316.206   8
   3  -8   2 5524.77 323.784  45
   3  -8   2 5542.24 315.202  43
   3  -8   3 3483.42 260.332  39
   3  -8   3 3304.14 562.742  21
   3  -8   3 3605.29 255.050  28
   3  -8   3 3688.22 258.463   8
   3  -8   3 3690.63 265.173  45
   3  -8   3 3791.09 259.928  43
   3  -8   4 4975.99 305.918  39
   3  -8   4 5380.75 302.509  28
   3  -8   4 5530.18 305.043   8
   3  -8   4 5662.62 320.464  45
   3  -8   4 4971.43 284.968  43
   3  -8   5 2476.00 211.690  39
   3  -8   5 2710.78 213.103  28
   3  -8   5 2693.70 209.464   8
   3  -8   5 2665.66 184.113  42
   3  -8   6 1511.89 158.246  39
   3  -8   6 1691.55 160.095  28
   3  -8   6 1573.54 152.292   8
   3  -8   6 1641.19 137.309  42
   3  -8   7 1710.83 157.397  39
   3  -8   7 2032.45 157.097  28
   3  -8   7 1728.99 141.423   8
   3  -8   7 1788.86 126.846  42
   3  -8   8 532.953 83.5702  39
   3  -8   8 643.844 84.1967  28
   3  -8   8 475.986 68.4450   8
   3  -8   8 570.273 70.4697  51
   3  -8   8 573.664 62.5792  42
   3  -7  -8 886.486 81.8239  45
   3  -7  -8 862.776 81.8888  43
   3  -7  -7 2703.48 160.654  39
   3  -7  -7 2942.41 173.888  45
   3  -7  -6 4510.24 235.716  39
   3  -7  -6 4108.10 212.898  28
   3  -7  -6 4550.74 237.952  45
   3  -7  -6 4457.84 235.610  43
   3  -7  -5 24169.8 622.183  39
   3  -7  -5 24036.3 612.696  28
   3  -7  -5 24746.8 622.497  45
   3  -7  -5 25177.3 625.854  43
   3  -7  -4 4679.04 273.062  39
   3  -7  -4 4793.88 610.513  21
   3  -7  -4 4804.27 278.754  28
   3  -7  -4 4935.93 276.283  45
   3  -7  -4 4501.66 267.692  43
   3  -7  -3 24564.4 675.925  39
   3  -7  -3 24079.8 1389.80  21
   3  -7  -3 23939.6 679.985  28
   3  -7  -3 24038.0 664.255  45
   3  -7  -2 27260.1 738.792  39
   3  -7  -2 28663.6 1534.65  21
   3  -7  -2 25620.7 1490.89  64
   3  -7  -2 30084.7 784.390  28
   3  -7  -2 29695.7 756.893  45
   3  -7  -2 30880.2 766.357  43
   3  -7  -1 2726.23 223.104  39
   3  -7  -1 2296.31 439.566  21
   3  -7  -1 2524.55 475.814  64
   3  -7  -1 2700.83 229.768  28
   3  -7  -1 3009.81 240.753   8
   3  -7  -1 2698.17 223.242  45
   3  -7  -1 2742.02 223.471  43
   3  -7   0 11426.2 469.903  39
   3  -7   0 10986.6 953.352  21
   3  -7   0 11377.0 991.908  64
   3  -7   0 11307.9 474.338  28
   3  -7   0 11151.1 474.112   8
   3  -7   0 11584.3 473.982  45
   3  -7   0 10413.1 450.592  43
   3  -7   1 7315.78 378.109  39
   3  -7   1 8918.59 880.752  21
   3  -7   1 8116.77 848.030  64
   3  -7   1 8061.65 402.483  28
   3  -7   1 7735.26 403.567   8
   3  -7   1 8065.53 401.424  45
   3  -7   1 7925.05 391.141  43
   3  -7   2 802.297 139.346  39
   3  -7   2 741.822 284.950  21
   3  -7   2 664.614 258.147  64
   3  -7   2 605.888 264.708  18
   3  -7   2 643.985 122.115  28
   3  -7   2 726.988 139.034   8
   3  -7   2 768.642 136.638  45
   3  -7   2 797.634 136.773  43
   3  -7   3 11682.0 498.995  39
   3  -7   3 12813.5 1089.42  21
   3  -7   3 10804.3 1007.70  64
   3  -7   3 11254.6 1002.39  18
   3  -7   3 12151.6 494.561  28
   3  -7   3 12852.3 528.778   8
   3  -7   3 11959.2 514.767  45
   3  -7   3 11873.4 498.859  43
   3  -7   3 12812.7 498.636  42
   3  -7   4 11743.9 505.319  39
   3  -7   4 12106.8 1069.43  21
   3  -7   4 10476.3 988.201  18
   3  -7   4 11954.3 492.044  28
   3  -7   4 11452.4 498.065   8
   3  -7   4 11427.9 498.709  45
   3  -7   4 11846.2 474.370  42
   3  -7   5 2023.47 213.188  39
   3  -7   5 1210.27 349.689  18
   3  -7   5 1991.77 204.748  28
   3  -7   5 1934.52 202.986   8
   3  -7   5 1820.49 201.043  45
   3  -7   5 2073.57 196.620  42
   3  -7   6 13645.3 524.805  39
   3  -7   6 14254.2 516.539  28
   3  -7   6 13867.3 510.490   8
   3  -7   6 14017.4 486.222  42
   3  -7   7 1205.68 158.308  39
   3  -7   7 1201.62 148.786  28
   3  -7   7 1197.27 145.025   8
   3  -7   7 1203.76 135.988  42
   3  -7   8 854.612 123.263  39
   3  -7   8 1016.39 125.463  28
   3  -7   8 1135.83 125.924   8
   3  -7   8 1002.17 114.970  42
   3  -7   9 557.744 82.5185   8
   3  -7   9 428.732 72.4692  28
   3  -7   9 430.727 78.8308  51
   3  -7   9 603.755 75.5021  42
   3  -6  -9 4975.27 183.551  45
   3  -6  -8 6849.72 257.286  39
   3  -6  -8 7052.94 269.307  45
   3  -6  -8 6867.88 262.063  43
   3  -6  -7 2889.98 191.342  39
   3  -6  -7 2381.42 166.557  28
   3  -6  -7 2843.95 192.288  45
   3  -6  -7 2605.75 187.557  43
   3  -6  -6 2996.54 213.813  39
   3  -6  -6 2872.26 202.729  28
   3  -6  -6 3054.07 211.001  45
   3  -6  -6 2910.53 210.231  43
   3  -6  -5 1590.51 170.677  39
   3  -6  -5 1349.11 337.462  21
   3  -6  -5 1578.45 169.756  28
   3  -6  -5 1620.04 167.172  45
   3  -6  -5 1613.07 169.799  43
   3  -6  -4 2236.30 197.443  39
   3  -6  -4 2573.75 448.491  21
   3  -6  -4 1591.11 369.565  64
   3  -6  -4 2047.56 198.028  28
   3  -6  -4 2217.31 192.697  45
   3  -6  -4 2077.57 193.755  43
   3  -6  -3 432.884 98.6319  39
   3  -6  -3 304.479 191.948  21
   3  -6  -3 601.099 256.756  64
   3  -6  -3 432.678 103.360  28
   3  -6  -3 349.468 99.4275  45
   3  -6  -3 388.441 98.1711  43
   3  -6  -2 8162.30 811.709  12
   3  -6  -2 8129.89 378.637  39
   3  -6  -2 9269.60 822.829  21
   3  -6  -2 9090.84 835.616  64
   3  -6  -2 8924.02 411.611  28
   3  -6  -2 8884.47 395.297  45
   3  -6  -2 8808.04 395.099  43
   3  -6  -1 3230.93 504.693  12
   3  -6  -1 2664.86 219.360  39
   3  -6  -1 3126.97 485.871  21
   3  -6  -1 2662.09 452.300  64
   3  -6  -1 2225.21 395.626  61
   3  -6  -1 2317.54 409.542  60
   3  -6  -1 2553.90 427.924  59
   3  -6  -1 2682.67 448.325  18
   3  -6  -1 2314.06 420.467  55
   3  -6  -1 2766.46 232.022  28
   3  -6  -1 2850.59 450.633  53
   3  -6  -1 2798.50 447.781  52
   3  -6  -1 2274.90 445.840   1
   3  -6  -1 2553.54 214.968  45
   3  -6  -1 2674.36 219.060  43
   3  -6   0 6441.75 703.055  12
   3  -6   0 5905.34 325.072  39
   3  -6   0 6732.27 707.426  21
   3  -6   0 5280.78 641.597  64
   3  -6   0 5578.87 617.903  61
   3  -6   0 5582.07 621.501  60
   3  -6   0 5588.09 615.442  59
   3  -6   0 4963.48 616.982  18
   3  -6   0 5806.50 649.026  55
   3  -6   0 6456.05 347.656  28
   3  -6   0 5866.89 645.600  53
   3  -6   0 5148.56 605.287  52
   3  -6   0 5862.30 669.350   1
   3  -6   0 5557.54 331.271   8
   3  -6   0 5481.23 320.662  45
   3  -6   0 6046.08 331.313  43
   3  -6   1 23426.6 1378.30  12
   3  -6   1 23131.4 682.842  39
   3  -6   1 25402.5 1398.68  21
   3  -6   1 21916.4 1310.87  64
   3  -6   1 23269.3 1283.25  61
   3  -6   1 23216.1 1272.14  59
   3  -6   1 19061.0 1239.86  18
   3  -6   1 22253.3 1302.80  55
   3  -6   1 24111.4 697.064  28
   3  -6   1 23175.5 1281.01  60
   3  -6   1 22823.8 1289.89  53
   3  -6   1 21944.1 1263.55  52
   3  -6   1 23826.9 1326.07   1
   3  -6   1 22916.0 703.916   8
   3  -6   1 21692.6 671.778  45
   3  -6   1 20808.4 647.592  43
   3  -6   2 8114.98 838.326  12
   3  -6   2 7958.50 399.731  39
   3  -6   2 9151.24 855.518  21
   3  -6   2 8446.75 819.042  64
   3  -6   2 8023.86 771.336  61
   3  -6   2 7421.70 744.904  60
   3  -6   2 8158.71 823.012  18
   3  -6   2 7655.70 780.254  55
   3  -6   2 8236.25 400.053  28
   3  -6   2 7247.59 744.096  53
   3  -6   2 7717.57 769.889  52
   3  -6   2 8254.14 810.371   1
   3  -6   2 7907.38 412.645   8
   3  -6   2 7090.79 384.282  45
   3  -6   2 7097.23 379.185  43
   3  -6   2 7584.07 390.786  42
   3  -6   3 6893.78 800.985  12
   3  -6   3 6586.81 372.968  39
   3  -6   3 7812.81 809.273  21
   3  -6   3 6903.22 761.280  64
   3  -6   3 6057.83 702.743  61
   3  -6   3 5959.06 694.289  60
   3  -6   3 7618.12 816.596  18
   3  -6   3 5700.13 689.277  57
   3  -6   3 6629.65 757.402  55
   3  -6   3 6989.03 373.384  28
   3  -6   3 6617.62 738.983  53
   3  -6   3 6340.68 729.212  52
   3  -6   3 7252.07 396.518   8
   3  -6   3 6164.37 712.683   1
   3  -6   3 5952.26 364.359  45
   3  -6   3 6789.92 372.938  42
   3  -6   4 7186.00 400.026  39
   3  -6   4 7857.64 835.624  21
   3  -6   4 7720.96 834.478  64
   3  -6   4 7069.88 812.231  18
   3  -6   4 7587.17 394.258  28
   3  -6   4 7673.73 409.597   8
   3  -6   4 7107.76 782.854   1
   3  -6   4 6546.93 392.078  45
   3  -6   4 7512.04 391.449  42
   3  -6   5 51156.9 1174.41  39
   3  -6   5 53532.6 2265.60  21
   3  -6   5 54334.4 2310.81  64
   3  -6   5 56893.4 2337.66  18
   3  -6   5 53050.3 1152.72  28
   3  -6   5 53226.6 1174.20   8
   3  -6   5 54774.9 1147.34  42
   3  -6   6 30599.6 864.322  39
   3  -6   6 32088.4 1760.38  18
   3  -6   6 30528.8 833.761  28
   3  -6   6 30358.6 844.348   8
   3  -6   6 30597.1 812.888  42
   3  -6   7 2096.70 216.717  39
   3  -6   7 1794.78 425.121  18
   3  -6   7 2208.53 215.000  28
   3  -6   7 2019.35 207.118   8
   3  -6   7 2019.90 196.118  42
   3  -6   8 4705.03 296.150  39
   3  -6   8 4716.32 284.741  28
   3  -6   8 4869.66 288.725   8
   3  -6   8 4614.05 265.303  42
   3  -6   9 43.3187 62.1390  39
   3  -6   9 100.858 60.1293  28
   3  -6   9 40.2834 57.1368   8
   3  -6   9 24.1692 53.2836  42
   3  -6  10 2652.26 163.760   8
   3  -6  10 3032.14 160.676  42
   3  -5  -9 35.1675 33.6517  40
   3  -5  -9 72.1541 45.6244  39
   3  -5  -9 53.7427 48.5103  45
   3  -5  -9 50.7054 46.8353  43
   3  -5  -8 2907.21 178.053  40
   3  -5  -8 3549.16 210.601  45
   3  -5  -8 3491.57 213.227  43
   3  -5  -7 3983.43 226.117  40
   3  -5  -7 4328.51 252.952  43
   3  -5  -6 2864.28 471.117  21
   3  -5  -6 2666.94 433.643  24
   3  -5  -6 3063.51 226.263  43
   3  -5  -5 19816.8 1208.10  21
   3  -5  -5 21714.8 1194.45  24
   3  -5  -5 21121.9 611.578  43
   3  -5  -4 2565.07 436.951  12
   3  -5  -4 2936.91 463.522  21
   3  -5  -4 2827.42 451.372  64
   3  -5  -4 2088.38 390.224  54
   3  -5  -4 2847.80 424.106  24
   3  -5  -4 3283.58 234.155  45
   3  -5  -4 3088.90 229.687  43
   3  -5  -3 14636.5 1013.56  12
   3  -5  -3 15367.8 1010.12  21
   3  -5  -3 16450.3 1049.03  64
   3  -5  -3 14061.4 940.331  61
   3  -5  -3 14371.7 947.405  60
   3  -5  -3 13183.9 898.984  59
   3  -5  -3 16412.4 1051.72  18
   3  -5  -3 12379.2 883.389  54
   3  -5  -3 14010.4 924.327  53
   3  -5  -3 12736.7 900.445  52
   3  -5  -3 16418.1 970.269  24
   3  -5  -3 14789.7 507.501  45
   3  -5  -3 16109.5 530.633  43
   3  -5  -2 26584.3 1334.99  12
   3  -5  -2 26632.6 684.327  39
   3  -5  -2 28336.4 1351.62  21
   3  -5  -2 27299.8 1332.19  64
   3  -5  -2 26589.9 1257.35  61
   3  -5  -2 26180.4 1252.20  60
   3  -5  -2 27201.7 1258.00  59
   3  -5  -2 24824.4 1278.03  18
   3  -5  -2 24122.6 1207.18  54
   3  -5  -2 26451.9 1244.27  53
   3  -5  -2 26292.7 1273.12  52
   3  -5  -2 25118.8 675.565  45
   3  -5  -2 26919.2 699.107  43
   3  -5  -1 13641.3 934.693  12
   3  -5  -1 14222.7 940.017  21
   3  -5  -1 14329.1 944.882  64
   3  -5  -1 13804.2 887.600  61
   3  -5  -1 13617.1 882.291  60
   3  -5  -1 12989.4 849.164  59
   3  -5  -1 14693.7 966.795  18
   3  -5  -1 13364.0 905.252  55
   3  -5  -1 13396.5 873.958  53
   3  -5  -1 14550.8 926.123  52
   3  -5   0 1393.65 297.790  61
   3  -5   0 1250.98 286.734  12
   3  -5   0 1026.31 262.227  21
   3  -5   0 1075.22 277.838  64
   3  -5   0 1057.13 247.057  60
   3  -5   0 1042.05 241.701  59
   3  -5   0 1144.38 279.384  18
   3  -5   0 1100.32 267.276  55
   3  -5   0 1032.82 260.450  54
   3  -5   0 952.131 245.431  53
   3  -5   0 1162.11 285.234  52
   3  -5   0 1003.98 267.552   1
   3  -5   1 612.896 219.920  12
   3  -5   1 770.592 255.000  21
   3  -5   1 585.737 214.852  64
   3  -5   1 539.771 192.594  61
   3  -5   1 491.625 184.881  60
   3  -5   1 410.179 178.349  59
   3  -5   1 639.539 233.917  18
   3  -5   1 592.688 222.250  55
   3  -5   1 814.014 238.912  54
   3  -5   1 666.883 228.615  53
   3  -5   1 526.683 196.234  52
   3  -5   1 604.583 201.483   1
   3  -5   2 3139.75 475.648  12
   3  -5   2 2987.90 449.482  21
   3  -5   2 2985.87 454.734  64
   3  -5   2 2831.96 427.637  61
   3  -5   2 2887.83 426.191  59
   3  -5   2 3090.32 470.390  18
   3  -5   2 2622.35 421.301  55
   3  -5   2 2644.77 435.269  54
   3  -5   2 2626.41 413.496   1
   3  -5   2 2638.69 424.352  53
   3  -5   2 2725.64 422.972  52
   3  -5   2 2820.58 422.884  60
   3  -5   3 6300.20 690.600  12
   3  -5   3 5521.99 330.460  39
   3  -5   3 5627.18 636.334  21
   3  -5   3 6158.16 670.383  64
   3  -5   3 5795.82 630.097  61
   3  -5   3 6169.27 653.217  60
   3  -5   3 5935.87 676.165  18
   3  -5   3 6061.50 662.027  55
   3  -5   3 5452.91 630.507  54
   3  -5   3 5698.72 331.706  28
   3  -5   3 5758.58 643.588  53
   3  -5   3 6280.99 653.493   1
   3  -5   3 5853.13 639.238  52
   3  -5   4 7064.45 391.321  39
   3  -5   4 8069.58 791.522  21
   3  -5   4 8247.67 806.005  64
   3  -5   4 7221.56 742.853  61
   3  -5   4 8117.01 807.604  18
   3  -5   4 7819.95 779.531  57
   3  -5   4 7626.03 785.028  55
   3  -5   4 7232.54 765.875  54
   3  -5   4 7520.52 392.541  28
   3  -5   4 7488.08 758.764  53
   3  -5   4 6806.26 724.831  60
   3  -5   4 8142.41 757.238   1
   3  -5   4 7411.92 761.386  52
   3  -5   4 8078.40 412.673   8
   3  -5   4 7573.46 392.801  42
   3  -5   5 19470.8 673.120  39
   3  -5   5 19624.3 1280.58  21
   3  -5   5 19487.2 1300.96  64
   3  -5   5 17625.6 1236.58  61
   3  -5   5 18189.6 1258.02  60
   3  -5   5 20004.2 1313.70  18
   3  -5   5 16651.4 1219.15  57
   3  -5   5 18427.4 1296.71  55
   3  -5   5 14300.5 1139.35  54
   3  -5   5 19279.7 646.466  28
   3  -5   5 18414.2 1277.22  53
   3  -5   5 18146.4 1275.09  52
   3  -5   5 18843.0 652.129   8
   3  -5   5 17537.1 1139.29   1
   3  -5   5 19484.8 644.212  42
   3  -5   6 11409.5 516.240  39
   3  -5   6 11916.6 1049.80  18
   3  -5   6 11931.8 509.367  28
   3  -5   6 10646.2 491.105   8
   3  -5   6 10310.3 481.955  44
   3  -5   6 11140.3 479.670  42
   3  -5   7 6505.19 386.333  39
   3  -5   7 6842.77 807.038  18
   3  -5   7 6820.82 378.160  28
   3  -5   7 6585.39 376.323   8
   3  -5   7 6132.08 358.488  44
   3  -5   7 6705.28 364.880  42
   3  -5   8 1587.07 412.173  18
   3  -5   8 1780.57 194.715  28
   3  -5   8 1616.16 189.631   8
   3  -5   8 1968.04 191.225  44
   3  -5   8 1625.67 177.786  42
   3  -5   9 6711.89 332.392  28
   3  -5   9 6643.38 339.511   8
   3  -5   9 6718.98 311.579  44
   3  -5   9 6792.46 320.755  42
   3  -5  10 1669.02 158.361   8
   3  -5  10 1513.49 130.519  44
   3  -5  10 1756.52 150.140  42
   3  -5  11 5790.73 217.330  42
   3  -4 -10 1438.08 95.7925  40
   3  -4 -10 2264.31 133.385  43
   3  -4  -9 328.851 72.3806  40
   3  -4  -9 228.571 74.5879  45
   3  -4  -9 319.772 77.0716  43
   3  -4  -8 3976.40 232.418  40
   3  -4  -8 3365.61 475.509  24
   3  -4  -8 4067.28 242.833  45
   3  -4  -8 4039.90 249.402  43
   3  -4  -7 6073.65 309.680  40
   3  -4  -7 5916.87 660.686  21
   3  -4  -7 5558.10 631.530  24
   3  -4  -7 6517.80 326.856  45
   3  -4  -7 6870.29 332.589  43
   3  -4  -6 2899.40 218.103  40
   3  -4  -6 2973.65 470.693  21
   3  -4  -6 2523.31 422.507  64
   3  -4  -6 2560.12 437.592  24
   3  -4  -6 2759.81 220.834  45
   3  -4  -5 11689.5 909.919  12
   3  -4  -5 12733.4 944.145  21
   3  -4  -5 11180.4 903.695  11
   3  -4  -5 12526.1 900.319  64
   3  -4  -5 13352.0 955.085  18
   3  -4  -5 13443.7 931.469  24
   3  -4  -5 13864.2 487.095  45
   3  -4  -4 1572.27 311.794  64
   3  -4  -4 1919.93 356.072  12
   3  -4  -4 1607.55 337.859  21
   3  -4  -4 1775.53 355.177  11
   3  -4  -4 1583.00 305.616  61
   3  -4  -4 1560.95 299.827  60
   3  -4  -4 1530.78 300.984  59
   3  -4  -4 1722.93 316.289  58
   3  -4  -4 1961.06 374.025  18
   3  -4  -4 1468.93 303.634  54
   3  -4  -4 1473.30 307.693  53
   3  -4  -4 1628.73 317.602  52
   3  -4  -4 1854.03 178.037  45
   3  -4  -4 1908.74 346.919  24
   3  -4  -4 1868.48 350.649  14
   3  -4  -3 16346.8 977.938  21
   3  -4  -3 17252.5 981.031  11
   3  -4  -3 17939.7 995.566  64
   3  -4  -3 16760.7 922.670  61
   3  -4  -3 16501.9 912.822  60
   3  -4  -3 16213.2 899.654  59
   3  -4  -3 16147.6 898.290  58
   3  -4  -3 18202.9 1037.86  18
   3  -4  -3 16392.8 941.710  54
   3  -4  -3 14988.8 869.303  53
   3  -4  -3 14931.7 882.239  52
   3  -4  -3 18328.4 980.471  24
   3  -4  -2 33328.0 1357.26  12
   3  -4  -2 32167.1 1314.29  64
   3  -4  -2 32939.8 1338.62  21
   3  -4  -2 31026.9 1282.11  11
   3  -4  -2 31026.3 1224.83  62
   3  -4  -2 30426.3 1215.17  61
   3  -4  -2 28093.0 1176.98  60
   3  -4  -2 29184.1 1187.80  59
   3  -4  -2 36259.2 1402.81  18
   3  -4  -2 31212.3 1259.26  54
   3  -4  -2 31339.7 1224.03  53
   3  -4  -2 28630.7 1192.19  52
   3  -4  -1 3933.95 450.616  12
   3  -4  -1 3755.03 442.710  21
   3  -4  -1 3528.87 425.481  64
   3  -4  -1 4125.38 433.359  61
   3  -4  -1 3732.20 414.196  60
   3  -4  -1 3732.73 410.332  59
   3  -4  -1 3970.69 469.417  18
   3  -4  -1 3574.84 419.513  55
   3  -4  -1 3780.26 428.720  54
   3  -4  -1 3818.34 412.414  53
   3  -4  -1 3706.17 416.394  52
   3  -4   0 460.464 178.062  12
   3  -4   0 428.606 175.249  21
   3  -4   0 347.810 167.379  64
   3  -4   0 555.163 186.007  61
   3  -4   0 500.540 158.582  60
   3  -4   0 582.661 181.808  59
   3  -4   0 418.541 179.692  18
   3  -4   0 1017.79 239.874  55
   3  -4   0 666.814 203.473  54
   3  -4   0 739.833 197.115  53
   3  -4   0 717.197 203.543  52
   3  -4   1 3228.51 419.522  12
   3  -4   1 3390.39 421.572  21
   3  -4   1 3671.65 440.100  64
   3  -4   1 3051.72 381.601  61
   3  -4   1 3191.39 392.036  59
   3  -4   1 3189.93 431.365  18
   3  -4   1 3374.16 419.195  55
   3  -4   1 3307.31 410.814  54
   3  -4   1 3356.48 400.275  53
   3  -4   1 3273.58 404.863  52
   3  -4   1 3459.35 412.297  60
   3  -4   2 14088.0 897.769  12
   3  -4   2 13591.2 860.157  21
   3  -4   2 13970.4 875.564  64
   3  -4   2 15865.5 908.673  61
   3  -4   2 17096.2 937.873  59
   3  -4   2 14153.0 918.020  18
   3  -4   2 16993.9 961.779  55
   3  -4   2 12832.6 856.789  54
   3  -4   2 16480.0 938.983  53
   3  -4   2 17021.8 950.930  52
   3  -4   2 17407.7 948.944  60
   3  -4   3 34306.2 1477.88  12
   3  -4   3 34877.1 1449.92  21
   3  -4   3 36142.1 1496.85  64
   3  -4   3 32159.5 1382.11  61
   3  -4   3 34179.2 1428.89  60
   3  -4   3 34460.8 1495.55  18
   3  -4   3 35210.7 1399.49   1
   3  -4   3 33061.7 1436.20  55
   3  -4   3 33176.2 1458.25  54
   3  -4   3 33175.0 1422.75  53
   3  -4   3 32990.0 1419.99  52
   3  -4   4 8696.23 780.226  12
   3  -4   4 8905.06 764.520  21
   3  -4   4 9402.69 791.232  64
   3  -4   4 7982.00 723.775  61
   3  -4   4 8411.00 745.231  60
   3  -4   4 8763.39 775.552  18
   3  -4   4 8635.60 762.390  57
   3  -4   4 8972.40 724.541   1
   3  -4   4 8477.39 760.156  55
   3  -4   4 8778.07 783.908  54
   3  -4   4 8304.46 743.563  53
   3  -4   4 7941.87 729.333  52
   3  -4   5 94036.9 2695.65  21
   3  -4   5 93736.2 2760.38  64
   3  -4   5 89117.1 2672.70  61
   3  -4   5 91257.1 2717.62  60
   3  -4   5 93059.1 2758.02  18
   3  -4   5 88434.7 2700.75  57
   3  -4   5 91379.8 2776.59  55
   3  -4   5 89849.4 2785.45  54
   3  -4   5 92822.0 2488.27   1
   3  -4   5 87259.8 2679.91  53
   3  -4   5 87158.1 2685.42  52
   3  -4   6 6578.01 391.859  39
   3  -4   6 7302.99 785.597  61
   3  -4   6 7545.21 798.072  60
   3  -4   6 7515.89 787.148  18
   3  -4   6 7475.24 807.500  57
   3  -4   6 7924.91 829.648  55
   3  -4   6 6489.30 775.249  54
   3  -4   6 6390.65 371.979  28
   3  -4   6 7299.47 788.773  53
   3  -4   6 7344.41 790.933  52
   3  -4   6 7503.86 396.665   8
   3  -4   6 8802.10 455.909  44
   3  -4   6 7552.29 385.984  42
   3  -4   7 25387.1 788.959  39
   3  -4   7 23849.4 706.234  32
   3  -4   7 24003.5 737.564  28
   3  -4   7 24081.2 747.154   8
   3  -4   7 25447.3 780.763  44
   3  -4   7 23863.2 704.226  42
   3  -4   8 402.298 121.194  39
   3  -4   8 526.134 119.382  32
   3  -4   8 871.801 317.105  18
   3  -4   8 448.269 111.772  28
   3  -4   8 617.684 129.482   8
   3  -4   8 603.256 129.813  44
   3  -4   8 429.266 110.705  42
   3  -4   9 359.589 105.850  39
   3  -4   9 460.580 103.142  32
   3  -4   9 270.402 177.097  18
   3  -4   9 402.276 114.054   8
   3  -4   9 514.820 114.009  44
   3  -4   9 529.156 114.424  42
   3  -4  10 6096.18 271.704  32
   3  -4  10 6104.23 312.943   8
   3  -4  10 6054.71 297.899  44
   3  -4  10 5862.82 292.083  42
   3  -4  11 3845.39 180.708  32
   3  -4  11 3994.14 200.865  44
   3  -4  11 4489.53 221.333  42
   3  -4  12 6232.63 198.578  42
   3  -3 -10 1798.44 129.216  40
   3  -3  -9 417.503 90.6631  40
   3  -3  -9 430.743 98.5679  45
   3  -3  -8 4278.52 255.939  40
   3  -3  -8 4123.46 548.727  21
   3  -3  -8 3684.63 518.954  24
   3  -3  -7 6193.47 320.957  40
   3  -3  -7 5606.49 650.817  21
   3  -3  -7 5460.81 613.869  64
   3  -3  -7 5408.57 677.197  18
   3  -3  -7 4972.92 617.750  16
   3  -3  -7 6404.93 685.958  24
   3  -3  -6 14421.4 516.191  40
   3  -3  -6 14749.5 1035.28  12
   3  -3  -6 17265.2 1097.39  21
   3  -3  -6 15414.5 1006.95  64
   3  -3  -6 18875.7 1221.33  18
   3  -3  -6 15055.2 1031.58  16
   3  -3  -6 16459.1 1067.59  24
   3  -3  -5 7169.19 674.941  12
   3  -3  -5 6915.97 663.062  21
   3  -3  -5 6825.86 684.686  11
   3  -3  -5 7063.32 642.747  64
   3  -3  -5 5763.04 567.400  62
   3  -3  -5 8633.63 777.998  18
   3  -3  -5 7260.16 672.153  16
   3  -3  -5 6650.72 643.039  24
   3  -3  -5 6057.62 595.146  14
   3  -3  -4 5002.94 535.609  12
   3  -3  -4 5780.59 572.857  21
   3  -3  -4 5332.91 547.864  11
   3  -3  -4 4893.17 506.558  64
   3  -3  -4 4497.04 468.227  62
   3  -3  -4 4571.39 451.822  61
   3  -3  -4 5110.58 479.678  60
   3  -3  -4 4157.52 432.341  59
   3  -3  -4 4804.45 464.463  58
   3  -3  -4 6505.51 646.458  18
   3  -3  -4 5077.82 523.936  54
   3  -3  -4 4833.03 461.427  53
   3  -3  -4 4653.57 469.484  52
   3  -3  -4 5224.54 524.082  16
   3  -3  -4 5401.82 544.856  24
   3  -3  -4 4794.80 503.627  14
   3  -3  -3 23202.8 1078.63  12
   3  -3  -3 24222.5 1122.02  21
   3  -3  -3 23711.4 1072.23  11
   3  -3  -3 22743.3 1033.23  64
   3  -3  -3 23791.6 992.730  61
   3  -3  -3 22616.5 967.670  60
   3  -3  -3 22799.0 967.602  59
   3  -3  -3 24700.1 1001.08  58
   3  -3  -3 27402.3 1222.76  18
   3  -3  -3 22847.8 1029.03  54
   3  -3  -3 22980.1 968.081  53
   3  -3  -3 21418.3 951.178  52
   3  -3  -3 23904.2 1074.74  24
   3  -3  -3 23106.9 1050.49  14
   3  -3  -3 23355.8 1011.22  62
   3  -3  -2 296780. 4627.70  12
   3  -3  -2 319405. 4796.21  21
   3  -3  -2 312405. 4586.97  11
   3  -3  -2 305865. 4523.21  62
   3  -3  -2 293766. 4565.08  64
   3  -3  -2 302861. 4464.55  61
   3  -3  -2 311180. 4493.27  60
   3  -3  -2 300080. 4428.30  59
   3  -3  -2 312513. 4489.12  58
   3  -3  -2 306588. 4604.09  54
   3  -3  -2 331500. 4550.03  53
   3  -3  -2 286028. 4410.63  52
   3  -3  -2 303992. 4648.69  14
   3  -3  -1 270709. 4209.12  62
   3  -3  -1 285647. 4369.25  12
   3  -3  -1 294629. 4439.74  21
   3  -3  -1 286549. 4210.03  11
   3  -3  -1 283282. 4307.38  64
   3  -3  -1 286124. 4207.31  61
   3  -3  -1 278725. 4182.23  60
   3  -3  -1 285863. 4178.81  59
   3  -3  -1 310699. 4613.36  18
   3  -3  -1 291782. 4318.49  54
   3  -3  -1 283044. 4183.86  53
   3  -3  -1 303554. 4322.64  52
   3  -3   0 43309.4 1354.47  12
   3  -3   0 43029.3 1355.49  21
   3  -3   0 44949.1 1366.49  64
   3  -3   0 43679.2 1309.84  61
   3  -3   0 41780.9 1284.69  60
   3  -3   0 42961.7 1293.17  59
   3  -3   0 42939.3 1425.81  18
   3  -3   0 39922.2 1302.26  55
   3  -3   0 43880.6 1355.28  54
   3  -3   0 43505.1 1320.22  53
   3  -3   0 42461.5 1314.35  52
   3  -3   0 43044.1 1339.36  62
   3  -3   1 6210.29 507.840  12
   3  -3   1 5642.79 484.587  21
   3  -3   1 5921.89 491.462  64
   3  -3   1 5592.36 472.018  61
   3  -3   1 5808.41 474.530  60
   3  -3   1 5809.10 472.588  59
   3  -3   1 6439.05 543.007  18
   3  -3   1 5505.10 478.112  55
   3  -3   1 5370.25 477.351  54
   3  -3   1 5873.15 483.971  53
   3  -3   1 5384.95 466.423  52
   3  -3   2 20058.5 951.371  12
   3  -3   2 19539.4 929.393  61
   3  -3   2 19385.7 921.999  21
   3  -3   2 20617.9 952.394  64
   3  -3   2 19538.5 867.161  19
   3  -3   2 20998.3 965.310  60
   3  -3   2 20580.6 951.014  59
   3  -3   2 20146.1 993.106  18
   3  -3   2 21024.8 990.275  55
   3  -3   2 20426.7 978.928  54
   3  -3   2 20082.7 946.691  53
   3  -3   2 20133.5 956.638  52
   3  -3   3 212192. 3774.30  12
   3  -3   3 212184. 3716.49  21
   3  -3   3 213236. 3733.20  64
   3  -3   3 202341. 3509.52  19
   3  -3   3 202306. 3669.43  61
   3  -3   3 209430. 3720.09  60
   3  -3   3 213995. 3872.90  18
   3  -3   3 209546. 3792.32  55
   3  -3   3 210346. 3838.04  54
   3  -3   3 203703. 3705.78  53
   3  -3   3 205323. 3747.24  52
   3  -3   4 9820.42 746.353  12
   3  -3   4 10033.3 730.221  21
   3  -3   4 10256.8 748.945  64
   3  -3   4 9555.96 678.174  19
   3  -3   4 8951.47 704.203  61
   3  -3   4 10171.9 776.937  18
   3  -3   4 9151.14 716.638  57
   3  -3   4 10295.1 771.882  55
   3  -3   4 10883.7 816.640  54
   3  -3   4 9201.28 708.179  53
   3  -3   4 9543.82 730.909  60
   3  -3   4 9613.31 737.845  52
   3  -3   5 14630.9 927.717  21
   3  -3   5 15039.8 963.929  64
   3  -3   5 12685.4 828.579  19
   3  -3   5 13851.5 932.903  61
   3  -3   5 13851.2 930.344  60
   3  -3   5 14008.5 966.268  18
   3  -3   5 13269.4 926.240  57
   3  -3   5 13515.7 953.060  55
   3  -3   5 14056.6 993.801  54
   3  -3   5 13533.6 926.673  53
   3  -3   5 13629.2 936.304  52
   3  -3   6 9509.16 820.793  61
   3  -3   6 10166.8 877.615  18
   3  -3   6 10131.2 866.439  57
   3  -3   6 10375.1 895.204  55
   3  -3   6 9255.82 865.567  54
   3  -3   6 9679.30 837.160  53
   3  -3   6 9574.00 842.445  52
   3  -3   7 14786.3 592.482  39
   3  -3   7 17684.2 1209.91  61
   3  -3   7 17157.5 606.669  32
   3  -3   7 20736.8 1317.50  18
   3  -3   7 18097.8 1236.86  57
   3  -3   7 17903.9 1238.09  55
   3  -3   7 16888.0 1254.09  54
   3  -3   7 18117.1 1229.98  53
   3  -3   7 17897.7 1225.83  52
   3  -3   7 17665.9 623.337   8
   3  -3   7 18985.3 665.841  44
   3  -3   7 19369.3 629.643  42
   3  -3   8 10347.3 979.288  18
   3  -3   8 10096.4 454.143  32
   3  -3   8 10119.2 467.766   8
   3  -3   8 10496.4 485.244  44
   3  -3   8 9930.97 444.656  42
   3  -3   9 28023.1 1626.84  18
   3  -3   9 28332.2 746.731  32
   3  -3   9 29069.1 796.853   8
   3  -3   9 28306.1 792.387  44
   3  -3   9 29588.8 766.897  42
   3  -3  10 480.281 102.603  32
   3  -3  10 390.007 105.002  44
   3  -3  10 369.749 91.3557  42
   3  -3  11 14159.9 408.429  32
   3  -3  11 14871.8 447.483  44
   3  -3  11 14586.9 433.520  42
   3  -3  12 15040.3 350.408  32
   3  -3  12 15694.1 379.897  44
   3  -3  12 15777.0 371.774  42
   3  -2 -11 1655.20 101.126  40
   3  -2 -11 2271.62 122.581  43
   3  -2  -9 7963.63 743.174  24
   3  -2  -8 17619.8 1142.73  21
   3  -2  -8 19211.3 1199.76  24
   3  -2  -7 26699.7 1387.09  21
   3  -2  -7 23690.6 1271.53  64
   3  -2  -7 23578.7 1368.81  16
   3  -2  -7 24638.8 1370.56  24
   3  -2  -6 6420.61 649.501  12
   3  -2  -6 7039.09 690.364  21
   3  -2  -6 5880.57 669.403  11
   3  -2  -6 6536.32 629.953  64
   3  -2  -6 7008.00 709.827  16
   3  -2  -6 7172.69 706.204  24
   3  -2  -6 6358.45 621.208  14
   3  -2  -5 1598.90 308.196  12
   3  -2  -5 1654.39 335.467  21
   3  -2  -5 1977.37 356.999  11
   3  -2  -5 1680.95 313.284  64
   3  -2  -5 1581.18 336.970  16
   3  -2  -5 1884.99 349.792  24
   3  -2  -5 1669.01 305.178  14
   3  -2  -4 4106.30 450.146  12
   3  -2  -4 4689.52 494.506  21
   3  -2  -4 4792.24 503.817  11
   3  -2  -4 4723.40 462.245  64
   3  -2  -4 3687.62 365.375  61
   3  -2  -4 4185.10 389.951  60
   3  -2  -4 4034.20 382.108  59
   3  -2  -4 3704.57 368.054  58
   3  -2  -4 4138.50 382.397  53
   3  -2  -4 4595.84 412.241  52
   3  -2  -4 4732.47 493.762  16
   3  -2  -4 4597.79 499.069  24
   3  -2  -4 4397.95 447.915  14
   3  -2  -3 170342. 3049.58  12
   3  -2  -3 166916. 3126.81  21
   3  -2  -3 173736. 3105.02  11
   3  -2  -3 162092. 2939.92  64
   3  -2  -3 158675. 2724.62  61
   3  -2  -3 164162. 2759.15  60
   3  -2  -3 157939. 2702.44  59
   3  -2  -3 161946. 2730.29  58
   3  -2  -3 162778. 2734.30  53
   3  -2  -3 162236. 2763.11  52
   3  -2  -3 166436. 3046.27  16
   3  -2  -3 160322. 3074.41  24
   3  -2  -3 169223. 3016.95  14
   3  -2  -2 261018. 3977.64  12
   3  -2  -2 257671. 4056.06  21
   3  -2  -2 270483. 3901.93  11
   3  -2  -2 261819. 3893.96  64
   3  -2  -2 309243. 3921.13  61
   3  -2  -2 259882. 3738.15  60
   3  -2  -2 258813. 3888.05  62
   3  -2  -2 264416. 3744.85  59
   3  -2  -2 246550. 3670.91  58
   3  -2  -2 324184. 4564.05  18
   3  -2  -2 262134. 3944.07  54
   3  -2  -2 248353. 3673.63  53
   3  -2  -2 257992. 3745.71  52
   3  -2  -2 263621. 3981.83  14
   3  -2  -1 33945.0 1092.97  12
   3  -2  -1 32669.1 1104.27  21
   3  -2  -1 33861.0 994.384  11
   3  -2  -1 34070.2 1076.52  64
   3  -2  -1 32172.8 1044.13  62
   3  -2  -1 32488.2 996.790  61
   3  -2  -1 32388.2 996.558  60
   3  -2  -1 31136.2 966.847  59
   3  -2  -1 37739.9 1242.08  18
   3  -2  -1 38148.6 1139.00  54
   3  -2  -1 31366.8 991.924  53
   3  -2  -1 33464.1 1026.66  52
   3  -2  -1 32542.1 1088.29  14
   3  -2   0 61056.2 1481.56  12
   3  -2   0 60168.5 1501.11  21
   3  -2   0 62775.6 1358.18  11
   3  -2   0 59519.9 1454.56  64
   3  -2   0 61990.6 1503.38  62
   3  -2   0 62033.8 1452.03  61
   3  -2   0 61764.1 1448.20  60
   3  -2   0 62224.5 1438.71  59
   3  -2   0 63815.8 1615.25  18
   3  -2   0 63476.5 1515.59  55
   3  -2   0 57513.9 1453.74  54
   3  -2   0 60265.8 1439.62  53
   3  -2   0 61557.5 1466.10  52
   3  -2   0 61867.1 1550.95  14
   3  -2   1 38727.9 1154.74  12
   3  -2   1 37872.2 1148.72  21
   3  -2   1 38128.5 1138.54  64
   3  -2   1 38255.1 1200.62  62
   3  -2   1 38523.2 1156.87  61
   3  -2   1 37882.6 1149.65  60
   3  -2   1 38463.3 1151.78  59
   3  -2   1 39984.6 1248.71  18
   3  -2   1 37214.1 1167.68  55
   3  -2   1 37528.4 1170.13  54
   3  -2   1 38783.7 1163.27  53
   3  -2   1 40307.2 1194.84  52
   3  -2   2 1982.32 272.580  12
   3  -2   2 1938.36 266.703  21
   3  -2   2 2045.49 272.318  64
   3  -2   2 1720.20 252.169  19
   3  -2   2 1928.45 266.568  61
   3  -2   2 1803.18 260.473  60
   3  -2   2 1874.94 281.345  18
   3  -2   2 2003.97 284.560  55
   3  -2   2 1714.97 269.657  54
   3  -2   2 1842.89 268.503  53
   3  -2   2 1965.13 275.621  52
   3  -2   3 5993.42 484.138  12
   3  -2   3 5204.81 426.880  22
   3  -2   3 5681.65 465.829  21
   3  -2   3 5713.01 473.848  64
   3  -2   3 5819.67 478.318  19
   3  -2   3 6294.59 509.408  61
   3  -2   3 6062.75 500.800  60
   3  -2   3 5799.86 514.209  18
   3  -2   3 5547.56 490.042  57
   3  -2   3 6000.02 511.510  55
   3  -2   3 5955.72 516.229  54
   3  -2   3 6052.52 504.114  53
   3  -2   3 5815.88 496.660  52
   3  -2   4 64901.2 1795.73  12
   3  -2   4 65673.0 1709.89  22
   3  -2   4 69509.4 1905.45  60
   3  -2   4 62655.1 1749.20  21
   3  -2   4 67168.9 1819.39  64
   3  -2   4 68083.3 1848.39  19
   3  -2   4 66625.5 1871.75  61
   3  -2   4 66986.4 1894.50  57
   3  -2   4 69804.9 1946.93  55
   3  -2   4 69705.3 1982.57  54
   3  -2   4 68742.6 1892.12  53
   3  -2   4 67726.9 1910.63  52
   3  -2   5 18032.5 952.463  64
   3  -2   5 18282.5 982.487  19
   3  -2   5 17525.4 978.676  61
   3  -2   5 18661.9 1012.63  60
   3  -2   5 18910.5 1046.00  18
   3  -2   5 17199.5 985.142  57
   3  -2   5 18683.3 1044.52  55
   3  -2   5 17915.4 1049.03  54
   3  -2   5 17863.9 990.756  53
   3  -2   5 19002.0 1033.70  52
   3  -2   6 1287.26 292.895  19
   3  -2   6 1695.87 344.519  61
   3  -2   6 1540.17 342.520  18
   3  -2   6 1437.19 319.208  57
   3  -2   6 1209.48 306.491  55
   3  -2   6 1656.68 359.902  54
   3  -2   6 990.773 260.330  53
   3  -2   6 1031.27 290.547  52
   3  -2   7 21044.5 1177.12  19
   3  -2   7 20443.6 1226.79  61
   3  -2   7 20446.2 653.149  32
   3  -2   7 20244.3 1238.81  18
   3  -2   7 19723.8 1231.26  57
   3  -2   7 20038.9 1260.92  55
   3  -2   7 19273.8 1265.49  54
   3  -2   7 21055.9 1241.28  53
   3  -2   7 19896.4 1234.38  52
   3  -2   7 18380.0 632.419   8
   3  -2   7 19600.7 669.095  44
   3  -2   7 20519.8 654.522  42
   3  -2   8 7113.75 709.820  19
   3  -2   8 6120.77 712.444  61
   3  -2   8 7245.07 781.187  18
   3  -2   8 6627.32 367.019  32
   3  -2   8 6134.83 720.214  57
   3  -2   8 6199.03 741.196  55
   3  -2   8 6670.40 738.521  53
   3  -2   8 6566.85 368.714   8
   3  -2   8 6480.39 751.931  52
   3  -2   8 6645.94 380.446  44
   3  -2   8 7123.11 369.814  42
   3  -2   9 21756.4 1264.04  19
   3  -2   9 25315.5 1519.92  18
   3  -2   9 24961.6 707.765  32
   3  -2   9 24263.5 730.285   8
   3  -2   9 24176.9 733.883  44
   3  -2   9 24893.7 701.796  42
   3  -2  10 1165.76 152.530  32
   3  -2  10 1333.16 166.421   8
   3  -2  10 1310.82 171.304  44
   3  -2  10 1078.64 139.713  42
   3  -2  11 3250.93 210.739  32
   3  -2  11 3290.46 224.688  44
   3  -2  11 3276.05 210.403  42
   3  -2  12 1382.74 118.872  32
   3  -2  12 1401.66 127.263  44
   3  -2  12 1282.19 107.603  42
   3  -2  13 3413.89 129.827  32
   3  -2  13 3110.85 135.577  44
   3  -1 -10 757.567 113.598  40
   3  -1  -9 13788.0 1017.29  24
   3  -1  -8 9293.36 837.330  21
   3  -1  -8 8611.30 865.593  16
   3  -1  -8 9013.67 854.040  24
   3  -1  -7 1228.40 322.344  12
   3  -1  -7 1777.69 373.303  21
   3  -1  -7 1419.45 320.417  64
   3  -1  -7 1790.78 405.467  16
   3  -1  -7 1769.65 393.081  24
   3  -1  -6 20490.2 1097.08  64
   3  -1  -6 19192.4 1103.16  12
   3  -1  -6 21070.7 1174.75  21
   3  -1  -6 19919.1 1219.66  11
   3  -1  -6 21200.6 1246.95  16
   3  -1  -6 19380.3 1177.46  24
   3  -1  -5 16688.4 941.977  12
   3  -1  -5 17436.8 985.641  21
   3  -1  -5 17284.7 1035.76  11
   3  -1  -5 18052.0 954.673  64
   3  -1  -5 17972.0 1057.67  16
   3  -1  -5 17825.3 1056.01  24
   3  -1  -4 37289.9 1333.89  12
   3  -1  -4 38981.8 1413.33  21
   3  -1  -4 38656.1 1413.29  11
   3  -1  -4 38526.1 1307.37  64
   3  -1  -4 41674.6 1498.89  16
   3  -1  -4 40408.1 1499.77  24
   3  -1  -3 2772.62 329.945  12
   3  -1  -3 2877.71 354.299  21
   3  -1  -3 2724.09 326.976  11
   3  -1  -3 2482.31 298.951  64
   3  -1  -3 2424.50 245.689  61
   3  -1  -3 2674.17 258.712  60
   3  -1  -3 2245.03 235.529  59
   3  -1  -3 2462.18 249.384  58
   3  -1  -3 2477.99 249.967  53
   3  -1  -3 2709.67 259.836  52
   3  -1  -3 2938.14 358.293  16
   3  -1  -3 2492.53 332.052  24
   3  -1  -2 6714.54 461.991  12
   3  -1  -2 6542.62 484.283  21
   3  -1  -2 6457.30 438.600  11
   3  -1  -2 6900.73 465.970  64
   3  -1  -2 7146.36 403.988  61
   3  -1  -2 7594.61 415.483  60
   3  -1  -2 7200.92 401.883  59
   3  -1  -2 6850.73 395.241  58
   3  -1  -2 7523.56 408.236  53
   3  -1  -2 6843.49 397.906  52
   3  -1  -2 6551.31 462.280  16
   3  -1  -2 6416.61 455.010  14
   3  -1  -1 29274.1 923.788  12
   3  -1  -1 29047.9 969.690  21
   3  -1  -1 28694.2 829.201  11
   3  -1  -1 28698.6 913.058  64
   3  -1  -1 26538.6 895.314  62
   3  -1  -1 28738.2 838.773  61
   3  -1  -1 30169.3 857.519  60
   3  -1  -1 27419.3 811.940  59
   3  -1  -1 28389.0 908.021  54
   3  -1  -1 28361.3 833.498  53
   3  -1  -1 27986.2 938.684  14
   3  -1   0 22026.7 767.227  12
   3  -1   0 22248.5 802.439  21
   3  -1   0 22707.6 652.373  11
   3  -1   0 23400.0 792.124  64
   3  -1   0 21824.5 790.346  62
   3  -1   0 21980.5 746.639  61
   3  -1   0 23234.7 766.555  60
   3  -1   0 21229.1 729.665  59
   3  -1   0 26696.2 941.903  18
   3  -1   0 21563.4 761.861  55
   3  -1   0 24949.5 832.553  54
   3  -1   0 22915.1 765.695  53
   3  -1   0 23534.6 779.400  52
   3  -1   0 19993.6 777.247  14
   3  -1   1 75655.8 1526.09  12
   3  -1   1 71082.5 1511.56  21
   3  -1   1 75330.6 1532.01  64
   3  -1   1 74190.0 1613.45  62
   3  -1   1 78907.4 1602.31  61
   3  -1   1 77440.4 1591.83  60
   3  -1   1 81135.3 1613.22  59
   3  -1   1 77949.6 1707.63  18
   3  -1   1 81089.2 1650.04  55
   3  -1   1 64940.0 1529.09  54
   3  -1   1 71159.9 1551.22  53
   3  -1   1 75890.6 1598.48  52
   3  -1   2 46053.1 1184.96  12
   3  -1   2 40883.4 1124.34  21
   3  -1   2 48738.8 1221.16  64
   3  -1   2 47670.9 1265.26  61
   3  -1   2 44425.0 1248.87  19
   3  -1   2 50843.3 1307.31  60
   3  -1   2 48225.2 1345.00  18
   3  -1   2 44641.0 1246.97  57
   3  -1   2 51664.7 1346.72  55
   3  -1   2 47516.9 1303.32  54
   3  -1   2 49244.2 1290.75  53
   3  -1   2 50110.7 1317.40  52
   3  -1   3 37747.0 1105.09  12
   3  -1   3 39290.7 1138.12  64
   3  -1   3 36171.2 1189.76  19
   3  -1   3 37096.9 1191.04  61
   3  -1   3 37164.2 1183.62  60
   3  -1   3 36639.5 952.480   5
   3  -1   3 35638.0 1213.80  18
   3  -1   3 36075.3 1187.21  57
   3  -1   3 38696.2 1239.00  55
   3  -1   3 38197.1 1237.41  54
   3  -1   3 36823.6 1182.80  53
   3  -1   3 38824.9 1221.88  52
   3  -1   4 5654.65 470.379  22
   3  -1   4 6551.90 477.442  64
   3  -1   4 8204.37 590.993  19
   3  -1   4 6131.01 506.777  61
   3  -1   4 6865.48 536.270  60
   3  -1   4 5855.02 517.656  18
   3  -1   4 6313.54 525.804  57
   3  -1   4 6481.03 539.685  55
   3  -1   4 5502.01 507.987  54
   3  -1   4 5914.59 504.527  53
   3  -1   4 6310.29 524.094  52
   3  -1   5 3465.26 401.421  22
   3  -1   5 3254.61 366.290  64
   3  -1   5 3083.21 397.368  19
   3  -1   5 3139.50 399.366  61
   3  -1   5 3836.87 447.598  18
   3  -1   5 3384.53 423.799  57
   3  -1   5 3348.67 431.414  55
   3  -1   5 3207.72 427.251  54
   3  -1   5 2931.07 400.739  52
   3  -1   6 7054.34 597.457  22
   3  -1   6 7235.89 642.012  19
   3  -1   6 6987.03 635.565  61
   3  -1   6 6750.10 639.654  18
   3  -1   6 6962.61 646.416  57
   3  -1   6 6793.25 641.527  55
   3  -1   6 7012.94 676.533  54
   3  -1   6 7072.85 636.799  53
   3  -1   6 6608.81 626.232  52
   3  -1   7 27092.0 1243.44  22
   3  -1   7 27697.0 1349.41  19
   3  -1   7 24151.7 1274.17  61
   3  -1   7 24478.1 1301.21  18
   3  -1   7 24298.3 1300.90  57
   3  -1   7 23425.1 1337.00  54
   3  -1   7 24280.3 1305.44  52
   3  -1   8 6798.33 717.424  61
   3  -1   8 7249.03 751.963  18
   3  -1   8 6950.39 366.228  32
   3  -1   8 6710.68 365.578  30
   3  -1   8 6827.34 731.452  57
   3  -1   8 7070.00 750.827  55
   3  -1   8 7904.12 758.474  19
   3  -1   8 7253.67 745.132  53
   3  -1   8 6914.35 735.545  52
   3  -1   8 6808.00 377.286  44
   3  -1   8 6143.23 343.558  42
   3  -1   9 24916.9 1382.15  19
   3  -1   9 23352.1 685.242  32
   3  -1   9 24729.2 706.671  30
   3  -1   9 23610.0 715.476   8
   3  -1   9 22370.4 699.753  44
   3  -1   9 24212.6 692.134  42
   3  -1  10 2847.16 470.609  19
   3  -1  10 3145.29 236.037  32
   3  -1  10 3495.75 248.759  30
   3  -1  10 3116.06 238.918   8
   3  -1  10 3226.33 250.666  44
   3  -1  10 3142.55 227.648  42
   3  -1  11 19456.8 546.032  32
   3  -1  11 19531.8 519.693  30
   3  -1  11 19868.4 571.416  44
   3  -1  11 19539.1 523.854  42
   3  -1  12 31731.9 613.350  32
   3  -1  12 32129.0 644.040  44
   3  -1  13 4778.39 174.477  32
   3  -1  13 4973.30 183.706  44
   3   0  -9 22314.7 1292.35  21
   3   0  -9 25124.8 1415.46  24
   3   0  -8 264.731 158.441  21
   3   0  -8 263.034 180.616  64
   3   0  -8 155.199 175.678  16
   3   0  -8 224.987 154.962  24
   3   0  -7 11656.2 916.025  12
   3   0  -7 13067.1 973.227  21
   3   0  -7 11592.8 882.469  64
   3   0  -7 13517.4 1093.00  16
   3   0  -7 12135.4 1008.69  24
   3   0  -6 5173.79 568.805  12
   3   0  -6 5198.87 553.230  64
   3   0  -6 5440.68 673.965  16
   3   0  -6 5605.82 657.077  24
   3   0  -5 779.221 217.038  12
   3   0  -5 616.352 196.782  64
   3   0  -5 557.027 215.053  11
   3   0  -5 760.486 231.582  16
   3   0  -5 736.869 254.609  24
   3   0  -4 355.747 143.225  12
   3   0  -4 228.074 128.425  11
   3   0  -4 476.943 185.144  63
   3   0  -4 390.582 180.814  16
   3   0  -4 571.624 207.825  24
   3   0  -3 6269.10 473.089  12
   3   0  -3 5665.86 461.943  11
   3   0  -3 6403.38 464.385  64
   3   0  -3 6455.69 509.776  63
   3   0  -3 6692.39 548.012  16
   3   0  -3 5463.66 510.336  24
   3   0  -2 13437.1 630.228  12
   3   0  -2 13116.0 612.995  11
   3   0  -2 13507.9 664.124  63
   3   0  -2 13532.5 621.337  64
   3   0  -2 13093.4 679.341  16
   3   0  -1 49740.3 1188.63  12
   3   0  -1 48784.6 1267.40  21
   3   0  -1 50436.0 1086.41  11
   3   0  -1 49244.1 1187.22  64
   3   0  -1 48468.8 1185.22  63
   3   0  -1 54140.5 1073.06  61
   3   0  -1 60213.0 1117.19  60
   3   0  -1 50114.5 1035.03  59
   3   0  -1 55140.3 1105.82  55
   3   0  -1 53687.5 1071.28  53
   3   0  -1 59836.2 1126.54  52
   3   0  -1 47003.8 1218.68  14
   3   0   0 53473.1 1171.92  12
   3   0   0 54605.1 1250.90  21
   3   0   0 49833.2 917.690  11
   3   0   0 58843.1 1212.31  64
   3   0   0 54863.8 1264.51  62
   3   0   0 57296.5 1155.11  61
   3   0   0 56064.5 1147.90  60
   3   0   0 58937.4 1166.52  59
   3   0   0 54222.7 1154.23  55
   3   0   0 61222.5 1192.05  53
   3   0   0 54456.9 1146.07  52
   3   0   0 54337.3 1279.39  14
   3   0   1 16518.1 571.860  12
   3   0   1 13789.2 547.233  21
   3   0   1 16768.5 586.229  64
   3   0   1 15583.8 644.048  62
   3   0   1 15728.5 601.106  60
   3   0   1 17528.6 727.228  18
   3   0   1 16135.1 611.097  61
   3   0   1 15584.7 607.692  57
   3   0   1 16120.6 623.476  55
   3   0   1 17319.7 682.783  54
   3   0   1 14930.6 595.301  53
   3   0   1 15574.6 606.994  52
   3   0   1 15352.3 642.222  14
   3   0   2 6010.40 345.572  12
   3   0   2 7221.68 395.126  64
   3   0   2 5892.55 402.104  61
   3   0   2 6722.31 425.744  60
   3   0   2 6750.11 450.142  18
   3   0   2 6469.91 426.427  57
   3   0   2 6323.30 425.503  55
   3   0   2 6022.99 422.037  54
   3   0   2 5756.19 399.979  53
   3   0   2 5972.92 407.726  52
   3   0   3 79249.8 1471.20  12
   3   0   3 65429.2 1425.78  64
   3   0   3 73483.0 1727.75  19
   3   0   3 79888.9 1727.74  61
   3   0   3 78605.6 1720.76  60
   3   0   3 76087.7 1525.36   5
   3   0   3 74131.5 1711.96  18
   3   0   3 77941.1 1730.42  57
   3   0   3 81787.3 1793.55  55
   3   0   3 73114.4 1726.64  54
   3   0   3 80908.9 1738.40  53
   3   0   3 74939.2 1706.57  52
   3   0   4 315.234 126.600  22
   3   0   4 452.526 115.793  64
   3   0   4 280.484 142.684  19
   3   0   4 431.154 155.338  61
   3   0   4 285.520 141.061  18
   3   0   4 308.592 145.542  57
   3   0   4 327.475 158.127  55
   3   0   4 212.435 142.657  54
   3   0   4 459.718 152.905  53
   3   0   4 428.362 157.695  52
   3   0   5 62275.5 1748.95  22
   3   0   5 59343.6 1770.57  19
   3   0   5 63909.7 1767.16  61
   3   0   5 60446.1 1727.76  18
   3   0   5 60476.9 1760.73  57
   3   0   5 62876.9 1807.24  55
   3   0   5 63268.2 1860.00  54
   3   0   5 61997.6 1745.62  53
   3   0   5 60478.2 1752.49  52
   3   0   6 28615.1 1226.32  22
   3   0   6 28019.2 1251.25  19
   3   0   6 24362.9 1151.54  61
   3   0   6 27008.9 1198.12  18
   3   0   6 25679.0 1205.96  57
   3   0   6 25286.8 1211.17  55
   3   0   6 25569.5 1248.46  54
   3   0   6 25081.4 1164.17  53
   3   0   6 25063.3 1190.29  52
   3   0   7 38046.9 1520.31  22
   3   0   7 41090.5 1618.17  61
   3   0   7 43471.1 1653.36  18
   3   0   7 40556.7 1633.37  57
   3   0   7 40946.2 1651.18  55
   3   0   7 41432.8 1757.21  54
   3   0   7 40764.8 1606.59  53
   3   0   7 40024.0 1620.58  52
   3   0   8 8896.95 807.512  19
   3   0   8 7266.29 703.231  18
   3   0   8 7895.78 385.185  32
   3   0   8 7716.44 391.771  30
   3   0   8 7516.68 744.112  57
   3   0   8 7480.02 751.880  55
   3   0   8 7703.75 730.687  53
   3   0   8 7796.89 756.106  52
   3   0   8 6680.85 356.803  49
   3   0   8 7326.59 391.837  44
   3   0   9 5805.22 631.718  22
   3   0   9 5086.05 633.125  19
   3   0   9 5351.99 321.445  32
   3   0   9 5833.54 336.629  30
   3   0   9 5254.17 314.093  49
   3   0   9 5496.55 341.155  44
   3   0  10 5995.84 692.738  19
   3   0  10 5379.59 308.635  32
   3   0  10 5583.56 309.990  30
   3   0  10 5416.29 294.920  49
   3   0  10 5673.39 328.192  44
   3   0  11 3419.53 227.663  32
   3   0  11 3574.39 227.862  30
   3   0  11 3408.70 209.253  49
   3   0  11 3692.79 246.478  44
   3   0  12 8881.15 317.266  32
   3   0  12 8546.41 298.381  30
   3   0  12 9190.14 333.421  44
   3   0  13 2185.17 122.443  32
   3   0  13 2214.96 128.622  44
   3   1  -9 4653.88 590.018  21
   3   1  -9 5135.59 664.536  24
   3   1  -8 14217.7 1068.63  21
   3   1  -8 13547.2 987.382  64
   3   1  -8 15565.9 1240.01  16
   3   1  -8 14555.0 1137.18  24
   3   1  -7 5306.83 632.632  12
   3   1  -7 5193.03 725.187  65
   3   1  -7 3822.92 608.438  16
   3   1  -7 6238.73 754.169  24
   3   1  -6 17983.6 1099.86  12
   3   1  -6 18993.5 1291.83  65
   3   1  -6 17797.3 1144.66  63
   3   1  -6 19843.8 1286.50  16
   3   1  -6 18716.5 1227.56  24
   3   1  -5 22308.1 1124.34  12
   3   1  -5 24160.4 1241.26  11
   3   1  -5 24270.7 1337.58  65
   3   1  -5 24979.3 1261.17  63
   3   1  -5 23191.1 1286.27  16
   3   1  -5 25810.4 1347.93  24
   3   1  -4 104128. 2350.02  12
   3   1  -4 105923. 2460.56  11
   3   1  -4 116086. 2584.29  63
   3   1  -4 114475. 2721.53  16
   3   1  -3 2005.18 289.270  12
   3   1  -3 2463.93 320.138  11
   3   1  -3 2159.97 334.504  65
   3   1  -3 2412.15 325.077  63
   3   1  -3 1848.86 312.030  16
   3   1  -2 38813.7 1125.33  12
   3   1  -2 40072.8 1124.20  11
   3   1  -2 42715.0 1256.82  63
   3   1  -1 32210.6 902.638  12
   3   1  -1 31949.8 832.541  11
   3   1  -1 33347.5 980.746  63
   3   1   0 127602. 1870.88  12
   3   1   0 125026. 1911.35  64
   3   1   0 117727. 1870.62  63
   3   1   0 119214. 1681.95  61
   3   1   0 120003. 1685.32  60
   3   1   0 128634. 2050.78  62
   3   1   0 123264. 1702.97  57
   3   1   0 124871. 1720.53  55
   3   1   0 123703. 1998.07  54
   3   1   0 131925. 1734.36  52
   3   1   0 124314. 2027.81  14
   3   1   1 49190.0 972.845  12
   3   1   1 48219.2 1017.66  64
   3   1   1 47637.5 1192.16  62
   3   1   1 53817.1 1102.76  61
   3   1   1 51732.3 1090.83  57
   3   1   1 56251.4 1146.98  55
   3   1   1 53301.5 1219.67  54
   3   1   1 53763.6 1101.46  53
   3   1   1 55655.7 1128.42  52
   3   1   1 49588.9 1161.63  14
   3   1   2 26925.0 627.002  12
   3   1   2 26663.8 696.662  64
   3   1   2 31865.0 970.336  62
   3   1   2 31809.8 903.740  61
   3   1   2 25060.2 884.736  19
   3   1   2 31990.7 898.521   5
   3   1   2 31273.1 945.068  18
   3   1   2 32102.5 917.149  57
   3   1   2 29788.6 898.576  55
   3   1   2 30379.4 948.613  54
   3   1   2 29910.6 883.198  53
   3   1   2 32241.5 921.115  52
   3   1   3 1956.39 256.598  22
   3   1   3 2263.37 281.753  19
   3   1   3 2212.22 265.634  61
   3   1   3 2018.74 238.561   5
   3   1   3 1800.11 230.882  18
   3   1   3 2125.14 260.096  57
   3   1   3 1972.27 251.950  55
   3   1   3 1958.42 249.389  53
   3   1   3 2122.25 265.033  52
   3   1   4 75046.2 1833.35  19
   3   1   4 74264.5 1765.15  61
   3   1   4 78890.4 1764.45  18
   3   1   4 70595.9 1757.01  57
   3   1   4 74861.0 1808.18  55
   3   1   4 71947.2 1811.42  54
   3   1   4 75498.0 1770.34  53
   3   1   4 72906.7 1776.59  52
   3   1   5 96004.4 2351.45  19
   3   1   5 108119. 2382.10  61
   3   1   5 120136. 2389.16  18
   3   1   5 105907. 2392.34  57
   3   1   5 107702. 2429.20  55
   3   1   5 107759. 2491.78  54
   3   1   5 108442. 2379.68  53
   3   1   5 107814. 2402.19  52
   3   1   6 77957.1 2168.03  19
   3   1   6 82190.8 2155.79  61
   3   1   6 74926.0 1991.53  18
   3   1   6 80235.0 2176.24  57
   3   1   6 81236.6 2202.44  55
   3   1   6 82781.3 2303.95  54
   3   1   6 82336.4 2148.52  53
   3   1   6 80196.9 2156.67  52
   3   1   7 42375.8 1615.40  22
   3   1   7 41807.2 1630.92  19
   3   1   7 40098.5 1592.18  57
   3   1   7 43013.9 1653.34  55
   3   1   7 40903.8 1572.88  53
   3   1   7 41168.3 1618.59  52
   3   1   8 13344.3 941.982  22
   3   1   8 13197.1 963.106  19
   3   1   8 10386.4 448.879  32
   3   1   8 11767.5 474.617  30
   3   1   8 11810.2 918.892  57
   3   1   8 11783.0 912.818  55
   3   1   8 11653.0 877.685  53
   3   1   8 11976.5 913.851  52
   3   1   8 12715.8 478.998  49
   3   1   8 10955.7 475.717  44
   3   1   9 68859.1 2280.68  22
   3   1   9 70612.8 2382.08  19
   3   1   9 63440.6 1238.54  32
   3   1   9 66853.9 1262.10  30
   3   1   9 70967.5 1272.62  49
   3   1   9 64339.8 1282.11  44
   3   1  10 10495.1 863.420  22
   3   1  10 11261.8 933.055  19
   3   1  10 9822.61 413.839  32
   3   1  10 11106.3 440.495  30
   3   1  10 11052.0 431.810  49
   3   1  10 10492.3 442.037  44
   3   1  11 1597.92 158.130  32
   3   1  11 1676.25 163.459  30
   3   1  11 1543.82 157.776  49
   3   1  11 1518.82 160.140  44
   3   1  12 751.006 94.5069  32
   3   1  12 748.408 96.3514  30
   3   1  12 599.910 87.3638  49
   3   1  12 641.633 95.9109  44
   3   1  13 7337.29 209.578  49
   3   1  13 10295.8 274.371  44
   3   2  -9 11305.6 971.010  24
   3   2  -8 4968.55 755.970  65
   3   2  -8 4961.16 712.739  16
   3   2  -8 6590.43 796.687  24
   3   2  -7 15278.5 1275.87  65
   3   2  -7 17964.4 1242.23  63
   3   2  -7 16717.7 1278.10  16
   3   2  -7 16450.1 1234.32  24
   3   2  -6 1827.31 379.904  12
   3   2  -6 1927.37 425.395  11
   3   2  -6 2017.35 453.085  65
   3   2  -6 2229.12 414.073  63
   3   2  -6 2021.71 444.062  16
   3   2  -6 2302.11 457.360  24
   3   2  -5 2813.45 446.351  11
   3   2  -5 3288.56 524.250  65
   3   2  -5 3112.71 466.180  63
   3   2  -5 3234.55 510.567  16
   3   2  -4 10346.3 759.550  11
   3   2  -4 12248.8 922.650  65
   3   2  -4 10443.4 768.776  63
   3   2  -3 17779.8 893.133  11
   3   2  -2 3469.18 347.364  11
   3   2  -1 153895. 2413.60  11
   3   2   0 11183.9 461.597  12
   3   2   0 12454.9 506.680  54
   3   2   0 12026.2 528.148  62
   3   2   1 1760.79 141.675  12
   3   2   1 1858.41 164.173  64
   3   2   1 2052.45 225.242  62
   3   2   1 2580.33 261.840  18
   3   2   1 2295.71 178.213  57
   3   2   1 2062.33 173.531  55
   3   2   1 1923.14 163.137  53
   3   2   1 2085.53 173.523  52
   3   2   1 2333.84 246.173  14
   3   2   2 62041.0 1543.55   7
   3   2   2 61933.7 1470.37  19
   3   2   2 58522.4 1354.51   5
   3   2   2 62390.4 1273.76  57
   3   2   2 62223.8 1286.96  55
   3   2   2 60867.5 1273.59  52
   3   2   3 22647.3 1025.67   7
   3   2   3 23266.0 914.695  22
   3   2   3 22833.5 911.230  19
   3   2   3 24084.1 832.822  61
   3   2   3 24279.7 841.483  57
   3   2   3 23897.7 844.188  55
   3   2   3 23902.6 866.913  54
   3   2   3 23526.4 819.307  53
   3   2   3 23214.5 829.666  52
   3   2   4 23063.0 1156.56   7
   3   2   4 23386.1 975.119  22
   3   2   4 24700.7 1037.68  19
   3   2   4 24078.2 941.488  57
   3   2   4 25367.0 973.587  55
   3   2   4 23640.9 954.355  54
   3   2   4 24645.1 921.306  53
   3   2   4 23541.2 923.177  52
   3   2   5 72587.5 2041.45  22
   3   2   5 82266.5 2466.40   7
   3   2   5 77085.0 2074.22  19
   3   2   5 85550.9 2071.63  57
   3   2   5 88920.8 2110.64  55
   3   2   5 84774.8 2099.21  54
   3   2   5 87142.2 2048.62  53
   3   2   5 87695.3 2088.52  52
   3   2   5 89642.3 2106.78  15
   3   2   6 13337.3 839.623  22
   3   2   6 11266.1 965.044   7
   3   2   6 12130.8 832.633  19
   3   2   6 11885.7 782.802  57
   3   2   6 12026.8 791.073  55
   3   2   6 12112.4 767.900  53
   3   2   6 11478.1 765.163  52
   3   2   6 11615.6 738.864  15
   3   2   7 6170.94 609.174  22
   3   2   7 6325.79 634.343  19
   3   2   7 7183.25 654.295  57
   3   2   7 6946.25 647.514  55
   3   2   7 6807.46 617.658  53
   3   2   7 6873.96 641.450  52
   3   2   8 425.946 221.152  22
   3   2   8 310.168 193.908  19
   3   2   8 356.451 93.9041  32
   3   2   8 362.481 102.098  30
   3   2   8 446.941 194.523  57
   3   2   8 495.334 215.291  55
   3   2   8 385.088 211.205  53
   3   2   8 323.960 178.951  52
   3   2   8 375.682 96.6150  49
   3   2   8 307.780 96.5916  44
   3   2   9 3356.82 507.172  22
   3   2   9 3903.33 542.896  19
   3   2   9 3584.99 253.190  32
   3   2   9 3676.51 256.150  31
   3   2   9 3574.78 252.464  30
   3   2   9 3727.35 257.173  49
   3   2   9 3608.38 264.086  44
   3   2  10 1251.40 332.278  22
   3   2  10 1356.52 344.603  19
   3   2  10 1718.63 170.921  32
   3   2  10 1564.63 161.970  31
   3   2  10 1623.14 170.206  30
   3   2  10 1533.40 166.061  49
   3   2  10 1723.82 179.879  44
   3   2  11 281.271 73.1944  32
   3   2  11 354.881 93.6775  30
   3   2  11 315.143 89.4562  49
   3   2  11 334.666 89.4673  44
   3   2  12 3001.14 176.059  32
   3   2  12 3233.70 190.083  30
   3   2  12 3073.97 181.297  49
   3   2  12 3188.42 189.127  44
   3   2  13 1081.35 81.3117  32
   3   2  13 1144.31 91.3822  30
   3   2  13 1096.74 84.7689  49
   3   2  13 981.370 81.4242  44
   3   3  -9 2006.74 433.066  24
   3   3  -8 21631.1 1495.54  16
   3   3  -8 22211.4 1458.91  24
   3   3  -7 21370.3 1575.68  65
   3   3  -7 20834.3 1376.28  63
   3   3  -7 22610.2 1509.84  16
   3   3  -7 21438.9 1468.95  24
   3   3  -6 39825.5 1927.59  11
   3   3  -6 47329.3 2258.92  65
   3   3  -6 44978.8 1952.59  63
   3   3  -6 43242.9 2044.74  16
   3   3  -5 43037.0 1863.05  11
   3   3  -5 43876.7 1810.95  63
   3   3  -4 1096.91 307.162  11
   3   3  -4 1138.25 358.136  65
   3   3  -4 1051.96 297.256  17
   3   3  -3 3772.48 446.159  13
   3   3  -1 45781.4 1022.24  10
   3   3   0 33382.1 1031.32   5
   3   3   0 33740.4 823.236  54
   3   3   1 5433.30 350.582  62
   3   3   1 5107.00 396.270  19
   3   3   1 5462.18 407.454   5
   3   3   1 5053.39 327.788  14
   3   3   1 4812.00 380.557   7
   3   3   2 9327.05 568.432  22
   3   3   2 9102.67 549.453  19
   3   3   2 9842.01 440.373  57
   3   3   2 9753.21 447.171  55
   3   3   2 9778.71 463.852  54
   3   3   2 9570.07 427.334  53
   3   3   2 9717.00 439.799  52
   3   3   2 9849.16 632.623   7
   3   3   3 164902. 2589.68  57
   3   3   3 167449. 2618.79  55
   3   3   3 163477. 2589.38  54
   3   3   3 164067. 2552.78  53
   3   3   3 169009. 2615.13  52
   3   3   4 6635.94 646.701   7
   3   3   4 7030.31 569.060  22
   3   3   4 6539.34 544.746  19
   3   3   4 7100.86 504.698  57
   3   3   4 6849.83 492.126  55
   3   3   4 6539.28 469.138  54
   3   3   4 6776.39 485.858  53
   3   3   4 6995.31 496.602  52
   3   3   4 6840.75 562.666  15
   3   3   5 9976.45 867.510   7
   3   3   5 11041.5 748.055  22
   3   3   5 13333.4 822.236  19
   3   3   5 11407.6 702.893  57
   3   3   5 11942.4 716.836  55
   3   3   5 11486.6 684.546  53
   3   3   5 11320.3 695.667  52
   3   3   5 12359.6 774.896  15
   3   3   6 10932.1 986.123   7
   3   3   6 12025.1 818.189  22
   3   3   6 14076.8 869.821  66
   3   3   6 12375.4 847.743  19
   3   3   6 11472.2 764.285  57
   3   3   6 12147.7 786.740  55
   3   3   6 12180.6 767.832  53
   3   3   6 11891.9 771.538  52
   3   3   6 11786.5 790.901  15
   3   3   7 18296.0 1078.32  22
   3   3   7 15896.6 1299.29   7
   3   3   7 19262.2 1130.54  19
   3   3   7 18968.2 1068.66  57
   3   3   7 19140.3 1084.36  55
   3   3   7 18965.7 1081.23  52
   3   3   8 384.768 243.140   7
   3   3   8 635.154 261.136  19
   3   3   8 436.158 108.340  31
   3   3   8 549.581 115.976  30
   3   3   8 308.693 194.719  57
   3   3   8 401.557 180.688  55
   3   3   8 565.070 224.814  53
   3   3   8 553.019 229.669  52
   3   3   8 596.658 111.584  49
   3   3   9 49591.6 1934.65  22
   3   3   9 50823.0 2005.26  19
   3   3   9 40958.0 937.129  32
   3   3   9 52852.7 1047.48  31
   3   3   9 48621.7 1004.13  30
   3   3   9 47614.0 1013.58  29
   3   3   9 50099.0 1003.01  49
   3   3   9 43082.8 968.067  44
   3   3  10 14793.6 1047.67  22
   3   3  10 14531.7 1061.75  19
   3   3  10 14795.7 477.555  32
   3   3  10 14956.8 495.256  31
   3   3  10 14677.9 492.650  30
   3   3  10 15246.3 492.819  49
   3   3  10 13584.0 474.159  44
   3   3  11 4037.60 217.920  32
   3   3  11 4119.01 227.561  31
   3   3  11 4357.18 242.597  30
   3   3  11 3871.69 231.288  49
   3   3  11 4242.97 230.947  44
   3   3  12 1386.55 108.087  32
   3   3  12 1581.87 128.962  49
   3   3  12 1559.94 119.452  44
   3   3  13 5815.58 189.541  49
   3   4 -10 2043.51 149.652  48
   3   4  -8 17110.6 1295.02  24
   3   4  -7 64533.5 2867.32  65
   3   4  -7 65816.8 2707.05  16
   3   4  -6 27591.4 1787.63  65
   3   4  -6 26864.4 1553.45  63
   3   4  -6 25265.0 1610.37  16
   3   4  -5 4781.14 670.281  11
   3   4  -5 5907.27 818.871  65
   3   4  -5 5305.41 739.075  17
   3   4  -4 1194.68 330.606  11
   3   4  -4 1261.52 350.901  17
   3   4  -3 63300.6 1839.67   5
   3   4  -3 100463. 2609.84  13
   3   4  -2 988.531 227.154   5
   3   4  -1 11323.6 559.525  10
   3   4  -1 11321.9 654.823   5
   3   4   0 21804.5 903.051   5
   3   4   1 38844.2 1235.12  22
   3   4   1 36423.7 1154.23  19
   3   4   2 8998.58 601.153  22
   3   4   2 9932.18 612.835  19
   3   4   2 10476.9 461.839  57
   3   4   2 9319.78 445.788  55
   3   4   2 9664.77 454.115  52
   3   4   2 9906.51 676.130  15
   3   4   2 9484.59 670.615   7
   3   4   3 43051.4 1408.92  22
   3   4   3 44717.0 1155.93  57
   3   4   3 45333.0 1173.54  55
   3   4   3 45052.3 1172.44  52
   3   4   3 43704.8 1495.05  15
   3   4   3 42025.6 1592.12   7
   3   4   4 74449.0 2022.93  22
   3   4   4 76898.9 1755.85  57
   3   4   4 76033.7 1772.04  55
   3   4   4 74850.4 1751.23  52
   3   4   4 78622.9 2115.05  15
   3   4   4 73049.8 2337.89   7
   3   4   5 13959.4 866.634  22
   3   4   5 14119.1 904.941  66
   3   4   5 12032.2 801.376  19
   3   4   5 13046.6 758.738  57
   3   4   5 13118.6 771.268  55
   3   4   5 12636.8 746.156  53
   3   4   5 13083.1 770.336  52
   3   4   5 12647.4 851.812  15
   3   4   5 12210.8 1008.57   7
   3   4   6 16767.0 1303.53   7
   3   4   6 20282.8 1104.52  22
   3   4   6 20133.2 1105.50  19
   3   4   6 18988.1 997.317  57
   3   4   6 19627.0 1027.16  55
   3   4   6 20172.2 1004.77  53
   3   4   6 20447.1 1034.33  52
   3   4   6 18632.5 1086.19  15
   3   4   6 21770.8 1245.48  23
   3   4   7-10.5517 137.147  22
   3   4   7-231.046 223.456   7
   3   4   7 85.5577 149.094  19
   3   4   7 81.5738 66.3717  30
   3   4   7 19.4734 96.4539  57
   3   4   7 84.8666 114.185  55
   3   4   7 28.5716 110.971  52
   3   4   7 7.51492 67.5407  49
   3   4   8 22376.7 1739.57   7
   3   4   8 23463.6 1323.37  19
   3   4   8 25878.2 700.869  31
   3   4   8 23988.2 679.458  30
   3   4   8 22995.6 1254.48  57
   3   4   8 22240.9 1247.47  55
   3   4   8 25902.4 730.065  29
   3   4   8 24030.9 1294.66  52
   3   4   8 26824.4 713.357  49
   3   4   9 31765.3 1544.39  22
   3   4   9 31614.4 1569.43  19
   3   4   9 35495.2 820.742  31
   3   4   9 31158.5 772.160  30
   3   4   9 32205.4 809.698  29
   3   4   9 31321.0 771.890  49
   3   4  10 17302.7 1093.29  22
   3   4  10 14800.1 1051.00  19
   3   4  10 16848.8 515.198  31
   3   4  10 15944.4 501.331  30
   3   4  10 15545.4 512.166  29
   3   4  10 15572.9 495.401  49
   3   4  11 7946.45 313.288  31
   3   4  11 7887.42 312.040  30
   3   4  11 7257.81 298.558  29
   3   4  11 7254.68 301.852  49
   3   4  12 533.964 71.5447  31
   3   4  12 533.502 79.9316  30
   3   4  12 640.315 86.6643  49
   3   4  13 230.306 42.6958  30
   3   4  13 193.259 37.8588  49
   3   5 -10 312.041 63.3173  48
   3   5  -8 35830.3 1849.96  24
   3   5  -7 13178.1 1188.15  16
   3   5  -6 12108.0 1242.47  65
   3   5  -6 11675.8 1063.41  63
   3   5  -6 9944.95 1096.26  17
   3   5  -5 16221.1 1370.60  65
   3   5  -5 15905.0 1337.36  17
   3   5  -4 2510.08 453.360  20
   3   5  -4 1772.88 418.800  11
   3   5  -4 2192.81 473.163  17
   3   5  -4 2441.75 472.787  13
   3   5  -3 2683.20 441.330  20
   3   5  -3 2789.24 474.673  13
   3   5  -2 10569.5 875.033  13
   3   5  -2 10331.5 774.970  66
   3   5  -2 9893.69 671.865   5
   3   5  -2 9469.14 709.373  15
   3   5  -1 7334.73 665.368  66
   3   5  -1 6607.60 541.467   5
   3   5  -1 6940.23 516.584  10
   3   5  -1 7393.24 629.314  15
   3   5   0 12135.3 840.252  66
   3   5   0 11053.3 634.574  10
   3   5   0 10830.2 764.021  15
   3   5   1 17327.1 1005.37  66
   3   5   1 16266.4 968.013  15
   3   5   2 8492.17 700.647  66
   3   5   2 8906.64 710.335  15
   3   5   2 8075.66 696.065   7
   3   5   3 42001.1 1496.55  22
   3   5   3 47456.6 1725.08  66
   3   5   3 48031.6 1270.87  57
   3   5   3 47310.8 1287.54  55
   3   5   3 47459.9 1300.06  52
   3   5   3 45350.2 1808.52   7
   3   5   4 5742.11 560.724  22
   3   5   4 5921.17 622.266  66
   3   5   4 6328.49 484.451  57
   3   5   4 5752.27 480.378  55
   3   5   4 5349.44 464.536  52
   3   5   4 6888.50 651.004  15
   3   5   4 5761.15 684.924   7
   3   5   5 4606.07 523.138  22
   3   5   5 4601.21 492.779  19
   3   5   5 5074.00 482.731  57
   3   5   5 4650.19 471.550  55
   3   5   5 4928.18 488.166  52
   3   5   5 4937.27 578.936  15
   3   5   5 5531.51 661.088  23
   3   5   5 4845.03 705.073   7
   3   5   6 6863.69 670.163  22
   3   5   6 6742.55 711.842  66
   3   5   6 6088.88 605.672  19
   3   5   6 6174.06 581.394  57
   3   5   6 6016.11 579.595  55
   3   5   6 6416.80 597.499  52
   3   5   6 7341.98 727.198  15
   3   5   6 6999.11 741.505  23
   3   5   6 6047.18 821.529   7
   3   5   7 4323.82 759.568   7
   3   5   7 3550.31 489.172  19
   3   5   7 4215.58 271.077  31
   3   5   7 3417.04 242.647  30
   3   5   7 3858.35 497.276  57
   3   5   7 3637.01 495.435  55
   3   5   7 4100.24 528.416  52
   3   5   7 3628.37 260.167  49
   3   5   7 4595.74 598.494  15
   3   5   8 33261.7 1585.89  22
   3   5   8 33631.2 1546.41  19
   3   5   8 32509.8 786.170  31
   3   5   8 32179.1 783.684  30
   3   5   8 35477.5 853.607  29
   3   5   8 31372.2 780.324  49
   3   5   9 2364.77 440.133  22
   3   5   9 2933.87 225.202  31
   3   5   9 3014.45 217.125  30
   3   5   9 2801.50 225.897  29
   3   5   9 2837.32 215.786  49
   3   5  10 4599.93 257.533  31
   3   5  10 4585.46 246.376  30
   3   5  10 4429.83 259.319  29
   3   5  10 4451.80 249.564  49
   3   5  10 3848.83 518.825  22
   3   5  11 1908.31 148.475  31
   3   5  11 1809.41 150.556  29
   3   5  11 1965.90 147.787  49
   3   5  12 248.644 52.1558  31
   3   5  12 156.770 49.2379  30
   3   5  12 231.616 51.7235  49
   3   6  -6 38034.0 2231.87  65
   3   6  -6 36340.8 2184.63  17
   3   6  -5 6609.68 923.942  65
   3   6  -5 4382.26 777.711  17
   3   6  -4 19833.1 1384.37  20
   3   6  -4 22185.2 1615.81  17
   3   6  -3 373.669 200.311  13
   3   6  -3 254.930 170.412  20
   3   6  -2 1860.86 369.823  66
   3   6  -2 1590.84 352.159  23
   3   6  -2 2311.16 457.064  13
   3   6  -1 5160.61 653.321  13
   3   6  -1 6335.04 690.899  66
   3   6  -1 5594.95 535.153  10
   3   6  -1 6482.59 645.559  15
   3   6  -1 6260.33 699.235  23
   3   6   0 13213.5 997.440  13
   3   6   0 12853.2 797.952  10
   3   6   0 12476.0 911.671  15
   3   6   0 12949.6 992.183  23
   3   6   1 12548.4 952.482  66
   3   6   1 10935.2 733.793  10
   3   6   1 12352.3 906.554  15
   3   6   1 12862.2 985.776  23
   3   6   2 9201.94 785.300  15
   3   6   2 7969.49 785.289   7
   3   6   2 9322.22 837.020  23
   3   6   3 2081.96 458.141   7
   3   6   3 2255.54 431.957  66
   3   6   3 2705.17 442.255  15
   3   6   3 3080.89 505.733  23
   3   6   4 46063.6 1650.89  22
   3   6   4 38910.6 1755.04  15
   3   6   4 48524.6 2054.25  23
   3   6   4 42404.1 2098.29   7
   3   6   5 5266.29 572.328  22
   3   6   5 4913.16 634.727  66
   3   6   5 3839.93 263.874  31
   3   6   5 3812.91 442.884  57
   3   6   5 4045.42 468.242  55
   3   6   5 3951.23 467.380  52
   3   6   5 4929.27 631.670  15
   3   6   5 5765.48 707.151  23
   3   6   5 4273.62 702.660   7
   3   6   6 9443.08 916.858  66
   3   6   6 10078.7 423.941  31
   3   6   6 9069.33 726.685  57
   3   6   6 8907.31 746.923  55
   3   6   6 8349.30 714.162  52
   3   6   6 10297.9 928.860  15
   3   6   6 10625.4 1000.56  23
   3   6   6 8783.49 1076.32   7
   3   6   7 650.525 256.419  22
   3   6   7 641.140 117.844  31
   3   6   7 492.162 112.734  29
   3   6   7 545.197 108.867  49
   3   6   7 1109.98 437.117  15
   3   6   8 26451.7 1401.15  22
   3   6   8 26678.0 694.279  31
   3   6   8 24052.9 633.022  30
   3   6   8 27885.1 738.877  29
   3   6   8 26888.1 682.689  49
   3   6   9 295.201 170.123  22
   3   6   9 327.074 105.917  31
   3   6   9 306.789 82.3298  30
   3   6   9 367.266 105.123  29
   3   6   9 200.109 72.7553  49
   3   6  10 2185.00 168.630  31
   3   6  10 1970.24 150.292  30
   3   6  10 2029.68 173.736  29
   3   6  10 1987.84 154.949  49
   3   6  11 1174.02 113.498  31
   3   6  11 916.838 88.8504  30
   3   6  11 1069.27 105.997  29
   3   6  11 972.305 97.8392  49
   3   6  12 3801.96 143.614  31
   3   6  12 3593.45 134.487  49
   3   7  -5 18565.3 1590.11  17
   3   7  -4 5860.83 792.235  20
   3   7  -4 5615.82 855.350  17
   3   7  -3 34520.4 1872.32  20
   3   7  -3 32681.7 1960.94  13
   3   7  -2 533.831 278.589  13
   3   7  -2 362.973 221.665  20
   3   7  -1 24350.0 1454.28  66
   3   7  -1 21736.9 1298.44  15
   3   7  -1 25237.4 1511.02  23
   3   7  -1 23292.3 1523.96  13
   3   7   0 5282.57 698.504  66
   3   7   0 4367.53 535.296  10
   3   7   0 5072.50 630.737  15
   3   7   0 5053.74 700.090  23
   3   7   0 4771.71 659.136  13
   3   7   1 504.142 240.828  13
   3   7   1 271.834 212.958  66
   3   7   1 683.494 224.445  10
   3   7   1 454.687 219.069  15
   3   7   1 603.930 270.452  23
   3   7   2 4741.82 671.523  13
   3   7   2 4379.35 613.088  66
   3   7   2 5183.12 577.136  10
   3   7   2 5276.40 676.640  15
   3   7   2 5217.69 688.239  23
   3   7   3 35182.8 1796.71  13
   3   7   3 34687.8 1763.42  66
   3   7   3 35233.1 1522.77  10
   3   7   3 33295.1 1676.60  15
   3   7   3 34920.5 1802.76  23
   3   7   4 16446.6 1221.70  13
   3   7   4 19761.0 1326.61  66
   3   7   4 18814.0 1271.18  15
   3   7   4 19771.9 1354.00  23
   3   7   4 15092.4 1394.88   7
   3   7   5 14993.0 1192.62  66
   3   7   5 13656.1 496.743  31
   3   7   5 18374.3 1288.47  15
   3   7   5 15714.9 1249.45  23
   3   7   5 11383.5 1272.57   7
   3   7   6 5132.26 706.713  66
   3   7   6 6591.63 338.681  31
   3   7   6 6118.73 338.864  29
   3   7   6 5891.62 767.110  15
   3   7   6 5184.60 638.894  23
   3   7   7 46180.8 971.257  31
   3   7   7 52645.7 1052.24  29
   3   7   8 162.789 81.7010  31
   3   7   8 129.271 77.9196  29
   3   7   9 5231.44 265.037  31
   3   7   9 5635.59 286.748  29
   3   7   9 4986.48 233.311  49
   3   7  10 4552.64 215.774  31
   3   7  10 4555.69 225.359  29
   3   7  10 4015.76 182.655  49
   3   7  11 8297.34 246.267  31
   3   7  11 8657.78 251.862  29
   3   8  -4 2899.15 610.462  20
   3   8  -4 3857.57 713.562  17
   3   8  -3 1624.56 447.473  20
   3   8  -3 1983.19 513.986  17
   3   8  -2 12739.0 1154.87  20
   3   8  -1 36987.9 1919.36  20
   3   8  -1 37545.6 1974.53  23
   3   8  -1 39156.0 2133.88  13
   3   8   0 6528.51 776.610  20
   3   8   0 5691.88 766.264  66
   3   8   0 5098.40 681.011  15
   3   8   0 6437.45 820.127  23
   3   8   0 6292.13 837.630  13
   3   8   1 81130.8 2865.00  15
   3   8   1 91734.1 3220.62  23
   3   8   1 85007.7 3120.39  13
   3   8   2 40325.5 2040.36  66
   3   8   2 40127.2 2003.29  15
   3   8   2 45599.4 2193.90  23
   3   8   2 41228.3 2107.25  13
   3   8   3 3849.90 631.406  66
   3   8   3 4059.03 629.051  15
   3   8   3 4243.52 663.415  23
   3   8   3 3360.56 601.676  13
   3   8   4 37355.8 1948.47  66
   3   8   4 36214.1 874.493  29
   3   8   4 36522.9 1911.38  15
   3   8   5 4718.82 716.764  66
   3   8   5 6073.83 332.180  29
   3   8   5 4185.69 657.090  15
   3   8   5 3764.39 574.124  23
   3   8   6 6407.46 312.520  31
   3   8   6 6327.48 328.341  29
   3   8   7 4099.40 242.771  31
   3   8   7 4307.98 266.260  29
   3   8   8 8081.69 337.716  33
   3   8   8 7714.17 315.780  31
   3   8   8 8273.56 342.360  29
   3   8   9 745.766 97.5801  31
   3   8   9 779.759 103.958  29
   3   8  10 643.262 77.9095  31
   3   8  10 636.356 77.5765  29
   3   9  -1 5069.62 718.439  20
   3   9   0 20766.1 1441.22  20
   3   9   1 1848.50 432.524  20
   3   9   1 1365.24 397.293  66
   3   9   2 141.879 170.024  20
   3   9   2 478.641 277.568  66
   3   9   3 5142.97 701.124  20
   3   9   3 3758.04 634.682  66
   3   9   5 861.342 128.614  29
   3   9   5 13449.6 1268.13  23
   3   9   7 11649.8 406.435  33
   3   9   7 11156.1 377.592  29
   3   9   8 4377.37 195.515  31
   3   9   8 4667.71 219.850  29
   3   9   9 2673.61 132.651  31
   3   9   9 2907.30 147.395  29
   3  10  -5 723.649 86.5843  36
   3  10   2 35783.0 808.027  33
   3  10   3 22964.3 639.450  33
   3  10   5 7188.63 332.566  33
   3  10   6 3013.39 201.420  33
   3  10   6 2634.06 152.201  29
   3  10   7 37.2431 46.9730  33
   3  10   7 59.4975 38.1079  29
   3  11  -2 97.8551 45.7169  27
   3  11  -1 3440.24 222.528  27
   3  11   0 336.981 71.0247  34
   3  11   1 4312.76 234.342  34
   3  11   2 12711.0 410.995  34
   3  11   2 10201.2 340.621  33
   3  11   3 223.495 80.3394  34
   3  11   3 57.0007 53.9978  33
   3  11   4 1282.92 132.923  34
   3  11   4 1016.92 109.002  33
   3  11   5 4573.14 213.722  34
   3  11   5 3938.34 187.263  33
   3  11   6 3717.21 164.299  34
   3  11   6 3209.19 145.829  33
   4  -9  -3 4452.77 179.592  39
   4  -9  -2 1450.60 117.151  39
   4  -9  -2 1515.67 109.326  28
   4  -9  -2 1229.90 99.0269  43
   4  -9  -1 6064.69 248.192  39
   4  -9  -1 6443.71 246.491  28
   4  -9  -1 4351.29 192.105  45
   4  -9  -1 4983.42 208.100  43
   4  -9   0 9051.57 319.080  39
   4  -9   0 9624.35 318.490  28
   4  -9   1 4215.44 223.355  39
   4  -9   1 4388.37 218.130  28
   4  -9   2 909.211 107.241  39
   4  -9   2 821.715 100.625  28
   4  -9   3 10779.9 349.110  39
   4  -9   3 10495.9 334.429  28
   4  -9   4 9708.05 313.294  39
   4  -9   4 9534.50 302.811  28
   4  -9   5 4211.24 188.773  39
   4  -9   5 4264.15 180.151  28
   4  -8  -5 2859.36 144.972  39
   4  -8  -5 2666.60 139.039  43
   4  -8  -4 7120.40 267.924  39
   4  -8  -4 6915.71 252.760  43
   4  -8  -3 10474.6 354.385  39
   4  -8  -3 9602.49 333.374  28
   4  -8  -3 9490.91 326.023  45
   4  -8  -3 9622.43 331.951  43
   4  -8  -2 4245.49 237.424  39
   4  -8  -2 4504.27 242.983  28
   4  -8  -2 4349.83 229.442  45
   4  -8  -2 4287.32 227.619  43
   4  -8  -1 453.323 101.374  39
   4  -8  -1 430.777 94.9421  28
   4  -8  -1 458.802 85.1228   8
   4  -8  -1 425.470 88.6031  45
   4  -8  -1 501.032 89.7490  43
   4  -8   0 11109.3 412.011  39
   4  -8   0 11494.4 417.262  28
   4  -8   0 11374.2 405.519   8
   4  -8   0 9957.56 382.586  45
   4  -8   0 10922.5 389.372  43
   4  -8   1 3315.86 232.849  39
   4  -8   1 3313.87 226.879  28
   4  -8   1 3541.07 229.084   8
   4  -8   1 3006.89 209.160  45
   4  -8   1 3261.56 212.530  43
   4  -8   2 1626.75 168.923  39
   4  -8   2 1502.30 159.077  28
   4  -8   2 1733.63 163.711   8
   4  -8   3 4023.94 255.160  39
   4  -8   3 4267.25 253.106  28
   4  -8   3 4025.47 243.010   8
   4  -8   4 21289.9 589.285  39
   4  -8   4 21067.7 568.777  28
   4  -8   4 21583.8 568.203   8
   4  -8   4 19857.5 493.258  42
   4  -8   5 23422.3 596.595  39
   4  -8   5 24330.7 589.040  28
   4  -8   5 24741.8 586.286   8
   4  -8   5 22545.0 509.539  42
   4  -8   6 19109.5 495.970  39
   4  -8   6 19072.2 477.847  28
   4  -8   6 19640.0 476.867   8
   4  -8   7 78.0190 46.0082  39
   4  -8   7 83.0979 43.8980  28
   4  -8   7 68.5674 39.6253   8
   4  -8   7 85.1607 32.0538  42
   4  -7  -6 521.889 76.4499  39
   4  -7  -6 520.325 63.5822  28
   4  -7  -6 622.168 77.1169  45
   4  -7  -6 661.777 83.8928  43
   4  -7  -5 2216.94 161.087  39
   4  -7  -5 2282.09 156.506  28
   4  -7  -5 2350.58 157.256  45
   4  -7  -5 2173.67 157.684  43
   4  -7  -4 6807.53 298.446  39
   4  -7  -4 6306.55 289.338  28
   4  -7  -4 6523.97 285.024  45
   4  -7  -4 6441.41 288.959  43
   4  -7  -3 246.918 77.0771  39
   4  -7  -3 305.081 83.1132  28
   4  -7  -3 308.967 82.4715   8
   4  -7  -3 269.952 76.3787  45
   4  -7  -3 358.205 87.9055  43
   4  -7  -2 653.246 112.172  39
   4  -7  -2 575.545 237.416  21
   4  -7  -2 759.475 125.290  28
   4  -7  -2 656.279 113.989   8
   4  -7  -2 590.190 103.090  45
   4  -7  -2 636.002 110.005  43
   4  -7  -1 18974.7 579.905  39
   4  -7  -1 18640.3 1234.84  21
   4  -7  -1 19699.0 597.007  28
   4  -7  -1 19586.1 596.456   8
   4  -7  -1 18748.2 570.976  45
   4  -7  -1 19818.1 579.285  43
   4  -7   0 953.924 136.523  39
   4  -7   0 864.748 296.013  21
   4  -7   0 734.323 124.996  28
   4  -7   0 884.832 134.098   8
   4  -7   0 859.408 130.589  45
   4  -7   0 752.049 124.595  43
   4  -7   1 5442.40 315.413  39
   4  -7   1 5257.37 679.036  21
   4  -7   1 5528.06 315.124  28
   4  -7   1 5418.17 320.449   8
   4  -7   1 5009.81 291.192  43
   4  -7   2 3309.25 251.927  39
   4  -7   2 3029.86 537.163  21
   4  -7   2 3301.49 247.712  28
   4  -7   2 3127.92 243.691   8
   4  -7   2 3261.59 232.448  42
   4  -7   3 1391.45 172.847  39
   4  -7   3 961.965 325.880  21
   4  -7   3 1462.44 168.313  28
   4  -7   3 1534.46 176.604   8
   4  -7   3 1406.10 162.175  42
   4  -7   4 4029.26 277.283  39
   4  -7   4 3970.66 267.117  28
   4  -7   4 3884.73 266.377   8
   4  -7   4 3749.50 247.423  42
   4  -7   5 5351.11 309.479  39
   4  -7   5 5021.30 290.366  28
   4  -7   5 5276.26 301.134   8
   4  -7   5 5211.01 279.205  42
   4  -7   6 13530.4 485.834  39
   4  -7   6 14095.1 471.361  28
   4  -7   6 15228.2 493.381   8
   4  -7   6 13929.0 445.784  42
   4  -7   7 6109.07 292.792  39
   4  -7   7 6354.72 289.194  28
   4  -7   7 6401.06 294.011   8
   4  -7   7 6215.53 269.681  42
   4  -7   8 659.204 93.6239  39
   4  -7   8 800.829 92.5903  28
   4  -7   8 915.318 104.455   8
   4  -7   8 1021.97 100.943  42
   4  -7   9 202.407 47.5388   8
   4  -7   9 272.120 45.8620  42
   4  -6  -7 765.436 88.6696  39
   4  -6  -7 629.956 73.1240  28
   4  -6  -7 653.458 80.0421  45
   4  -6  -7 833.752 91.3803  43
   4  -6  -6 4431.86 228.509  39
   4  -6  -6 4262.44 218.746  45
   4  -6  -6 4579.54 228.622  43
   4  -6  -5 10188.2 376.351  39
   4  -6  -5 10556.2 385.910  28
   4  -6  -5 10077.0 364.700  45
   4  -6  -5 10193.5 371.876  43
   4  -6  -4 3021.80 216.043  39
   4  -6  -4 3242.11 227.268  28
   4  -6  -4 2723.35 205.393  43
   4  -6  -3 3489.36 240.336  39
   4  -6  -3 3559.06 528.111  21
   4  -6  -3 3641.13 251.083  28
   4  -6  -3 3638.64 238.736  45
   4  -6  -3 3784.81 245.889  43
   4  -6  -2 385.913 100.439  39
   4  -6  -2 375.787 211.907  21
   4  -6  -2 384.293 106.817  28
   4  -6  -2 372.707 91.6067  45
   4  -6  -2 507.559 109.987  43
   4  -6  -1 3273.69 243.733  39
   4  -6  -1 3321.96 523.865  21
   4  -6  -1 3345.19 532.870  64
   4  -6  -1 2355.28 447.528  18
   4  -6  -1 3581.78 254.429  28
   4  -6  -1 3270.75 240.077  45
   4  -6  -1 3371.17 244.220  43
   4  -6   0 32529.3 821.132  39
   4  -6   0 35451.2 1713.08  21
   4  -6   0 30866.0 1620.39  64
   4  -6   0 31835.8 1658.13  18
   4  -6   0 32713.3 817.810  28
   4  -6   0 34215.1 855.372   8
   4  -6   0 32966.0 814.829  43
   4  -6   0 34568.8 850.552  42
   4  -6   1 310.465 101.499  39
   4  -6   1 521.565 239.299  21
   4  -6   1 337.907 174.413  64
   4  -6   1 367.075 230.986  18
   4  -6   1 339.519 97.9619  28
   4  -6   1 254.310 96.8308   8
   4  -6   1 473.375 113.081  42
   4  -6   2 8773.29 419.467  39
   4  -6   2 9728.07 908.470  21
   4  -6   2 9564.04 914.359  64
   4  -6   2 9775.99 940.996  18
   4  -6   2 8736.25 411.567  28
   4  -6   2 8976.38 429.128   8
   4  -6   2 9481.93 429.387  42
   4  -6   3 4326.60 298.827  39
   4  -6   3 3865.57 578.968  21
   4  -6   3 3972.41 608.838  64
   4  -6   3 4784.01 669.782  18
   4  -6   3 4027.29 282.074  28
   4  -6   3 4202.59 295.572   8
   4  -6   3 4198.30 292.234  42
   4  -6   4 10385.1 471.941  39
   4  -6   4 9988.57 941.974  21
   4  -6   4 9506.41 951.602  64
   4  -6   4 10489.6 990.304  18
   4  -6   4 10177.9 453.160  28
   4  -6   4 10555.9 472.525   8
   4  -6   4 10413.5 455.448  42
   4  -6   5 17770.1 622.260  39
   4  -6   5 18039.7 1301.62  18
   4  -6   5 18375.5 612.805  28
   4  -6   5 18402.7 626.467   8
   4  -6   5 18979.5 612.095  42
   4  -6   6 318.189 99.9996  39
   4  -6   6 401.034 99.8934  28
   4  -6   6 495.789 122.775   8
   4  -6   6 410.175 110.626  42
   4  -6   7 29455.7 766.238  39
   4  -6   7 29426.1 736.731  28
   4  -6   7 30476.0 765.576   8
   4  -6   7 31306.4 735.652  42
   4  -6   8 12280.7 415.173  28
   4  -6   8 12662.3 439.778   8
   4  -6   8 12893.1 416.668  42
   4  -6   9 941.286 110.719   8
   4  -6   9 990.942 105.713  42
   4  -6  10 355.345 62.2201  51
   4  -6  10 1055.91 86.9165  42
   4  -5  -8 1792.55 127.220  39
   4  -5  -8 1658.21 121.132  45
   4  -5  -8 1554.59 121.377  43
   4  -5  -7 2888.65 184.121  39
   4  -5  -7 2834.86 178.435  45
   4  -5  -7 2794.49 183.452  43
   4  -5  -6 791.777 123.640  39
   4  -5  -6 913.709 118.268  45
   4  -5  -6 779.654 118.766  43
   4  -5  -5 2639.99 449.416  21
   4  -5  -5 2760.93 204.449  45
   4  -5  -5 2463.19 205.308  43
   4  -5  -4 3358.90 510.859  21
   4  -5  -4 3751.63 243.708  45
   4  -5  -4 3368.01 235.742  43
   4  -5  -3 917.304 135.358  39
   4  -5  -3 1217.44 311.210  21
   4  -5  -3 1117.99 308.633  64
   4  -5  -3 874.809 273.097  18
   4  -5  -3 991.699 138.930  45
   4  -5  -3 922.317 135.532  43
   4  -5  -2 42088.1 1836.85  12
   4  -5  -2 41433.4 907.850  39
   4  -5  -2 44706.8 1843.40  21
   4  -5  -2 44159.1 1859.18  18
   4  -5  -2 44124.8 1837.35  64
   4  -5  -2 39737.6 905.235  28
   4  -5  -2 39359.7 895.110  45
   4  -5  -2 42684.3 923.496  43
   4  -5  -1 1317.58 355.335   1
   4  -5  -1 1756.83 176.981  39
   4  -5  -1 1623.14 366.361  12
   4  -5  -1 1561.21 337.850  21
   4  -5  -1 1495.59 332.075  64
   4  -5  -1 1021.28 271.131  61
   4  -5  -1 1440.35 338.573  60
   4  -5  -1 1116.07 293.581  59
   4  -5  -1 1768.68 380.938  18
   4  -5  -1 1451.59 342.978  55
   4  -5  -1 1211.30 316.993  54
   4  -5  -1 1585.78 166.192  28
   4  -5  -1 1382.40 348.458  53
   4  -5  -1 1647.63 367.180  52
   4  -5  -1 1484.58 162.521  43
   4  -5   0 27031.0 1464.12  12
   4  -5   0 26783.5 717.513  39
   4  -5   0 27986.5 1429.12  21
   4  -5   0 27052.2 1413.64  64
   4  -5   0 26308.3 1413.31  61
   4  -5   0 25381.9 1391.20  60
   4  -5   0 25204.2 1379.70  59
   4  -5   0 27180.4 1455.63  18
   4  -5   0 26749.0 1464.78  55
   4  -5   0 25438.5 701.444  28
   4  -5   0 24788.5 1383.91  53
   4  -5   0 25244.9 1407.05  52
   4  -5   1 944.751 134.557  39
   4  -5   1 872.900 280.510  12
   4  -5   1 772.354 246.856  21
   4  -5   1 650.248 242.389  64
   4  -5   1 976.995 291.635  61
   4  -5   1 864.545 257.546  60
   4  -5   1 777.810 276.829  59
   4  -5   1 781.999 263.575  18
   4  -5   1 911.771 278.458  55
   4  -5   1 488.668 215.590  54
   4  -5   1 893.280 133.573  28
   4  -5   1 771.570 265.351  53
   4  -5   1 1145.24 307.896  52
   4  -5   1 948.890 146.606   8
   4  -5   1 815.571 261.303   1
   4  -5   2 8883.69 861.874  12
   4  -5   2 8504.31 405.866  39
   4  -5   2 8378.07 786.363  21
   4  -5   2 8488.28 814.416  64
   4  -5   2 8209.86 808.770  61
   4  -5   2 8226.38 803.346  60
   4  -5   2 9820.69 898.884  18
   4  -5   2 8225.08 826.960  55
   4  -5   2 8534.63 809.911   1
   4  -5   2 6157.77 718.670  54
   4  -5   2 8171.68 397.626  28
   4  -5   2 8494.75 829.584  52
   4  -5   2 9315.28 429.689   8
   4  -5   2 8585.46 414.655  42
   4  -5   3 8331.02 865.354  12
   4  -5   3 8757.89 426.615  39
   4  -5   3 9360.28 851.581  21
   4  -5   3 8802.25 854.300  64
   4  -5   3 7926.11 815.479  61
   4  -5   3 8743.87 855.313  60
   4  -5   3 9132.92 879.433  18
   4  -5   3 7482.81 807.110  57
   4  -5   3 8993.71 888.104  55
   4  -5   3 6674.47 770.254  54
   4  -5   3 8551.81 825.551   1
   4  -5   3 9058.92 424.010  28
   4  -5   3 8651.12 853.806  53
   4  -5   3 8525.06 856.337  52
   4  -5   3 8859.62 426.401   8
   4  -5   3 9582.29 437.692  42
   4  -5   4 28472.1 816.487  39
   4  -5   4 30341.3 1579.85  21
   4  -5   4 29668.8 1622.45  64
   4  -5   4 31559.5 1678.47  18
   4  -5   4 29265.3 800.281  28
   4  -5   4 27286.1 1514.53   1
   4  -5   4 27751.1 795.827   8
   4  -5   4 27207.0 815.759  44
   4  -5   4 28722.7 795.957  42
   4  -5   5 13236.7 547.331  39
   4  -5   5 12413.9 1081.29  64
   4  -5   5 13807.0 1133.39  18
   4  -5   5 12811.8 523.949  28
   4  -5   5 13059.4 532.536   8
   4  -5   5 12913.9 544.635  44
   4  -5   5 12652.3 514.731  42
   4  -5   6 3100.54 265.238  39
   4  -5   6 3413.74 579.830  18
   4  -5   6 3049.79 255.523  28
   4  -5   6 2918.20 250.770   8
   4  -5   6 3365.83 273.759  44
   4  -5   6 2967.45 246.182  42
   4  -5   7 1306.40 177.448  39
   4  -5   7 916.232 321.673  18
   4  -5   7 1372.80 167.244  28
   4  -5   7 1144.33 165.035   8
   4  -5   7 941.185 147.496  44
   4  -5   7 1041.69 148.962  42
   4  -5   8 18434.0 601.217  39
   4  -5   8 18078.1 560.825  28
   4  -5   8 18967.2 598.116   8
   4  -5   8 19064.3 571.447  44
   4  -5   8 19107.4 569.857  42
   4  -5   9 326.628 84.1929  39
   4  -5   9 439.818 97.3324   8
   4  -5   9 477.102 99.8596  44
   4  -5   9 373.128 85.0708  42
   4  -5  10 1280.13 126.583   8
   4  -5  10 1119.53 101.488  44
   4  -5  10 1249.60 116.441  42
   4  -5  11 1757.09 110.858  51
   4  -5  11 5074.24 173.007  42
   4  -4  -9 482.732 69.5790  39
   4  -4  -9 413.215 63.4509  45
   4  -4  -9 429.147 68.3885  43
   4  -4  -8 6862.65 269.006  45
   4  -4  -8 6767.50 274.392  43
   4  -4  -7 10671.4 388.184  43
   4  -4  -6 3321.14 493.776  21
   4  -4  -6 3563.76 239.698  43
   4  -4  -5 3268.30 492.344  21
   4  -4  -5 2989.31 483.492  18
   4  -4  -5 3020.12 477.920  64
   4  -4  -5 3433.05 243.138  43
   4  -4  -4 1344.54 331.964  21
   4  -4  -4 988.664 291.950  64
   4  -4  -4 966.688 296.380  18
   4  -4  -4 917.267 136.095  45
   4  -4  -4 1179.28 148.366  43
   4  -4  -3 98894.1 2808.39  12
   4  -4  -3 110115. 2883.44  21
   4  -4  -3 104438. 2804.42  64
   4  -4  -3 107079. 2893.71  18
   4  -4  -3 94987.9 2718.68  54
   4  -4  -3 94196.4 1556.57  45
   4  -4  -3 106930. 1628.01  43
   4  -4  -2 141300. 3324.05  12
   4  -4  -2 148011. 3336.84  21
   4  -4  -2 147558. 3294.53  64
   4  -4  -2 123953. 3043.38  61
   4  -4  -2 123327. 3039.05  60
   4  -4  -2 117898. 2967.47  59
   4  -4  -2 157976. 3507.56  18
   4  -4  -2 118830. 3072.45  55
   4  -4  -2 142133. 3297.15  54
   4  -4  -2 126919. 3083.20  53
   4  -4  -2 120013. 3043.73  52
   4  -4  -2 132126. 1921.41  43
   4  -4  -1 13487.7 942.360  12
   4  -4  -1 12489.0 457.261  39
   4  -4  -1 13759.3 939.857  21
   4  -4  -1 12752.4 887.113  64
   4  -4  -1 12138.4 868.848  61
   4  -4  -1 11610.2 853.873  60
   4  -4  -1 12181.6 860.896  59
   4  -4  -1 12970.2 936.499  18
   4  -4  -1 12399.9 910.029  55
   4  -4  -1 11962.2 884.930  54
   4  -4  -1 12207.3 881.930  53
   4  -4  -1 12084.0 878.635  52
   4  -4   0 502.014 196.613  12
   4  -4   0 380.567 174.172  21
   4  -4   0 475.885 201.174  64
   4  -4   0 479.416 206.849  61
   4  -4   0 369.305 175.559  60
   4  -4   0 343.981 168.828  59
   4  -4   0 373.481 193.012  18
   4  -4   0 274.767 149.336  55
   4  -4   0 252.465 153.338  54
   4  -4   0 387.746 99.9669  28
   4  -4   0 556.853 219.348  53
   4  -4   0 287.254 172.899  52
   4  -4   1 3818.03 508.690  12
   4  -4   1 4165.96 499.602  21
   4  -4   1 4322.18 527.388  64
   4  -4   1 4180.01 520.265  61
   4  -4   1 4262.56 521.834  60
   4  -4   1 4195.77 513.144  59
   4  -4   1 4447.03 551.490  18
   4  -4   1 4245.57 545.761  55
   4  -4   1 3989.06 519.187  54
   4  -4   1 3746.54 512.924  53
   4  -4   1 4656.98 558.525  52
   4  -4   2 49755.3 1891.50  12
   4  -4   2 49606.9 1799.60  21
   4  -4   2 48841.0 1845.10  64
   4  -4   2 47453.4 1833.41  61
   4  -4   2 49500.2 1871.92  60
   4  -4   2 49475.7 1904.00  18
   4  -4   2 49399.6 1913.76  55
   4  -4   2 46226.9 1859.14  54
   4  -4   2 46514.7 1846.57  52
   4  -4   3 820.628 141.991  39
   4  -4   3 1162.15 308.894  12
   4  -4   3 775.160 225.973  21
   4  -4   3 917.326 263.382  64
   4  -4   3 1210.13 315.308  61
   4  -4   3 1123.07 293.049  60
   4  -4   3 902.494 295.343  18
   4  -4   3 1030.69 302.614  57
   4  -4   3 1280.92 324.557  55
   4  -4   3 1099.86 305.326  54
   4  -4   3 875.047 136.157  28
   4  -4   3 960.226 291.437  53
   4  -4   3 1047.45 296.794  52
   4  -4   3 1024.52 148.179   8
   4  -4   3 1153.37 153.340  42
   4  -4   4 3878.02 557.719  12
   4  -4   4 3684.48 282.076  39
   4  -4   4 4585.34 565.521  21
   4  -4   4 3804.07 545.094  64
   4  -4   4 4418.25 599.945  61
   4  -4   4 4418.19 598.642  60
   4  -4   4 4305.01 592.097  18
   4  -4   4 4384.53 599.353  57
   4  -4   4 4130.27 564.232   1
   4  -4   4 5050.36 659.424  55
   4  -4   4 4055.27 591.002  54
   4  -4   4 3806.55 277.904  28
   4  -4   4 4637.23 623.821  53
   4  -4   4 4068.31 583.391  52
   4  -4   4 4044.92 283.899   8
   4  -4   4 4322.41 289.454  42
   4  -4   5 22501.7 737.258  39
   4  -4   5 26603.1 1495.07  64
   4  -4   5 24860.1 1474.74  61
   4  -4   5 26521.5 1525.57  60
   4  -4   5 25370.0 1472.45  18
   4  -4   5 23808.7 1459.27  57
   4  -4   5 25213.6 1525.98  55
   4  -4   5 23707.2 1334.43   1
   4  -4   5 22370.3 1449.87  54
   4  -4   5 22759.2 717.867  28
   4  -4   5 24826.1 1497.97  53
   4  -4   5 25026.9 1498.78  52
   4  -4   5 23943.3 735.429   8
   4  -4   5 25098.0 786.318  44
   4  -4   5 24313.9 717.620  42
   4  -4   6 58332.6 1289.77  39
   4  -4   6 58356.6 2347.55  64
   4  -4   6 60737.6 1231.65  32
   4  -4   6 65048.3 2472.34  18
   4  -4   6 60390.3 1259.05  28
   4  -4   6 61494.8 1271.76   8
   4  -4   6 66631.7 1349.21  44
   4  -4   6 60642.9 1219.95  42
   4  -4   7 19918.6 687.387  39
   4  -4   7 21415.3 654.311  32
   4  -4   7 20382.1 1399.28  18
   4  -4   7 18871.7 644.785  28
   4  -4   7 20280.3 678.168   8
   4  -4   7 20810.5 698.449  44
   4  -4   7 20207.4 642.016  42
   4  -4   8 5709.57 341.813  39
   4  -4   8 5588.12 742.825  18
   4  -4   8 5848.07 350.080   8
   4  -4   8 5940.25 346.033  44
   4  -4   8 6087.60 334.775  42
   4  -4   9 1187.76 138.291  32
   4  -4   9 1293.41 163.848   8
   4  -4   9 1159.93 152.732  44
   4  -4   9 1360.87 154.605  42
   4  -4  10 772.737 98.2234  32
   4  -4  10 793.484 117.537   8
   4  -4  10 854.376 113.161  44
   4  -4  10 746.984 110.624  42
   4  -4  11 7243.49 222.359  32
   4  -4  11 7723.61 279.552   8
   4  -4  11 8432.72 268.846  44
   4  -4  11 8943.55 284.423  42
   4  -3  -9 4340.03 205.422  43
   4  -3  -8 367.605 84.9650  45
   4  -3  -8 490.826 96.1108  43
   4  -3  -7 510.246 211.167  21
   4  -3  -7 544.401 101.179  45
   4  -3  -6 3061.93 475.743  21
   4  -3  -6 2474.87 471.834  18
   4  -3  -6 3316.17 232.314  45
   4  -3  -5 6338.81 677.168  21
   4  -3  -5 6619.50 673.836  64
   4  -3  -5 6433.12 333.053  45
   4  -3  -5 5121.98 606.007  14
   4  -3  -4 941.679 279.958  12
   4  -3  -4 1254.01 302.547  21
   4  -3  -4 1444.88 311.642  64
   4  -3  -4 925.941 258.733  62
   4  -3  -4 914.228 282.939  18
   4  -3  -4 923.693 266.163  54
   4  -3  -4 1124.59 145.064  45
   4  -3  -4 773.606 238.804  14
   4  -3  -3 69527.8 2195.73  12
   4  -3  -3 75544.2 2256.34  21
   4  -3  -3 72503.9 2151.15  64
   4  -3  -3 69063.5 2110.90  62
   4  -3  -3 71349.9 2179.53  54
   4  -3  -3 71347.8 2206.25  14
   4  -3  -2 104392. 2615.04  12
   4  -3  -2 107887. 2646.45  21
   4  -3  -2 108785. 2578.79  64
   4  -3  -2 100376. 2542.53  62
   4  -3  -2 97159.6 2425.53  61
   4  -3  -2 99155.0 2443.02  60
   4  -3  -2 99302.2 2424.61  59
   4  -3  -2 117655. 2822.33  18
   4  -3  -2 98176.6 2535.52  55
   4  -3  -2 109445. 2651.88  54
   4  -3  -2 93767.1 2412.75  53
   4  -3  -2 96027.2 2451.81  52
   4  -3  -2 102961. 2626.40  14
   4  -3  -1 4360.19 492.833  12
   4  -3  -1 4723.84 505.040  21
   4  -3  -1 4669.00 498.975  64
   4  -3  -1 4512.49 493.577  62
   4  -3  -1 4910.01 503.673  61
   4  -3  -1 4712.84 492.256  60
   4  -3  -1 4600.98 484.528  59
   4  -3  -1 4841.76 526.275  18
   4  -3  -1 4923.50 519.775  55
   4  -3  -1 4510.25 506.346  54
   4  -3  -1 4664.43 493.106  53
   4  -3  -1 4936.67 511.540  52
   4  -3   0 286.343 146.845  12
   4  -3   0 316.555 139.522  21
   4  -3   0 396.249 191.681  64
   4  -3   0 488.773 191.194  61
   4  -3   0 520.504 177.980  60
   4  -3   0 566.138 181.236  59
   4  -3   0 281.081 170.566  18
   4  -3   0 609.884 206.145  55
   4  -3   0 202.989 142.203  54
   4  -3   0 482.570 186.512  53
   4  -3   0 270.639 139.157  52
   4  -3   1 2863.32 399.954  12
   4  -3   1 2847.99 380.877  21
   4  -3   1 3382.91 425.947  64
   4  -3   1 3416.74 442.870  61
   4  -3   1 3383.02 437.353  60
   4  -3   1 3834.96 453.223  59
   4  -3   1 2879.26 415.763  18
   4  -3   1 3873.44 473.285  55
   4  -3   1 2487.31 392.537  54
   4  -3   1 3109.68 426.695  53
   4  -3   1 3470.03 452.947  52
   4  -3   2 2165.41 359.402  12
   4  -3   2 2116.50 334.091  21
   4  -3   2 1946.32 339.508  64
   4  -3   2 2181.14 329.771  19
   4  -3   2 2045.23 357.252  61
   4  -3   2 1932.89 345.972  60
   4  -3   2 1837.16 336.051  18
   4  -3   2 2011.76 368.374  55
   4  -3   2 2162.08 390.477  54
   4  -3   2 2207.03 378.132  53
   4  -3   2 2436.37 393.115  52
   4  -3   3 8934.02 736.400  12
   4  -3   3 8254.40 674.218  21
   4  -3   3 8952.31 726.333  64
   4  -3   3 8672.40 684.766  19
   4  -3   3 8775.95 749.500  61
   4  -3   3 9000.46 760.094  60
   4  -3   3 8997.26 762.305  18
   4  -3   3 8317.79 741.996  57
   4  -3   3 9150.09 789.767  55
   4  -3   3 8406.01 759.339  54
   4  -3   3 8526.94 741.988  53
   4  -3   3 8409.94 743.294  52
   4  -3   4 22984.3 1248.91  12
   4  -3   4 24059.5 1261.50  64
   4  -3   4 23802.0 1179.76  19
   4  -3   4 22937.1 1276.98  61
   4  -3   4 21320.0 1238.72  60
   4  -3   4 23923.2 1307.15  18
   4  -3   4 22153.4 1273.83  57
   4  -3   4 22850.3 1301.61  55
   4  -3   4 22011.1 1297.85  54
   4  -3   4 22863.3 1287.52  53
   4  -3   4 22524.7 1283.14  52
   4  -3   5 1604.11 360.712  64
   4  -3   5 1662.67 381.343  61
   4  -3   5 1682.63 382.874  60
   4  -3   5 1749.21 386.085  18
   4  -3   5 1577.98 373.380  57
   4  -3   5 1598.34 377.755  55
   4  -3   5 1344.29 367.506  54
   4  -3   5 1557.23 363.833  53
   4  -3   5 1479.43 356.277  52
   4  -3   5 1530.79 185.123   8
   4  -3   5 1569.48 199.238  44
   4  -3   5 1490.26 173.501  42
   4  -3   6 10917.3 927.373  64
   4  -3   6 10441.4 942.018  61
   4  -3   6 9922.84 463.375  32
   4  -3   6 11080.9 979.174  18
   4  -3   6 10337.3 945.594  57
   4  -3   6 9647.66 941.209  55
   4  -3   6 10364.6 998.771  54
   4  -3   6 10291.6 940.818  53
   4  -3   6 9732.76 930.151  52
   4  -3   6 10834.4 489.844   8
   4  -3   6 10562.2 499.181  44
   4  -3   6 10502.8 463.994  42
   4  -3   7 22502.5 700.778  32
   4  -3   7 20982.2 1410.87  18
   4  -3   7 21089.7 720.955  44
   4  -3   7 21361.5 678.542  42
   4  -3   8 1959.89 202.578  32
   4  -3   8 1920.05 439.741  18
   4  -3   8 1883.16 212.568   8
   4  -3   8 1781.16 209.630  44
   4  -3   8 2107.50 210.768  42
   4  -3   9 20855.1 1419.96  18
   4  -3   9 22648.5 645.149  32
   4  -3   9 22529.3 683.263   8
   4  -3   9 22446.8 685.599  44
   4  -3   9 22535.3 652.816  42
   4  -3  10 2499.87 184.891  32
   4  -3  10 2390.83 202.023   8
   4  -3  10 2145.98 190.147  44
   4  -3  10 2266.72 186.055  42
   4  -3  11 603.844 87.3328  32
   4  -3  11 587.681 95.7113   8
   4  -3  11 718.586 99.8244  44
   4  -3  11 760.805 99.1210  42
   4  -3  12 21.0373 27.4799  32
   4  -3  12 38.3611 38.4061  44
   4  -3  12 8.68102 27.2399  42
   4  -2 -10 1054.00 92.3994  43
   4  -2  -9 265.361 71.2474  45
   4  -2  -8 2504.87 184.065  45
   4  -2  -7 15652.5 1063.28  21
   4  -2  -7 18557.1 1259.41  18
   4  -2  -6 18912.1 1179.75  21
   4  -2  -6 18943.6 1151.47  64
   4  -2  -5 10403.4 860.459  12
   4  -2  -5 11275.9 893.270  21
   4  -2  -5 9645.18 785.405  64
   4  -2  -5 8821.70 766.622  62
   4  -2  -5 9577.72 808.689  14
   4  -2  -4 150.089 165.404  12
   4  -2  -4 315.958 196.896  21
   4  -2  -4 69.3328 99.5170  64
   4  -2  -4 175.173 136.117  62
   4  -2  -4 216.533 174.919  18
   4  -2  -4 8.96484 107.272  54
   4  -2  -4 89.2825 114.391  14
   4  -2  -3 25548.8 1207.72  12
   4  -2  -3 26164.7 1223.45  21
   4  -2  -3 25820.9 1171.85  64
   4  -2  -3 24592.1 1156.67  62
   4  -2  -3 24333.6 1156.53  54
   4  -2  -3 24183.1 1191.63  14
   4  -2  -2 90560.1 2299.41  12
   4  -2  -2 93090.9 2310.20  21
   4  -2  -2 89036.5 2200.83  64
   4  -2  -2 88580.0 2236.48  62
   4  -2  -2 86650.6 2208.96  54
   4  -2  -2 89246.9 2294.88  14
   4  -2  -1 110012. 2471.42  12
   4  -2  -1 110862. 2474.42  21
   4  -2  -1 116530. 2476.19  64
   4  -2  -1 103422. 2413.54  62
   4  -2  -1 114225. 2412.81  61
   4  -2  -1 108640. 2361.31  60
   4  -2  -1 110148. 2355.99  59
   4  -2  -1 122196. 2710.65  18
   4  -2  -1 117384. 2493.82  55
   4  -2  -1 105287. 2416.00  54
   4  -2  -1 108516. 2382.03  53
   4  -2  -1 105761. 2359.51  52
   4  -2  -1 107931. 2491.21  14
   4  -2   0 73881.8 1927.89  12
   4  -2   0 75690.8 1925.23  21
   4  -2   0 72963.6 1889.45  64
   4  -2   0 72583.8 1947.46  62
   4  -2   0 76305.5 1929.75  61
   4  -2   0 74873.2 1912.66  60
   4  -2   0 71999.0 1871.11  59
   4  -2   0 83588.7 2115.58  18
   4  -2   0 87999.1 2103.60  55
   4  -2   0 72859.5 1953.89  54
   4  -2   0 76482.7 1952.41  53
   4  -2   0 77276.2 1971.37  52
   4  -2   1 1940.89 304.024  12
   4  -2   1 2042.68 298.709  21
   4  -2   1 2051.52 305.226  64
   4  -2   1 1665.09 286.779  61
   4  -2   1 1847.19 296.292  60
   4  -2   1 1845.25 294.159  59
   4  -2   1 2093.77 334.316  18
   4  -2   1 2206.13 334.433  55
   4  -2   1 1876.28 301.784  54
   4  -2   1 1881.07 305.536  53
   4  -2   1 2207.92 331.813  52
   4  -2   2 6777.46 550.863  12
   4  -2   2 5857.87 503.378  21
   4  -2   2 6270.70 525.580  64
   4  -2   2 5583.00 504.869  19
   4  -2   2 5670.63 544.808  61
   4  -2   2 5849.44 551.800  60
   4  -2   2 6145.53 563.853  18
   4  -2   2 5789.29 551.656  55
   4  -2   2 6529.32 577.700  54
   4  -2   2 6061.67 556.422  53
   4  -2   2 7185.01 615.545  52
   4  -2   3 9762.99 692.671  12
   4  -2   3 9290.33 673.842  64
   4  -2   3 9567.41 698.315  19
   4  -2   3 9516.32 726.873  61
   4  -2   3 9948.45 746.961  60
   4  -2   3 9860.56 748.101  18
   4  -2   3 9327.03 728.144  57
   4  -2   3 10113.3 764.686  55
   4  -2   3 9175.13 738.173  54
   4  -2   3 9702.97 729.455  53
   4  -2   3 9712.20 744.842  52
   4  -2   4 591.025 193.444  22
   4  -2   4 670.327 194.068  12
   4  -2   4 959.807 248.298  64
   4  -2   4 464.438 199.199  19
   4  -2   4 510.637 200.137  61
   4  -2   4 798.327 250.767  60
   4  -2   4 677.735 238.763  18
   4  -2   4 705.128 227.344  57
   4  -2   4 707.982 250.590  55
   4  -2   4 718.198 236.930  54
   4  -2   4 671.650 214.692  53
   4  -2   4 792.473 243.807  52
   4  -2   5 6772.71 632.340  64
   4  -2   5 5999.61 611.214  19
   4  -2   5 6614.60 675.701  61
   4  -2   5 6596.90 678.232  60
   4  -2   5 6911.56 706.213  18
   4  -2   5 6774.78 690.609  57
   4  -2   5 6722.32 704.744  55
   4  -2   5 7590.57 757.737  54
   4  -2   5 6769.66 691.505  53
   4  -2   5 7016.90 711.597  52
   4  -2   6 3435.09 490.786  19
   4  -2   6 3280.83 506.398  61
   4  -2   6 3428.86 268.077  32
   4  -2   6 3829.40 556.904  18
   4  -2   6 3747.23 551.881  57
   4  -2   6 3964.01 576.315  55
   4  -2   6 2903.42 495.719  54
   4  -2   6 3083.46 484.510  53
   4  -2   6 3123.30 495.312  52
   4  -2   6 2915.65 248.014   8
   4  -2   6 3494.68 279.998  44
   4  -2   6 3271.95 254.502  42
   4  -2   7 37403.5 1678.88  19
   4  -2   7 35738.4 1738.17  61
   4  -2   7 34678.4 907.304  32
   4  -2   7 38528.2 1819.89  18
   4  -2   7 32216.5 1691.44  57
   4  -2   7 37751.7 1831.28  55
   4  -2   7 33333.1 1806.09  54
   4  -2   7 36056.6 1755.11  53
   4  -2   7 35711.1 1770.97  52
   4  -2   7 34312.7 923.173   8
   4  -2   7 34808.6 935.511  44
   4  -2   7 38866.5 928.809  42
   4  -2   8 13254.4 1013.64  19
   4  -2   8 14182.4 1130.61  18
   4  -2   8 13157.0 526.124  32
   4  -2   8 12924.1 511.205  30
   4  -2   8 12941.7 536.650   8
   4  -2   8 13252.1 549.541  44
   4  -2   8 13501.9 520.355  42
   4  -2   9 12251.0 1060.33  18
   4  -2   9 12668.0 494.374  32
   4  -2   9 12227.7 465.898  30
   4  -2   9 12781.8 513.059   8
   4  -2   9 12436.8 513.644  44
   4  -2   9 13196.6 494.311  42
   4  -2  10 3347.42 235.029  32
   4  -2  10 3561.65 248.480   8
   4  -2  10 3594.90 258.694  44
   4  -2  10 3515.34 238.636  42
   4  -2  11 1668.64 146.483  32
   4  -2  11 1771.52 162.868  44
   4  -2  11 1798.25 145.848  42
   4  -2  12 1453.20 109.775  32
   4  -2  12 1380.49 116.965  44
   4  -2  12 1084.61 87.0254  42
   4  -1  -7 2424.79 436.116  21
   4  -1  -6 462.755 215.698  21
   4  -1  -6 637.675 228.518  64
   4  -1  -6 534.357 204.572  14
   4  -1  -5 2172.67 391.840  21
   4  -1  -5 2002.91 375.865  12
   4  -1  -5 2184.53 370.268  64
   4  -1  -5 2189.33 409.513  54
   4  -1  -5 2423.86 398.725  14
   4  -1  -4 22518.5 1152.93  12
   4  -1  -4 23047.5 1181.00  21
   4  -1  -4 23082.9 1123.11  64
   4  -1  -4 21499.9 1125.84  14
   4  -1  -3 5525.28 529.457  12
   4  -1  -3 6046.74 565.725  21
   4  -1  -3 5783.85 527.771  64
   4  -1  -3 4981.72 499.664  62
   4  -1  -3 5812.29 549.490  14
   4  -1  -2 10600.7 693.574  12
   4  -1  -2 10428.8 699.010  21
   4  -1  -2 10552.2 676.043  64
   4  -1  -2 10328.4 681.324  62
   4  -1  -2 12756.6 835.398  18
   4  -1  -2 10495.4 690.812  54
   4  -1  -2 10791.3 707.372  14
   4  -1  -1 24732.9 1012.96  12
   4  -1  -1 24946.4 1036.55  21
   4  -1  -1 24349.1 981.029  64
   4  -1  -1 24109.1 1011.21  62
   4  -1  -1 27433.7 1083.02  54
   4  -1  -1 22580.6 1005.56  14
   4  -1   0 324.425 123.499  12
   4  -1   0 245.786 127.681  21
   4  -1   0 285.799 133.968  64
   4  -1   0 202.290 116.362  62
   4  -1   0 291.258 123.812  61
   4  -1   0 170.941 93.4577  60
   4  -1   0 385.746 137.116  59
   4  -1   0 348.940 150.899  18
   4  -1   0 246.411 120.960  55
   4  -1   0 305.988 132.740  54
   4  -1   0 300.994 119.573  53
   4  -1   0 372.855 137.223  52
   4  -1   0 146.299 117.870  14
   4  -1   1 50685.6 1394.71  12
   4  -1   1 48903.8 1393.50  21
   4  -1   1 52365.4 1431.44  64
   4  -1   1 49616.4 1504.82  62
   4  -1   1 53140.8 1493.88  61
   4  -1   1 54284.7 1508.78  60
   4  -1   1 54218.4 1583.98  18
   4  -1   1 52990.2 1522.30  55
   4  -1   1 49895.1 1525.76  54
   4  -1   1 55470.5 1548.78  53
   4  -1   1 51520.0 1490.89  52
   4  -1   2 1279.75 230.060  12
   4  -1   2 1371.66 232.861  64
   4  -1   2 1664.28 273.788  19
   4  -1   2 1292.12 250.098  61
   4  -1   2 1320.31 247.196  60
   4  -1   2 1382.54 207.974   5
   4  -1   2 1253.22 253.404  18
   4  -1   2 1420.21 261.606  57
   4  -1   2 1523.87 268.289  55
   4  -1   2 1777.32 295.772  54
   4  -1   2 1639.58 272.101  53
   4  -1   2 1118.93 233.937  52
   4  -1   3 18520.4 855.847  12
   4  -1   3 17939.2 861.581  64
   4  -1   3 17547.3 921.471  19
   4  -1   3 18741.3 968.463  61
   4  -1   3 17970.1 944.959  60
   4  -1   3 17279.4 775.701   5
   4  -1   3 19975.1 1003.96  18
   4  -1   3 19275.9 977.959  57
   4  -1   3 18800.2 979.539  55
   4  -1   3 17337.5 963.732  54
   4  -1   3 18415.8 950.676  53
   4  -1   3 18321.5 964.296  52
   4  -1   4 28704.0 1208.24  22
   4  -1   4 29254.7 1153.39  64
   4  -1   4 29008.7 1265.53  19
   4  -1   4 30909.1 1320.69  61
   4  -1   4 30220.7 1310.53  60
   4  -1   4 29741.0 1316.03  18
   4  -1   4 31352.0 1336.98  57
   4  -1   4 31113.6 1347.44  55
   4  -1   4 28855.4 1327.03  54
   4  -1   4 30849.6 1317.55  53
   4  -1   4 28818.4 1288.61  52
   4  -1   5 6353.84 591.499  22
   4  -1   5 6032.70 605.785  19
   4  -1   5 5801.47 597.102  61
   4  -1   5 6421.94 637.504  18
   4  -1   5 5900.24 610.750  57
   4  -1   5 5909.99 614.648  55
   4  -1   5 6439.84 658.219  54
   4  -1   5 5820.21 595.401  53
   4  -1   5 6402.28 635.019  52
   4  -1   6 8544.31 717.779  22
   4  -1   6 8933.20 781.989  19
   4  -1   6 8508.46 772.640  61
   4  -1   6 8695.92 783.717  18
   4  -1   6 8766.41 794.792  57
   4  -1   6 7394.77 761.391  54
   4  -1   6 8070.08 758.538  53
   4  -1   6 8323.84 789.238  52
   4  -1   7 8041.70 715.733  22
   4  -1   7 7483.26 747.028  19
   4  -1   7 8567.45 822.302  61
   4  -1   7 7670.34 776.800  18
   4  -1   7 8653.87 418.436  32
   4  -1   7 7386.31 774.757  57
   4  -1   7 8061.59 834.441  55
   4  -1   7 8335.18 854.649  54
   4  -1   7 7827.79 785.650  53
   4  -1   7 7227.75 775.281  52
   4  -1   7 6584.78 375.254   8
   4  -1   7 7884.00 416.229  44
   4  -1   7 6957.37 371.147  42
   4  -1   8 7657.59 777.789  19
   4  -1   8 7238.56 787.694  61
   4  -1   8 7200.31 789.332  18
   4  -1   8 7594.18 392.113  32
   4  -1   8 7419.24 389.363  30
   4  -1   8 6857.43 777.867  57
   4  -1   8 6425.83 760.505  55
   4  -1   8 6829.32 766.704  53
   4  -1   8 6835.60 381.925   8
   4  -1   8 6781.13 774.137  52
   4  -1   8 6998.39 400.224  44
   4  -1   8 6656.58 361.821  42
   4  -1   9 5710.28 676.737  19
   4  -1   9 4846.42 642.870  18
   4  -1   9 5885.80 338.497  32
   4  -1   9 5856.77 335.036  30
   4  -1   9 5604.85 337.184   8
   4  -1   9 5889.47 351.712  44
   4  -1   9 5967.23 330.587  42
   4  -1  10 2143.22 415.447  19
   4  -1  10 2797.25 223.960  32
   4  -1  10 2745.63 210.764  30
   4  -1  10 2808.22 221.997   8
   4  -1  10 2626.52 233.817  44
   4  -1  10 2635.28 205.568  42
   4  -1  11 1265.02 140.479  32
   4  -1  11 1188.85 121.691  30
   4  -1  11 1043.63 125.670   8
   4  -1  11 1204.41 144.143  44
   4  -1  11 1252.69 125.568  42
   4  -1  12 7622.57 267.666  32
   4  -1  12 7779.17 287.414  44
   4  -1  13 61.3908 32.0033  32
   4  -1  13 101.320 36.6310  44
   4   0 -10 419.140 70.7953  40
   4   0  -8 3780.69 532.717  21
   4   0  -7 11055.6 916.648  21
   4   0  -7 10575.2 896.138  24
   4   0  -6 3175.09 491.494  12
   4   0  -6 3628.72 522.625  21
   4   0  -6 3358.01 478.566  64
   4   0  -6 4092.54 556.471  24
   4   0  -5 45230.6 1757.74  12
   4   0  -5 47463.7 1824.42  21
   4   0  -5 45628.0 1676.12  64
   4   0  -4 13166.0 862.457  12
   4   0  -4 13897.7 914.501  21
   4   0  -4 12982.0 826.938  64
   4   0  -3 3102.95 384.567  12
   4   0  -3 3157.95 411.435  21
   4   0  -3 3318.83 393.469  64
   4   0  -3 2946.38 376.294  14
   4   0  -2 7492.67 550.897  12
   4   0  -2 7551.24 583.669  21
   4   0  -2 7466.45 547.158  64
   4   0  -2 6633.13 523.064  62
   4   0  -2 7703.60 569.026  54
   4   0  -2 7360.11 558.670  14
   4   0  -1 112.518 90.5729  12
   4   0  -1 178.918 122.421  21
   4   0  -1 121.713 101.367  64
   4   0  -1 105.950 95.8905  62
   4   0  -1 109.878 91.4775  54
   4   0  -1 33.0387 84.7642  14
   4   0   0 222.678 108.958  12
   4   0   0 168.183 101.748  21
   4   0   0 139.935 95.7883  64
   4   0   0 146.895 113.344  62
   4   0   0 204.361 126.906  18
   4   0   0 95.6301 108.914  54
   4   0   0 253.952 127.936  14
   4   0   1 13670.7 628.564  12
   4   0   1 14473.6 658.539  64
   4   0   1 14020.6 731.252  62
   4   0   1 15475.6 708.761  61
   4   0   1 14005.0 675.348  60
   4   0   1 14072.4 754.623  18
   4   0   1 14443.0 696.112  57
   4   0   1 13937.3 688.216  55
   4   0   1 13707.6 744.862  54
   4   0   1 13504.8 667.581  53
   4   0   1 15606.1 719.208  52
   4   0   1 12731.9 698.557  14
   4   0   2 25330.5 881.505  12
   4   0   2 29125.2 965.677  64
   4   0   2 27273.2 1021.26  61
   4   0   2 28937.1 1053.05  60
   4   0   2 24302.8 922.008   5
   4   0   2 29389.5 1123.96  18
   4   0   2 28119.9 1043.62  57
   4   0   2 29034.0 1072.80  55
   4   0   2 26953.5 1089.38  54
   4   0   2 27153.8 1024.79  53
   4   0   2 27352.1 1025.26  52
   4   0   3 85005.7 1863.85  64
   4   0   3 90163.2 2185.46  19
   4   0   3 90899.3 2129.58  61
   4   0   3 92562.1 2147.08  60
   4   0   3 92938.3 1955.72   5
   4   0   3 90885.4 2188.53  18
   4   0   3 95624.8 2191.52  57
   4   0   3 91090.1 2174.38  55
   4   0   3 94752.8 2272.71  54
   4   0   3 88055.8 2123.25  53
   4   0   3 91142.4 2148.95  52
   4   0   4 22556.3 1053.21  22
   4   0   4 24233.2 1120.29  19
   4   0   4 22639.8 1075.35  61
   4   0   4 23362.7 1094.06  18
   4   0   4 23379.4 1099.65  57
   4   0   4 24128.2 1132.40  55
   4   0   4 24144.0 1154.32  54
   4   0   4 22916.4 1092.05  53
   4   0   4 22557.4 1089.64  52
   4   0   5 83354.0 2254.19  22
   4   0   5 87702.0 2375.91  19
   4   0   5 86611.3 2348.36  61
   4   0   5 88085.8 2323.46  18
   4   0   5 87285.6 2372.33  57
   4   0   5 85273.5 2402.23  55
   4   0   5 82949.4 2415.34  54
   4   0   5 87658.7 2350.11  53
   4   0   5 86015.3 2367.33  52
   4   0   6 1684.28 329.700  22
   4   0   6 1691.34 346.850  19
   4   0   6 1543.62 332.858  61
   4   0   6 1533.68 315.984  18
   4   0   6 1499.35 323.348  57
   4   0   6 1572.25 346.667  55
   4   0   6 1265.80 319.003  54
   4   0   6 1767.76 349.401  53
   4   0   6 1602.53 345.124  52
   4   0   7 2035.10 371.896  22
   4   0   7 2693.86 454.710  19
   4   0   7 2135.83 416.040  61
   4   0   7 2456.20 420.096  18
   4   0   7 2323.31 216.166  32
   4   0   7 1999.35 399.997  57
   4   0   7 2155.04 424.907  55
   4   0   7 2098.91 428.773  54
   4   0   7 2253.07 430.431  53
   4   0   7 2267.23 435.444  52
   4   0   7 3113.75 272.113  44
   4   0   8 1850.40 379.426  22
   4   0   8 1970.76 415.956  19
   4   0   8 2018.27 416.937  61
   4   0   8 2058.31 212.245  32
   4   0   8 1969.44 205.399  30
   4   0   8 1751.91 402.833  57
   4   0   8 1835.45 415.363  55
   4   0   8 1566.98 379.358  53
   4   0   8 1494.85 365.379  52
   4   0   8 1685.60 193.612  49
   4   0   8 1953.93 210.692  44
   4   0   9 3398.47 547.002  19
   4   0   9 3927.83 277.236  32
   4   0   9 3854.95 277.098  30
   4   0   9 3939.95 266.610  49
   4   0   9 3737.81 285.096  44
   4   0  10 8126.07 815.287  19
   4   0  10 9069.44 400.504  32
   4   0  10 9255.41 403.918  30
   4   0  10 9024.84 376.125  49
   4   0  10 9065.83 419.116  44
   4   0  11 5184.71 275.832  32
   4   0  11 5160.49 266.818  30
   4   0  11 4540.78 239.285  49
   4   0  11 5143.42 283.833  44
   4   0  12 2570.09 163.257  32
   4   0  12 2393.87 151.353  30
   4   0  12 2538.80 172.704  44
   4   0  13 5530.30 184.904  32
   4   0  13 5741.87 196.060  44
   4   1  -8 3178.51 506.751  21
   4   1  -8 2844.34 482.061  24
   4   1  -7 1729.29 389.028  21
   4   1  -7 1317.01 300.649  64
   4   1  -7 890.519 317.579  16
   4   1  -7 1345.58 347.545  24
   4   1  -6 10772.6 892.657  12
   4   1  -6 10989.1 925.443  21
   4   1  -6 10926.2 860.665  64
   4   1  -6 10727.9 962.834  16
   4   1  -6 10889.9 924.627  24
   4   1  -5 13408.9 944.781  12
   4   1  -5 13251.2 895.177  64
   4   1  -5 13716.1 1030.11  16
   4   1  -5 13345.9 986.793  24
   4   1  -4 8977.48 707.072  12
   4   1  -4 8903.15 693.494  64
   4   1  -4 8910.02 744.338  63
   4   1  -4 9266.74 776.897  16
   4   1  -3 6603.17 557.545  12
   4   1  -3 6746.94 550.906  64
   4   1  -3 6762.28 587.737  63
   4   1  -2 6789.54 507.850  12
   4   1  -2 7083.85 520.842  64
   4   1  -2 6943.11 537.891  63
   4   1  -2 6924.13 529.657  54
   4   1  -1 15401.2 699.383  12
   4   1  -1 15444.9 767.777  21
   4   1  -1 15777.2 714.320  64
   4   1  -1 16059.7 775.312  62
   4   1  -1 15833.7 765.113  54
   4   1  -1 15127.2 757.550  14
   4   1   0 23584.1 809.038  12
   4   1   0 21169.5 841.475  21
   4   1   0 23522.9 832.487  64
   4   1   0 20942.0 890.888  62
   4   1   0 24836.5 949.101  54
   4   1   0 22947.2 909.353  14
   4   1   1 21766.8 726.349  12
   4   1   1 19909.5 738.346  64
   4   1   1 21610.3 896.103  62
   4   1   1 19415.8 850.278  54
   4   1   1 20910.5 866.080  14
   4   1   2 9026.22 610.811  62
   4   1   2 10189.0 567.044  61
   4   1   2 8836.09 608.348  19
   4   1   2 8599.67 548.949   5
   4   1   2 10214.9 625.396  18
   4   1   2 9845.80 567.157  57
   4   1   2 10324.9 586.246  55
   4   1   2 9246.42 622.715  54
   4   1   2 9662.39 554.878  53
   4   1   2 9295.71 551.181  52
   4   1   3 43668.2 1448.97  19
   4   1   3 50480.9 1440.71  61
   4   1   3 48977.4 1394.76   5
   4   1   3 49297.7 1459.26  18
   4   1   3 45640.7 1387.85  57
   4   1   3 48358.0 1441.21  55
   4   1   3 46850.0 1503.41  54
   4   1   3 46482.6 1391.60  53
   4   1   3 47325.6 1415.63  52
   4   1   4 10381.2 708.160  22
   4   1   4 11391.6 752.949  19
   4   1   4 10701.6 698.936  61
   4   1   4 11531.1 718.949  18
   4   1   4 10257.7 693.559  57
   4   1   4 10626.6 719.442  55
   4   1   4 8556.71 665.321  54
   4   1   4 10712.0 702.064  53
   4   1   4 10881.9 718.897  52
   4   1   5 3423.91 448.410  22
   4   1   5 4181.62 488.485  19
   4   1   5 3166.27 412.518  61
   4   1   5 2963.55 381.461  18
   4   1   5 3103.74 414.189  57
   4   1   5 3504.90 449.660  55
   4   1   5 3246.67 448.118  54
   4   1   5 2652.17 376.743  53
   4   1   5 2741.60 394.841  52
   4   1   6 3590.67 471.996  22
   4   1   6 3734.15 499.523  19
   4   1   6 3376.78 457.823  61
   4   1   6 3958.29 507.675  57
   4   1   6 3482.60 479.923  55
   4   1   6 3592.87 502.438  54
   4   1   6 4037.62 501.255  53
   4   1   6 3697.60 485.969  52
   4   1   7 16932.9 1070.49  22
   4   1   7 18748.5 1165.43  19
   4   1   7 16717.5 1095.53  57
   4   1   7 15259.5 1059.34  55
   4   1   7 14847.0 1105.48  54
   4   1   7 16587.5 1069.29  53
   4   1   7 15969.1 1080.88  52
   4   1   8 18905.2 1179.08  22
   4   1   8 21706.2 1311.11  19
   4   1   8 20319.7 654.569  32
   4   1   8 21395.9 660.862  30
   4   1   8 20046.1 1288.70  57
   4   1   8 19788.1 1285.02  55
   4   1   8 20136.4 1254.64  53
   4   1   8 19074.1 1257.12  52
   4   1   8 23543.0 681.789  49
   4   1   8 19359.6 661.483  44
   4   1   9 25064.7 1439.76  19
   4   1   9 24949.5 718.156  32
   4   1   9 25028.9 711.430  30
   4   1   9 26691.8 721.712  49
   4   1   9 23593.1 721.425  44
   4   1  10 991.999 281.722  22
   4   1  10 1252.92 340.051  19
   4   1  10 1059.61 148.476  32
   4   1  10 1035.39 145.611  30
   4   1  10 1241.51 151.795  49
   4   1  10 1146.76 160.435  44
   4   1  11 6180.96 298.385  32
   4   1  11 6000.59 291.565  30
   4   1  11 5677.42 276.219  49
   4   1  11 6289.71 309.230  44
   4   1  12 25347.4 541.914  32
   4   1  12 24948.1 540.615  30
   4   1  12 23653.2 506.601  49
   4   1  12 24609.0 557.598  44
   4   1  13 1571.31 98.0005  32
   4   1  13 1279.97 89.7632  30
   4   1  13 1336.70 97.4700  44
   4   2  -8 14018.2 1050.41  24
   4   2  -7 4664.73 629.605  21
   4   2  -7 4202.57 674.288  16
   4   2  -7 5051.67 671.187  24
   4   2  -6 53774.1 2109.95  12
   4   2  -6 62161.5 2132.40  64
   4   2  -6 59657.1 2319.51  63
   4   2  -6 59283.8 2373.05  16
   4   2  -5 4558.82 573.484  12
   4   2  -5 4871.95 624.064  63
   4   2  -5 5185.26 665.208  16
   4   2  -5 4504.52 598.291  24
   4   2  -4 52665.5 1822.88  12
   4   2  -4 57119.0 1995.00  63
   4   2  -4 57056.6 2076.66  16
   4   2  -4 54766.6 2036.23  24
   4   2  -3 24791.5 1106.32  12
   4   2  -3 24342.6 1180.61  63
   4   2  -3 25648.5 1265.64  16
   4   2  -2 20000.8 889.102  12
   4   2  -2 20337.9 971.653  63
   4   2  -2 20578.2 925.873  54
   4   2  -1 63570.1 1507.19  12
   4   2  -1 66657.7 1568.15  64
   4   2  -1 63309.6 1634.85  63
   4   2  -1 61602.2 1627.93  62
   4   2   0 35708.8 986.670  12
   4   2   0 38505.8 1060.04  64
   4   2   0 39951.6 1218.54  62
   4   2   0 37169.1 1146.95  54
   4   2   0 40307.5 1201.54  14
   4   2   1 159334. 2817.81  62
   4   2   1 167576. 2939.71  18
   4   2   1 160938. 2745.58  14
   4   2   2 70836.2 1760.10  62
   4   2   2 69468.5 1808.46  19
   4   2   2 67427.4 1714.43   5
   4   2   2 74090.8 1732.25  18
   4   2   3 2722.75 359.424  22
   4   2   3 2633.29 356.687  19
   4   2   3 3068.40 324.528  61
   4   2   3 2224.25 313.253   5
   4   2   3 3084.39 331.081  57
   4   2   3 2933.16 325.997  55
   4   2   3 3132.52 359.947  54
   4   2   3 2720.87 309.077  52
   4   2   4 18452.7 947.670  22
   4   2   4 17910.4 958.353  19
   4   2   4 18796.8 892.359  61
   4   2   4 18523.6 895.740  57
   4   2   4 18154.4 896.587  55
   4   2   4 17076.2 915.171  54
   4   2   4 18503.2 896.944  52
   4   2   5 8564.24 687.285  22
   4   2   5 8903.81 713.134  19
   4   2   5 8662.43 664.736  57
   4   2   5 9086.92 691.671  55
   4   2   5 8994.93 706.905  54
   4   2   5 8510.47 661.341  53
   4   2   5 8681.10 682.259  52
   4   2   6 596.717 228.226  22
   4   2   6 605.521 246.774  19
   4   2   6 565.112 204.065  57
   4   2   6 488.924 205.304  55
   4   2   6 501.592 196.773  54
   4   2   6 695.663 213.630  53
   4   2   6 444.392 181.216  52
   4   2   6 479.334 196.869  15
   4   2   7 80564.4 2431.61  22
   4   2   7 76102.2 2426.96  19
   4   2   7 70475.3 1356.70  30
   4   2   7 76425.9 2395.09  57
   4   2   7 77889.2 2444.70  55
   4   2   7 79586.3 2378.26  53
   4   2   7 78623.3 2422.55  52
   4   2   8 11987.4 951.676  22
   4   2   8 12039.7 973.986  19
   4   2   8 11359.4 477.750  32
   4   2   8 11019.2 465.965  30
   4   2   8 11544.9 952.792  57
   4   2   8 11270.2 944.868  55
   4   2   8 11303.3 912.476  53
   4   2   8 11090.1 933.614  52
   4   2   8 12397.0 482.019  49
   4   2   8 10394.3 471.163  44
   4   2   9 21459.7 1330.23  19
   4   2   9 23090.3 675.044  32
   4   2   9 22838.5 664.508  30
   4   2   9 22013.8 653.392  49
   4   2   9 22833.4 690.371  44
   4   2  10 8924.42 827.789  22
   4   2  10 9939.85 889.633  19
   4   2  10 9658.32 403.705  32
   4   2  10 9479.89 395.615  31
   4   2  10 9982.54 411.200  30
   4   2  10 9757.31 403.329  49
   4   2  10 9761.22 413.394  44
   4   2  11 13085.3 422.963  32
   4   2  11 13905.2 446.869  30
   4   2  11 12803.5 423.621  49
   4   2  11 12861.4 430.945  44
   4   2  12 2840.53 169.327  32
   4   2  12 3242.62 182.940  30
   4   2  12 2906.58 169.505  49
   4   2  12 3011.08 174.100  44
   4   2  13 277.014 41.1640  32
   4   2  13 326.134 51.7630  30
   4   2  13 282.724 44.7832  49
   4   3  -8 11475.6 969.683  24
   4   3  -7 4295.44 674.341  16
   4   3  -7 5137.56 693.585  24
   4   3  -6 253.177 216.235  63
   4   3  -6 171.045 163.209  16
   4   3  -6 214.596 182.318  24
   4   3  -5 5715.69 660.811  12
   4   3  -5 6305.15 733.259  63
   4   3  -5 6015.65 763.691  16
   4   3  -4 804.460 250.954  12
   4   3  -4 727.205 272.949  65
   4   3  -4 908.237 284.275  63
   4   3  -4 658.246 271.666  16
   4   3  -3 23883.1 1123.28  12
   4   3  -3 26318.1 1287.44  63
   4   3  -2 18382.7 882.927  12
   4   3  -1 32679.6 1152.13  62
   4   3   0 18519.7 819.094  62
   4   3   0 16472.8 842.536   5
   4   3   0 17427.1 776.009  14
   4   3   1 16081.7 758.570  62
   4   3   1 16819.1 834.590   5
   4   3   1 17594.8 768.700  14
   4   3   2 56656.4 1659.39  19
   4   3   2 60001.0 1650.71   5
   4   3   3 8973.24 665.186  22
   4   3   3 8837.45 656.572  19
   4   3   3 7720.45 493.453  55
   4   3   3 7912.11 495.895  52
   4   3   4 2164.76 397.558   7
   4   3   4 2632.77 384.441  22
   4   3   4 2343.35 383.037  19
   4   3   4 2534.02 323.536  57
   4   3   4 2090.87 301.133  55
   4   3   4 2142.05 297.838  52
   4   3   5 39555.4 1575.09  22
   4   3   5 35844.7 1732.04   7
   4   3   5 36512.9 1508.26  19
   4   3   5 37591.1 1381.95  57
   4   3   5 38274.1 1408.88  55
   4   3   5 38052.7 1399.40  52
   4   3   5 39556.3 1578.93  15
   4   3   6 6362.83 655.266  22
   4   3   6 6562.88 671.272  19
   4   3   6 6399.95 625.217  57
   4   3   6 6959.87 646.222  55
   4   3   6 5980.01 585.540  53
   4   3   6 6421.19 621.608  52
   4   3   6 7210.77 678.285  15
   4   3   7 16911.1 1086.88  22
   4   3   7 15436.7 1077.66  19
   4   3   7 16462.3 572.852  30
   4   3   7 16093.0 1049.61  57
   4   3   7 16270.0 1063.22  55
   4   3   7 15333.0 992.220  53
   4   3   7 17005.6 1079.22  52
   4   3   8 27975.9 1459.43  22
   4   3   8 29606.3 1551.83  19
   4   3   8 23821.0 709.802  32
   4   3   8 27354.5 754.137  30
   4   3   8 26221.0 1442.34  57
   4   3   8 25861.0 1439.27  55
   4   3   8 24370.0 1354.86  53
   4   3   8 26752.1 1451.98  52
   4   3   9 3983.32 579.695  19
   4   3   9 4188.74 271.329  32
   4   3   9 4399.69 292.006  31
   4   3   9 4528.23 292.965  30
   4   3   9 4287.55 271.890  49
   4   3  10 21473.4 1268.78  22
   4   3  10 20449.1 1279.28  19
   4   3  10 21453.6 595.527  32
   4   3  10 24832.7 648.223  31
   4   3  10 22656.1 631.589  30
   4   3  10 25848.4 662.216  49
   4   3  11 1024.14 112.905  32
   4   3  11 1124.05 123.221  31
   4   3  11 1051.85 127.701  30
   4   3  11 1048.78 123.169  49
   4   3  12 1553.06 108.242  32
   4   3  12 2008.81 140.892  30
   4   3  12 1810.54 131.553  49
   4   3  13 97.2579 35.6300  30
   4   3  13 122.455 35.1150  49
   4   4  -7 8916.85 909.660  24
   4   4  -6 1764.75 473.897  16
   4   4  -5 22580.9 1584.01  65
   4   4  -5 22573.5 1432.70  63
   4   4  -5 22612.0 1509.27  16
   4   4  -4 42171.3 2147.84  65
   4   4  -4 42147.8 1882.02  63
   4   4  -3 17377.0 1020.46   5
   4   4  -2 608.429 211.220   5
   4   4  -1 39461.6 1313.73  62
   4   4  -1 44881.8 1537.41   5
   4   4   0 22933.4 1066.45   5
   4   4   1 18433.3 922.023  19
   4   4   1 18336.4 943.974   5
   4   4   2 9887.41 703.364  22
   4   4   2 10896.6 723.319  19
   4   4   3 7128.38 620.023  22
   4   4   3 7178.62 613.955  19
   4   4   4 82453.2 2653.31   7
   4   4   4 92860.3 2448.52  22
   4   4   4 70390.4 2148.88  19
   4   4   4 107716. 2727.19  15
   4   4   5 47000.6 2115.51   7
   4   4   5 50241.4 1833.10  22
   4   4   5 55455.5 1903.40  19
   4   4   5 49501.7 1588.62  57
   4   4   5 49267.1 1609.01  55
   4   4   5 50591.5 1616.89  52
   4   4   5 56942.7 1992.92  15
   4   4   6 3858.57 521.505  22
   4   4   6 3550.66 628.075   7
   4   4   6 3972.38 558.771  66
   4   4   6 3739.89 520.884  19
   4   4   6 3288.39 443.563  57
   4   4   6 3281.63 441.995  55
   4   4   6 3367.37 441.778  52
   4   4   6 3561.21 513.885  15
   4   4   7 27770.1 1437.46  22
   4   4   7 22388.4 1667.12   7
   4   4   7 27263.9 1460.32  19
   4   4   7 26319.9 734.711  30
   4   4   7 25221.7 1304.55  57
   4   4   7 24522.2 1298.38  55
   4   4   7 23964.5 1249.42  53
   4   4   7 24991.3 1304.01  52
   4   4   7 29564.7 766.284  49
   4   4   7 22874.7 1309.35  15
   4   4   8 3828.07 545.756  22
   4   4   8 4293.99 607.481  19
   4   4   8 3854.18 268.109  30
   4   4   8 3388.27 249.478  49
   4   4   9 6697.41 751.351  19
   4   4   9 7699.21 370.186  31
   4   4   9 7611.50 364.626  30
   4   4   9 7380.12 370.347  29
   4   4   9 7476.49 361.838  49
   4   4  10 249.427 173.845  22
   4   4  10 72.2476 69.6439  31
   4   4  10 115.854 71.3029  30
   4   4  10 105.095 63.6454  29
   4   4  10 26.0414 73.9039  49
   4   4  11 938.720 113.149  31
   4   4  11 957.049 115.954  30
   4   4  12 1432.48 105.530  31
   4   4  12 1576.48 120.286  30
   4   4  12 1660.50 119.663  49
   4   5  -7 6851.78 786.065  24
   4   5  -6 2768.73 585.541  16
   4   5  -5 70438.4 2956.17  65
   4   5  -5 63143.6 2547.00  63
   4   5  -4 9882.23 1037.65  17
   4   5  -3 3923.91 566.451  20
   4   5  -3 4623.06 652.944  13
   4   5  -2 9419.60 896.146  13
   4   5  -2 9006.51 807.965  66
   4   5  -2 8419.66 716.781   5
   4   5  -1 17060.4 1005.28   5
   4   5  -1 18492.1 1124.17  15
   4   5   0 15041.8 939.531   5
   4   5   0 19801.7 1165.30  15
   4   5   1 10207.9 730.275  22
   4   5   1 11901.3 901.637  15
   4   5   2 9681.13 732.147  22
   4   5   2 7988.45 740.209  15
   4   5   3 10324.5 785.145  22
   4   5   3 9269.55 805.792  15
   4   5   4 32770.3 1551.52  15
   4   5   5 8414.96 942.928   7
   4   5   5 11538.3 884.321  22
   4   5   5 9547.37 872.734  66
   4   5   5 11083.2 844.757  19
   4   5   5 11920.7 951.864  15
   4   5   6 313.150 180.742  22
   4   5   6 184.052 186.814   7
   4   5   6 390.604 200.984  66
   4   5   6 156.474 144.162  19
   4   5   6 474.855 189.331  57
   4   5   6 363.646 185.964  55
   4   5   6 307.971 169.618  52
   4   5   6 289.174 87.9580  49
   4   5   6 438.775 227.083  15
   4   5   6 367.506 196.290  23
   4   5   7 39469.6 1762.38  22
   4   5   7 30073.4 2063.63   7
   4   5   7 38332.0 1716.74  19
   4   5   7 35224.0 858.783  30
   4   5   7 31060.4 1467.15  57
   4   5   7 31557.6 1507.32  55
   4   5   7 31736.1 1510.05  52
   4   5   7 41893.5 919.926  49
   4   5   7 41226.9 1869.19  15
   4   5   8 19185.2 593.203  31
   4   5   8 18981.1 587.511  30
   4   5   8 17672.9 580.310  49
   4   5   9 1139.95 335.004  22
   4   5   9 1194.19 329.421  19
   4   5   9 1365.66 161.984  31
   4   5   9 1271.22 149.502  30
   4   5   9 1238.82 153.067  29
   4   5   9 1295.41 154.734  49
   4   5  10 8940.56 353.318  31
   4   5  10 8513.59 335.015  30
   4   5  10 8007.04 345.225  29
   4   5  10 8764.28 345.328  49
   4   5  11 3730.03 201.259  31
   4   5  11 3706.00 195.997  49
   4   5  12 785.846 79.9787  31
   4   5  12 907.337 83.3943  49
   4   6  -5 5676.04 880.289  65
   4   6  -4 13087.7 1277.87  17
   4   6  -3 2470.54 523.858  13
   4   6  -3 2349.24 495.338  20
   4   6  -2 48223.9 2231.22  13
   4   6  -1 12479.9 1096.11  13
   4   6  -1 12653.4 1017.82  66
   4   6  -1 12072.3 954.071  15
   4   6  -1 12777.5 1067.58  23
   4   6   0 2273.87 436.431  66
   4   6   0 2402.33 435.981  15
   4   6   1 60856.1 2261.28  66
   4   6   1 59024.9 2171.63  15
   4   6   2 95892.7 2883.85  66
   4   6   2 79897.7 2637.76  15
   4   6   3 19242.1 1250.93  66
   4   6   3 17760.6 1181.46  15
   4   6   4 19223.4 1126.70  22
   4   6   4 19065.4 1279.41  66
   4   6   4 19591.1 1273.49  15
   4   6   5 7946.32 746.593  22
   4   6   5 7162.54 832.435  66
   4   6   5 7094.81 790.427  15
   4   6   5 6259.89 798.127  23
   4   6   6 24128.5 1501.34  66
   4   6   6 22750.1 1453.84  15
   4   6   6 27384.5 1650.65  23
   4   6   7 10331.7 435.226  31
   4   6   7 11148.5 444.170  49
   4   6   7 10109.3 996.285  23
   4   6   8 10854.7 919.430  22
   4   6   8 10114.8 412.949  31
   4   6   8 10685.6 443.031  29
   4   6   8 10574.2 415.925  49
   4   6   9 2695.66 199.304  31
   4   6   9 2505.86 179.749  30
   4   6   9 2711.24 214.414  29
   4   6   9 2738.83 197.050  49
   4   6  10 4335.54 225.963  31
   4   6  10 3735.89 197.069  30
   4   6  10 3790.02 221.208  29
   4   6  10 3876.40 212.128  49
   4   6  11 1509.41 119.042  31
   4   6  11 1432.05 117.037  29
   4   6  11 1515.33 113.527  49
   4   7  -4 2947.15 640.862  17
   4   7  -3 20748.2 1490.55  20
   4   7  -2 8733.37 969.113  20
   4   7  -2 8860.64 1018.35  13
   4   7  -1 12547.2 1073.77  66
   4   7  -1 13771.3 1161.42  23
   4   7  -1 13591.4 1223.58  13
   4   7   0 45310.9 2186.63  13
   4   7   0 44230.6 2089.25  66
   4   7   0 41192.9 1925.95  15
   4   7   0 46681.9 2220.84  23
   4   7   1 7435.62 868.073  13
   4   7   1 7046.68 803.552  15
   4   7   1 8014.55 900.116  23
   4   7   2 3273.26 567.092  66
   4   7   2 2705.84 439.113  10
   4   7   2 3233.43 548.500  15
   4   7   2 3805.52 630.108  23
   4   7   3 24518.0 1501.49  66
   4   7   3 27082.6 1559.30  15
   4   7   3 28223.6 1662.26  23
   4   7   4 22040.2 1457.03  66
   4   7   4 20318.5 1448.35  23
   4   7   5 5877.17 762.873  66
   4   7   5 6479.61 344.572  31
   4   7   5 6772.99 809.046  15
   4   7   5 6927.25 840.462  23
   4   7   6 9380.59 959.303  66
   4   7   6 12035.6 462.531  31
   4   7   6 11113.8 1033.43  15
   4   7   6 13834.4 1220.77  23
   4   7   7 7188.65 342.737  31
   4   7   7 6481.74 344.883  29
   4   7   8 8142.69 352.236  31
   4   7   8 8750.23 369.423  29
   4   7   8 7511.10 309.946  49
   4   7   9 5767.87 267.163  31
   4   7   9 5661.19 274.926  29
   4   7  10 5745.47 237.372  31
   4   7  10 5693.90 242.857  29
   4   7  10 5133.87 201.611  49
   4   7  11 1320.50 96.2946  31
   4   7  11 1374.05 97.0488  29
   4   8  -2 7980.51 947.905  20
   4   8  -1 32262.8 1826.63  20
   4   8  -1 28703.6 1751.18  23
   4   8   0 10744.3 1051.54  66
   4   8   0 9525.91 963.466  15
   4   8   1 5119.92 736.612  66
   4   8   1 5177.07 726.909  15
   4   8   1 4845.32 730.860  23
   4   8   1 4281.51 705.602  13
   4   8   2 32504.5 1852.35  66
   4   8   2 34162.9 1875.94  15
   4   8   2 32841.4 1876.05  23
   4   8   3 44920.3 2189.90  66
   4   8   3 46017.3 2169.52  15
   4   8   3 45780.2 2246.00  23
   4   8   4 779.917 318.198  66
   4   8   4 855.690 305.559  15
   4   8   4 896.303 351.113  23
   4   8   5 1419.78 410.625  66
   4   8   5 2134.75 509.134  23
   4   8   6 16139.0 496.122  31
   4   8   6 16632.8 539.111  29
   4   8   7 3851.38 232.061  31
   4   8   7 3919.91 258.375  29
   4   8   8 225.230 66.0594  31
   4   8   8 312.407 92.7650  29
   4   8   9 3208.79 177.381  31
   4   8   9 3282.02 186.654  29
   4   8  10 53.6693 39.4911  31
   4   8  10 70.6508 45.4996  29
   4   9   1 13005.1 1125.67  20
   4   9   1 12505.3 1190.94  23
   4   9   2 6101.43 779.005  20
   4   9   2 8021.76 942.218  23
   4   9   3-26.8613 323.443  23
   4   9   4 1844.39 366.216  23
   4   9   6 237.678 84.9081  29
   4   9   7 165.439 52.9035  31
   4   9   7 238.922 77.5402  29
   4   9   8 1104.85 99.6405  31
   4   9   8 1409.10 123.147  29
   4   9   9 235.243 43.4757  31
   4   9   9 349.962 59.1108  29
   4  10   1 4585.37 267.103  33
   4  10   6 194.976 51.0576  29
   4  10   7 3670.45 187.163  33
   4  10   7 3496.79 152.786  29
   4  11  -1 5331.54 220.860  27
   4  11   1 1614.78 129.515  34
   4  11   2 2737.44 180.485  34
   4  11   2 1723.48 127.459  33
   4  11   3 1724.30 139.684  33
   4  11   4 740.443 103.974  34
   4  11   4 623.464 93.7351  33
   4  11   5 953.291 100.771  34
   5  -8  -3 5173.76 187.612  39
   5  -8  -2 9213.26 285.021  39
   5  -8  -2 9072.98 279.129  28
   5  -8  -1 1724.73 132.173  39
   5  -8  -1 1776.09 132.306  28
   5  -8  -1 1470.17 109.825   8
   5  -8   0 3273.59 188.112  39
   5  -8   0 3347.53 188.593  28
   5  -8   0 3021.46 170.508   8
   5  -8   1 3591.09 201.886  39
   5  -8   1 3722.06 200.214  28
   5  -8   1 3720.77 195.771   8
   5  -8   2 11352.9 366.729  39
   5  -8   2 10932.6 353.750  28
   5  -8   2 11060.5 349.081   8
   5  -8   3 6083.08 262.427  39
   5  -8   3 5865.77 251.419  28
   5  -8   3 6011.50 250.044   8
   5  -8   4 2202.54 152.156  39
   5  -8   4 2185.17 146.363  28
   5  -8   4 2211.22 148.443   8
   5  -8   5 3400.54 171.814  39
   5  -8   5 3741.78 175.591  28
   5  -8   5 3767.06 174.130   8
   5  -7  -5 2946.40 137.889  39
   5  -7  -4 79.6363 44.4913  39
   5  -7  -4 77.1038 40.7939  28
   5  -7  -4 33.9881 36.0579   8
   5  -7  -4 111.151 48.6101  43
   5  -7  -3 1823.16 143.225  39
   5  -7  -3 1762.87 140.857  28
   5  -7  -3 1823.23 137.439   8
   5  -7  -3 1616.45 124.047  43
   5  -7  -2 2656.30 184.315  39
   5  -7  -2 2857.89 187.240  28
   5  -7  -2 2823.83 185.137   8
   5  -7  -2 2471.18 158.582  43
   5  -7  -1 6917.22 310.080  39
   5  -7  -1 7409.64 314.873  28
   5  -7  -1 7141.43 311.728   8
   5  -7   0 1183.87 137.072  39
   5  -7   0 1081.93 133.319  28
   5  -7   0 1037.68 127.337   8
   5  -7   1 1912.85 177.001  39
   5  -7   1 2245.83 187.442  28
   5  -7   1 2213.22 183.484   8
   5  -7   1 1974.83 162.470  42
   5  -7   2 230.135 84.0467  39
   5  -7   2 261.615 79.9660  28
   5  -7   2 228.808 84.9431   8
   5  -7   2 283.583 75.4472  42
   5  -7   3 186.877 82.9450  39
   5  -7   3 157.517 67.0000  28
   5  -7   3 257.614 87.8841   8
   5  -7   3 167.875 60.1973  42
   5  -7   4 499.487 106.305  39
   5  -7   4 486.234 92.4350  28
   5  -7   4 559.763 104.260   8
   5  -7   4 576.793 95.9137  42
   5  -7   5 28900.9 672.302  39
   5  -7   5 29010.7 660.749  28
   5  -7   5 31051.3 690.079   8
   5  -7   5 30150.7 640.583  42
   5  -7   6 5836.68 256.241  39
   5  -7   6 6248.53 260.589  28
   5  -7   6 6029.25 268.949   8
   5  -7   6 6448.84 254.797  42
   5  -7   7 5506.30 214.359  39
   5  -7   7 6570.94 227.413  28
   5  -7   7 8765.80 285.928   8
   5  -7   7 8821.27 264.900  42
   5  -7   8 3877.72 158.346   8
   5  -6  -6 383.707 59.4912  39
   5  -6  -6 350.191 52.0993  28
   5  -6  -6 409.261 58.0428  43
   5  -6  -5 6114.33 246.067  39
   5  -6  -5 6285.39 247.532  28
   5  -6  -5 6054.34 235.936  43
   5  -6  -4 12976.9 402.700  39
   5  -6  -4 13314.5 405.414  28
   5  -6  -4 12541.8 382.260  43
   5  -6  -3 1397.26 145.018  39
   5  -6  -3 1625.84 153.643  28
   5  -6  -3 1503.80 139.997  43
   5  -6  -2 7280.16 330.039  39
   5  -6  -2 7609.93 336.910  28
   5  -6  -2 7036.17 308.862  43
   5  -6  -2 7043.52 310.258  42
   5  -6  -1 4807.62 279.552  39
   5  -6  -1 4195.61 582.395  21
   5  -6  -1 4685.84 272.809  28
   5  -6  -1 4832.74 282.475   8
   5  -6  -1 4890.79 269.960  42
   5  -6   0 4645.33 283.259  39
   5  -6   0 4294.60 589.181  21
   5  -6   0 4432.31 274.512  28
   5  -6   0 5008.77 294.472   8
   5  -6   0 4780.83 282.241  42
   5  -6   1 1754.66 180.518  39
   5  -6   1 1350.54 341.934  21
   5  -6   1 1821.07 179.841  28
   5  -6   1 1765.55 185.929   8
   5  -6   1 1807.09 178.614  42
   5  -6   2 321.730 97.1757  39
   5  -6   2 320.271 193.558  21
   5  -6   2 412.482 101.587  28
   5  -6   2 347.177 101.904   8
   5  -6   2 306.810 97.5958  42
   5  -6   3 10585.6 440.566  39
   5  -6   3 10861.3 441.022  28
   5  -6   3 10207.8 437.826   8
   5  -6   3 10915.1 438.785  42
   5  -6   4 2545.98 219.216  39
   5  -6   4 2580.66 213.473  28
   5  -6   4 2879.61 232.299   8
   5  -6   4 2550.22 207.659  44
   5  -6   4 2579.71 213.176  42
   5  -6   5 11193.7 442.074  39
   5  -6   5 10744.0 422.609  28
   5  -6   5 11524.2 448.576   8
   5  -6   5 10545.3 410.531  44
   5  -6   5 11821.6 432.599  42
   5  -6   6 2755.30 207.745  39
   5  -6   6 2868.78 205.848  28
   5  -6   6 2874.48 217.623   8
   5  -6   6 2728.11 203.993  42
   5  -6   7 729.183 101.828  39
   5  -6   7 636.997 92.9961  28
   5  -6   7 614.951 106.075   8
   5  -6   7 640.238 102.590  42
   5  -6   8 4443.02 222.483   8
   5  -6   8 4508.49 210.582  42
   5  -6   9 3756.14 170.746   8
   5  -6   9 3866.92 162.428  42
   5  -5  -7 5894.88 205.003  39
   5  -5  -7 5358.00 189.646  28
   5  -5  -7 5421.82 192.869  43
   5  -5  -6 12790.5 366.643  39
   5  -5  -6 13324.0 375.930  28
   5  -5  -6 13191.6 363.995  43
   5  -5  -5 2198.76 168.725  39
   5  -5  -5 2266.92 171.239  28
   5  -5  -5 2031.33 158.434  43
   5  -5  -4 41741.1 838.836  39
   5  -5  -4 41652.4 847.978  28
   5  -5  -4 42469.6 829.770  43
   5  -5  -3 3838.61 244.681  39
   5  -5  -3 3213.53 493.724  21
   5  -5  -3 4076.57 252.297  28
   5  -5  -3 3699.50 230.189  43
   5  -5  -2 32044.9 769.495  39
   5  -5  -2 31676.0 1594.10  21
   5  -5  -2 32781.4 777.083  28
   5  -5  -2 32846.2 751.966  43
   5  -5  -1 6752.31 340.996  39
   5  -5  -1 6194.77 703.207  21
   5  -5  -1 6755.45 751.909  18
   5  -5  -1 6730.48 342.695  28
   5  -5   0 1420.01 161.685  39
   5  -5   0 1457.05 328.062  21
   5  -5   0 1346.41 332.819  64
   5  -5   0 1647.65 384.815  18
   5  -5   0 1625.91 174.357  28
   5  -5   1 13473.3 504.634  39
   5  -5   1 12580.7 995.679  21
   5  -5   1 12781.1 1043.19  64
   5  -5   1 13259.8 1080.88  18
   5  -5   1 13688.6 505.437  28
   5  -5   1 12905.8 499.388   8
   5  -5   1 13625.5 511.494  42
   5  -5   2 881.766 139.546  39
   5  -5   2 549.456 222.633  21
   5  -5   2 818.752 280.436  64
   5  -5   2 1177.50 362.799  18
   5  -5   2 827.429 129.454  28
   5  -5   2 905.716 140.853   8
   5  -5   2 1052.25 153.822  42
   5  -5   3 371.365 99.4638  39
   5  -5   3 125.191 169.127  64
   5  -5   3 481.513 234.620  18
   5  -5   3 474.651 113.122  28
   5  -5   3 522.365 119.477   8
   5  -5   3 501.078 119.454  42
   5  -5   4 26571.5 759.600  39
   5  -5   4 27366.8 1595.56  18
   5  -5   4 26412.6 739.561  28
   5  -5   4 25636.9 740.515   8
   5  -5   4 27989.0 788.745  44
   5  -5   4 26816.3 743.870  42
   5  -5   5 5689.88 338.068  39
   5  -5   5 5356.61 705.199  18
   5  -5   5 5849.25 328.958  28
   5  -5   5 5856.50 341.229   8
   5  -5   5 5941.39 345.994  44
   5  -5   5 5691.67 323.136  42
   5  -5   6 10604.1 447.101  39
   5  -5   6 10946.0 438.913  28
   5  -5   6 11190.2 463.177   8
   5  -5   6 11313.1 446.534  42
   5  -5   7 27389.1 720.884   8
   5  -5   7 27198.8 699.864  44
   5  -5   7 27191.3 681.908  42
   5  -5   8 10978.0 415.349   8
   5  -5   8 11158.2 392.192  44
   5  -5   8 11240.0 389.498  42
   5  -5   9 860.658 110.537   8
   5  -5   9 866.603 99.5441  44
   5  -5   9 831.548 102.714  42
   5  -5  10 16.9362 34.7268   8
   5  -5  10 26.2804 35.0822  42
   5  -4  -8 3024.32 136.665  39
   5  -4  -8 2705.71 127.217  43
   5  -4  -7 13288.0 361.152  39
   5  -4  -7 13274.0 360.885  43
   5  -4  -6 2632.27 180.717  43
   5  -4  -5 7998.97 330.269  43
   5  -4  -4 15097.3 1064.80  21
   5  -4  -4 15213.1 485.083  43
   5  -4  -3 73107.2 1280.45  39
   5  -4  -3 71994.6 2428.07  21
   5  -4  -3 74708.3 2511.36  18
   5  -4  -3 77712.5 1296.26  43
   5  -4  -2 72316.6 1281.86  39
   5  -4  -2 75947.6 2454.54  21
   5  -4  -2 77770.6 2492.70  64
   5  -4  -2 75440.8 2530.45  18
   5  -4  -1 3320.34 532.960  12
   5  -4  -1 3843.26 258.585  39
   5  -4  -1 4183.22 557.864  21
   5  -4  -1 4385.15 574.610  64
   5  -4  -1 4096.57 574.168  18
   5  -4   0 7471.08 783.990  12
   5  -4   0 7806.57 377.191  39
   5  -4   0 8394.86 769.633  21
   5  -4   0 8374.53 790.265  64
   5  -4   0 8352.80 817.007  18
   5  -4   0 7910.23 373.622  28
   5  -4   1 26120.3 1476.73  12
   5  -4   1 28271.9 751.912  39
   5  -4   1 28141.4 1414.20  21
   5  -4   1 29750.6 1513.74  64
   5  -4   1 21949.3 1371.31  61
   5  -4   1 22876.4 1397.19  60
   5  -4   1 30165.9 1555.85  18
   5  -4   1 19908.1 1305.06  57
   5  -4   1 22924.6 1432.72  55
   5  -4   1 22085.5 1384.79  53
   5  -4   1 29188.8 753.137  28
   5  -4   1 22933.6 1414.06  52
   5  -4   2 15645.1 1143.65  12
   5  -4   2 17285.9 589.105  39
   5  -4   2 18490.1 1145.16  21
   5  -4   2 19543.5 1245.10  64
   5  -4   2 14676.4 1134.38  61
   5  -4   2 15092.1 1152.82  60
   5  -4   2 18555.3 1235.45  18
   5  -4   2 13488.6 1132.94  57
   5  -4   2 15166.6 1184.49  55
   5  -4   2 19216.7 609.225  28
   5  -4   2 14603.1 1134.48  53
   5  -4   2 16250.7 1206.16  52
   5  -4   2 17028.1 582.723   8
   5  -4   3 1568.96 181.208  39
   5  -4   3 1280.79 358.389  12
   5  -4   3 1767.60 410.554  64
   5  -4   3 1647.20 387.799  18
   5  -4   3 1790.95 188.518  28
   5  -4   3 1604.30 184.932   8
   5  -4   3 1723.86 190.253  42
   5  -4   4 8883.62 435.848  39
   5  -4   4 9392.32 905.021  64
   5  -4   4 9801.24 928.071  18
   5  -4   4 9754.13 444.131  28
   5  -4   4 9712.45 445.619   8
   5  -4   4 9723.93 434.692  42
   5  -4   5 3102.32 549.825  64
   5  -4   5 3557.74 265.883  32
   5  -4   5 3310.48 566.266  18
   5  -4   5 3394.88 260.390  28
   5  -4   5 3461.27 270.867   8
   5  -4   5 3456.13 282.052  44
   5  -4   5 3402.62 258.126  42
   5  -4   6 4641.06 296.340  32
   5  -4   6 5235.74 711.028  18
   5  -4   6 4530.96 312.678   8
   5  -4   6 4487.77 314.921  44
   5  -4   6 4449.57 294.425  42
   5  -4   7 31607.3 767.585  32
   5  -4   7 28574.8 1667.36  18
   5  -4   7 29971.7 813.406   8
   5  -4   7 30223.3 816.073  44
   5  -4   7 28810.0 761.201  42
   5  -4   8 7007.15 321.437  32
   5  -4   8 7162.09 370.095   8
   5  -4   8 7081.64 354.065  44
   5  -4   8 7156.48 341.956  42
   5  -4   9 10394.2 346.910  32
   5  -4   9 10431.8 404.707   8
   5  -4   9 11329.7 401.896  44
   5  -4   9 10621.3 386.179  42
   5  -4  10 1768.40 118.354  32
   5  -4  10 2127.61 158.435   8
   5  -4  10 2132.22 148.785  44
   5  -4  10 1998.15 144.480  42
   5  -4  11 91.6927 36.6401   8
   5  -4  11 98.8747 34.3300  44
   5  -3  -8 17830.2 402.129  43
   5  -3  -7 1099.89 124.443  43
   5  -3  -6 4099.48 239.942  43
   5  -3  -5 518.786 241.101  21
   5  -3  -5 654.847 110.528  43
   5  -3  -4 686.444 254.674  21
   5  -3  -4 551.622 234.506  18
   5  -3  -4 649.898 119.353  43
   5  -3  -3 151234. 3546.18  21
   5  -3  -3 149027. 3513.00  64
   5  -3  -3 151578. 3648.39  18
   5  -3  -3 143388. 2046.86  43
   5  -3  -2 4847.27 604.067  12
   5  -3  -2 5771.48 632.375  21
   5  -3  -2 5038.60 593.230  64
   5  -3  -2 4264.66 563.454  62
   5  -3  -2 5261.12 636.794  18
   5  -3  -1 3744.50 526.373  12
   5  -3  -1 3516.94 241.853  39
   5  -3  -1 3823.13 497.900  21
   5  -3  -1 2957.81 462.568  64
   5  -3  -1 3606.35 523.150  18
   5  -3   0 1073.49 138.340  39
   5  -3   0 1223.63 304.848  12
   5  -3   0 1052.36 270.519  21
   5  -3   0 1262.38 309.179  64
   5  -3   0 1188.11 319.231  18
   5  -3   0 1080.88 296.559  54
   5  -3   1 5521.09 617.978  12
   5  -3   1 4673.71 285.067  39
   5  -3   1 5997.49 600.488  21
   5  -3   1 5273.70 593.415  64
   5  -3   1 4820.98 603.549  61
   5  -3   1 5499.82 575.492  19
   5  -3   1 4740.32 596.800  60
   5  -3   1 5476.54 631.355  18
   5  -3   1 5111.36 629.726  55
   5  -3   1 5056.20 617.496  53
   5  -3   1 5393.63 305.365  28
   5  -3   1 5507.82 659.552  52
   5  -3   2 1544.78 341.096  12
   5  -3   2 1623.70 351.147  64
   5  -3   2 1442.11 314.779  19
   5  -3   2 1100.84 307.741  61
   5  -3   2 1006.96 288.916  60
   5  -3   2 1253.95 322.573  18
   5  -3   2 1010.26 315.405  57
   5  -3   2 1523.37 378.918  55
   5  -3   2 1260.33 339.036  54
   5  -3   2 1282.30 158.631  28
   5  -3   2 1625.01 379.244  53
   5  -3   2 1160.89 316.890  52
   5  -3   3 28454.7 1464.76  12
   5  -3   3 32055.8 1525.90  64
   5  -3   3 31062.5 1441.83  19
   5  -3   3 32619.3 1648.71  61
   5  -3   3 30869.8 1603.41  60
   5  -3   3 31992.9 1590.28  18
   5  -3   3 30350.1 1606.68  57
   5  -3   3 31998.3 1677.01  55
   5  -3   3 28056.3 769.548  28
   5  -3   3 31249.9 1630.20  53
   5  -3   3 30760.2 1619.50  52
   5  -3   3 31811.2 828.757   8
   5  -3   4 304.932 183.822  64
   5  -3   4 461.625 240.565  61
   5  -3   4 444.089 241.045  60
   5  -3   4 139.635 171.900  18
   5  -3   4 259.412 201.768  57
   5  -3   4 235.585 194.404  55
   5  -3   4 267.125 206.239  54
   5  -3   4 197.030 187.348  53
   5  -3   4 249.710 197.967  52
   5  -3   4 208.539 85.4655   8
   5  -3   4 276.947 94.3787  42
   5  -3   5 9218.99 869.962  64
   5  -3   5 10467.5 974.126  18
   5  -3   5 11242.8 494.596   8
   5  -3   5 10443.2 497.463  44
   5  -3   5 11189.6 471.110  42
   5  -3   6 3516.26 273.505  32
   5  -3   6 3804.32 607.269  18
   5  -3   6 3378.64 276.672   8
   5  -3   6 3440.52 290.085  44
   5  -3   6 3468.69 266.315  42
   5  -3   7 27343.1 759.883  32
   5  -3   7 27629.3 1645.84  18
   5  -3   7 27063.7 796.325   8
   5  -3   7 28871.0 826.744  44
   5  -3   7 25649.6 739.725  42
   5  -3   8 3965.02 633.644  18
   5  -3   8 4610.30 289.016  32
   5  -3   8 4643.33 311.031   8
   5  -3   8 4483.08 305.637  44
   5  -3   8 4657.96 289.023  42
   5  -3   9 7033.77 322.483  32
   5  -3   9 6435.45 340.048   8
   5  -3   9 6771.10 347.768  44
   5  -3   9 6951.35 331.002  42
   5  -3  10 81.2261 57.3523  32
   5  -3  10 15.9853 52.7001   8
   5  -3  10 62.2243 63.5493  44
   5  -3  10 1.11119 53.6644  42
   5  -3  11 1330.02 102.793  32
   5  -3  11 1344.66 113.999  44
   5  -3  11 1407.92 109.000  42
   5  -2  -9 239.869 56.9332  39
   5  -2  -9 738.723 68.3003  43
   5  -2  -8 1381.07 128.052  43
   5  -2  -6 3106.66 482.031  21
   5  -2  -5 3061.96 496.283  21
   5  -2  -5 2849.31 503.550  18
   5  -2  -4 8539.60 795.375  21
   5  -2  -4 8232.15 752.719  64
   5  -2  -4 9870.08 909.908  18
   5  -2  -4 7770.48 765.837  14
   5  -2  -3 11222.4 909.651  12
   5  -2  -3 11551.3 885.850  21
   5  -2  -3 12231.9 895.930  64
   5  -2  -3 10711.0 870.474  62
   5  -2  -3 13480.9 1016.32  18
   5  -2  -3 11959.0 929.552  14
   5  -2  -2 4034.17 523.167  12
   5  -2  -2 4513.31 539.519  21
   5  -2  -2 4403.61 521.680  64
   5  -2  -2 4517.44 560.107  62
   5  -2  -2 4121.97 551.106  18
   5  -2  -2 4108.92 529.512  54
   5  -2  -2 4267.91 544.304  14
   5  -2  -1 3289.70 454.703  12
   5  -2  -1 3321.30 442.734  21
   5  -2  -1 3414.42 456.909  64
   5  -2  -1 3286.98 468.129  62
   5  -2  -1 3560.48 493.142  18
   5  -2  -1 2402.15 406.920  54
   5  -2   0 7477.17 664.331  12
   5  -2   0 7206.34 623.911  21
   5  -2   0 7601.64 668.276  64
   5  -2   0 7354.53 689.333  62
   5  -2   0 8160.41 719.806  18
   5  -2   1 5687.01 573.098  12
   5  -2   1 5259.50 520.344  21
   5  -2   1 5926.35 582.101  64
   5  -2   1 4877.64 554.880  61
   5  -2   1 5208.48 576.822  60
   5  -2   1 5479.68 593.730  18
   5  -2   1 4716.26 561.175  55
   5  -2   1 4630.53 550.286  53
   5  -2   1 5036.22 572.229  52
   5  -2   2 25.1727 85.9966  12
   5  -2   2 234.074 142.213  64
   5  -2   2 112.142 138.207  19
   5  -2   2 104.786 137.023  61
   5  -2   2 4.98934 148.068  60
   5  -2   2 124.027 150.579  18
   5  -2   2 25.4577 118.693  57
   5  -2   2-27.1670 113.370  55
   5  -2   2-33.2005 104.031  54
   5  -2   2 66.1255 140.350  53
   5  -2   2-111.659 138.096  52
   5  -2   3 17990.5 1052.59  64
   5  -2   3 16433.9 1027.77  19
   5  -2   3 16715.0 1103.06  61
   5  -2   3 17036.7 1111.75  60
   5  -2   3 17170.4 1103.23  18
   5  -2   3 16483.9 1104.87  57
   5  -2   3 17216.9 1147.56  55
   5  -2   3 16027.8 1112.06  54
   5  -2   3 16401.3 1100.48  53
   5  -2   3 17833.2 1150.47  52
   5  -2   4 16172.4 983.617  22
   5  -2   4 15555.3 1016.03  64
   5  -2   4 16392.8 1066.40  19
   5  -2   4 15999.8 1134.46  61
   5  -2   4 16733.5 1155.80  60
   5  -2   4 17067.1 1144.92  18
   5  -2   4 17170.8 1187.03  57
   5  -2   4 16287.3 1174.56  55
   5  -2   4 16761.6 1176.11  54
   5  -2   4 16384.1 1153.17  53
   5  -2   4 16679.9 1168.05  52
   5  -2   4 17165.0 582.396  42
   5  -2   5 17203.6 1127.52  19
   5  -2   5 18655.9 1277.81  61
   5  -2   5 19525.1 1285.01  18
   5  -2   5 16495.2 1213.85  57
   5  -2   5 17259.8 1260.26  55
   5  -2   5 15967.9 1212.07  54
   5  -2   5 17022.7 1220.48  53
   5  -2   5 17139.8 1241.23  52
   5  -2   5 17026.2 621.641   8
   5  -2   5 17442.2 603.672  42
   5  -2   6 24699.5 1393.21  19
   5  -2   6 23827.7 1496.00  61
   5  -2   6 25407.7 751.163  32
   5  -2   6 24927.4 1506.19  18
   5  -2   6 22768.7 1476.16  57
   5  -2   6 22712.0 1508.37  55
   5  -2   6 23126.5 1526.97  54
   5  -2   6 22877.0 1471.36  53
   5  -2   6 22353.9 1479.28  52
   5  -2   6 25436.1 774.204   8
   5  -2   6 24032.3 766.877  44
   5  -2   6 25423.5 754.861  42
   5  -2   7 32712.7 1633.98  19
   5  -2   7 35105.9 897.017  32
   5  -2   7 36913.5 1879.62  18
   5  -2   7 35107.9 926.509   8
   5  -2   7 32647.9 912.308  44
   5  -2   7 35913.6 902.463  42
   5  -2   8 4077.35 631.413  18
   5  -2   8 5271.71 324.438  32
   5  -2   8 4944.05 307.488  30
   5  -2   8 4631.93 316.569   8
   5  -2   8 4675.07 320.191  44
   5  -2   8 4552.69 299.473  42
   5  -2   9 3619.36 254.928  32
   5  -2   9 3734.82 240.772  30
   5  -2   9 3758.16 265.801   8
   5  -2   9 3918.04 281.161  44
   5  -2   9 3816.87 256.588  42
   5  -2  10 125.302 71.1764  32
   5  -2  10 83.6789 56.1100  30
   5  -2  10 63.7410 55.8117   8
   5  -2  10 106.324 79.0614  44
   5  -2  10 109.986 73.0620  42
   5  -2  11 8121.49 286.550  32
   5  -2  11 7895.84 303.605  44
   5  -2  11 7225.93 260.460  42
   5  -2  12 2361.06 119.776  32
   5  -2  12 2368.42 129.054  44
   5  -1  -9 8345.69 252.017  43
   5  -1  -6 1543.83 370.070  21
   5  -1  -6 1961.38 415.954  18
   5  -1  -5 3271.15 502.920  21
   5  -1  -5 2397.25 428.627  64
   5  -1  -5 3097.38 537.179  18
   5  -1  -4 27888.2 1448.74  12
   5  -1  -4 33767.9 1550.11  21
   5  -1  -4 31882.6 1479.58  64
   5  -1  -4 29339.4 1464.34  62
   5  -1  -4 30441.0 1509.63  14
   5  -1  -3 46597.3 1821.49  12
   5  -1  -3 53071.0 1875.21  21
   5  -1  -3 47587.8 1770.18  64
   5  -1  -3 47120.0 1812.94  62
   5  -1  -3 51973.9 1966.24  18
   5  -1  -3 47685.6 1863.88  54
   5  -1  -3 46250.4 1791.35  14
   5  -1  -2 36562.6 1511.41  12
   5  -1  -2 41102.3 1576.71  21
   5  -1  -2 38209.8 1498.41  64
   5  -1  -2 36709.7 1532.25  62
   5  -1  -2 42102.9 1707.26  18
   5  -1  -2 38627.0 1610.72  54
   5  -1  -2 38828.4 1574.47  14
   5  -1  -1 2075.65 335.343  12
   5  -1  -1 1980.43 327.624  21
   5  -1  -1 2186.98 350.711  64
   5  -1  -1 2003.66 346.211  62
   5  -1  -1 2164.44 381.137  18
   5  -1  -1 1940.50 352.879  54
   5  -1  -1 1732.36 324.716  14
   5  -1   0 307.961 141.184  12
   5  -1   0 244.939 142.227  21
   5  -1   0 301.035 139.353  64
   5  -1   0 108.130 123.813  62
   5  -1   0 387.112 187.276  18
   5  -1   0 121.497 149.435  54
   5  -1   1 2281.19 333.699  12
   5  -1   1 2595.10 363.449  64
   5  -1   1 1992.73 344.662  62
   5  -1   1 2256.30 378.667  18
   5  -1   1 2304.05 384.282  54
   5  -1   2 30635.0 1244.36  64
   5  -1   2 29338.9 1324.63  61
   5  -1   2 27679.0 1267.61  19
   5  -1   2 29393.8 1327.45  60
   5  -1   2 24779.7 1093.86   5
   5  -1   2 29891.3 1356.42  18
   5  -1   2 28950.8 1327.58  57
   5  -1   2 28440.6 1339.41  55
   5  -1   2 28478.0 1369.59  54
   5  -1   2 29347.3 1330.23  53
   5  -1   2 29462.4 1355.90  52
   5  -1   3 393.236 159.222  64
   5  -1   3 333.339 172.891  19
   5  -1   3 307.915 175.848  61
   5  -1   3 439.848 186.769  60
   5  -1   3 286.058 163.971  18
   5  -1   3 291.524 185.971  57
   5  -1   3 341.715 166.200  55
   5  -1   3 213.314 184.784  54
   5  -1   3 550.561 207.824  53
   5  -1   3 399.194 191.986  52
   5  -1   4 65467.2 2085.94  22
   5  -1   4 76370.5 2329.93  19
   5  -1   4 74762.0 2380.16  61
   5  -1   4 74232.4 2376.96  18
   5  -1   4 73800.1 2392.28  57
   5  -1   4 76618.3 2469.15  55
   5  -1   4 71674.1 2453.60  54
   5  -1   4 72252.6 2350.00  53
   5  -1   4 73793.9 2387.19  52
   5  -1   5 611.920 230.039  22
   5  -1   5 498.364 240.835  19
   5  -1   5 464.077 225.889  61
   5  -1   5 529.551 225.501  18
   5  -1   5 639.942 265.219  57
   5  -1   5 582.886 248.164  55
   5  -1   5 695.355 276.899  54
   5  -1   5 616.826 255.554  53
   5  -1   5 459.083 211.836  52
   5  -1   5 723.790 132.854  42
   5  -1   6 28918.0 1437.62  22
   5  -1   6 26664.2 1470.20  19
   5  -1   6 26541.8 1515.57  61
   5  -1   6 26438.9 1495.35  18
   5  -1   6 26342.5 1536.76  57
   5  -1   6 27745.8 1588.62  55
   5  -1   6 25782.4 1592.96  54
   5  -1   6 27269.1 1530.28  53
   5  -1   6 26027.2 1524.26  52
   5  -1   6 26878.1 810.780  44
   5  -1   6 22934.3 726.611  42
   5  -1   7 9964.65 913.793  19
   5  -1   7 10434.4 473.425  32
   5  -1   7 11338.9 994.912  18
   5  -1   7 11175.0 508.513  44
   5  -1   7 10088.7 458.986  42
   5  -1   8 8836.15 864.960  19
   5  -1   8 9163.57 908.029  18
   5  -1   8 10652.4 466.981  32
   5  -1   8 10362.8 465.689  30
   5  -1   8 10276.1 464.100   8
   5  -1   8 9851.56 417.521  49
   5  -1   8 10564.8 490.329  44
   5  -1   8 10307.0 446.510  42
   5  -1   9 24522.7 703.013  32
   5  -1   9 25590.4 707.201  30
   5  -1   9 24132.5 692.056   8
   5  -1   9 25440.7 741.239  44
   5  -1   9 25659.8 690.357  42
   5  -1  10 6694.17 325.805  32
   5  -1  10 6550.75 306.321  30
   5  -1  10 6703.61 346.366  44
   5  -1  10 6378.80 293.753  42
   5  -1  11 376.826 85.3477  32
   5  -1  11 303.895 63.8171  30
   5  -1  11 371.549 84.1129  44
   5  -1  12 8555.92 259.935  32
   5  -1  12 8643.80 279.929  44
   5   0  -6 7778.04 788.015  21
   5   0  -6 9042.25 893.072  18
   5   0  -5 11754.1 938.521  21
   5   0  -5 11406.6 890.855  64
   5   0  -5 10840.6 890.759  14
   5   0  -4 13296.1 960.973  12
   5   0  -4 14690.2 1009.25  21
   5   0  -4 14249.2 956.464  64
   5   0  -4 13273.5 959.121  62
   5   0  -4 13432.4 956.543  14
   5   0  -3 26306.3 1283.76  12
   5   0  -3 27279.2 1312.88  21
   5   0  -3 25491.6 1233.99  64
   5   0  -3 25247.0 1273.49  62
   5   0  -3 25567.8 1321.79  54
   5   0  -3 26656.0 1311.44  14
   5   0  -2 10656.3 760.549  12
   5   0  -2 11595.0 796.105  21
   5   0  -2 11260.2 776.861  64
   5   0  -2 9687.31 749.459  62
   5   0  -2 10028.6 806.063  54
   5   0  -2 11539.5 828.874  14
   5   0  -1 6580.02 569.204  12
   5   0  -1 6955.12 577.939  21
   5   0  -1 7131.82 586.549  64
   5   0  -1 6445.92 593.626  62
   5   0  -1 8989.44 746.043  18
   5   0  -1 7050.40 630.572  54
   5   0  -1 6054.02 577.745  14
   5   0   0 1025.72 220.916  12
   5   0   0 1145.27 236.867  64
   5   0   0 1153.21 263.882  62
   5   0   0 1179.11 277.525  18
   5   0   0 876.962 234.254  54
   5   0   0 1434.18 282.462  14
   5   0   1 83234.6 1995.14  64
   5   0   1 79286.6 2176.70  62
   5   0   1 78720.2 2167.19  18
   5   0   1 76210.8 2239.41  54
   5   0   2 51654.9 1751.77  19
   5   0   2 55840.0 1697.01   5
   5   0   2 51819.1 1824.34  54
   5   0   3 2521.26 394.561  19
   5   0   3 2397.77 370.924  61
   5   0   3 2030.89 325.196   5
   5   0   3 1959.07 355.139  18
   5   0   3 2225.10 363.786  57
   5   0   3 2516.11 382.742  55
   5   0   3 2391.24 411.339  54
   5   0   3 2081.50 365.589  53
   5   0   3 2415.26 384.924  52
   5   0   4 35018.9 1497.49  22
   5   0   4 34258.7 1518.51  19
   5   0   4 35093.0 1503.37  61
   5   0   4 32403.2 1470.23  18
   5   0   4 35582.0 1526.39  57
   5   0   4 35920.2 1554.68  55
   5   0   4 33098.3 1566.77  54
   5   0   4 33535.1 1472.86  53
   5   0   4 34774.0 1516.13  52
   5   0   5 76361.0 2303.37  22
   5   0   5 66459.0 2261.74  19
   5   0   5 70450.3 2306.70  61
   5   0   5 78850.4 2415.78  18
   5   0   5 70725.8 2338.77  57
   5   0   5 71969.3 2386.06  55
   5   0   5 70304.1 2471.48  54
   5   0   5 70998.4 2304.13  53
   5   0   5 69126.8 2318.45  52
   5   0   6 10344.0 862.875  22
   5   0   6 10410.1 911.122  19
   5   0   6 10735.5 923.971  61
   5   0   6 12120.7 945.616  18
   5   0   6 10467.1 917.353  57
   5   0   6 10138.7 919.655  55
   5   0   6 11026.4 1003.43  54
   5   0   6 11075.1 930.745  53
   5   0   6 10171.9 920.482  52
   5   0   6 10284.2 486.788  44
   5   0   7 59385.5 2162.78  22
   5   0   7 68309.7 2444.93  19
   5   0   7 57067.6 2295.42  61
   5   0   7 62959.9 1268.20  32
   5   0   7 57290.3 2324.39  57
   5   0   7 55970.7 2329.07  55
   5   0   7 55547.8 2440.57  54
   5   0   7 56952.4 2283.76  53
   5   0   7 55040.5 2296.74  52
   5   0   7 66246.8 1343.87  44
   5   0   8 13157.4 1003.66  22
   5   0   8 12521.8 1051.57  19
   5   0   8 13085.4 522.638  32
   5   0   8 12768.6 536.373  30
   5   0   8 14461.4 527.921  49
   5   0   8 12223.8 534.051  44
   5   0   9 7822.03 830.351  19
   5   0   9 8073.05 398.438  32
   5   0   9 8400.35 400.797  30
   5   0   9 8349.05 378.198  49
   5   0   9 8096.34 412.974  44
   5   0  10 7815.55 359.876  32
   5   0  10 8441.76 367.646  30
   5   0  10 7582.17 324.415  49
   5   0  10 7780.35 378.134  44
   5   0  11 17.1101 61.0886  32
   5   0  11-5.73614 58.5962  30
   5   0  11-32.2010 43.6010  49
   5   0  11-34.0042 65.9030  44
   5   0  12 2843.02 158.963  32
   5   0  12 2617.80 158.869  44
   5   1  -6 990.211 304.339  21
   5   1  -5 30126.1 1507.23  21
   5   1  -5 28470.3 1414.74  64
   5   1  -5 25062.6 1367.40  14
   5   1  -4 39409.7 1658.64  21
   5   1  -4 37552.6 1563.72  64
   5   1  -4 34756.6 1575.40  62
   5   1  -4 37672.6 1637.48  14
   5   1  -3 23622.1 1191.41  12
   5   1  -3 26936.2 1302.62  21
   5   1  -3 25028.0 1201.11  64
   5   1  -3 25325.9 1277.16  62
   5   1  -3 25519.7 1272.08  14
   5   1  -2 39230.2 1455.41  12
   5   1  -2 43615.2 1548.91  21
   5   1  -2 41553.5 1473.76  64
   5   1  -2 39988.6 1551.44  62
   5   1  -2 41551.6 1594.52  54
   5   1  -2 41841.2 1581.29  14
   5   1  -1 240.392 126.086  12
   5   1  -1 183.081 126.381  21
   5   1  -1 389.169 159.114  64
   5   1  -1 246.955 143.472  62
   5   1  -1 374.283 196.727  18
   5   1  -1 337.138 156.058  54
   5   1  -1 432.431 178.808  14
   5   1   0 4889.59 436.857  64
   5   1   0 5209.11 522.778  62
   5   1   0 5691.65 566.750  18
   5   1   0 4600.22 497.374  54
   5   1   0 5070.33 508.347  14
   5   1   1 10488.8 747.831  62
   5   1   1 11472.0 771.087  18
   5   1   1 10526.4 735.520  14
   5   1   2 4260.56 484.173  19
   5   1   2 4254.01 455.044   5
   5   1   2 4612.15 489.035  18
   5   1   3 8289.01 691.342  19
   5   1   3 9074.40 685.688   5
   5   1   3 8771.29 693.434  18
   5   1   4 4659.99 543.144  22
   5   1   4 4990.91 565.710  19
   5   1   4 4868.41 527.912  61
   5   1   4 5226.73 547.657  18
   5   1   4 4591.68 519.370  57
   5   1   4 5067.04 550.554  55
   5   1   4 4438.15 574.151  54
   5   1   4 4906.67 535.040  53
   5   1   4 4236.49 496.758  52
   5   1   5 4452.46 554.890  22
   5   1   5 4872.60 581.883  19
   5   1   5 4718.05 549.340  61
   5   1   5 5050.23 576.753  57
   5   1   5 5125.76 590.507  55
   5   1   5 5282.09 641.835  54
   5   1   5 4175.03 517.358  53
   5   1   5 4799.58 570.616  52
   5   1   6 17114.1 1115.64  22
   5   1   6 17645.4 1154.09  19
   5   1   6 16911.6 1117.06  61
   5   1   6 17357.2 1141.23  57
   5   1   6 17030.2 1149.91  55
   5   1   6 16734.9 1202.88  54
   5   1   6 16331.5 1097.69  53
   5   1   6 16688.6 1130.63  52
   5   1   6 16328.1 618.150  44
   5   1   7 2733.89 471.745  22
   5   1   7 2893.86 506.426  19
   5   1   7 2484.09 231.348  32
   5   1   7 2430.28 464.531  57
   5   1   7 2209.88 459.637  55
   5   1   7 2060.93 449.311  54
   5   1   7 2019.70 425.176  53
   5   1   7 2259.43 456.975  52
   5   1   7 2817.66 257.862  44
   5   1   8 31617.7 1601.67  22
   5   1   8 32292.9 1678.15  19
   5   1   8 31168.5 836.330  32
   5   1   8 32808.8 842.246  30
   5   1   8 30870.1 859.378  44
   5   1   9 328.632 190.788  22
   5   1   9 345.662 204.835  19
   5   1   9 321.164 105.324  32
   5   1   9 448.610 114.853  30
   5   1   9 345.781 102.723  49
   5   1   9 311.760 105.364  44
   5   1  10 2310.80 203.105  32
   5   1  10 2583.51 208.257  30
   5   1  10 2511.59 199.156  49
   5   1  10 2359.70 211.637  44
   5   1  11 4577.45 248.223  32
   5   1  11 4647.49 244.439  30
   5   1  11 4266.18 223.706  49
   5   1  11 4368.70 245.910  44
   5   1  12 1149.92 105.205  32
   5   1  12 1336.52 111.619  30
   5   1  12 1076.51 90.2961  49
   5   1  12 1302.56 112.576  44
   5   2  -6 293.056 180.939  21
   5   2  -5 1144.08 308.471  21
   5   2  -5 787.031 263.580  64
   5   2  -5 798.327 262.656  14
   5   2  -4 36655.2 1621.17  21
   5   2  -4 35401.8 1522.49  64
   5   2  -4 33407.9 1576.90  62
   5   2  -4 36176.6 1611.97  14
   5   2  -3 28759.9 1312.69  12
   5   2  -3 33953.8 1480.64  21
   5   2  -3 33827.2 1408.94  64
   5   2  -3 32277.7 1465.46  62
   5   2  -3 34217.9 1488.44  14
   5   2  -2 5527.47 552.676  21
   5   2  -2 6213.23 558.365  64
   5   2  -2 5949.39 598.563  62
   5   2  -2 6210.19 598.810  14
   5   2  -1 27964.7 1108.90  64
   5   2  -1 26612.7 1218.90  62
   5   2  -1 29203.9 1250.73  14
   5   2   0 747.163 203.608  62
   5   2   0 797.010 242.048  18
   5   2   0 482.636 191.210  54
   5   2   0 612.984 191.894  14
   5   2   1 27683.0 1224.84  62
   5   2   1 27551.7 1202.88   5
   5   2   1 31025.5 1267.87  18
   5   2   1 28991.1 1205.83  14
   5   2   2 15393.1 942.605  19
   5   2   2 13552.0 846.810   5
   5   2   2 13947.2 831.397  18
   5   2   3 9659.65 733.539  22
   5   2   3 8473.52 711.787  19
   5   2   3 7935.24 670.211   5
   5   2   3 8958.55 724.305  54
   5   2   4 1540.32 318.442  22
   5   2   4 1456.41 327.628  19
   5   2   4 1395.33 309.981  54
   5   2   5 5510.04 618.212  22
   5   2   5 6464.15 667.447  19
   5   2   5 5259.69 567.546  57
   5   2   5 5256.98 577.435  55
   5   2   5 5145.72 606.821  54
   5   2   5 4697.60 525.853  53
   5   2   5 5246.96 571.890  52
   5   2   6 8965.98 824.522  22
   5   2   6 9680.98 858.418  19
   5   2   6 7558.15 398.134  32
   5   2   6 8675.22 796.831  57
   5   2   6 8783.79 798.861  55
   5   2   6 8016.84 809.682  54
   5   2   6 7564.07 735.109  53
   5   2   6 8516.04 777.458  52
   5   2   7 9139.44 838.198  22
   5   2   7 9792.13 896.492  19
   5   2   7 9580.18 444.710  32
   5   2   7 8118.15 802.137  57
   5   2   7 7552.09 794.723  55
   5   2   7 6281.48 757.266  54
   5   2   7 6995.20 742.746  53
   5   2   7 7845.07 798.566  52
   5   2   7 7254.27 407.656  44
   5   2   8 952.116 314.355  22
   5   2   8 780.893 302.708  19
   5   2   8 867.137 143.515  32
   5   2   8 696.533 131.185  30
   5   2   8 665.358 126.618  49
   5   2   8 868.873 151.188  44
   5   2   9 9034.48 846.161  22
   5   2   9 10080.2 933.493  19
   5   2   9 8854.63 410.108  32
   5   2   9 9335.32 416.144  30
   5   2   9 9941.05 432.067  49
   5   2   9 9461.92 430.897  44
   5   2  10 284.447 85.3184  32
   5   2  10 351.150 88.5454  31
   5   2  10 358.517 99.4483  30
   5   2  10 339.583 93.6808  49
   5   2  10 249.588 82.7759  44
   5   2  11 2640.28 180.466  32
   5   2  11 2112.17 150.379  31
   5   2  11 2771.09 189.056  30
   5   2  11 2647.28 179.156  49
   5   2  11 2550.46 179.569  44
   5   2  12 2648.81 144.861  32
   5   2  12 2722.80 155.447  30
   5   2  12 2396.78 141.135  49
   5   3  -6 1686.51 402.991  21
   5   3  -5 10151.2 858.102  64
   5   3  -4 15626.3 1014.93  64
   5   3  -3 3012.86 427.642  64
   5   3  -3 2989.95 459.960  62
   5   3  -3 3006.07 449.663  14
   5   3  -2 6178.02 554.012  64
   5   3  -2 6506.41 633.272  62
   5   3  -2 6569.38 627.432  14
   5   3  -1 6075.96 584.192  62
   5   3  -1 5665.46 597.672   5
   5   3  -1 5887.82 562.117  14
   5   3   0 13131.3 839.178  62
   5   3   0 13968.3 908.997   5
   5   3   0 12413.4 789.399  14
   5   3   1 20663.3 1052.95  62
   5   3   1 18002.8 1007.40  19
   5   3   1 18787.5 949.305  14
   5   3   2 32044.6 1392.42  19
   5   3   2 31111.6 1330.62   5
   5   3   3 43135.3 1622.95  22
   5   3   3 40776.1 1620.06  19
   5   3   4 19595.6 1118.67  22
   5   3   4 20491.7 1182.03  19
   5   3   5 11792.7 901.446  22
   5   3   5 12776.7 976.261  19
   5   3   6 9969.26 870.995  22
   5   3   6 10644.2 920.540  19
   5   3   6 7738.73 409.030  32
   5   3   6 7927.91 740.493  55
   5   3   6 8703.49 769.206  52
   5   3   6 10408.9 894.168  15
   5   3   7 15929.6 1112.02  22
   5   3   7 14791.8 1131.65  19
   5   3   7 12724.3 520.552  32
   5   3   7 15228.7 565.239  30
   5   3   7 12333.4 958.885  57
   5   3   7 11998.6 962.431  55
   5   3   7 11047.7 925.089  52
   5   3   8 31642.4 1604.18  22
   5   3   8 32757.7 846.424  32
   5   3   8 33769.3 855.163  30
   5   3   8 34245.5 833.979  49
   5   3   9 9117.51 852.134  22
   5   3   9 11478.7 992.868  19
   5   3   9 11136.0 441.285  32
   5   3   9 11320.9 451.563  30
   5   3   9 10677.0 429.019  49
   5   3  10 3304.18 215.451  32
   5   3  10 3391.99 230.138  31
   5   3  10 3679.68 240.216  30
   5   3  10 3944.06 244.272  49
   5   3  11 2400.60 158.559  32
   5   3  11 2440.19 166.963  31
   5   3  11 2754.29 184.746  30
   5   3  11 2391.46 169.097  49
   5   3  12 2441.92 144.058  30
   5   3  12 1963.12 127.659  49
   5   4  -4 1202.70 308.824  64
   5   4  -3 5648.65 630.050  62
   5   4  -3 6548.68 667.692  14
   5   4  -2 16847.6 1028.47  62
   5   4  -2 16054.8 1100.04   5
   5   4  -2 17897.4 1043.05  14
   5   4  -1 6387.37 668.945   5
   5   4   0 6704.22 660.540   5
   5   4   1 3445.85 452.830  19
   5   4   1 3555.79 469.453   5
   5   4   2 31611.4 1397.88  19
   5   4   2 28657.2 1352.60   5
   5   4   3 2724.90 431.194  22
   5   4   3 2997.23 454.406  19
   5   4   4 14649.4 1016.57  22
   5   4   4 15846.7 1070.67  19
   5   4   5 17331.3 1131.80  22
   5   4   5 17323.1 1144.11  19
   5   4   5 19683.2 1249.89  15
   5   4   6 9144.60 860.708  22
   5   4   6 8802.85 855.153  19
   5   4   6 8290.82 427.723  30
   5   4   6 10211.5 917.086  15
   5   4   7 5546.73 673.598  22
   5   4   7 4790.68 645.765  19
   5   4   7 5669.88 333.706  30
   5   4   7 4820.18 636.100  15
   5   4   8 2184.52 424.234  22
   5   4   8 2406.47 462.700  19
   5   4   8 2873.24 234.740  30
   5   4   8 2991.33 240.405  49
   5   4   9 4681.47 633.641  19
   5   4   9 5707.69 311.750  30
   5   4   9 5568.61 303.368  49
   5   4  10 1114.93 138.774  31
   5   4  10 1192.95 136.195  30
   5   4  10 883.131 124.708  29
   5   4  10 1253.88 140.401  49
   5   4  11 6062.61 256.044  31
   5   4  11 6474.24 266.419  30
   5   4  11 6039.95 252.744  49
   5   4  12 624.092 65.7246  31
   5   4  12 904.102 84.2499  49
   5   5  -2 11212.2 1069.09  13
   5   5  -1 13416.1 1012.27   5
   5   5   0 6312.69 739.170  15
   5   5   1 8111.23 732.408  22
   5   5   1 7613.94 802.384  15
   5   5   2 2491.41 420.761  22
   5   5   2 2410.69 449.602  15
   5   5   3 36390.7 1620.00  22
   5   5   3 34359.8 1686.96  15
   5   5   4 6155.10 669.556  19
   5   5   4 6669.90 760.688  15
   5   5   5 64697.7 2339.70  22
   5   5   5 63899.8 2286.22  19
   5   5   6 24478.6 1405.62  22
   5   5   6 24555.4 1523.83  66
   5   5   6 20778.6 1297.17  19
   5   5   6 22790.2 1428.14  15
   5   5   7 21561.6 1336.78  22
   5   5   7 20596.4 1310.87  19
   5   5   7 22886.8 663.917  30
   5   5   7 21546.0 652.920  49
   5   5   7 21826.8 1475.00  23
   5   5   8 3987.14 586.168  22
   5   5   8 4125.53 263.004  30
   5   5   8 4218.72 274.258  49
   5   5   9 5044.75 284.156  31
   5   5   9 4809.75 267.206  30
   5   5   9 4886.36 279.778  49
   5   5  10 835.022 116.293  31
   5   5  10 946.793 114.594  30
   5   5  10 691.977 108.086  29
   5   5  10 978.915 121.749  49
   5   5  11 2326.52 147.864  31
   5   5  11 2175.44 142.917  30
   5   5  12 111.607 34.1167  31
   5   5  12 129.790 37.0589  30
   5   5  12 187.672 43.1693  49
   5   6  -2 17519.8 1408.99  13
   5   6  -1 721.475 323.826  13
   5   6  -1 920.314 308.376  66
   5   6   0 10505.8 995.554  66
   5   6   0 9887.34 944.505  15
   5   6   1 10768.1 1032.76  66
   5   6   1 11376.7 1016.92  15
   5   6   2 11338.5 1044.28  66
   5   6   2 11093.5 1002.93  15
   5   6   3 47354.3 2108.75  66
   5   6   3 45098.1 2019.11  15
   5   6   4 55919.4 2110.61  22
   5   6   4 58017.7 2398.36  66
   5   6   4 54680.4 2277.59  15
   5   6   5 23575.4 1374.39  22
   5   6   5 25683.5 1587.14  66
   5   6   5 24529.9 1525.37  15
   5   6   6 7752.46 805.632  22
   5   6   6 9331.48 415.454  49
   5   6   6 9197.22 941.892  15
   5   6   7 17531.8 1201.11  22
   5   6   7 19684.2 593.273  49
   5   6   7 17283.0 1318.94  23
   5   6   8 2395.65 203.784  31
   5   6   8 2847.56 209.761  49
   5   6   9 4958.01 258.808  31
   5   6   9 4522.28 228.471  30
   5   6   9 4883.64 271.472  29
   5   6   9 4586.69 245.730  49
   5   6  10 4212.93 213.977  31
   5   6  10 3665.43 182.963  30
   5   6  10 3459.12 208.161  29
   5   6  10 3966.71 202.622  49
   5   6  11 6021.45 213.172  31
   5   6  11 6172.02 208.376  49
   5   7  -2 9961.80 1030.12  20
   5   7   0 29712.2 1879.92  13
   5   7   0 31613.5 1880.83  23
   5   7   1 63859.3 2601.63  15
   5   7   1 81591.8 3037.46  23
   5   7   2 18892.8 1420.52  66
   5   7   2 15220.5 1253.18  15
   5   7   2 19003.4 1430.29  23
   5   7   3 7103.54 843.649  15
   5   7   3 8426.84 952.865  23
   5   7   4 15989.4 1286.89  66
   5   7   4 14257.9 1188.74  15
   5   7   4 16146.6 1322.16  23
   5   7   5 9082.64 983.587  66
   5   7   5 8290.73 905.909  15
   5   7   5 10339.5 1060.28  23
   5   7   6 17085.2 1328.11  23
   5   7   7 8085.58 362.940  31
   5   7   8 7786.88 334.084  31
   5   7   8 7384.25 297.672  49
   5   7   9 1345.42 131.584  31
   5   7   9 1522.55 130.480  49
   5   7  10 3475.04 175.997  29
   5   7  10 3231.72 147.239  49
   5   7  11 5596.72 173.970  31
   5   8   0 4568.11 710.621  23
   5   8   1 5650.15 821.249  23
   5   8   2 18017.6 1423.33  66
   5   8   2 23158.5 1607.49  23
   5   8   3 17239.7 1351.83  66
   5   8   3 19653.2 1453.34  23
   5   8   4 6601.35 852.896  23
   5   8   5 769.750 316.328  23
   5   8   7 763.149 111.258  31
   5   8   7 761.813 121.994  29
   5   8   8 645.993 91.5677  31
   5   8   8 296.911 84.5095  29
   5   8   9 2234.27 136.551  31
   5   8   9 2044.18 142.704  29
   5   8  10 1630.55 97.3027  31
   5   9   8 48.4640 34.2812  31
   5   9   8 90.3381 52.6547  29
   5  10   7 2836.68 142.992  33
   5  11   3 1186.21 105.347  34
   5  11   4 249.072 57.3033  34
   6  -7  -2 3656.02 158.980  39
   6  -7  -2 3875.16 162.915  28
   6  -7  -1 1035.87 97.4227  39
   6  -7  -1 968.893 93.9062  28
   6  -7  -1 965.537 92.1120   8
   6  -7   0 1337.99 114.829  39
   6  -7   0 1557.93 121.995  28
   6  -7   0 1597.70 122.931   8
   6  -7   1 753.949 90.3695  39
   6  -7   1 771.907 94.7569  28
   6  -7   1 652.234 89.2721   8
   6  -7   1 515.389 64.8113  42
   6  -7   2 8287.01 290.716  39
   6  -7   2 8881.68 300.058  28
   6  -7   2 8983.65 309.654   8
   6  -7   2 7855.16 256.732  42
   6  -7   3 371.996 66.1295  39
   6  -7   3 372.610 70.6710  28
   6  -7   3 431.726 76.9078   8
   6  -7   3 439.663 65.4959  42
   6  -7   4 9443.46 287.864  28
   6  -7   4 9913.15 281.805  42
   6  -7   5 2795.14 151.748   8
   6  -7   5 2604.92 131.629  42
   6  -7   6 10044.4 263.732   8
   6  -6  -4 16613.0 362.350  39
   6  -6  -4 17029.8 364.564  28
   6  -6  -3 23859.7 505.590  39
   6  -6  -3 24334.3 505.596  28
   6  -6  -3 24686.1 510.567   8
   6  -6  -2 7344.41 281.026  39
   6  -6  -2 7228.44 279.462  28
   6  -6  -2 7310.63 283.498   8
   6  -6  -1 704.836 102.705  39
   6  -6  -1 674.695 100.470  28
   6  -6  -1 726.895 102.829   8
   6  -6  -1 688.823 92.0645  42
   6  -6   0 159.865 63.3776  39
   6  -6   0 215.393 71.5347  28
   6  -6   0 167.932 67.6671   8
   6  -6   0 175.096 67.1903  42
   6  -6   1 728.769 106.494  39
   6  -6   1 736.152 109.535  28
   6  -6   1 625.888 107.972   8
   6  -6   1 553.913 91.5449  42
   6  -6   2 31074.6 693.556  39
   6  -6   2 31248.6 698.604  28
   6  -6   2 31345.8 717.130   8
   6  -6   2 29056.2 671.407  44
   6  -6   2 31948.8 696.432  42
   6  -6   3 2846.65 193.480  39
   6  -6   3 2667.49 189.601  28
   6  -6   3 2974.60 207.116   8
   6  -6   3 2808.50 188.496  44
   6  -6   3 2888.84 194.306  42
   6  -6   4 3124.26 194.159  39
   6  -6   4 3086.48 195.704  28
   6  -6   4 3489.80 218.997   8
   6  -6   4 3031.00 191.784  44
   6  -6   4 3550.45 211.533  42
   6  -6   5 7620.19 289.591  28
   6  -6   5 8291.05 323.562   8
   6  -6   5 8234.04 308.017  42
   6  -6   6 2099.04 154.651   8
   6  -6   6 2027.70 144.651  42
   6  -6   7 18646.1 434.262   8
   6  -6   7 18733.5 412.632  42
   6  -6   8 3906.38 158.816   8
   6  -6   8 4065.78 148.556  42
   6  -5  -5 14855.8 353.258  39
   6  -5  -5 15247.6 357.401  28
   6  -5  -4 22070.0 496.310  39
   6  -5  -4 22172.8 501.257  28
   6  -5  -3 31390.9 662.716  39
   6  -5  -3 33794.4 685.895  28
   6  -5  -2 6139.35 282.793  39
   6  -5  -2 6337.33 289.291  28
   6  -5  -1 170.993 70.3021  39
   6  -5  -1 195.838 75.8859  28
   6  -5  -1 246.962 97.2785   8
   6  -5   0 2357.30 190.336  39
   6  -5   0 2628.14 201.085  28
   6  -5   0 2553.74 202.210   8
   6  -5   0 2805.31 208.385  42
   6  -5   1 1998.47 178.425  39
   6  -5   1 2075.37 184.107  28
   6  -5   1 2003.33 184.628   8
   6  -5   1 2310.26 198.162  42
   6  -5   2 3320.69 230.222  39
   6  -5   2 3473.00 236.399  28
   6  -5   2 3505.51 242.711   8
   6  -5   2 3605.80 243.200  42
   6  -5   3 10147.6 403.721  39
   6  -5   3 10415.2 406.408  28
   6  -5   3 9983.70 418.818   8
   6  -5   3 10404.9 429.480  44
   6  -5   3 10773.5 419.839  42
   6  -5   4 2436.88 195.463  28
   6  -5   4 2612.90 215.273   8
   6  -5   4 2286.42 203.985  44
   6  -5   4 2365.48 197.573  42
   6  -5   5 4669.17 253.463  28
   6  -5   5 4942.92 284.172   8
   6  -5   5 4685.59 275.671  44
   6  -5   5 5091.67 276.855  42
   6  -5   6 3055.06 219.652   8
   6  -5   6 3032.23 210.189  44
   6  -5   6 2917.03 201.161  42
   6  -5   7 15711.0 461.646   8
   6  -5   7 14954.9 433.580  44
   6  -5   7 14624.1 424.249  42
   6  -5   8 3771.46 196.687   8
   6  -5   8 3675.28 179.732  44
   6  -5   8 3689.21 185.659  42
   6  -5   9 3113.00 149.086   8
   6  -5   9 3434.63 147.294  42
   6  -4  -6 8390.74 251.673  39
   6  -4  -6 8244.25 250.458  28
   6  -4  -5 10236.0 319.583  39
   6  -4  -5 10576.0 326.882  28
   6  -4  -4 6743.29 283.511  39
   6  -4  -4 6932.20 292.428  28
   6  -4  -3 1589.46 150.571  39
   6  -4  -3 1795.29 164.199  28
   6  -4  -2 3523.69 228.484  39
   6  -4  -2 3744.97 239.869  28
   6  -4  -1 1115.89 134.362  39
   6  -4  -1 843.113 277.765  21
   6  -4  -1 1105.52 141.685  28
   6  -4   0 14926.1 505.100  39
   6  -4   0 13430.3 1065.99  18
   6  -4   0 14965.1 508.044  28
   6  -4   1 313.710 85.9214  39
   6  -4   1 262.459 193.987  18
   6  -4   1 419.053 100.096  28
   6  -4   1 281.998 97.7549   8
   6  -4   2 1434.27 364.699  18
   6  -4   2 1546.33 169.248  28
   6  -4   2 1519.29 175.771   8
   6  -4   2 1528.02 177.793  42
   6  -4   3 3140.63 525.185  18
   6  -4   3 3655.64 253.123  28
   6  -4   3 2985.26 243.345   8
   6  -4   3 3435.27 247.841  42
   6  -4   4 1758.72 401.248  18
   6  -4   4 1883.33 180.289  28
   6  -4   4 2012.76 198.110   8
   6  -4   4 2145.26 215.074  44
   6  -4   4 2000.33 192.732  42
   6  -4   5 19540.4 581.357  32
   6  -4   5 19136.8 612.779   8
   6  -4   5 19232.9 629.033  44
   6  -4   5 18815.3 585.243  42
   6  -4   6 430.290 94.1726  32
   6  -4   6 357.067 103.284   8
   6  -4   6 449.130 112.508  44
   6  -4   6 345.104 94.7509  42
   6  -4   7 908.291 116.085  32
   6  -4   7 843.861 132.364   8
   6  -4   7 738.611 121.777  44
   6  -4   7 908.835 127.849  42
   6  -4   8 5950.14 250.412  32
   6  -4   8 6036.37 290.797   8
   6  -4   8 5951.16 282.530  44
   6  -4   8 5998.69 275.316  42
   6  -4   9 4754.31 224.399   8
   6  -4   9 4781.43 219.056  44
   6  -4   9 4928.58 216.948  42
   6  -4  10 659.173 69.4144  44
   6  -4  10 833.728 71.4387  42
   6  -3  -7 933.218 79.7593  28
   6  -3  -6 4013.50 188.474  39
   6  -3  -6 3245.51 158.953  43
   6  -3  -5 1492.90 134.462  39
   6  -3  -5 1343.86 118.881  43
   6  -3  -4 5882.05 278.049  39
   6  -3  -3 9016.53 361.547  39
   6  -3  -3 6676.90 698.681  21
   6  -3  -2 5810.85 298.420  39
   6  -3  -2 4789.54 596.091  21
   6  -3  -2 5283.92 647.856  18
   6  -3  -1 5824.84 304.097  39
   6  -3  -1 4572.54 578.845  21
   6  -3  -1 5164.30 654.574  18
   6  -3   0 8606.00 829.694  64
   6  -3   0 7694.91 742.470  19
   6  -3   0 9589.35 882.804  18
   6  -3   0 9742.01 410.695  28
   6  -3   1 5793.90 683.586  64
   6  -3   1 5162.35 611.799  19
   6  -3   1 6150.47 710.925  18
   6  -3   1 6525.12 341.925  28
   6  -3   2 17274.5 1182.23  64
   6  -3   2 20301.7 1317.02  18
   6  -3   2 18562.6 596.045  28
   6  -3   2 19270.6 617.877   8
   6  -3   3 20513.1 1356.43  18
   6  -3   3 21756.6 677.152   8
   6  -3   3 21786.3 652.283  42
   6  -3   4 2265.44 474.245  18
   6  -3   4 2208.78 219.546   8
   6  -3   4 2489.68 220.099  42
   6  -3   5 9055.80 418.872  32
   6  -3   5 9595.44 950.179  18
   6  -3   5 9257.06 438.329   8
   6  -3   5 9120.01 449.332  44
   6  -3   5 9058.30 416.163  42
   6  -3   6 3434.50 254.181  32
   6  -3   6 2778.44 528.281  18
   6  -3   6 3940.64 284.049   8
   6  -3   6 3639.87 282.746  44
   6  -3   6 3533.52 259.156  42
   6  -3   7 2736.03 216.028  32
   6  -3   7 2212.70 183.741  30
   6  -3   7 2882.34 238.865   8
   6  -3   7 2843.20 241.904  44
   6  -3   7 2961.12 229.434  42
   6  -3   8 242.666 78.9463  32
   6  -3   8 348.753 92.3785   8
   6  -3   8 413.751 113.096  44
   6  -3   8 254.674 83.0259  42
   6  -3   9 3365.58 197.586  32
   6  -3   9 3276.35 211.212   8
   6  -3   9 3463.50 219.416  44
   6  -3   9 3383.10 202.319  42
   6  -3  10 6718.86 231.004  32
   6  -3  10 6397.54 248.795  44
   6  -3  10 6045.69 225.101  42
   6  -3  11 592.857 61.4857  44
   6  -2  -7 7830.51 242.241  39
   6  -2  -7 5382.50 192.973  43
   6  -2  -6 8992.20 296.341  43
   6  -2  -5 1322.47 129.038  43
   6  -2  -3 5270.75 624.613  21
   6  -2  -3 6407.63 712.931  18
   6  -2  -2 6615.47 681.202  21
   6  -2  -2 7213.85 738.898  64
   6  -2  -2 7690.62 778.943  18
   6  -2  -1 28030.6 1461.53  64
   6  -2  -1 32353.9 1598.64  18
   6  -2   0 15460.9 1065.55  64
   6  -2   0 16729.2 1145.86  18
   6  -2   1 9478.24 822.755  64
   6  -2   1 10495.2 862.632  19
   6  -2   1 10485.1 923.002  18
   6  -2   1 10060.4 422.433  28
   6  -2   2 16556.8 1100.04  64
   6  -2   2 18976.8 1183.71  19
   6  -2   2 19308.3 1259.39  18
   6  -2   2 19069.2 625.771   8
   6  -2   3 47675.6 1841.03  22
   6  -2   3 50763.0 2017.47  19
   6  -2   3 49710.6 2098.47  18
   6  -2   3 51754.7 1105.50   8
   6  -2   4 19959.1 1264.70  19
   6  -2   4 19820.7 1332.41  18
   6  -2   4 19717.2 661.506   8
   6  -2   4 21092.5 650.698  42
   6  -2   5 1519.61 355.845  19
   6  -2   5 1821.88 422.929  18
   6  -2   5 1920.10 208.731   8
   6  -2   5 2116.43 211.744  42
   6  -2   6 2402.99 450.643  19
   6  -2   6 3140.11 255.491  32
   6  -2   6 2896.58 540.743  18
   6  -2   6 3078.60 258.805   8
   6  -2   6 2941.26 257.544  44
   6  -2   6 3166.66 251.055  42
   6  -2   7 52169.4 1090.21  32
   6  -2   7 52572.8 1124.85   8
   6  -2   7 49133.4 1104.99  44
   6  -2   7 51592.5 1075.53  42
   6  -2   8 806.079 137.833  32
   6  -2   8 727.650 120.682  30
   6  -2   8 888.449 136.883   8
   6  -2   8 788.849 142.975  44
   6  -2   8 818.123 128.620  42
   6  -2   9 2418.53 189.836  32
   6  -2   9 2271.54 168.489  30
   6  -2   9 2229.85 184.333   8
   6  -2   9 2173.08 197.491  44
   6  -2   9 2383.09 183.755  42
   6  -2  10 1430.03 129.892  32
   6  -2  10 1450.42 139.854  44
   6  -2  10 1349.60 117.047  42
   6  -2  11 8926.05 256.032  32
   6  -2  11 9105.06 274.373  44
   6  -1  -7 4131.70 184.325  43
   6  -1  -6 4483.89 223.087  43
   6  -1  -4 1074.86 310.401  21
   6  -1  -4 1432.10 327.352  18
   6  -1  -3 308.422 146.274  21
   6  -1  -3 603.897 252.894  18
   6  -1  -2 1614.96 346.698  21
   6  -1  -2 1732.75 362.588  64
   6  -1  -2 1958.94 411.625  18
   6  -1  -1 28298.1 1400.76  64
   6  -1  -1 28295.1 1494.42  62
   6  -1  -1 30339.3 1529.08  18
   6  -1   0 1837.19 350.189  64
   6  -1   0 1915.97 412.595  62
   6  -1   0 2116.15 409.517  18
   6  -1   0 1826.75 412.182  54
   6  -1   1 4957.38 567.000  64
   6  -1   1 4723.38 579.905  19
   6  -1   1 6021.94 673.129  18
   6  -1   2 24457.8 1327.69  19
   6  -1   2 23571.4 1363.25  18
   6  -1   3 1098.01 288.742  22
   6  -1   3 1202.17 316.455  19
   6  -1   3 1395.76 350.435  18
   6  -1   3 939.792 320.286  54
   6  -1   3 1097.82 158.158   8
   6  -1   4 1197.80 315.005  22
   6  -1   4 919.181 281.089  19
   6  -1   4 1367.75 336.328  18
   6  -1   4 1158.88 358.095  54
   6  -1   4 1188.51 164.434   8
   6  -1   4 986.844 151.166  42
   6  -1   5 12177.6 957.742  22
   6  -1   5 13662.9 1066.35  19
   6  -1   5 11439.2 1009.26  18
   6  -1   5 13186.4 528.309  42
   6  -1   6 2009.07 415.720  22
   6  -1   6 2335.45 464.481  19
   6  -1   6 2313.23 476.930  18
   6  -1   6 2458.61 252.959  44
   6  -1   6 2265.27 223.208  42
   6  -1   7 19661.1 1312.56  19
   6  -1   7 20521.8 660.102  32
   6  -1   7 20625.1 709.527  44
   6  -1   7 21591.5 667.969  42
   6  -1   8 11155.1 456.679  32
   6  -1   8 10186.8 431.966  30
   6  -1   8 9857.86 386.428  49
   6  -1   8 10940.2 481.047  44
   6  -1   8 10233.4 423.548  42
   6  -1   9 2549.08 208.157  32
   6  -1   9 2619.62 200.452  30
   6  -1   9 2822.66 235.328  44
   6  -1   9 2483.34 187.127  42
   6  -1  10 287.315 79.9956  32
   6  -1  10 269.649 68.2577  30
   6  -1  10 303.082 91.2227  44
   6  -1  11 1276.53 94.5650  30
   6  -1  11 1481.83 129.856  44
   6   0  -4 6654.14 699.668  21
   6   0  -3 11660.0 904.664  21
   6   0  -3 12509.8 938.949  64
   6   0  -2 63761.8 2140.47  64
   6   0  -2 68744.2 2357.93  62
   6   0  -2 78238.7 2530.87  18
   6   0  -2 73352.4 2431.46  14
   6   0  -1 3098.99 448.223  64
   6   0  -1 3397.03 503.095  62
   6   0  -1 3385.90 512.405  18
   6   0  -1 2916.47 498.866  54
   6   0  -1 3571.06 524.376  14
   6   0   0 1331.04 290.121  64
   6   0   0 1595.61 361.172  62
   6   0   0 2135.88 386.767  18
   6   0   0 1561.49 379.968  54
   6   0   1 17393.2 1108.62  19
   6   0   1 15152.2 1042.77  18
   6   0   2 905.495 274.014  19
   6   0   2 778.354 242.328   5
   6   0   2 1365.98 334.844  18
   6   0   2 546.947 314.758  54
   6   0   3 4759.66 614.999  19
   6   0   3 6052.12 675.968  18
   6   0   3 5416.15 706.466  54
   6   0   4 11509.9 931.871  22
   6   0   4 14353.0 1065.28  19
   6   0   4 13227.6 1029.66  18
   6   0   4 11677.3 1091.77  54
   6   0   4 10653.3 468.102  42
   6   0   5 45576.5 1915.46  22
   6   0   5 44531.2 1964.85  18
   6   0   5 43738.8 2158.08  54
   6   0   5 42247.3 1010.47  42
   6   0   6 6953.90 745.558  22
   6   0   6 6058.86 743.217  19
   6   0   6 6049.59 381.445  44
   6   0   7 33374.9 1657.38  22
   6   0   7 34088.0 1782.42  19
   6   0   7 36339.2 925.888  32
   6   0   7 36953.1 962.284  44
   6   0   8 3192.86 501.480  22
   6   0   8 3349.60 560.310  19
   6   0   8 4020.91 287.819  32
   6   0   8 3966.99 287.575  30
   6   0   8 3735.91 286.410  44
   6   0   9 5538.72 313.937  32
   6   0   9 6115.16 323.742  30
   6   0   9 5392.34 277.975  49
   6   0   9 5665.63 329.551  44
   6   0  10 593.279 111.442  32
   6   0  10 649.978 104.977  30
   6   0  10 556.589 85.5880  49
   6   0  10 601.089 111.132  44
   6   0  11 4652.33 218.241  32
   6   0  11 4130.91 196.474  30
   6   0  11 4463.40 219.862  44
   6   0  12 994.603 79.1366  32
   6   0  12 938.548 79.5503  44
   6   1  -4 5603.64 642.369  21
   6   1  -4 8762.81 868.221  18
   6   1  -3 22722.5 1267.09  64
   6   1  -3 27843.8 1506.22  14
   6   1  -2 3349.60 467.028  64
   6   1  -2 3482.90 518.674  62
   6   1  -2 3202.62 504.616  14
   6   1  -1 2407.86 447.976  62
   6   1  -1 3287.62 500.950  18
   6   1  -1 1889.68 418.202  54
   6   1  -1 2524.31 438.254  14
   6   1   0 4054.60 552.275  62
   6   1   0 3451.69 497.111   5
   6   1   0 4350.14 564.588  18
   6   1   0 2684.80 503.602  54
   6   1   0 3938.84 538.636  14
   6   1   1 16716.6 1117.90  62
   6   1   1 15278.9 1027.79   5
   6   1   1 17885.2 1114.70  18
   6   1   2 22771.1 1267.25  19
   6   1   2 25573.5 1327.13  18
   6   1   3 1642.75 356.892  22
   6   1   3 1576.94 355.799  19
   6   1   3 1532.54 340.197   5
   6   1   3 1539.06 338.688  18
   6   1   3 1718.35 396.362  54
   6   1   4 1592.23 373.520  22
   6   1   4 1704.16 375.783  19
   6   1   4 1449.40 382.924  54
   6   1   5 423.709 236.805  22
   6   1   5 405.590 219.696  19
   6   1   5 672.409 302.876  54
   6   1   5 444.363 126.042  44
   6   1   6 710.421 258.817  22
   6   1   6 632.783 261.600  19
   6   1   6 731.571 147.708  44
   6   1   7 42588.1 1940.72  22
   6   1   7 42938.3 2017.41  19
   6   1   7 44981.4 1062.79  32
   6   1   8 16107.7 1156.13  22
   6   1   8 16878.3 1238.64  19
   6   1   8 17611.3 607.333  32
   6   1   8 17123.9 593.132  30
   6   1   8 18550.8 633.698  44
   6   1   9 4385.09 281.142  32
   6   1   9 4370.02 275.695  30
   6   1   9 3681.33 245.127  49
   6   1   9 4175.09 278.853  44
   6   1  10 9160.39 364.922  32
   6   1  10 8959.59 359.451  30
   6   1  10 7884.10 318.610  49
   6   1  10 8339.93 354.954  44
   6   1  11 1148.44 118.764  32
   6   1  11 967.528 104.330  30
   6   1  11 799.934 88.3323  49
   6   1  11 1019.68 109.203  44
   6   1  12 1691.89 103.156  32
   6   1  12 1501.91 99.0305  30
   6   2  -4 325.353 255.552  18
   6   2  -3 6111.41 748.766  18
   6   2  -2 3525.70 533.600  62
   6   2  -2 4850.84 641.415  18
   6   2  -2 3655.23 541.127  14
   6   2  -1 30783.3 1542.55  62
   6   2  -1 31360.7 1517.63  14
   6   2   0 4066.27 557.140  62
   6   2   0 3718.64 523.056   5
   6   2   0 4313.41 544.105  18
   6   2   0 3278.72 482.931  14
   6   2   1 9217.89 831.020  62
   6   2   1 8395.26 768.335   5
   6   2   1 8996.28 769.399  18
   6   2   2 5729.74 648.981  19
   6   2   2 4916.29 594.014   5
   6   2   3 6521.11 687.244  22
   6   2   3 6431.75 714.897  19
   6   2   4 2632.21 461.297  22
   6   2   4 2854.62 501.807  19
   6   2   5 67795.5 2371.12  22
   6   2   5 66704.9 2457.68  19
   6   2   6 93644.2 2883.05  22
   6   2   6 96775.8 3007.96  19
   6   2   7 24957.7 757.003  32
   6   2   7 24701.8 760.797  44
   6   2   8 688.812 292.170  22
   6   2   8 144.061 198.199  19
   6   2   8 637.305 131.737  32
   6   2   8 639.571 133.200  30
   6   2   8 610.991 122.606  44
   6   2   9 3799.83 548.767  22
   6   2   9 4423.77 277.723  32
   6   2   9 4861.43 289.521  30
   6   2   9 4172.97 272.432  49
   6   2   9 4503.91 278.399  44
   6   2  10 2138.38 172.709  32
   6   2  10 2105.24 174.573  30
   6   2  10 1910.88 166.056  49
   6   2  10 1856.93 161.009  44
   6   2  11 87.5266 55.8623  32
   6   2  11 53.2875 48.3781  30
   6   2  11 45.1485 46.6937  49
   6   2  11 126.589 49.3931  44
   6   2  12 159.149 43.2274  30
   6   2  12 91.1605 32.2257  49
   6   3  -4 6979.61 808.934  18
   6   3  -3 18348.0 1286.79  18
   6   3  -2 3246.62 528.852  62
   6   3  -2 3777.31 552.141  18
   6   3  -2 2848.72 470.205  14
   6   3  -1 3012.50 495.762  62
   6   3  -1 3046.94 465.328  14
   6   3   0 2386.37 429.094  62
   6   3   0 5163.00 631.872  19
   6   3   1 6771.60 712.006  62
   6   3   1 8423.35 786.356  19
   6   3   2 11414.6 917.587  22
   6   3   2 13073.4 1003.40  19
   6   3   2 10769.8 887.072   5
   6   3   3 9401.25 838.840  22
   6   3   3 10248.1 903.051  19
   6   3   4 5816.77 670.583  22
   6   3   4 5168.17 655.894  19
   6   3   5 3452.45 538.740  22
   6   3   5 3121.83 532.625  19
   6   3   6 2560.36 482.429  22
   6   3   6 3435.63 566.864  19
   6   3   6 2636.06 242.728  32
   6   3   6 2160.89 467.652  15
   6   3   7 15364.9 1133.07  22
   6   3   7 14504.9 1156.66  19
   6   3   7 15264.5 564.212  32
   6   3   8 9702.62 897.138  22
   6   3   8 9262.12 919.450  19
   6   3   8 9862.54 423.541  32
   6   3   8 9909.84 436.941  30
   6   3   8 9492.74 414.444  49
   6   3   9 4521.57 262.748  32
   6   3   9 4958.78 286.617  30
   6   3   9 4828.79 275.257  49
   6   3  10 3863.67 215.328  32
   6   3  10 3837.70 225.962  30
   6   3  10 3755.62 226.282  49
   6   3  11 3099.00 175.951  30
   6   3  11 3214.81 174.334  49
   6   3  12 637.978 67.4040  30
   6   3  12 640.996 63.8894  49
   6   4   0 3637.34 534.820  19
   6   4   1 440.575 207.803  22
   6   4   1 425.579 207.596  19
   6   4   2 2079.33 406.387  22
   6   4   2 2306.45 434.855  19
   6   4   3 1847.92 391.784  22
   6   4   3 1355.57 342.595  19
   6   4   4 84039.0 2717.31  22
   6   4   4 89056.1 2819.09  19
   6   4   5 13378.0 1055.87  22
   6   4   5 12046.6 1029.85  19
   6   4   5 14010.1 1144.76  15
   6   4   6 35127.0 1775.31  22
   6   4   6 39665.0 1910.27  19
   6   4   6 40969.0 1961.51  15
   6   4   7 1731.78 402.259  22
   6   4   7 1214.68 348.341  19
   6   4   7 1762.86 191.611  30
   6   4   8 1115.08 315.527  22
   6   4   8 1415.63 373.708  19
   6   4   8 1983.62 191.226  30
   6   4   8 1476.92 167.811  49
   6   4   9 6899.78 320.019  30
   6   4   9 6535.26 314.428  49
   6   4  10 1081.98 125.013  30
   6   4  10 1272.00 132.537  49
   6   4  11 402.359 64.8697  31
   6   4  11 370.435 68.9240  30
   6   4  11 353.278 66.0598  49
   6   4  12 306.018 43.1960  49
   6   5   0 42950.0 2111.09  15
   6   5   1 36359.2 1724.47  22
   6   5   1 40319.7 2042.01  15
   6   5   2 52478.5 2100.45  22
   6   5   2 55066.9 2365.56  15
   6   5   3 11384.5 977.154  22
   6   5   3 13293.6 1133.76  15
   6   5   4 28335.6 1548.83  22
   6   5   4 23111.1 1499.62  15
   6   5   5 1721.72 422.977  22
   6   5   5 1399.26 357.874  19
   6   5   5 1791.93 433.780  15
   6   5   6 17412.9 1230.41  22
   6   5   6 18893.6 1361.76  66
   6   5   6 15748.2 1233.18  15
   6   5   7 981.736 318.962  22
   6   5   7 1061.36 352.040  19
   6   5   7 1555.54 174.956  30
   6   5   7 1741.81 192.571  49
   6   5   8 1143.53 317.784  22
   6   5   8 1302.80 143.391  30
   6   5   8 1227.20 150.770  49
   6   5   9 7997.84 323.648  30
   6   5   9 8248.51 341.668  49
   6   5  10 6520.46 254.528  30
   6   5  10 6164.92 261.132  49
   6   5  11 4204.67 174.440  31
   6   5  11 4504.26 176.086  30
   6   6   0 561.161 260.821  66
   6   6   0 653.185 304.282  15
   6   6   1 4877.61 729.370  66
   6   6   1 3105.16 580.462  15
   6   6   2 321.637 241.772  66
   6   6   2 519.865 270.308  15
   6   6   3 12795.9 1153.26  66
   6   6   3 12994.4 1142.56  15
   6   6   4 10083.5 1023.96  66
   6   6   4 7896.93 880.709  15
   6   6   5 728.590 274.861  22
   6   6   5 810.065 314.151  66
   6   6   6 303.653 197.186  22
   6   6   6 444.657 103.538  49
   6   6   6 751.223 311.946  23
   6   6   9 7796.26 306.384  31
   6   6   9 7403.47 291.244  49
   6   6  10 4009.68 183.316  31
   6   6  10 4044.36 183.403  49
   6   6  11 1372.44 86.7065  31
   6   7   0 27465.9 1746.71  23
   6   7   1 13208.0 1246.39  23
   6   7   2 14212.3 1276.86  23
   6   7   3 18274.6 1437.76  23
   6   7   4 8875.03 970.736  23
   6   7   5 11028.7 1098.37  23
   6   7   7 619.378 105.249  31
   6   7   9 5362.21 199.386  49
   6   7  10 2263.63 118.687  31
   6   7  10 1546.35 104.861  29
   6   8   7 3789.29 195.518  31
   6   8   8 5436.50 213.407  31
   6   9   7 3216.46 162.579  29
   6  10   6 3971.09 163.980  33
   7  -6   0 2300.35 124.105  28
   7  -6   0 2456.61 133.090   8
   7  -6   1 225.391 48.3094  28
   7  -6   1 303.949 58.4593   8
   7  -6   1 231.730 45.0107  42
   7  -6   2 1027.53 85.5723  28
   7  -6   2 1165.78 100.437   8
   7  -6   2 1212.35 95.4747  42
   7  -6   3 1375.34 107.859   8
   7  -6   3 1418.60 102.176  42
   7  -6   4 3789.66 171.298   8
   7  -6   4 3830.48 159.791  42
   7  -6   5 12650.7 307.798   8
   7  -6   5 12367.9 283.211  42
   7  -5  -3 38605.4 596.047   8
   7  -5  -2 4688.19 193.183  28
   7  -5  -2 4677.67 194.873   8
   7  -5  -1 95.8864 50.0629  28
   7  -5  -1 59.8333 48.6984   8
   7  -5  -1 41.7211 42.7774  42
   7  -5   0 3702.01 192.217  28
   7  -5   0 3736.19 201.853   8
   7  -5   1 1493.11 129.828  28
   7  -5   1 1610.41 141.604   8
   7  -5   1 1709.56 141.430  42
   7  -5   2 405.696 73.2888  28
   7  -5   2 329.527 79.1194   8
   7  -5   2 340.813 78.2901  44
   7  -5   2 406.360 81.5520  42
   7  -5   3 594.099 82.7584  28
   7  -5   3 698.219 104.127   8
   7  -5   3 587.011 93.4639  44
   7  -5   3 560.537 88.5184  42
   7  -5   4 900.539 110.816   8
   7  -5   4 936.166 108.245  44
   7  -5   4 930.057 105.919  42
   7  -5   5 6541.79 265.162   8
   7  -5   5 6202.18 251.786  44
   7  -5   5 6530.39 251.245  42
   7  -5   6 8888.97 292.886   8
   7  -5   6 8637.89 269.605  44
   7  -5   6 8672.05 278.943  42
   7  -5   7 9852.74 272.136   8
   7  -5   7 10556.2 271.554  42
   7  -4  -4 4160.37 166.916  28
   7  -4  -3 10853.5 317.330  28
   7  -4  -2 1882.42 144.304  28
   7  -4  -2 1816.01 147.193   8
   7  -4  -1 4606.84 232.832  28
   7  -4  -1 4709.55 243.499   8
   7  -4   0 21547.7 544.488  28
   7  -4   0 20959.0 557.697   8
   7  -4   0 21533.0 552.226  42
   7  -4   1 14835.3 452.248  28
   7  -4   1 14838.9 470.738   8
   7  -4   1 14983.4 461.766  42
   7  -4   2 1611.54 145.942  28
   7  -4   2 1673.13 162.563   8
   7  -4   2 1673.46 158.695  42
   7  -4   3 7110.68 325.496   8
   7  -4   3 6507.91 308.074  42
   7  -4   4 1632.73 145.368  32
   7  -4   4 1804.59 164.517   8
   7  -4   4 1917.17 178.209  44
   7  -4   4 1801.02 159.129  42
   7  -4   5 252.560 67.4413  32
   7  -4   5 294.064 77.0823   8
   7  -4   5 381.198 97.8528  44
   7  -4   5 314.630 80.6863  42
   7  -4   6 7599.03 309.992   8
   7  -4   6 8188.10 328.525  44
   7  -4   6 7525.77 296.534  42
   7  -4   7 2159.22 153.990   8
   7  -4   7 2362.99 160.642  44
   7  -4   7 2345.46 153.597  42
   7  -4   8 186.788 46.5851   8
   7  -4   8 261.342 58.6794  44
   7  -4   8 302.690 54.9415  42
   7  -3  -5 281.963 53.8239  28
   7  -3  -4 5496.87 222.120  28
   7  -3  -3 3195.49 187.388  28
   7  -3  -2 4807.30 245.104  28
   7  -3  -1 2749.51 196.070  28
   7  -3   0 1259.79 136.356  28
   7  -3   0 1131.28 148.392   8
   7  -3   1 88.6857 55.6644  28
   7  -3   1 179.732 83.7966   8
   7  -3   2 18267.1 568.720   8
   7  -3   2 18699.1 560.998  42
   7  -3   3 2239.47 198.887   8
   7  -3   3 2245.29 200.757  42
   7  -3   4 3958.67 258.234   8
   7  -3   4 3904.47 268.313  44
   7  -3   4 4303.72 264.600  42
   7  -3   5 2630.15 200.758  32
   7  -3   5 2454.49 206.804   8
   7  -3   5 2445.21 212.738  44
   7  -3   5 2535.85 199.452  42
   7  -3   6 12857.6 427.952  32
   7  -3   6 13022.1 450.109   8
   7  -3   6 13042.3 464.780  44
   7  -3   6 12884.8 434.087  42
   7  -3   7 1990.77 154.846  32
   7  -3   7 1744.21 153.703   8
   7  -3   7 1878.09 166.790  44
   7  -3   7 1992.76 159.975  42
   7  -3   8 631.978 84.8566  32
   7  -3   8 601.535 84.6875   8
   7  -3   8 669.464 98.8985  44
   7  -3   8 620.074 86.6659  42
   7  -3   9 2660.82 129.202  32
   7  -3   9 2862.34 156.334  44
   7  -3   9 2364.45 124.519  42
   7  -2  -1 25055.8 629.647  28
   7  -2   0 8732.19 362.052  28
   7  -2   1 3403.71 517.149  19
   7  -2   1 4072.76 592.031  18
   7  -2   1 4316.20 275.615   8
   7  -2   2 2343.93 412.354  22
   7  -2   2 2770.20 474.783  19
   7  -2   2 3453.85 565.242  18
   7  -2   2 3242.11 243.791   8
   7  -2   3 1792.88 390.556  19
   7  -2   3 1896.24 428.017  18
   7  -2   3 2225.04 206.452   8
   7  -2   3 2192.01 204.226  42
   7  -2   4 4646.83 292.060   8
   7  -2   4 4630.82 290.977  42
   7  -2   5 2728.71 220.198   8
   7  -2   5 2459.30 233.099  44
   7  -2   5 2697.85 220.640  42
   7  -2   6 9017.68 386.468  32
   7  -2   6 8888.66 382.525   8
   7  -2   6 8629.35 406.121  44
   7  -2   6 9128.05 382.161  42
   7  -2   7 5160.86 274.812  32
   7  -2   7 4283.93 253.135   8
   7  -2   7 5152.52 293.287  44
   7  -2   7 4888.00 265.985  42
   7  -2   8 2946.80 191.736  32
   7  -2   8 2580.58 171.598  30
   7  -2   8 2871.32 206.070  44
   7  -2   8 2605.88 179.682  42
   7  -2   9 371.464 70.6552  32
   7  -2   9 208.531 48.9432  30
   7  -2   9 327.371 78.6252  44
   7  -2   9 230.161 51.9867  42
   7  -2  10 4368.54 165.729  32
   7  -2  10 4593.63 183.433  44
   7  -1  -1 773.596 284.362  19
   7  -1  -1 1044.82 319.188  18
   7  -1   0 42625.9 1851.94  19
   7  -1   0 49112.2 2081.82  18
   7  -1   1 9092.31 855.975  19
   7  -1   1 9738.11 924.257  18
   7  -1   2 12138.5 997.936  19
   7  -1   2 13757.2 1100.01  18
   7  -1   2 13432.9 503.188   8
   7  -1   3 7804.68 770.764  22
   7  -1   3 7419.95 796.323  19
   7  -1   3 7506.66 829.049  18
   7  -1   3 7971.41 386.963   8
   7  -1   4 1229.48 337.041  22
   7  -1   4 1246.36 345.755  19
   7  -1   4 1009.15 345.204  18
   7  -1   4 1854.13 191.820  42
   7  -1   5 23059.4 713.659  44
   7  -1   5 23207.4 669.167  42
   7  -1   6 17727.6 577.928  32
   7  -1   6 17713.6 611.706  44
   7  -1   6 16974.5 554.575  42
   7  -1   7 10760.0 426.317  32
   7  -1   7 10982.3 460.442  44
   7  -1   7 10791.5 411.657  42
   7  -1   8 9544.84 376.236  32
   7  -1   8 9775.41 404.924  44
   7  -1   9 587.809 93.1887  32
   7  -1   9 465.799 83.7417  30
   7  -1   9 486.645 96.0697  44
   7  -1  10 3789.14 177.424  32
   7  -1  10 4029.38 194.890  44
   7   0  -1 2960.09 516.756  18
   7   0   0 622.508 248.253  19
   7   0   0 761.184 274.270  18
   7   0   1 20318.6 1287.21  19
   7   0   1 19590.1 1291.95  18
   7   0   2 1337.14 364.494  19
   7   0   2 1540.45 395.814  18
   7   0   3 6064.07 691.346  22
   7   0   3 5353.70 684.649  19
   7   0   3 4537.42 637.024  18
   7   0   4 7150.36 758.072  22
   7   0   4 7279.89 798.410  19
   7   0   4 7424.66 381.397  42
   7   0   5 9378.68 880.149  22
   7   0   5 10007.9 475.634  44
   7   0   5 10140.7 439.424  42
   7   0   6 22932.1 1438.44  19
   7   0   6 24282.6 706.829  32
   7   0   6 25355.7 764.957  44
   7   0   7 6313.20 337.877  32
   7   0   7 6624.75 362.270  44
   7   0   8 13862.7 488.046  30
   7   0   8 13918.3 505.430  44
   7   0   9 1240.33 137.978  32
   7   0   9 900.478 102.903  49
   7   0   9 1297.99 146.360  44
   7   0  10 132.254 57.8747  32
   7   0  10 70.9512 48.1059  30
   7   0  10 96.3629 55.5282  44
   7   0  11 3485.01 144.197  32
   7   1  -1 7273.81 779.492  18
   7   1   0 11327.1 954.889  19
   7   1   0 10331.8 914.579  18
   7   1   1 4950.92 645.448  19
   7   1   1 4546.60 626.692  18
   7   1   2 22249.9 1376.43  19
   7   1   3 4543.68 619.357  22
   7   1   3 4054.10 592.418  19
   7   1   4 2479.44 459.848  22
   7   1   4 1996.17 420.466  19
   7   1   5 15935.7 1163.06  22
   7   1   5 16997.8 1265.08  19
   7   1   5 17106.8 633.632  44
   7   1   6 770.750 274.781  22
   7   1   6 631.722 274.491  19
   7   1   6 984.467 160.841  32
   7   1   6 755.587 146.464  44
   7   1   7 21230.9 1329.57  22
   7   1   7 26383.9 754.582  32
   7   1   8 18292.2 565.273  32
   7   1   8 16708.0 540.326  30
   7   1   8 17627.5 566.223  44
   7   1   9 2951.60 208.926  32
   7   1   9 2997.98 207.551  30
   7   1   9 2735.43 185.430  49
   7   1   9 2903.10 204.898  44
   7   1  10 201.723 67.5334  32
   7   1  10 229.250 66.0518  30
   7   1  10 119.398 51.3837  49
   7   1  10 120.123 55.1436  44
   7   1  11 921.378 80.6629  32
   7   1  11 926.158 81.1886  30
   7   2  -1 1430.87 361.231  19
   7   2   0 4953.17 655.884  19
   7   2   1 13109.6 1064.51  19
   7   2   2 13148.9 1029.89  22
   7   2   2 11801.8 1020.33  19
   7   2   3 3197.98 515.993  22
   7   2   3 2963.07 557.210  19
   7   2   4 3582.20 558.971  22
   7   2   4 2797.98 535.541  19
   7   2   5 18183.8 1239.64  22
   7   2   5 18237.3 1327.42  19
   7   2   6 7446.28 805.018  22
   7   2   6 6370.00 784.126  19
   7   2   6 6703.17 378.488  32
   7   2   6 7058.52 385.578  44
   7   2   7-70.8162 153.403  22
   7   2   7 149.735 93.0103  32
   7   2   7 144.610 83.1762  44
   7   2   8 8177.01 369.778  32
   7   2   8 7930.42 354.661  44
   7   2   9 1588.70 154.327  32
   7   2   9 1623.04 165.472  30
   7   2   9 1636.18 159.058  49
   7   2  10 4258.98 204.343  32
   7   2  10 4443.75 216.591  30
   7   2  10 3816.90 195.322  49
   7   2  11 697.998 65.7824  32
   7   2  11 798.644 69.5140  49
   7   3  -1 3224.14 538.111  19
   7   3   0 9924.57 935.866  19
   7   3   1 5220.35 668.528  22
   7   3   1 4421.95 630.726  19
   7   3   2 3584.56 557.033  22
   7   3   2 2859.59 531.284  19
   7   3   3 18887.7 1270.49  22
   7   3   3 18348.6 1301.77  19
   7   3   4 20980.0 1330.36  22
   7   3   4 16882.1 1271.64  19
   7   3   5 32151.5 1671.71  22
   7   3   5 33306.6 1799.17  19
   7   3   6 18774.8 1269.87  22
   7   3   6 19688.8 1366.91  19
   7   3   6 19996.0 637.092  32
   7   3   7 4005.58 587.340  22
   7   3   7 4395.21 279.422  32
   7   3   8 7756.31 342.056  32
   7   3   8 6428.70 323.961  49
   7   3   9 592.984 91.5836  32
   7   3   9 811.273 117.451  30
   7   3   9 576.557 107.309  49
   7   3  10 897.096 86.8472  32
   7   3  10 723.384 86.0625  31
   7   3  10 1033.98 109.334  30
   7   3  10 1041.83 107.921  49
   7   3  11 1898.97 114.583  30
   7   3  11 1844.06 106.448  49
   7   4  -1 4286.88 591.810  22
   7   4   0 3859.43 582.109  22
   7   4   0 4140.29 617.127  19
   7   4   1 4546.41 628.134  22
   7   4   1 3974.53 619.052  19
   7   4   2 1920.22 425.007  22
   7   4   2 2056.35 453.530  19
   7   4   3 1114.90 334.851  22
   7   4   3 956.730 330.382  19
   7   4   4 21598.7 1394.10  22
   7   4   4 15277.7 1191.20  19
   7   4   5 4353.54 631.405  22
   7   4   5 2830.02 536.409  19
   7   4   6 3592.47 563.083  22
   7   4   8 5648.91 293.275  30
   7   4  10 3271.57 171.172  49
   7   4  11 4197.70 149.968  49
   7   5   1 5557.29 687.339  22
   7   5   2 17075.4 1221.22  22
   7   5   3 3798.58 586.347  22
   7   5   4 1336.72 381.169  22
   7   5   5 27545.2 1574.80  22
   7   5   8 102.165 54.2487  30
   7   5   8 77.2908 61.8721  49
   7   5   9 2524.88 164.117  49
   7   5  10 4872.56 189.856  49
   7   6   6 341.022 89.7942  49
   7   6   7 31.0762 50.3328  49
   7   6  10 418.994 53.3966  31
   7   7   5 9.02500 49.7572  31
   7   7   8 753.498 95.8545  29
   7   7   9 2994.32 134.663  31
   7   8   6 288.925 77.0703  29
   7   8   7 459.160 74.5448  29
   7   8   8 103.025 36.1519  29
   8  -4   0 1902.27 116.889   8
   8  -4   0 1657.70 106.679  42
   8  -4   1 26937.8 514.525   8
   8  -4   1 26847.4 498.017  42
   8  -4   2 2748.86 153.878   8
   8  -4   2 2637.09 153.101  44
   8  -4   2 2897.42 150.446  42
   8  -4   3 5885.80 225.683   8
   8  -4   3 6175.31 235.735  44
   8  -4   3 6621.87 230.171  42
   8  -4   4 250.692 53.6486   8
   8  -4   4 257.932 57.2025  44
   8  -4   4 279.754 56.0235  42
   8  -4   5 4372.40 182.255  44
   8  -4   5 4964.72 184.072  42
   8  -3  -2 2196.47 117.670  42
   8  -3  -1 289.806 57.9850   8
   8  -3  -1 212.190 58.0227  42
   8  -3   0 428.904 74.7154   8
   8  -3   0 389.756 71.3037  42
   8  -3   1 17254.5 446.120   8
   8  -3   1 17732.1 441.937  42
   8  -3   2 7022.79 279.384   8
   8  -3   2 6123.73 260.257  42
   8  -3   3 3894.38 198.334  32
   8  -3   3 3673.01 204.612   8
   8  -3   3 3995.42 224.546  44
   8  -3   3 4247.88 211.851  42
   8  -3   4 4763.80 221.931   8
   8  -3   4 4910.31 230.044  42
   8  -3   5 10855.9 318.396  32
   8  -3   5 11562.3 358.722  44
   8  -3   5 11895.7 341.479  42
   8  -3   6 3026.13 150.040  32
   8  -3   6 3518.46 182.692  44
   8  -3   6 3332.03 164.802  42
   8  -3   7 6101.15 213.755  44
   8  -2  -2 937.053 92.0352   8
   8  -2  -1 30153.0 607.935   8
   8  -2   0 158.673 60.7069   8
   8  -2   1 3062.93 191.730   8
   8  -2   1 3015.33 194.090  42
   8  -2   2 14605.5 441.552   8
   8  -2   2 15725.1 461.143  42
   8  -2   3 3465.09 210.929   8
   8  -2   3 3992.64 226.275  42
   8  -2   4 2590.44 176.662   8
   8  -2   4 3329.89 202.558  42
   8  -2   5 1928.00 158.424  32
   8  -2   5 1885.48 170.110  44
   8  -2   5 2120.18 157.036  42
   8  -2   6 24535.0 550.006  32
   8  -2   6 25066.8 586.247  44
   8  -2   6 23733.7 530.498  42
   8  -2   7 420.770 71.6690  32
   8  -2   7 568.577 86.2524  44
   8  -2   7 407.548 63.5197  42
   8  -2   8 2176.15 118.947  32
   8  -2   8 2248.25 133.760  44
   8  -1  -3 4183.48 174.081   8
   8  -1  -1 709.012 98.0032   8
   8  -1   0 2046.63 157.014   8
   8  -1   2 634.538 115.100  42
   8  -1   3 2123.41 175.738  42
   8  -1   4 5531.48 302.358  44
   8  -1   4 5722.50 278.127  42
   8  -1   5 2779.79 203.423  32
   8  -1   5 2760.94 212.872  44
   8  -1   5 2611.67 186.987  42
   8  -1   6 127.217 72.4677  32
   8  -1   6 261.743 82.4448  44
   8  -1   6 170.588 57.2393  42
   8  -1   7 1227.50 122.907  32
   8  -1   7 1078.46 121.050  44
   8  -1   8 879.341 93.1842  32
   8  -1   8 948.872 101.460  44
   8  -1   9 8141.86 227.496  32
   8  -1   9 7637.38 232.544  44
   8   0   3 848.602 118.949  42
   8   0   4 548.900 114.261  44
   8   0   4 577.738 95.2590  42
   8   0   5 639.064 116.944  44
   8   0   6 25889.6 669.930  44
   8   0   7 1000.18 125.193  32
   8   0   7 756.396 115.796  30
   8   0   7 1107.30 133.253  44
   8   0   8 6952.33 273.205  32
   8   0   8 7454.19 289.111  44
   8   0   9 4513.64 185.108  32
   8   0   9 3951.50 177.947  44
   8   1   4 632.512 123.322  44
   8   1   5 1040.79 145.976  44
   8   1   6 9256.44 384.779  32
   8   1   6 10189.0 406.291  44
   8   1   7 7430.28 322.919  32
   8   1   7 7594.93 324.659  44
   8   1   8 5064.72 241.760  32
   8   1   8 4593.37 226.835  44
   8   1   9 2820.81 153.847  30
   8   1   9 2530.76 138.092  44
   8   2   6 7193.50 334.497  32
   8   2   7 2573.41 198.444  32
   8   2   8 5693.71 252.529  32
   8   2   9 1172.85 100.559  32
   8   2   9 1158.34 101.873  30
   8   3   5 6124.82 315.098  32
   8   3   7 400.352 80.2932  32
   8   3   7 388.374 92.3755  30
   8   3   8 3824.46 191.253  32
   8   4   6 447.338 100.108  30
   8   5   7 171.244 71.0799  49
   8   5   9 452.220 57.6205  31
   8   5   9 810.700 72.0248  49
   8   6   6 929.078 95.7301  49
   8   6   7 432.720 67.5954  31
   8   6   7 383.461 64.3277  49
   8   6   8 922.433 82.5976  31
   8   6   8 452.319 65.0542  29
   8   7   7 139.459 43.2436  29
   9  -2   3 108.911 40.3732  44
   9  -1   1 1509.01 112.061  44
   9  -1   1 1265.47 93.1143  42
   9  -1   2 92.6456 46.6187  44
   9  -1   2 86.3272 37.3093  42
   9  -1   3 4665.56 204.761  44
   9  -1   3 3566.37 154.448  42
   9  -1   4 2898.02 151.030  32
   9  -1   4 3190.68 165.382  44
   9  -1   6 6580.80 198.646  32
   9   0   1 3599.12 178.114  44
   9   0   1 3063.81 148.902  42
   9   0   2 468.216 75.9637  44
   9   0   2 292.323 53.9844  42
   9   0   3 1526.60 124.619  44
   9   0   4 2906.79 167.937  44
   9   0   5 1432.87 115.761  44
   9   0   7 2314.46 115.259  32
   9   1   2 1844.49 132.176  44
   9   1   3 3270.74 176.040  44
   9   1   4 4731.04 211.496  44
   9   1   6 2950.24 159.613  32
   9   1   7 3661.23 154.947  32
   9   1   7 1923.37 116.050  30
   9   2   5 430.943 76.0480  32
   9   2   6 553.329 84.3085  30
   9   2   7 384.472 64.2598  30
   9   2   7 555.011 63.4589  49
   9   3   4 3045.84 171.513  32
   9   3   5 527.867 78.5980  30
   9   3   6 197.436 54.2202  30
   9   3   7 2229.15 122.354  49
   9   4   6 21.9304 37.4813  49
   9   5   5 23.0507 33.7998  49
   0   0   0    0.00    0.00   0

TITL KS-121absrint in P1
REM P1 (#1 in standard setting)
CELL 1.54184   7.663624   9.592814  10.849842  86.2494  76.1677  79.1091
ZERR    2.00   0.000220   0.000236   0.000243   0.0019   0.0022   0.0022
LATT -1
SFAC C H N O
UNIT 38.00 34.00 2.00 6.00
TREF
HKLF 4
END
;
_shelx_hkl_checksum              84872
loop_
_space_group_symop_operation_xyz
'x, y, z'
loop_
_atom_site_label
_atom_site_type_symbol
_atom_site_fract_x
_atom_site_fract_y
_atom_site_fract_z
_atom_site_U_iso_or_equiv
_atom_site_adp_type
_atom_site_occupancy
_atom_site_site_symmetry_order
_atom_site_calc_flag
_atom_site_refinement_flags_posn
_atom_site_refinement_flags_adp
O1 O 0.5708(3) 0.89001(19) 0.11559(17) 0.0227(4) Uani 1 1 d . .
O2 O 0.3462(3) 0.5109(2) 0.33066(17) 0.0243(4) Uani 1 1 d . .
O3 O 0.5208(3) 0.8019(2) 0.56560(16) 0.0220(4) Uani 1 1 d . .
H3 H 0.574822 0.728470 0.596569 0.033 Uiso 1 1 calc R U
N1 N 0.4731(3) 0.7083(2) 0.25008(18) 0.0168(4) Uani 1 1 d . .
C1 C 0.4895(3) 0.7922(3) 0.1375(2) 0.0177(5) Uani 1 1 d . .
C2 C 0.3903(3) 0.7313(3) 0.0574(2) 0.0174(5) Uani 1 1 d . .
C3 C 0.3633(4) 0.7734(3) -0.0623(2) 0.0204(5) Uani 1 1 d . .
H3A H 0.406996 0.853610 -0.105991 0.024 Uiso 1 1 calc R U
C4 C 0.2681(4) 0.6912(3) -0.1155(2) 0.0220(6) Uani 1 1 d . .
H4 H 0.246792 0.716076 -0.197477 0.026 Uiso 1 1 calc R U
C5 C 0.2042(4) 0.5741(3) -0.0510(2) 0.0229(6) Uani 1 1 d . .
H5 H 0.140978 0.520247 -0.090012 0.028 Uiso 1 1 calc R U
C6 C 0.2312(4) 0.5340(3) 0.0706(3) 0.0218(5) Uani 1 1 d . .
H6A H 0.187082 0.454405 0.115276 0.026 Uiso 1 1 calc R U
C7 C 0.3249(3) 0.6155(3) 0.1225(2) 0.0182(5) Uani 1 1 d . .
C8 C 0.3784(3) 0.5996(3) 0.2468(2) 0.0184(5) Uani 1 1 d . .
C9 C 0.5620(3) 0.7313(3) 0.3514(2) 0.0174(5) Uani 1 1 d . .
H9 H 0.620627 0.816790 0.326114 0.021 Uiso 1 1 calc R U
C10 C 0.7123(4) 0.6069(3) 0.3610(2) 0.0199(5) Uani 1 1 d . .
H10 H 0.683062 0.514305 0.372236 0.024 Uiso 1 1 calc R U
C11 C 0.8831(4) 0.6210(3) 0.3545(3) 0.0249(6) Uani 1 1 d . .
H11A H 0.972(4) 0.532(4) 0.362(3) 0.023(8) Uiso 1 1 d . .
H11B H 0.923(5) 0.714(4) 0.339(3) 0.028(8) Uiso 1 1 d . .
C12 C 0.4248(3) 0.7625(3) 0.4803(2) 0.0176(5) Uani 1 1 d . .
H12 H 0.373199 0.675492 0.513584 0.021 Uiso 1 1 calc R U
C13 C 0.2700(4) 0.8862(3) 0.4716(2) 0.0212(5) Uani 1 1 d . .
H13A H 0.320976 0.974366 0.449276 0.025 Uiso 1 1 calc R U
H13B H 0.212154 0.868529 0.403129 0.025 Uiso 1 1 calc R U
C14 C 0.1264(4) 0.9062(3) 0.5954(2) 0.0191(5) Uani 1 1 d . .
C15 C -0.0246(4) 0.8407(3) 0.6184(3) 0.0238(6) Uani 1 1 d . .
H15 H -0.040146 0.783741 0.554793 0.029 Uiso 1 1 calc R U
C16 C -0.1536(4) 0.8570(3) 0.7327(3) 0.0266(6) Uani 1 1 d . .
H16 H -0.255751 0.810347 0.746968 0.032 Uiso 1 1 calc R U
C17 C -0.1345(4) 0.9408(3) 0.8265(2) 0.0240(6) Uani 1 1 d . .
H17 H -0.223552 0.952629 0.904521 0.029 Uiso 1 1 calc R U
C18 C 0.0160(4) 1.0069(3) 0.8047(2) 0.0244(6) Uani 1 1 d . .
H18 H 0.030468 1.064816 0.868042 0.029 Uiso 1 1 calc R U
C19 C 0.1461(4) 0.9890(3) 0.6905(3) 0.0231(6) Uani 1 1 d . .
H19 H 0.249909 1.033643 0.676969 0.028 Uiso 1 1 calc R U
O4 O 0.6489(2) 0.54163(19) 0.68635(16) 0.0205(4) Uani 1 1 d . .
O5 O 0.4359(3) 0.1385(2) 0.85555(18) 0.0246(4) Uani 1 1 d . .
O6 O 0.5023(3) 0.2336(2) 0.42609(18) 0.0343(5) Uani 1 1 d . .
H6 H 0.443216 0.316295 0.422112 0.051 Uiso 1 1 calc R U
N2 N 0.5250(3) 0.3383(2) 0.74391(19) 0.0168(4) Uani 1 1 d . .
C20 C 0.6176(3) 0.4441(2) 0.7609(2) 0.0165(5) Uani 1 1 d . .
C21 C 0.6694(3) 0.4118(3) 0.8840(2) 0.0173(5) Uani 1 1 d . .
C22 C 0.7603(3) 0.4862(3) 0.9457(2) 0.0195(5) Uani 1 1 d . .
H22 H 0.802923 0.569907 0.909573 0.023 Uiso 1 1 calc R U
C23 C 0.7860(4) 0.4315(3) 1.0640(2) 0.0224(5) Uani 1 1 d . .
H23 H 0.847176 0.479469 1.109860 0.027 Uiso 1 1 calc R U
C24 C 0.7238(4) 0.3083(3) 1.1160(2) 0.0230(6) Uani 1 1 d . .
H24 H 0.743227 0.274234 1.196702 0.028 Uiso 1 1 calc R U
C25 C 0.6338(4) 0.2340(3) 1.0523(2) 0.0203(5) Uani 1 1 d . .
H25 H 0.592296 0.149382 1.087239 0.024 Uiso 1 1 calc R U
C26 C 0.6077(3) 0.2895(3) 0.9354(2) 0.0181(5) Uani 1 1 d . .
C27 C 0.5124(3) 0.2395(2) 0.8462(2) 0.0172(5) Uani 1 1 d . .
C28 C 0.4497(3) 0.3358(3) 0.6316(2) 0.0180(5) Uani 1 1 d . .
H28 H 0.467849 0.426008 0.582779 0.022 Uiso 1 1 calc R U
C29 C 0.2466(4) 0.3395(3) 0.6699(2) 0.0208(5) Uani 1 1 d . .
H29 H 0.201364 0.269605 0.728579 0.025 Uiso 1 1 calc R U
C30 C 0.1290(4) 0.4358(3) 0.6252(3) 0.0267(6) Uani 1 1 d . .
H30A H -0.007(5) 0.438(3) 0.654(3) 0.023(8) Uiso 1 1 d . .
H30B H 0.170(5) 0.509(4) 0.564(4) 0.036(9) Uiso 1 1 d . .
C31 C 0.5581(4) 0.2132(3) 0.5426(2) 0.0195(5) Uani 1 1 d . .
H31 H 0.529087 0.120927 0.582759 0.023 Uiso 1 1 calc R U
C32 C 0.7643(3) 0.2112(3) 0.5230(2) 0.0197(5) Uani 1 1 d . .
H32A H 0.782630 0.309906 0.528279 0.024 Uiso 1 1 calc R U
H32B H 0.806159 0.156079 0.594191 0.024 Uiso 1 1 calc R U
C33 C 0.8851(4) 0.1501(3) 0.3998(2) 0.0186(5) Uani 1 1 d . .
C34 C 0.8480(4) 0.0397(3) 0.3383(3) 0.0231(5) Uani 1 1 d . .
H34 H 0.745932 -0.003823 0.376170 0.028 Uiso 1 1 calc R U
C35 C 0.9589(4) -0.0072(3) 0.2221(3) 0.0266(6) Uani 1 1 d . .
H35 H 0.930714 -0.081334 0.180499 0.032 Uiso 1 1 calc R U
C36 C 1.1102(4) 0.0532(3) 0.1664(2) 0.0281(6) Uani 1 1 d . .
H36 H 1.183759 0.022431 0.085982 0.034 Uiso 1 1 calc R U
C37 C 1.1537(4) 0.1588(3) 0.2288(3) 0.0279(6) Uani 1 1 d . .
H37 H 1.260005 0.198130 0.192831 0.033 Uiso 1 1 calc R U
C38 C 1.0409(4) 0.2072(3) 0.3444(3) 0.0231(5) Uani 1 1 d . .
H38 H 1.070621 0.280323 0.386342 0.028 Uiso 1 1 calc R U
loop_
_atom_site_aniso_label
_atom_site_aniso_U_11
_atom_site_aniso_U_22
_atom_site_aniso_U_33
_atom_site_aniso_U_23
_atom_site_aniso_U_13
_atom_site_aniso_U_12
O1 0.0260(10) 0.0220(9) 0.0210(9) 0.0020(7) -0.0046(7) -0.0087(8)
O2 0.0320(11) 0.0235(9) 0.0181(9) 0.0013(7) -0.0031(8) -0.0103(8)
O3 0.0248(10) 0.0237(9) 0.0182(8) -0.0041(7) -0.0090(7) 0.0005(7)
N1 0.0183(11) 0.0186(10) 0.0134(9) -0.0020(8) -0.0019(8) -0.0042(8)
C1 0.0177(12) 0.0173(11) 0.0152(11) -0.0014(9) -0.0003(9) -0.0005(10)
C2 0.0143(12) 0.0189(11) 0.0167(11) -0.0034(9) -0.0008(9) -0.0001(9)
C3 0.0198(12) 0.0221(12) 0.0160(11) -0.0018(9) -0.0015(10) 0.0014(10)
C4 0.0192(13) 0.0281(13) 0.0169(11) -0.0049(10) -0.0051(10) 0.0030(10)
C5 0.0173(13) 0.0295(13) 0.0219(12) -0.0090(10) -0.0048(10) -0.0006(10)
C6 0.0193(13) 0.0227(12) 0.0224(12) -0.0059(10) -0.0023(10) -0.0031(10)
C7 0.0163(12) 0.0194(11) 0.0171(12) -0.0036(9) -0.0015(10) -0.0006(10)
C8 0.0195(13) 0.0184(11) 0.0153(11) -0.0035(9) 0.0000(10) -0.0020(10)
C9 0.0188(12) 0.0191(11) 0.0151(11) -0.0001(9) -0.0036(9) -0.0058(9)
C10 0.0231(13) 0.0210(12) 0.0135(11) -0.0029(9) -0.0019(9) -0.0011(10)
C11 0.0248(14) 0.0262(14) 0.0223(13) -0.0044(10) -0.0060(11) 0.0011(12)
C12 0.0199(12) 0.0184(11) 0.0148(11) -0.0014(9) -0.0044(9) -0.0034(10)
C13 0.0226(13) 0.0217(12) 0.0168(11) -0.0003(9) -0.0035(10) 0.0007(10)
C14 0.0197(13) 0.0187(12) 0.0163(11) -0.0004(9) -0.0038(10) 0.0023(9)
C15 0.0216(13) 0.0284(13) 0.0222(13) -0.0066(10) -0.0062(11) -0.0030(10)
C16 0.0213(13) 0.0299(14) 0.0278(14) -0.0026(11) -0.0014(11) -0.0077(11)
C17 0.0241(14) 0.0241(13) 0.0194(12) -0.0018(10) -0.0002(10) 0.0012(11)
C18 0.0263(14) 0.0240(13) 0.0211(12) -0.0068(10) -0.0028(11) -0.0010(11)
C19 0.0246(14) 0.0204(12) 0.0245(13) -0.0043(10) -0.0036(11) -0.0056(10)
O4 0.0207(9) 0.0213(9) 0.0184(8) 0.0010(7) -0.0026(7) -0.0037(7)
O5 0.0288(11) 0.0215(9) 0.0245(9) 0.0023(7) -0.0059(8) -0.0081(8)
O6 0.0365(12) 0.0413(12) 0.0217(9) -0.0137(8) -0.0146(8) 0.0160(9)
N2 0.0182(11) 0.0169(10) 0.0154(9) -0.0014(8) -0.0037(8) -0.0036(8)
C20 0.0149(12) 0.0172(11) 0.0149(11) -0.0031(9) 0.0002(9) -0.0002(9)
C21 0.0149(12) 0.0202(12) 0.0142(11) -0.0036(9) -0.0005(9) 0.0007(9)
C22 0.0163(12) 0.0222(12) 0.0188(12) -0.0036(9) -0.0023(10) -0.0018(9)
C23 0.0196(13) 0.0284(13) 0.0187(12) -0.0055(10) -0.0043(10) -0.0016(10)
C24 0.0226(13) 0.0274(14) 0.0157(12) -0.0010(10) -0.0031(10) 0.0025(11)
C25 0.0188(13) 0.0212(12) 0.0178(12) 0.0010(9) -0.0007(10) -0.0009(10)
C26 0.0165(12) 0.0184(11) 0.0168(11) -0.0030(9) -0.0013(10) 0.0011(9)
C27 0.0165(12) 0.0163(11) 0.0160(11) -0.0015(9) 0.0005(9) -0.0013(9)
C28 0.0187(12) 0.0191(12) 0.0156(10) -0.0023(9) -0.0042(9) -0.0012(9)
C29 0.0215(12) 0.0225(12) 0.0177(11) -0.0053(9) -0.0010(10) -0.0052(10)
C30 0.0188(14) 0.0369(16) 0.0236(13) -0.0027(12) -0.0037(11) -0.0036(12)
C31 0.0213(12) 0.0214(12) 0.0153(11) -0.0038(9) -0.0047(9) -0.0006(10)
C32 0.0191(12) 0.0225(12) 0.0168(11) -0.0045(9) -0.0029(9) -0.0022(10)
C33 0.0195(12) 0.0185(11) 0.0160(11) -0.0017(9) -0.0043(10) 0.0016(9)
C34 0.0208(13) 0.0225(13) 0.0250(13) -0.0044(10) -0.0041(10) -0.0013(10)
C35 0.0317(15) 0.0238(13) 0.0226(13) -0.0076(10) -0.0082(11) 0.0039(11)
C36 0.0294(15) 0.0286(14) 0.0180(12) -0.0024(10) 0.0003(11) 0.0089(12)
C37 0.0205(13) 0.0270(14) 0.0294(14) 0.0022(11) 0.0029(11) 0.0006(11)
C38 0.0210(13) 0.0217(12) 0.0245(13) -0.0026(10) -0.0021(10) -0.0021(10)
loop_
_atom_type_symbol
_atom_type_description
_atom_type_scat_dispersion_real
_atom_type_scat_dispersion_imag
_atom_type_scat_source
C C 0.0181 0.0091 'International Tables Vol C Tables 4.2.6.8 and 6.1.1.4'
H H 0.0000 0.0000 'International Tables Vol C Tables 4.2.6.8 and 6.1.1.4'
N N 0.0311 0.0180 'International Tables Vol C Tables 4.2.6.8 and 6.1.1.4'
O O 0.0492 0.0322 'International Tables Vol C Tables 4.2.6.8 and 6.1.1.4'
loop_
_geom_angle_atom_site_label_1
_geom_angle_atom_site_label_2
_geom_angle_atom_site_label_3
_geom_angle
C12 O3 H3 109.5
C8 N1 C1 112.0(2)
C8 N1 C9 126.1(2)
C1 N1 C9 121.8(2)
O1 C1 N1 124.6(2)
O1 C1 C2 129.8(2)
N1 C1 C2 105.5(2)
C3 C2 C7 122.2(2)
C3 C2 C1 129.7(2)
C7 C2 C1 108.1(2)
C2 C3 C4 116.4(2)
C2 C3 H3A 121.8
C4 C3 H3A 121.8
C5 C4 C3 121.5(2)
C5 C4 H4 119.2
C3 C4 H4 119.2
C4 C5 C6 121.3(2)
C4 C5 H5 119.4
C6 C5 H5 119.4
C7 C6 C5 116.9(3)
C7 C6 H6A 121.5
C5 C6 H6A 121.5
C6 C7 C2 121.7(2)
C6 C7 C8 130.0(2)
C2 C7 C8 108.2(2)
O2 C8 N1 125.7(2)
O2 C8 C7 128.1(2)
N1 C8 C7 106.2(2)
N1 C9 C10 110.13(19)
N1 C9 C12 112.6(2)
C10 C9 C12 111.86(19)
N1 C9 H9 107.3
C10 C9 H9 107.3
C12 C9 H9 107.3
C11 C10 C9 123.1(3)
C11 C10 H10 118.5
C9 C10 H10 118.5
C10 C11 H11A 116.7(19)
C10 C11 H11B 122(2)
H11A C11 H11B 121(3)
O3 C12 C13 107.17(18)
O3 C12 C9 107.7(2)
C13 C12 C9 112.5(2)
O3 C12 H12 109.8
C13 C12 H12 109.8
C9 C12 H12 109.8
C14 C13 C12 111.9(2)
C14 C13 H13A 109.2
C12 C13 H13A 109.2
C14 C13 H13B 109.2
C12 C13 H13B 109.2
H13A C13 H13B 107.9
C15 C14 C19 118.3(2)
C15 C14 C13 121.3(2)
C19 C14 C13 120.4(3)
C14 C15 C16 121.1(2)
C14 C15 H15 119.5
C16 C15 H15 119.5
C15 C16 C17 120.5(3)
C15 C16 H16 119.8
C17 C16 H16 119.8
C18 C17 C16 119.1(3)
C18 C17 H17 120.5
C16 C17 H17 120.5
C17 C18 C19 120.2(2)
C17 C18 H18 119.9
C19 C18 H18 119.9
C18 C19 C14 120.9(3)
C18 C19 H19 119.6
C14 C19 H19 119.6
C31 O6 H6 109.5
C20 N2 C27 111.77(19)
C20 N2 C28 122.1(2)
C27 N2 C28 126.1(2)
O4 C20 N2 125.2(2)
O4 C20 C21 128.5(2)
N2 C20 C21 106.3(2)
C26 C21 C22 122.3(2)
C26 C21 C20 108.5(2)
C22 C21 C20 129.2(2)
C21 C22 C23 116.4(3)
C21 C22 H22 121.8
C23 C22 H22 121.8
C24 C23 C22 121.4(2)
C24 C23 H23 119.3
C22 C23 H23 119.3
C25 C24 C23 121.5(2)
C25 C24 H24 119.3
C23 C24 H24 119.3
C26 C25 C24 116.7(2)
C26 C25 H25 121.6
C24 C25 H25 121.6
C21 C26 C25 121.7(2)
C21 C26 C27 108.1(2)
C25 C26 C27 130.2(2)
O5 C27 N2 124.9(2)
O5 C27 C26 129.8(2)
N2 C27 C26 105.4(2)
N2 C28 C29 110.8(2)
N2 C28 C31 111.56(18)
C29 C28 C31 114.7(2)
N2 C28 H28 106.4
C29 C28 H28 106.4
C31 C28 H28 106.4
C30 C29 C28 122.7(3)
C30 C29 H29 118.6
C28 C29 H29 118.6
C29 C30 H30A 121.3(19)
C29 C30 H30B 121(2)
H30A C30 H30B 118(3)
O6 C31 C32 111.7(2)
O6 C31 C28 108.41(19)
C32 C31 C28 109.5(2)
O6 C31 H31 109.1
C32 C31 H31 109.1
C28 C31 H31 109.1
C33 C32 C31 116.4(2)
C33 C32 H32A 108.2
C31 C32 H32A 108.2
C33 C32 H32B 108.2
C31 C32 H32B 108.2
H32A C32 H32B 107.3
C34 C33 C38 118.2(2)
C34 C33 C32 123.2(3)
C38 C33 C32 118.6(2)
C35 C34 C33 120.6(3)
C35 C34 H34 119.7
C33 C34 H34 119.7
C36 C35 C34 120.5(3)
C36 C35 H35 119.7
C34 C35 H35 119.7
C35 C36 C37 119.6(2)
C35 C36 H36 120.2
C37 C36 H36 120.2
C36 C37 C38 119.7(3)
C36 C37 H37 120.1
C38 C37 H37 120.1
C37 C38 C33 121.2(3)
C37 C38 H38 119.4
C33 C38 H38 119.4
loop_
_geom_bond_atom_site_label_1
_geom_bond_atom_site_label_2
_geom_bond_distance
O1 C1 1.203(3)
O2 C8 1.218(3)
O3 C12 1.421(3)
O3 H3 0.8400
N1 C8 1.384(3)
N1 C1 1.411(3)
N1 C9 1.473(3)
C1 C2 1.492(3)
C2 C3 1.386(3)
C2 C7 1.387(4)
C3 C4 1.402(4)
C3 H3A 0.9500
C4 C5 1.390(4)
C4 H4 0.9500
C5 C6 1.402(4)
C5 H5 0.9500
C6 C7 1.381(4)
C6 H6A 0.9500
C7 C8 1.492(3)
C9 C10 1.511(3)
C9 C12 1.544(3)
C9 H9 1.0000
C10 C11 1.325(4)
C10 H10 0.9500
C11 H11A 1.00(3)
C11 H11B 0.99(4)
C12 C13 1.526(3)
C12 H12 1.0000
C13 C14 1.516(4)
C13 H13A 0.9900
C13 H13B 0.9900
C14 C15 1.382(4)
C14 C19 1.394(3)
C15 C16 1.386(4)
C15 H15 0.9500
C16 C17 1.388(4)
C16 H16 0.9500
C17 C18 1.384(4)
C17 H17 0.9500
C18 C19 1.390(4)
C18 H18 0.9500
C19 H19 0.9500
O4 C20 1.216(3)
O5 C27 1.212(3)
O6 C31 1.419(3)
O6 H6 0.8400
N2 C20 1.389(3)
N2 C27 1.408(3)
N2 C28 1.470(3)
C20 C21 1.481(3)
C21 C26 1.382(4)
C21 C22 1.384(4)
C22 C23 1.398(3)
C22 H22 0.9500
C23 C24 1.392(4)
C23 H23 0.9500
C24 C25 1.393(4)
C24 H24 0.9500
C25 C26 1.388(3)
C25 H25 0.9500
C26 C27 1.493(3)
C28 C29 1.506(4)
C28 C31 1.550(3)
C28 H28 1.0000
C29 C30 1.317(4)
C29 H29 0.9500
C30 H30A 1.01(3)
C30 H30B 0.98(4)
C31 C32 1.540(4)
C31 H31 1.0000
C32 C33 1.514(3)
C32 H32A 0.9900
C32 H32B 0.9900
C33 C34 1.395(4)
C33 C38 1.395(4)
C34 C35 1.390(4)
C34 H34 0.9500
C35 C36 1.385(5)
C35 H35 0.9500
C36 C37 1.386(4)
C36 H36 0.9500
C37 C38 1.394(4)
C37 H37 0.9500
C38 H38 0.9500
loop_
_geom_hbond_atom_site_label_D
_geom_hbond_atom_site_label_H
_geom_hbond_atom_site_label_A
_geom_hbond_distance_DH
_geom_hbond_distance_HA
_geom_hbond_distance_DA
_geom_hbond_angle_DHA
O6 H6 O2 0.84 2.15 2.935(3) 156.1
O3 H3 O4 0.84 2.03 2.859(3) 167.3
loop_
_geom_torsion_atom_site_label_1
_geom_torsion_atom_site_label_2
_geom_torsion_atom_site_label_3
_geom_torsion_atom_site_label_4
_geom_torsion
C8 N1 C1 O1 -177.4(2)
C9 N1 C1 O1 -2.1(4)
C8 N1 C1 C2 1.6(3)
C9 N1 C1 C2 176.94(19)
O1 C1 C2 C3 -1.3(4)
N1 C1 C2 C3 179.7(2)
O1 C1 C2 C7 177.6(3)
N1 C1 C2 C7 -1.3(3)
C7 C2 C3 C4 -0.8(3)
C1 C2 C3 C4 178.0(2)
C2 C3 C4 C5 0.1(4)
C3 C4 C5 C6 0.5(4)
C4 C5 C6 C7 -0.4(4)
C5 C6 C7 C2 -0.3(4)
C5 C6 C7 C8 -178.7(2)
C3 C2 C7 C6 1.0(4)
C1 C2 C7 C6 -178.1(2)
C3 C2 C7 C8 179.7(2)
C1 C2 C7 C8 0.6(3)
C1 N1 C8 O2 179.3(2)
C9 N1 C8 O2 4.2(4)
C1 N1 C8 C7 -1.2(3)
C9 N1 C8 C7 -176.3(2)
C6 C7 C8 O2 -1.6(4)
C2 C7 C8 O2 179.8(2)
C6 C7 C8 N1 178.9(2)
C2 C7 C8 N1 0.3(3)
C8 N1 C9 C10 62.5(3)
C1 N1 C9 C10 -112.2(2)
C8 N1 C9 C12 -63.1(3)
C1 N1 C9 C12 122.2(2)
N1 C9 C10 C11 125.4(3)
C12 C9 C10 C11 -108.5(3)
N1 C9 C12 O3 -172.14(19)
C10 C9 C12 O3 63.2(3)
N1 C9 C12 C13 -54.3(3)
C10 C9 C12 C13 -178.9(2)
O3 C12 C13 C14 -67.5(3)
C9 C12 C13 C14 174.3(2)
C12 C13 C14 C15 -91.9(3)
C12 C13 C14 C19 86.6(3)
C19 C14 C15 C16 0.2(4)
C13 C14 C15 C16 178.6(2)
C14 C15 C16 C17 0.6(4)
C15 C16 C17 C18 -0.6(4)
C16 C17 C18 C19 -0.2(4)
C17 C18 C19 C14 1.0(4)
C15 C14 C19 C18 -0.9(4)
C13 C14 C19 C18 -179.4(2)
C27 N2 C20 O4 179.3(2)
C28 N2 C20 O4 -1.4(4)
C27 N2 C20 C21 0.0(3)
C28 N2 C20 C21 179.2(2)
O4 C20 C21 C26 -179.1(2)
N2 C20 C21 C26 0.2(3)
O4 C20 C21 C22 2.2(4)
N2 C20 C21 C22 -178.5(2)
C26 C21 C22 C23 -0.4(4)
C20 C21 C22 C23 178.3(2)
C21 C22 C23 C24 0.3(4)
C22 C23 C24 C25 0.2(4)
C23 C24 C25 C26 -0.6(4)
C22 C21 C26 C25 -0.1(4)
C20 C21 C26 C25 -179.0(2)
C22 C21 C26 C27 178.5(2)
C20 C21 C26 C27 -0.3(3)
C24 C25 C26 C21 0.6(3)
C24 C25 C26 C27 -177.7(2)
C20 N2 C27 O5 178.8(2)
C28 N2 C27 O5 -0.4(4)
C20 N2 C27 C26 -0.2(2)
C28 N2 C27 C26 -179.4(2)
C21 C26 C27 O5 -178.6(2)
C25 C26 C27 O5 -0.1(4)
C21 C26 C27 N2 0.3(2)
C25 C26 C27 N2 178.8(2)
C20 N2 C28 C29 -121.3(2)
C27 N2 C28 C29 57.8(3)
C20 N2 C28 C31 109.5(3)
C27 N2 C28 C31 -71.3(3)
N2 C28 C29 C30 125.1(3)
C31 C28 C29 C30 -107.5(3)
N2 C28 C31 O6 -168.7(2)
C29 C28 C31 O6 64.2(3)
N2 C28 C31 C32 -46.6(3)
C29 C28 C31 C32 -173.7(2)
O6 C31 C32 C33 -32.8(3)
C28 C31 C32 C33 -152.9(2)
C31 C32 C33 C34 -33.1(3)
C31 C32 C33 C38 146.6(2)
C38 C33 C34 C35 -3.0(4)
C32 C33 C34 C35 176.7(2)
C33 C34 C35 C36 1.2(4)
C34 C35 C36 C37 1.6(4)
C35 C36 C37 C38 -2.5(4)
C36 C37 C38 C33 0.7(4)
C34 C33 C38 C37 2.1(4)
C32 C33 C38 C37 -177.7(2)
