#------------------------------------------------------------------------------
#$Date: 2019-11-03 12:42:42 +0200 (Sun, 03 Nov 2019) $
#$Revision: 221419 $
#$URL: file:///home/coder/svn-repositories/cod/cif/4/12/82/4128297.cif $
#------------------------------------------------------------------------------
#
# This file is available in the Crystallography Open Database (COD),
# http://www.crystallography.net/
#
# All data on this site have been placed in the public domain by the
# contributors.
#
data_4128297
loop_
_publ_author_name
'Belligund, Kavita'
'Mathew, Thomas'
'Hunt, Jonathan R.'
'Nirmalchandar, Archith'
'Haiges, Ralf'
'Dawlaty, Jahan'
'Prakash, G. K. Surya'
_publ_section_title
;
 Photochemistry of 2-Nitroarenes: 2-Nitrophenyl-\a-trifluoromethyl
 Carbinols as Synthons for Fluoroorganics.
;
_journal_issue                   40
_journal_name_full               'Journal of the American Chemical Society'
_journal_page_first              15921
_journal_page_last               15931
_journal_paper_doi               10.1021/jacs.9b07241
_journal_volume                  141
_journal_year                    2019
_chemical_formula_moiety         'C20 H16 F6 N2 O7'
_chemical_formula_sum            'C20 H16 F6 N2 O7'
_chemical_formula_weight         510.35
_chemical_name_common            Kavita110216b
_space_group_crystal_system      triclinic
_space_group_IT_number           2
_space_group_name_Hall           '-P 1'
_space_group_name_H-M_alt        'P -1'
_symmetry_space_group_name_Hall  '-P 1'
_symmetry_space_group_name_H-M   'P -1'
_atom_sites_solution_hydrogens   geom
_cell_angle_alpha                104.348(8)
_cell_angle_beta                 97.123(8)
_cell_angle_gamma                91.867(8)
_cell_formula_units_Z            1
_cell_length_a                   4.766(2)
_cell_length_b                   9.398(5)
_cell_length_c                   12.710(6)
_cell_measurement_reflns_used    4283
_cell_measurement_temperature    100.(2)
_cell_measurement_theta_max      30.6054
_cell_measurement_theta_min      2.2418
_cell_volume                     546.1(5)
_computing_cell_refinement       'APEX3 v2017.3-0 (Bruker AXS, 2017)'
_computing_data_collection
'Bruker Instrument Service v2012.12.0.3 (Bruker AXS, 2012)'
_computing_data_reduction        'SAINT V8.38A (Bruker AXS, 2013)'
_computing_molecular_graphics    'shelXle (C.B. Huebschle, rev 833)'
_computing_publication_material  'SHELXTL XL 2016/6 (Bruker AXS, 2016)'
_computing_structure_refinement  'SHELXTL XL 2016/6 (Bruker AXS, 2016)'
_computing_structure_solution    'SHELXTL XT 2014/5 (Bruker AXS, 2014)'
_diffrn_ambient_temperature      100.(2)
_diffrn_detector_area_resol_mean 8.3333
_diffrn_measured_fraction_theta_full 0.998
_diffrn_measured_fraction_theta_max 0.998
_diffrn_measurement_device_type  'Bruker APEX II CCD'
_diffrn_measurement_method       'omega- and phi-scans'
_diffrn_radiation_monochromator  'TRIUMPH curved-crystal'
_diffrn_radiation_type           'MoK\a '
_diffrn_radiation_wavelength     0.71073
_diffrn_reflns_av_R_equivalents  0.0396
_diffrn_reflns_av_unetI/netI     0.0394
_diffrn_reflns_limit_h_max       6
_diffrn_reflns_limit_h_min       -6
_diffrn_reflns_limit_k_max       12
_diffrn_reflns_limit_k_min       -12
_diffrn_reflns_limit_l_max       16
_diffrn_reflns_limit_l_min       -16
_diffrn_reflns_number            11348
_diffrn_reflns_theta_full        28.27
_diffrn_reflns_theta_max         28.27
_diffrn_reflns_theta_min         1.67
_diffrn_source                   'fine-focus tube'
_exptl_absorpt_coefficient_mu    0.149
_exptl_absorpt_correction_T_max  0.98
_exptl_absorpt_correction_T_min  0.84
_exptl_absorpt_correction_type   multi-scan
_exptl_absorpt_process_details   'SADABS 2016/2 (Bruker AXS, 2016)'
_exptl_crystal_colour            orange
_exptl_crystal_density_diffrn    1.552
_exptl_crystal_density_method    'not measured'
_exptl_crystal_description       prism
_exptl_crystal_F_000             260
_exptl_crystal_size_max          0.250
_exptl_crystal_size_mid          0.190
_exptl_crystal_size_min          0.120
_refine_diff_density_max         0.539
_refine_diff_density_min         -0.246
_refine_ls_extinction_method     none
_refine_ls_goodness_of_fit_ref   1.136
_refine_ls_hydrogen_treatment    constr
_refine_ls_matrix_type           full
_refine_ls_number_parameters     320
_refine_ls_number_reflns         2714
_refine_ls_number_restraints     288
_refine_ls_restrained_S_all      1.093
_refine_ls_R_factor_all          0.1144
_refine_ls_R_factor_gt           0.0764
_refine_ls_shift/su_max          0.001
_refine_ls_shift/su_mean         0.000
_refine_ls_structure_factor_coef Fsqd
_refine_ls_weighting_details
'w=1/[\s^2^(Fo^2^)+(0.0794P)^2^+0.6628P] where P=(Fo^2^+2Fc^2^)/3'
_refine_ls_weighting_scheme      calc
_refine_ls_wR_factor_gt          0.2042
_refine_ls_wR_factor_ref         0.2222
_reflns_number_gt                1823
_reflns_number_total             2714
_reflns_threshold_expression     'I > 2\s(I)'
_cod_data_source_file            ja9b07241_si_004.cif
_cod_data_source_block           Kavita110216b
_cod_database_code               4128297
_shelx_res_file
;

TITL final.res in P-1
    final.res
    created by SHELXL-2016/6 at 10:23:29 on 06-Nov-2017
CELL  0.71073   4.7659   9.3977  12.7096  104.348   97.123   91.867
ZERR    1.000   0.0024   0.0047   0.0063    0.008    0.008    0.008
LATT 1
SFAC C H F N O
UNIT 20 16 6 2 7
TEMP -173.150
SIZE 0.12 0.19 0.25
L.S. 10
SHEL 999 0.75
ACTA
CONF
BOND $H
LIST 4
FMAP 2
PLAN 10
RIGU
ISOR 0.01 F4 > F6
WGHT    0.079400    0.662800
FVAR       0.98223
PART -1
C1    1    0.630680    0.575494    0.361278    10.50000    0.01961    0.02636 =
         0.01949    0.00904    0.00977    0.00245
C2    1    0.604030    0.562230    0.248512    10.50000    0.02531    0.03628 =
         0.02294    0.01399    0.00739   -0.00387
C3    1    0.774234    0.655673    0.208467    10.50000    0.03300    0.03997 =
         0.02484    0.01485    0.00277   -0.00506
AFIX  43
H3    2    0.754031    0.649643    0.132151    10.50000   -1.20000
AFIX   0
C4    1    0.974002    0.757891    0.280880    10.50000    0.02582    0.03500 =
         0.02564    0.01480    0.00839   -0.00154
C5    1    1.006795    0.767086    0.393846    10.50000    0.02099    0.02227 =
         0.02349    0.00916    0.00337   -0.00284
C6    1    0.835294    0.677732    0.434586    10.50000    0.02130    0.02247 =
         0.01891    0.00934    0.00392    0.00205
AFIX  43
H6    2    0.854508    0.684841    0.511043    10.50000   -1.20000
AFIX   0
C7    1    0.410808    0.450763    0.164803    10.50000    0.02692    0.04193 =
         0.02658    0.00999    0.00151   -0.00051
C8    1    0.482459    0.286253    0.142970    10.50000    0.05229    0.03599 =
         0.02552    0.00481   -0.00726    0.00100
C9    1    1.101343    0.864315    0.136703    10.50000    0.08672    0.07752 =
         0.02693    0.02181    0.01501   -0.01818
AFIX 137
H9A   2    1.098763    0.765716    0.087457    10.50000   -1.50000
H9B   2    1.255171    0.927028    0.123886    10.50000   -1.50000
H9C   2    0.919891    0.906923    0.122508    10.50000   -1.50000
AFIX   0
C10   1    1.254179    0.881640    0.570871    10.50000    0.02734    0.03005 =
         0.03076    0.00845    0.00349   -0.00095
AFIX 137
H10A  2    1.293871    0.784987    0.583268    10.50000   -1.50000
H10B  2    1.081889    0.914797    0.601661    10.50000   -1.50000
H10C  2    1.413902    0.952492    0.606599    10.50000   -1.50000
AFIX   0
C11   1    0.319870    0.417156    0.556805    10.50000    0.02054    0.02213 =
         0.01827    0.00687    0.00606    0.00414
C12   1    0.387910    0.449803    0.674188    10.50000    0.02746    0.02939 =
         0.01548    0.00609    0.00674    0.00068
C13   1    0.251372    0.367782    0.730666    10.50000    0.03424    0.03363 =
         0.02182    0.01213    0.01065    0.00256
AFIX  43
H13   2    0.298750    0.386826    0.807926    10.50000   -1.20000
AFIX   0
C14   1    0.043125    0.256397    0.675763    10.50000    0.03249    0.03025 =
         0.02274    0.01339    0.01425    0.00301
C15   1   -0.031587    0.229981    0.563278    10.50000    0.02137    0.02872 =
         0.02324    0.00915    0.00605    0.00636
C16   1    0.105356    0.308970    0.504283    10.50000    0.02080    0.02753 =
         0.01899    0.00793    0.00035    0.00085
AFIX  43
H16   2    0.053227    0.289576    0.427219    10.50000   -1.20000
AFIX   0
C17   1    0.605991    0.569084    0.733616    10.50000    0.03182    0.03471 =
         0.01867    0.00839   -0.00061   -0.00039
C18   1    0.606181    0.627115    0.858000    10.50000    0.04023    0.07399 =
         0.02354   -0.00208   -0.00112   -0.01807
C19   1   -0.002618    0.175651    0.840879    10.50000    0.08342    0.05897 =
         0.02391    0.01610    0.01546   -0.01011
AFIX 137
H19A  2    0.182279    0.133615    0.847485    10.50000   -1.50000
H19B  2   -0.140351    0.119570    0.868653    10.50000   -1.50000
H19C  2    0.014031    0.278513    0.883689    10.50000   -1.50000
AFIX   0
C20   1   -0.328250    0.091834    0.401729    10.50000    0.02932    0.03791 =
         0.02672    0.01143    0.00413   -0.00467
AFIX 137
H20A  2   -0.166780    0.061518    0.362546    10.50000   -1.50000
H20B  2   -0.400473    0.180192    0.383050    10.50000   -1.50000
H20C  2   -0.478314    0.012293    0.380422    10.50000   -1.50000
AFIX   0
F1    3    0.669472    0.255311    0.218735    10.50000    0.07546    0.04464 =
         0.03580    0.00601   -0.01261    0.01264
F2    3    0.246578    0.198929    0.128826    10.50000    0.07165    0.04868 =
         0.04219    0.00850   -0.00042   -0.01710
F3    3    0.595382    0.251868    0.047868    10.50000    0.06948    0.06948 =
         0.02677   -0.00333    0.00278    0.00773
F4    3    0.706852    0.529660    0.912092    10.50000    0.08191    0.15365 =
         0.03990    0.05135   -0.01243   -0.01853
F5    3    0.774257    0.751737    0.898235    10.50000    0.07718    0.12215 =
         0.03312   -0.01316    0.00555   -0.06431
F6    3    0.355011    0.656015    0.887955    10.50000    0.06000    0.07661 =
         0.06546   -0.02880    0.03267   -0.02370
N1    4    0.442825    0.486563    0.401431    10.50000    0.01758    0.02593 =
         0.01745    0.00602    0.00186   -0.00279
N2    4    0.519706    0.491017    0.492782    10.50000    0.01772    0.02152 =
         0.01598    0.00071    0.00937    0.00506
O1    5    0.235907    0.478824    0.096669    10.50000    0.02705    0.05356 =
         0.03786    0.01908   -0.00978   -0.00316
O2    5    1.145859    0.854409    0.249101    10.50000    0.04359    0.04528 =
         0.03121    0.01705    0.01345   -0.01185
O3    5    1.214361    0.870844    0.455023    10.50000    0.03324    0.02903 =
         0.02843    0.01336    0.00429   -0.00788
O4    5    0.247170    0.405918    0.328680    10.50000    0.04050    0.03690 =
         0.02438    0.00765    0.00449   -0.00967
O5    5    0.775442    0.632050    0.696712    10.50000    0.08576    0.05950 =
         0.02966    0.00148    0.00702   -0.03692
O6    5   -0.096828    0.168648    0.726918    10.50000    0.04272    0.04213 =
         0.02859    0.01625    0.01570   -0.00255
O7    5   -0.238281    0.123640    0.518850    10.50000    0.02539    0.03483 =
         0.02622    0.01703    0.00874   -0.00307
PART 0

HKLF 4




REM  final.res in P-1
REM R1 =  0.0764 for    1823 Fo > 4sig(Fo)  and  0.1144 for all    2714 data
REM    320 parameters refined using    288 restraints

END

WGHT      0.0798      0.6553

REM Highest difference peak  0.539,  deepest hole -0.246,  1-sigma level  0.062
Q1    1   0.2570  0.0710  0.8494  11.00000  0.05    0.54
Q2    1   0.8215  0.9641  0.1403  11.00000  0.05    0.50
Q3    1   0.6307  0.6942  0.7112  11.00000  0.05    0.25
Q4    1   1.2943  0.7232  0.0988  11.00000  0.05    0.20
Q5    1  -0.0838  0.2784  0.8789  11.00000  0.05    0.19
Q6    1   0.7530  0.1602  0.2024  11.00000  0.05    0.18
Q7    1   0.7483  0.3199  0.2702  11.00000  0.05    0.18
Q8    1   0.5613  0.6088  0.9225  11.00000  0.05    0.16
Q9    1   0.1352  0.2370  0.2197  11.00000  0.05    0.16
Q10   1   0.3016  0.1397  0.7502  11.00000  0.05    0.16
;
_shelx_res_checksum              11930
_shelx_hkl_file
;
  -1   0   0   73.89    2.20
  -1   0   0   72.19    2.10
  -1   0   0   74.39    2.30
   1   0   0   71.39    2.50
   1   0   0   72.59    2.20
   1   0   0   73.19    2.20
  -2   0   0  576.14   14.00
  -2   0   0  568.24   14.10
   2   0   0  571.44   14.10
   2   0   0  560.74   14.60
   2   0   0  574.74   14.10
  -3   0   0   37.30    2.00
  -3   0   0   34.90    2.30
  -3   0   0   36.50    2.20
   3   0   0   31.40    2.80
   3   0   0   33.50    2.00
   3   0   0   30.40    2.30
  -4   0   0   21.30    2.40
  -4   0   0   21.60    2.50
  -4   0   0   23.10    2.60
   4   0   0   21.10    3.60
   4   0   0   20.50    2.80
   4   0   0   20.70    2.30
  -5   0   0   30.30    3.70
  -5   0   0   32.10    3.30
   5   0   0   28.70    3.70
   5   0   0   28.10    5.60
  -6   0   0    7.70    2.70
   6   0   0    7.70    4.40
   6  -1   0    6.00    4.30
  -6   1   0    8.60    3.00
   5  -1   0    4.70    2.50
   5  -1   0    2.80    3.30
  -5   1   0    2.60    1.90
  -5   1   0    2.20    2.30
   4  -1   0    2.30    2.10
   4  -1   0    1.60    1.40
   4  -1   0    1.30    1.80
  -4   1   0    1.90    1.50
  -4   1   0    2.60    1.80
  -4   1   0    3.40    1.40
   3  -1   0   88.39    4.00
   3  -1   0   85.59    3.20
   3  -1   0   88.99    3.30
  -3   1   0   87.49    3.30
  -3   1   0   91.99    3.00
  -3   1   0   93.99    3.40
   2  -1   0   18.10    1.40
   2  -1   0   18.50    1.60
   2  -1   0   20.20    2.00
  -2   1   0   17.60    1.80
  -2   1   0   18.70    1.30
  -2   1   0   17.70    1.60
   1  -1   0 2471.35   60.89
   1  -1   0 2526.05   60.29
   1  -1   0 2491.05   60.39
  -1   1   0 2556.84   60.29
  -1   1   0 2600.24   60.29
  -1   1   0 2472.05   59.89
  -1   1   0 2502.25   60.09
   0  -1   0 1922.11   44.00
   0  -1   0 1808.62   43.90
   0  -1   0 1673.73   43.70
   0  -1   0 1823.62   44.20
   0  -1   0 1836.62   44.00
   0   1   0 1784.72   44.10
   0   1   0 1959.20   44.00
  -1  -1   0 1033.50   25.10
  -1  -1   0 1037.20   25.20
  -1  -1   0 1057.89   25.20
  -1  -1   0 1051.29   25.20
   1   1   0 1042.80   25.30
   1   1   0 1050.99   25.20
   1   1   0 1049.09   25.50
  -2  -1   0   18.60    1.50
  -2  -1   0   16.80    1.60
  -2  -1   0   15.80    1.40
   2   1   0   16.00    1.50
   2   1   0   16.90    2.10
   2   1   0   17.20    1.40
  -3  -1   0   10.10    1.50
  -3  -1   0    7.90    1.40
  -3  -1   0   10.50    1.80
   3   1   0   10.10    1.70
   3   1   0   11.30    1.50
   3   1   0    6.60    1.60
  -4  -1   0   19.00    2.50
  -4  -1   0   25.30    2.50
  -4  -1   0   23.60    2.50
   4   1   0   24.50    3.60
   4   1   0   21.60    2.90
  -5  -1   0   25.80    3.40
  -5  -1   0   31.10    3.60
   5   1   0   31.60    5.70
  -6  -1   0   -2.90    2.30
  -6  -1   0   -0.20    2.60
   6   1   0    2.40    4.30
   6  -2   0   17.30    4.70
  -6   2   0   17.80    3.50
   5  -2   0    1.70    2.70
   5  -2   0    1.00    3.20
  -5   2   0    3.90    2.70
   4  -2   0   -1.70    1.50
   4  -2   0    0.10    2.10
   4  -2   0    1.30    2.00
  -4   2   0    0.80    1.30
  -4   2   0    0.20    1.40
  -4   2   0    1.90    1.90
   3  -2   0   11.60    1.70
   3  -2   0    8.70    1.40
   3  -2   0   10.30    1.80
  -3   2   0   10.20    1.70
  -3   2   0   11.90    1.40
  -3   2   0   11.50    2.90
  -3   2   0    6.90    1.40
   2  -2   0  136.39    4.10
   2  -2   0  139.49    4.60
   2  -2   0  142.29    4.20
  -2   2   0  139.59    4.90
  -2   2   0  142.69    4.10
  -2   2   0  139.39    3.80
  -2   2   0  139.19    4.20
   1  -2   0 9991.60  235.48
   1  -2   0 9693.93  235.08
   1  -2   0 9999.00  236.58
  -1   2   0 9649.73  234.68
  -1   2   0 9932.31  236.48
  -1   2   0 9682.43  234.98
   0  -2   0  499.15   12.40
   0  -2   0  505.55   12.20
   0  -2   0  494.85   12.30
   0   2   0  486.95   12.70
   0   2   0  521.85   12.20
  -1  -2   0  689.93   17.00
  -1  -2   0  688.03   17.00
  -1  -2   0  714.93   17.10
  -1  -2   0  680.13   16.80
   1   2   0  722.43   17.50
   1   2   0  694.33   17.40
   1   2   0  709.63   17.00
  -2  -2   0    3.00    1.00
  -2  -2   0    3.10    1.10
  -2  -2   0    2.80    0.90
  -2  -2   0    2.90    1.00
   2   2   0    1.60    1.10
   2   2   0    1.70    1.00
  -3  -2   0   31.00    2.00
  -3  -2   0   31.70    2.20
  -3  -2   0   29.20    2.10
   3   2   0   30.40    2.10
   3   2   0   30.60    2.10
   3   2   0   31.80    2.90
  -4  -2   0   40.00    2.90
  -4  -2   0   43.90    3.10
  -4  -2   0   39.80    2.80
   4   2   0   42.50    3.90
   4   2   0   42.60    3.10
  -5  -2   0    6.20    2.00
  -5  -2   0    5.60    2.30
   5   2   0   10.10    3.40
  -6  -2   0   -1.60    2.40
  -6  -2   0    0.40    2.20
   6   2   0    1.80    4.20
   6  -3   0   13.90    4.60
  -6   3   0    9.10    3.60
   5  -3   0   10.50    3.10
   5  -3   0    8.70    3.60
  -5   3   0   11.50    3.10
   4  -3   0   32.60    3.30
   4  -3   0   26.40    2.80
   4  -3   0   25.90    4.20
  -4   3   0   26.40    3.40
  -4   3   0   22.50    4.30
   3  -3   0   60.39    3.70
   3  -3   0   66.19    3.10
   3  -3   0   64.69    3.00
  -3   3   0   66.89    3.10
  -3   3   0   65.69    2.90
  -3   3   0   60.29    4.10
  -3   3   0   64.09    2.30
   2  -3   0  719.73   17.80
   2  -3   0  728.13   18.00
   2  -3   0  721.43   18.30
  -2   3   0  727.43   17.50
  -2   3   0  703.33   17.90
  -2   3   0  719.43   17.90
  -2   3   0  728.43   18.60
   1  -3   0  103.59    3.30
   1  -3   0   99.99    3.10
   1  -3   0  100.09    3.40
  -1   3   0   97.59    3.10
  -1   3   0   96.89    3.10
  -1   3   0  103.39    4.20
   0  -3   0  818.62   20.20
   0  -3   0  836.82   20.30
   0  -3   0  853.01   20.10
   0   3   0  819.02   20.90
   0   3   0  828.62   20.20
  -1  -3   0  169.18    4.70
  -1  -3   0  173.48    4.70
  -1  -3   0  169.88    4.70
   1   3   0  178.78    5.30
   1   3   0  166.28    4.60
   1   3   0  161.78    5.30
  -2  -3   0  529.85   13.00
  -2  -3   0  536.45   13.30
  -2  -3   0  538.35   13.40
  -2  -3   0  522.75   13.30
   2   3   0  547.05   14.20
   2   3   0  511.25   13.30
   2   3   0  519.85   13.90
  -3  -3   0   34.60    2.40
  -3  -3   0   36.20    2.00
  -3  -3   0   36.30    2.40
   3   3   0   38.20    3.50
   3   3   0   33.10    2.30
  -4  -3   0   25.80    2.90
  -4  -3   0   24.90    2.40
  -4  -3   0   31.00    3.10
   4   3   0   35.50    4.10
   4   3   0   29.20    2.80
  -5  -3   0   -0.60    2.10
  -5  -3   0    1.20    1.80
   5   3   0    1.00    3.10
  -6  -3   0    0.20    2.50
   6   3   0    0.50    4.20
   6  -4   0    1.30    4.30
  -6   4   0    2.90    3.80
   5  -4   0    5.00    3.20
   5  -4   0    0.10    3.40
  -5   4   0    4.80    3.20
   4  -4   0    3.00    1.70
   4  -4   0    2.70    2.60
   4  -4   0    3.00    2.50
  -4   4   0    2.60    2.40
  -4   4   0    0.60    2.90
   3  -4   0   38.30    3.00
   3  -4   0   37.10    2.60
   3  -4   0   41.30    3.50
  -3   4   0   38.90    4.30
  -3   4   0   35.80    1.80
  -3   4   0   38.10    3.10
  -3   4   0   39.10    2.60
   2  -4   0 2204.38   52.19
   2  -4   0 2172.88   52.09
   2  -4   0 2117.09   51.59
   2  -4   0 2127.69   52.49
  -2   4   0 2203.38   53.09
  -2   4   0 2141.09   52.09
   1  -4   0  446.66   11.20
   1  -4   0  456.95   11.90
   1  -4   0  479.65   11.80
  -1   4   0  470.15   12.70
  -1   4   0  447.36   11.60
  -1   4   0  461.65   11.50
   0  -4   0    1.60    0.90
   0  -4   0    1.00    1.00
   0  -4   0    1.60    1.20
   0   4   0    3.80    1.80
   0   4   0    1.00    0.90
  -1  -4   0   87.29    3.00
  -1  -4   0   83.49    3.00
  -1  -4   0   83.99    3.00
   1   4   0   86.29    3.00
   1   4   0   90.69    4.90
  -2  -4   0    5.40    1.20
  -2  -4   0    5.20    0.80
  -2  -4   0    8.70    1.30
  -2  -4   0    7.00    1.30
   2   4   0    6.10    1.60
   2   4   0    7.70    1.80
   2   4   0    6.70    1.20
  -3  -4   0    2.10    1.50
  -3  -4   0    2.20    1.50
  -3  -4   0    3.60    1.40
  -3  -4   0    2.90    1.10
   3   4   0    4.40    2.40
   3   4   0    2.80    1.60
  -4  -4   0   19.70    2.20
  -4  -4   0   18.70    2.90
  -4  -4   0   18.90    3.20
   4   4   0   13.20    2.50
   4   4   0   20.50    4.60
  -5  -4   0   -1.10    2.30
   5   4   0    3.40    3.30
  -6  -4   0   12.00    3.10
   6   4   0   10.30    4.70
   6  -5   0    6.30    4.50
   6  -5   0    2.90    6.00
  -6   5   0    6.00    4.00
   5  -5   0    9.70    3.90
   5  -5   0    7.60    3.60
  -5   5   0    9.40    3.50
   4  -5   0   12.00    3.00
   4  -5   0    9.70    2.30
   4  -5   0   11.00    3.10
  -4   5   0   13.80    2.90
  -4   5   0    3.80    3.40
   3  -5   0  151.68    6.00
   3  -5   0  144.19    5.00
   3  -5   0  145.79    5.40
  -3   5   0  129.79    5.30
  -3   5   0  150.78    5.30
  -3   5   0  133.09    6.90
   2  -5   0    3.60    1.60
   2  -5   0    0.40    1.40
   2  -5   0    0.20    1.20
   2  -5   0    0.40    0.70
  -2   5   0    3.80    2.30
  -2   5   0    0.20    1.10
  -2   5   0    2.20    1.50
   1  -5   0  227.78    6.70
   1  -5   0  224.38    5.90
   1  -5   0  219.98    6.50
   1  -5   0  231.98    6.30
  -1   5   0  229.68    6.10
  -1   5   0  236.68    7.90
  -1   5   0  224.38    6.30
   0  -5   0   37.10    2.00
   0  -5   0   32.10    2.20
   0  -5   0   32.10    2.00
   0   5   0   37.50    2.90
   0   5   0   34.40    3.80
  -1  -5   0   73.29    2.80
  -1  -5   0   71.19    2.90
  -1  -5   0   73.69    3.00
   1   5   0   67.59    4.30
   1   5   0   76.39    3.90
   1   5   0   75.29    2.90
  -2  -5   0    2.80    1.40
  -2  -5   0    1.30    1.30
  -2  -5   0    1.70    1.30
   2   5   0    2.60    1.80
   2   5   0    4.00    1.30
   2   5   0    5.90    2.10
  -3  -5   0   26.00    2.90
  -3  -5   0   22.00    2.40
  -3  -5   0   22.50    2.50
   3   5   0   45.90    5.60
   3   5   0   26.00    3.30
  -4  -5   0   -1.40    2.00
  -4  -5   0   -0.90    1.80
   4   5   0   -0.60    2.90
  -5  -5   0    7.20    2.70
   5   5   0    8.10    4.00
  -6  -5   0    6.50    4.00
   6  -6   0    1.40    4.40
  -6   6   0   -6.50    6.10
   5  -6   0    1.00    3.80
   5  -6   0    1.70    3.80
  -5   6   0    4.60    3.60
   4  -6   0    1.30    2.40
   4  -6   0   -3.10    3.00
   4  -6   0   -0.10    3.10
  -4   6   0   -1.80    2.90
  -4   6   0    2.80    3.80
   3  -6   0  531.35   14.40
   3  -6   0  536.75   14.90
   3  -6   0  542.55   14.10
  -3   6   0  540.45   14.20
  -3   6   0  503.65   16.20
   2  -6   0   18.70    2.90
   2  -6   0   15.00    2.80
   2  -6   0   16.00    1.40
  -2   6   0   16.50    2.10
  -2   6   0   23.60    2.70
  -2   6   0   22.70    4.60
   1  -6   0  135.49    4.00
   1  -6   0  139.79    4.50
   1  -6   0  140.79    5.10
   1  -6   0  128.99    4.70
  -1   6   0  136.69    4.20
  -1   6   0  134.99    4.40
  -1   6   0  150.08    6.50
   0  -6   0   15.40    1.90
   0  -6   0   14.10    2.20
   0  -6   0   17.60    1.90
   0   6   0   17.40    3.00
   0   6   0   17.60    4.00
   0   6   0   17.80    1.80
  -1  -6   0   42.30    2.60
  -1  -6   0   46.70    2.50
  -1  -6   0   40.00    2.60
   1   6   0   33.70    4.10
   1   6   0   42.50    2.50
   1   6   0   36.30    4.70
  -2  -6   0   43.90    3.00
  -2  -6   0   47.70    2.80
  -2  -6   0   48.30    2.90
   2   6   0   40.00    4.20
   2   6   0   40.00    4.90
  -3  -6   0   -1.70    1.70
  -3  -6   0    1.20    1.60
  -3  -6   0   -2.70    1.80
   3   6   0   -2.30    1.90
   3   6   0   10.10    3.90
  -4  -6   0   -0.20    1.90
  -4  -6   0   -0.80    2.20
   4   6   0    5.40    3.60
  -5  -6   0   29.00    3.60
   5   6   0   23.80    4.90
   5  -7   0    6.20    4.30
  -5   7   0    0.30    3.70
   4  -7   0   70.49    5.60
   4  -7   0   67.89    6.10
  -4   7   0   67.89    5.20
  -4   7   0   54.39    7.10
   3  -7   0    1.50    2.50
   3  -7   0    1.40    2.20
   3  -7   0    3.50    2.80
  -3   7   0    0.30    2.40
  -3   7   0   -7.60    4.20
   2  -7   0   26.80    3.10
   2  -7   0   28.60    3.30
   2  -7   0   26.10    3.50
  -2   7   0   23.40    2.80
  -2   7   0   12.40    4.40
   1  -7   0   56.69    3.90
   1  -7   0   50.79    3.20
   1  -7   0   54.59    3.00
   1  -7   0   52.09    2.50
  -1   7   0   48.00    6.00
  -1   7   0   49.20    2.60
   0  -7   0    5.30    1.90
   0  -7   0    8.00    1.60
   0  -7   0    7.00    1.80
   0   7   0    7.60    3.00
   0   7   0    8.20    2.40
  -1  -7   0   51.49    2.90
  -1  -7   0   46.60    3.20
  -1  -7   0   54.89    3.30
   1   7   0   45.20    4.90
   1   7   0   37.60    5.30
  -2  -7   0   14.90    2.20
  -2  -7   0   12.80    2.00
  -2  -7   0   14.50    2.60
   2   7   0    4.50    2.80
   2   7   0   12.50    3.40
  -3  -7   0    2.40    2.10
  -3  -7   0   -0.80    2.00
  -3  -7   0    2.50    1.80
   3   7   0    1.60    3.60
   3   7   0   -1.30    2.20
  -4  -7   0    9.00    2.60
  -4  -7   0   13.20    2.90
   4   7   0   14.30    4.60
  -5  -7   0    2.90    2.90
   5   7   0    0.80    4.30
   5  -8   0    9.50    4.40
  -5   8   0    1.00    3.80
   4  -8   0   87.19   10.80
  -4   8   0  122.89   10.30
  -4   8   0  119.29    6.10
   3  -8   0    0.50    3.10
   3  -8   0    3.10    2.50
   3  -8   0    1.10    2.60
  -3   8   0   -2.30    5.20
  -3   8   0    4.50    2.60
   2  -8   0   15.00    2.80
   2  -8   0   16.30    3.90
   2  -8   0   18.80    2.70
  -2   8   0    4.30    5.30
  -2   8   0   14.80    2.30
   1  -8   0    1.50    1.80
   1  -8   0    1.30    1.50
   1  -8   0   -0.30    2.30
   1  -8   0   -1.50    2.00
  -1   8   0   -1.60    3.80
   0  -8   0   45.80    3.40
   0  -8   0   49.40    2.90
   0  -8   0   36.30    3.60
   0   8   0   37.20    5.00
   0   8   0   36.10    7.80
  -1  -8   0   12.80    2.10
  -1  -8   0   15.70    2.50
  -1  -8   0   16.80    2.40
   1   8   0    6.20    3.60
   1   8   0    8.40    3.40
  -2  -8   0    7.10    2.20
  -2  -8   0    5.80    2.40
  -2  -8   0    7.10    2.20
   2   8   0    9.30    4.40
   2   8   0    9.80    3.60
  -3  -8   0    5.30    2.20
  -3  -8   0    6.00    2.50
  -3  -8   0    4.50    2.40
   3   8   0    7.50    4.80
   3   8   0    3.00    2.80
  -4  -8   0   19.80    5.60
  -4  -8   0   20.30    3.30
   4   8   0   44.70    9.10
   5  -9   0   20.50    4.80
  -5   9   0   20.50    4.30
   4  -9   0   -0.20    4.00
  -4   9   0    2.70    3.20
   3  -9   0   11.10    2.90
   3  -9   0    7.40    3.60
  -3   9   0  -11.40    6.50
  -3   9   0    3.40    2.70
   2  -9   0    2.10    2.80
   2  -9   0    1.70    2.40
   2  -9   0    1.80    2.90
  -2   9   0    6.50    5.20
   1  -9   0   17.90    2.70
   1  -9   0   14.30    2.90
  -1   9   0   25.70    5.10
  -1   9   0    9.90    5.10
   0  -9   0   18.10    3.10
   0  -9   0   12.70    2.20
   0  -9   0   17.60    2.80
   0   9   0    9.30    3.40
   0   9   0   16.00    5.50
  -1  -9   0   39.20    3.70
  -1  -9   0   30.90    4.10
  -1  -9   0   33.80    3.90
   1   9   0   25.50    7.10
   1   9   0   31.90    6.40
  -2  -9   0    7.40    2.70
  -2  -9   0    6.10    2.50
  -2  -9   0    3.70    2.40
   2   9   0   -2.60    4.60
   2   9   0   -0.60    3.80
  -3  -9   0   13.70    2.90
  -3  -9   0   12.90    2.70
  -3  -9   0   21.00    3.30
   3   9   0    9.80    5.30
  -4  -9   0   -0.40    3.00
   4   9   0    1.30    5.10
   4 -10   0    6.80    4.60
  -4  10   0  -17.90    8.50
   3 -10   0    3.40    3.90
   2 -10   0    6.10    3.50
   2 -10   0    1.80    2.70
  -2  10   0    6.90    6.20
   1 -10   0    1.00    2.70
   1 -10   0    4.60    3.10
  -1  10   0   -7.60    5.70
  -1  10   0    5.30    3.80
   0 -10   0   12.70    3.10
   0 -10   0   13.60    3.30
   0 -10   0    8.10    2.90
   0  10   0    4.70    5.60
   0  10   0    3.30    3.80
  -1 -10   0   -0.90    2.40
  -1 -10   0    3.30    2.80
  -1 -10   0    1.30    2.90
   1  10   0    2.20    4.70
   1  10   0   -0.60    4.20
  -2 -10   0   -0.40    2.60
  -2 -10   0    1.10    2.40
  -2 -10   0    2.30    2.90
   2  10   0  -13.60    4.70
  -3 -10   0   18.70    3.30
  -3 -10   0   23.00    3.80
   3  10   0   23.30    6.50
   3 -11   0    1.60    4.40
  -3  11   0  -14.30    9.10
   2 -11   0   -0.70    3.10
   2 -11   0   -1.40    3.70
   1 -11   0   11.10    3.30
   1 -11   0    6.60    3.70
  -1  11   0   -0.70    6.60
   0 -11   0    9.00    3.40
   0 -11   0   12.50    3.60
   0  11   0   -2.10    5.50
  -1 -11   0    1.20    3.10
  -1 -11   0    1.90    3.00
  -1 -11   0    1.70    2.40
   1  11   0  -13.80    4.70
   1  11   0   -3.90    5.40
  -2 -11   0    5.60    2.80
  -2 -11   0    6.10    3.10
  -2 -11   0    4.10    3.10
   2  11   0   -2.60    5.20
   2  11   0   -4.10    6.00
  -3 -11   0   -4.90    2.90
   3  11   0    6.10    6.20
   2 -12   0   -5.30    4.10
  -2  12   0    2.60    8.00
   1 -12   0    1.70    3.70
   1 -12   0    2.40    4.00
  -1  12   0   -4.00    8.30
   0 -12   0    7.60    3.70
   0 -12   0    1.90    3.60
   0  12   0   -1.80    7.10
  -1 -12   0   -0.20    3.60
  -1 -12   0   -0.60    3.20
  -2 -12   0    6.60    3.40
  -2 -12   0    8.10    3.10
   2  12   0   -3.40    8.20
   2  12   0  -12.10    5.30
   0 -13   1   -1.60    5.20
   0 -13   1    1.60    3.70
   1 -13   1   39.60    6.10
   2  12  -1   -7.40    5.60
  -2 -12   1   -2.50    3.00
  -2 -12   1    5.20    3.30
  -2 -12   1    4.30    3.00
   1  12  -1   -8.60    4.80
   1  12  -1   -4.70    5.90
  -1 -12   1    1.80    3.40
  -1 -12   1    3.30    3.30
   0  12  -1   -5.20    5.90
   0 -12   1   -0.70    3.60
   0 -12   1   -1.10    3.50
  -1  12  -1    1.40    7.30
   1 -12   1   17.00    4.20
   1 -12   1   20.60    4.10
  -2  12  -1   -0.20    6.90
   2 -12   1   -7.40    3.20
   2 -12   1   -2.30    4.10
   3  11  -1    5.00    6.20
  -3 -11   1    2.20    3.30
  -3 -11   1    1.20    3.00
   2  11  -1  -10.60    4.80
   2  11  -1   -7.20    5.00
  -2 -11   1   -0.80    2.90
  -2 -11   1    4.30    2.70
  -2 -11   1    9.10    3.20
   1  11  -1  -13.30    4.30
   1  11  -1   -3.90    5.10
  -1 -11   1    9.00    3.20
  -1 -11   1    9.50    3.10
  -1 -11   1    4.90    2.50
   0  11  -1  120.89    8.00
   0  11  -1  107.69   11.20
   0 -11   1  105.69    6.30
   0 -11   1  106.79    6.30
  -1  11  -1   35.70    9.30
  -1  11  -1   45.00    7.50
   1 -11   1   41.40    4.70
   1 -11   1   31.40    5.40
   2 -11   1    4.60    3.90
   2 -11   1    5.60    3.20
   3 -11   1    9.30    4.30
   3 -11   1   -2.40    3.20
  -4  11  -1  -14.20    8.90
  -4 -10   1    7.10    4.40
   3  10  -1    2.20    5.20
  -3 -10   1   10.50    3.00
  -3 -10   1    6.40    2.90
  -3 -10   1    5.80    3.10
   2  10  -1   -4.60    4.30
   2  10  -1   -7.80    4.00
  -2 -10   1    2.80    2.40
  -2 -10   1    5.90    2.80
  -2 -10   1    2.70    2.90
  -1 -10   1   31.00    4.40
  -1 -10   1   33.20    4.50
  -1 -10   1   28.20    3.50
   0  10  -1   45.00    6.00
   0  10  -1   32.20    8.70
   0 -10   1   41.30    4.70
   0 -10   1   34.90    4.60
  -1  10  -1    4.30    5.00
  -1  10  -1    1.30    3.40
   1 -10   1    0.30    2.60
   1 -10   1    4.00    3.20
  -2  10  -1   -9.00    5.80
   2 -10   1    6.50    3.20
   2 -10   1    6.80    3.50
   2 -10   1    6.30    2.80
   3 -10   1   -2.80    3.00
   3 -10   1    3.20    3.80
   4 -10   1    0.80    4.20
   4   9  -1    7.70    5.90
  -4  -9   1    0.70    2.80
  -4  -9   1    2.60    2.90
   3   9  -1   -5.60    4.20
  -3  -9   1    0.80    2.70
  -3  -9   1    2.70    2.60
  -3  -9   1   -4.70    2.40
   2   9  -1   -1.10    3.90
   2   9  -1   -7.60    3.30
  -2  -9   1    2.30    2.50
  -2  -9   1    3.40    2.40
  -2  -9   1    2.40    2.20
   1   9  -1  183.98   10.20
   1   9  -1  189.98    8.90
  -1  -9   1  200.68    6.90
  -1  -9   1  191.78    6.40
  -1  -9   1  196.78    7.00
   0   9  -1   38.60    5.80
   0   9  -1   37.50    7.30
   0  -9   1   33.80    3.20
   0  -9   1   45.00    4.00
   0  -9   1   33.00    3.90
  -1   9  -1   -2.40    4.30
   1  -9   1    0.50    2.40
   1  -9   1    1.40    2.10
  -2   9  -1   17.50    5.20
   2  -9   1    9.80    3.00
   2  -9   1    9.60    3.10
   2  -9   1   10.50    2.70
  -3   9  -1    2.30    2.70
   3  -9   1    5.30    3.50
   3  -9   1    7.60    3.00
   3  -9   1    8.00    3.10
  -4   9  -1   19.00    3.60
   4  -9   1   11.40    4.10
  -5   9  -1    1.70    3.90
   5  -9   1    2.20    4.30
   4   8  -1   40.20    9.40
  -4  -8   1   13.10    2.80
  -4  -8   1   11.60    3.00
   3   8  -1   -4.70    3.90
  -3  -8   1    2.10    2.30
  -3  -8   1   -1.40    2.20
  -3  -8   1    0.60    2.10
   2   8  -1    0.70    3.00
   2   8  -1   -7.40    3.60
  -2  -8   1   -1.60    2.20
  -2  -8   1   -1.90    2.00
  -2  -8   1    3.00    2.00
   1   8  -1   23.10    5.10
   1   8  -1   27.40    6.40
  -1  -8   1   23.60    3.40
  -1  -8   1   25.60    3.20
  -1  -8   1   21.80    2.90
   0   8  -1   15.30    4.60
   0   8  -1   22.10    3.40
   0  -8   1   29.20    3.00
   0  -8   1   28.40    2.60
   0  -8   1   23.50    3.20
   1  -8   1   22.90    3.20
   1  -8   1   24.90    4.00
   1  -8   1   23.50    2.90
  -2   8  -1   -7.90    4.00
  -2   8  -1   -1.70    1.90
   2  -8   1   -1.10    2.30
   2  -8   1    1.40    2.40
   2  -8   1    1.80    2.00
  -3   8  -1    7.20    2.70
  -3   8  -1    7.30    4.60
   3  -8   1    3.40    3.20
   3  -8   1    4.00    2.90
  -4   8  -1   15.50    5.50
  -4   8  -1   22.30    3.80
   4  -8   1   12.70    3.90
   4  -8   1   28.40    5.10
   4  -8   1   14.50    3.30
  -5   8  -1   -1.50    3.90
   5  -8   1    2.10    4.00
   5   7  -1    4.60    4.70
  -5  -7   1    2.40    3.00
   4   7  -1   -2.50    3.90
  -4  -7   1    3.50    2.10
  -4  -7   1    3.90    2.50
  -4  -7   1   -0.70    2.20
   3   7  -1   -2.10    2.00
   3   7  -1    7.20    3.50
  -3  -7   1    2.60    2.00
  -3  -7   1    0.90    1.90
  -3  -7   1    0.90    2.10
   2   7  -1  357.36   11.60
  -2  -7   1  344.37   10.00
  -2  -7   1  355.16    9.90
  -2  -7   1  371.46   10.00
   1   7  -1   17.70    2.80
   1   7  -1   17.00    3.50
  -1  -7   1   21.40    2.60
  -1  -7   1   20.70    2.40
  -1  -7   1   19.70    2.70
   0   7  -1   54.99    5.20
   0   7  -1   49.80    4.10
   0  -7   1   46.40    3.10
   0  -7   1   45.10    2.70
   0  -7   1   43.20    2.40
  -1   7  -1    7.00    2.80
  -1   7  -1    7.20    1.40
   1  -7   1    5.00    1.20
   1  -7   1    6.50    1.90
   1  -7   1    4.70    2.00
   1  -7   1    5.30    1.50
  -2   7  -1   35.50    5.60
  -2   7  -1   43.90    3.10
   2  -7   1   35.10    3.10
   2  -7   1   32.20    3.70
   2  -7   1   38.50    3.40
  -3   7  -1   -1.60    2.40
  -3   7  -1   -0.50    3.70
   3  -7   1    3.90    2.30
   3  -7   1   -1.00    2.60
   3  -7   1    2.30    2.60
  -4   7  -1   35.00    4.90
  -4   7  -1   27.20    5.30
   4  -7   1   33.20    4.90
   4  -7   1   34.30    5.60
   4  -7   1   32.50    4.40
  -5   7  -1    5.00    3.80
   5  -7   1    4.10    4.00
   5  -7   1    3.70    4.10
   5   6  -1    9.10    4.40
  -5  -6   1    5.20    2.80
  -5  -6   1    6.80    2.90
   4   6  -1    0.20    3.60
  -4  -6   1    3.50    2.20
  -4  -6   1    5.00    2.20
  -4  -6   1    4.40    2.10
   3   6  -1   19.90    3.40
   3   6  -1   22.10    3.80
  -3  -6   1   28.80    3.00
  -3  -6   1   21.70    3.20
  -3  -6   1   28.00    2.70
   2   6  -1   52.79    4.30
   2   6  -1   56.49    4.50
  -2  -6   1   60.79    3.00
  -2  -6   1   57.99    2.90
  -2  -6   1   61.89    3.10
   1   6  -1  260.17    8.00
   1   6  -1  252.77    8.80
   1   6  -1  232.08    6.90
  -1  -6   1  262.07    6.90
  -1  -6   1  247.78    7.20
  -1  -6   1  232.88    6.90
   0   6  -1   24.40    1.90
   0   6  -1   36.00    4.30
   0  -6   1   25.40    1.80
   0  -6   1   28.50    2.50
   0  -6   1   26.90    2.00
  -1   6  -1   24.10    3.90
  -1   6  -1   16.30    1.90
  -1   6  -1   15.60    1.80
   1  -6   1   17.70    1.50
   1  -6   1   21.30    2.30
   1  -6   1   18.50    2.00
   1  -6   1   17.10    2.60
  -2   6  -1   25.20    4.50
  -2   6  -1   19.60    2.60
   2  -6   1   20.50    3.10
   2  -6   1   22.00    2.40
   2  -6   1   18.50    2.80
  -3   6  -1   76.59    4.50
   3  -6   1   86.59    5.40
   3  -6   1   89.89    4.50
   3  -6   1   91.99    4.20
  -4   6  -1   11.90    4.10
  -4   6  -1   12.80    3.20
   4  -6   1    5.10    3.40
   4  -6   1   12.00    3.40
   4  -6   1   11.00    2.40
  -5   6  -1    6.10    3.70
   5  -6   1   -1.30    3.80
   5  -6   1    5.70    3.80
   6  -6   1    1.10    4.50
  -6  -5   1    7.10    3.10
   5   5  -1    1.80    3.70
  -5  -5   1    3.20    2.50
  -5  -5   1    5.40    2.50
   4   5  -1    6.70    3.30
  -4  -5   1    4.50    2.00
  -4  -5   1    5.90    2.10
   3   5  -1  205.58    7.20
   3   5  -1  221.78    8.30
  -3  -5   1  211.78    6.50
  -3  -5   1  204.18    6.50
  -3  -5   1  219.78    6.70
   2   5  -1  105.39    4.90
   2   5  -1  100.09    4.70
   2   5  -1   96.89    3.50
  -2  -5   1  105.59    3.70
  -2  -5   1  108.89    3.70
  -2  -5   1  101.19    3.80
   1   5  -1   51.69    3.90
   1   5  -1   45.80    3.40
   1   5  -1   48.10    2.30
  -1  -5   1   52.19    2.30
  -1  -5   1   49.90    2.60
  -1  -5   1   52.99    2.30
   0   5  -1  344.57    9.00
   0   5  -1  353.36   10.40
   0  -5   1  350.06    9.70
   0  -5   1  347.27    9.30
   0  -5   1  345.07    9.00
   0  -5   1  359.36    8.90
  -1   5  -1   77.89    2.90
  -1   5  -1   80.89    4.60
  -1   5  -1   79.89    2.80
   1  -5   1   80.89    3.50
   1  -5   1   73.79    2.40
   1  -5   1   84.69    2.90
   1  -5   1   84.69    3.30
  -2   5  -1   29.60    2.20
  -2   5  -1   37.80    4.10
  -2   5  -1   33.50    2.50
   2  -5   1   32.50    2.30
   2  -5   1   35.50    3.00
   2  -5   1   32.70    2.50
  -3   5  -1   94.59    6.20
  -3   5  -1  102.49    4.40
   3  -5   1  106.29    4.50
   3  -5   1  107.29    5.30
   3  -5   1   98.49    4.00
  -4   5  -1    2.50    2.70
  -4   5  -1   -4.00    3.20
   4  -5   1    2.00    2.00
   4  -5   1    3.10    2.90
   4  -5   1    2.70    2.60
  -5   5  -1   11.60    3.60
   5  -5   1   11.20    3.60
   5  -5   1   10.10    4.10
  -6   5  -1   11.00    4.30
   6  -5   1    7.40    4.70
   6   4  -1   -2.20    4.10
  -6  -4   1   -0.80    2.70
   5   4  -1    3.50    3.40
  -5  -4   1    4.20    2.40
  -5  -4   1    3.50    2.30
   4   4  -1    9.20    1.90
   4   4  -1    8.40    2.90
  -4  -4   1    7.20    1.50
  -4  -4   1    8.80    2.00
  -4  -4   1    6.60    2.00
   3   4  -1   30.20    4.10
  -3  -4   1   34.90    2.60
  -3  -4   1   31.00    2.50
  -3  -4   1   27.00    1.90
  -3  -4   1   31.60    2.40
   2   4  -1  243.38    7.30
   2   4  -1  250.07    7.60
   2   4  -1  239.78    6.60
  -2  -4   1  235.08    6.60
  -2  -4   1  234.88    6.70
  -2  -4   1  243.18    6.70
   1   4  -1   12.50    2.10
   1   4  -1   20.00    1.60
   1   4  -1   14.50    2.10
  -1  -4   1   18.20    1.80
  -1  -4   1   21.60    1.70
  -1  -4   1   19.70    1.70
   0   4  -1  467.45   11.80
   0   4  -1  466.05   12.70
   0  -4   1  468.35   12.00
   0  -4   1  472.65   12.30
   0  -4   1  490.85   11.80
   0  -4   1  471.85   11.70
  -1   4  -1   20.40    3.20
  -1   4  -1   14.20    1.60
  -1   4  -1   17.50    1.50
   1  -4   1   20.30    2.00
   1  -4   1   16.40    1.00
   1  -4   1   19.30    1.60
   1  -4   1   19.90    2.20
  -2   4  -1  269.47    8.60
  -2   4  -1  249.48    7.30
  -2   4  -1  261.17    7.20
   2  -4   1  276.77    7.90
   2  -4   1  273.97    7.20
   2  -4   1  275.57    7.40
  -3   4  -1   48.40    3.20
  -3   4  -1   55.99    4.60
  -3   4  -1   51.59    2.20
  -3   4  -1   48.60    2.70
   3  -4   1   53.19    3.10
   3  -4   1   53.19    3.80
   3  -4   1   52.09    2.80
  -4   4  -1   -2.60    2.80
  -4   4  -1    1.80    2.20
   4  -4   1   -1.70    1.70
   4  -4   1   -0.10    2.40
   4  -4   1    5.00    2.70
  -5   4  -1    5.70    3.30
   5  -4   1    6.20    3.70
   5  -4   1    7.80    3.20
  -6   4  -1   -0.60    3.70
   6  -4   1    0.30    4.30
   6   3  -1    4.10    4.30
  -6  -3   1    3.20    2.50
   5   3  -1    4.60    3.80
   5   3  -1    1.40    3.10
  -5  -3   1    0.50    2.10
  -5  -3   1    4.10    2.10
  -5  -3   1   -0.80    1.60
   4   3  -1   66.19    3.50
   4   3  -1   61.09    4.70
  -4  -3   1   60.79    3.10
  -4  -3   1   58.19    3.60
  -4  -3   1   60.89    3.40
   3   3  -1   11.00    1.90
   3   3  -1   15.80    3.20
  -3  -3   1   14.10    1.60
  -3  -3   1   14.50    2.00
  -3  -3   1   12.90    2.00
   2   3  -1   54.29    2.20
   2   3  -1   55.49    3.20
   2   3  -1   51.19    2.60
  -2  -3   1   53.89    2.40
  -2  -3   1   55.09    2.40
  -2  -3   1   52.09    2.40
  -2  -3   1   56.29    2.00
   1   3  -1  874.11   21.90
   1   3  -1  945.91   22.60
   1   3  -1  873.71   22.50
  -1  -3   1  911.21   22.00
  -1  -3   1  931.81   22.00
  -1  -3   1  897.31   22.10
   0   3  -1   19.80    2.40
   0   3  -1   18.30    1.30
   0  -3   1   16.40    1.90
   0  -3   1   17.70    1.20
   0  -3   1   18.30    1.30
   0  -3   1   18.90    1.60
   0  -3   1   19.60    1.20
  -1   3  -1  617.04   15.40
  -1   3  -1  635.74   15.50
  -1   3  -1  640.84   16.30
   1  -3   1  626.04   15.80
   1  -3   1  638.64   15.40
   1  -3   1  626.14   15.60
  -2   3  -1  478.25   12.40
  -2   3  -1  492.65   11.90
  -2   3  -1  503.45   13.40
  -2   3  -1  479.95   12.40
   2  -3   1  505.25   12.40
   2  -3   1  489.05   12.90
   2  -3   1  476.35   12.30
  -3   3  -1    2.20    2.20
  -3   3  -1    1.60    0.80
  -3   3  -1    3.90    1.60
  -3   3  -1    2.20    1.30
   3  -3   1    2.90    1.60
   3  -3   1    2.40    1.70
   3  -3   1    1.40    1.20
  -4   3  -1   17.00    4.50
  -4   3  -1   16.10    2.50
   4  -3   1   12.00    2.10
   4  -3   1   18.60    3.20
   4  -3   1   19.80    4.20
  -5   3  -1   27.70    4.40
   5  -3   1   26.20    4.20
   5  -3   1   26.20    5.90
  -6   3  -1    2.90    3.40
   6  -3   1   -0.20    4.30
   6   2  -1    1.90    4.10
  -6  -2   1    3.50    2.60
  -6  -2   1    0.30    2.40
   5   2  -1    9.70    2.90
   5   2  -1    7.00    3.30
  -5  -2   1    9.00    2.20
  -5  -2   1    9.40    2.10
  -5  -2   1   10.40    2.50
   4   2  -1    8.90    2.10
   4   2  -1    3.70    2.10
  -4  -2   1    4.60    1.60
  -4  -2   1    6.70    1.80
  -4  -2   1    5.20    1.60
   3   2  -1  190.28    5.60
   3   2  -1  178.08    6.40
   3   2  -1  186.58    5.50
  -3  -2   1  193.08    5.60
  -3  -2   1  195.98    5.40
  -3  -2   1  181.98    5.50
   2   2  -1  144.59    5.20
   2   2  -1  151.88    4.30
  -2  -2   1  150.78    4.30
  -2  -2   1  150.18    4.30
  -2  -2   1  147.79    4.10
  -2  -2   1  148.09    4.40
   1   2  -1   86.79    3.20
   1   2  -1   85.89    2.50
   1   2  -1   77.19    2.90
  -1  -2   1   85.69    2.60
  -1  -2   1   86.39    2.50
  -1  -2   1   80.79    2.60
  -1  -2   1   79.19    2.50
   0   2  -1 1419.06   34.80
   0   2  -1 1449.35   34.40
   0  -2   1 1445.36   34.50
   0  -2   1 1432.56   34.30
   0  -2   1 1415.86   34.60
   0  -2   1 1404.76   34.20
   0  -2   1 1470.75   34.40
  -1   2  -1 2073.09   50.69
  -1   2  -1 2208.48   51.29
  -1   2  -1 2170.88   50.69
   1  -2   1 2128.49   50.69
   1  -2   1 2015.70   51.19
   1  -2   1 2126.89   50.69
  -2   2  -1    4.00    0.70
  -2   2  -1    4.30    1.00
  -2   2  -1    4.40    1.70
  -2   2  -1    5.00    1.20
   2  -2   1    5.20    1.30
   2  -2   1    2.10    1.00
   2  -2   1    7.20    1.20
  -3   2  -1    4.40    1.50
  -3   2  -1    5.40    1.00
  -3   2  -1    3.40    1.20
  -3   2  -1    3.30    2.10
   3  -2   1    7.90    1.50
   3  -2   1    4.70    1.30
   3  -2   1    4.90    1.70
  -4   2  -1    6.80    2.60
  -4   2  -1   10.10    1.50
  -4   2  -1    9.00    2.10
   4  -2   1   10.40    2.10
   4  -2   1    6.70    1.60
   4  -2   1    7.40    2.50
  -5   2  -1    2.50    2.60
   5  -2   1    3.40    3.30
   5  -2   1    2.60    2.50
  -6   2  -1    3.20    3.10
   6  -2   1   -5.70    4.00
   6   1  -1    2.70    4.30
  -6  -1   1   -0.70    2.40
  -6  -1   1   -1.50    2.60
   5   1  -1  122.19    5.70
   5   1  -1  131.49    7.30
  -5  -1   1  120.89    5.10
  -5  -1   1  120.49    5.10
  -5  -1   1  113.69    5.00
   4   1  -1    6.40    2.00
   4   1  -1    4.60    2.10
  -4  -1   1    5.00    1.60
  -4  -1   1    6.70    1.60
  -4  -1   1    5.20    1.60
   3   1  -1  174.78    5.20
   3   1  -1  169.18    5.90
   3   1  -1  172.48    5.10
  -3  -1   1  170.18    5.20
  -3  -1   1  176.68    5.10
  -3  -1   1  171.88    5.10
   2   1  -1    1.60    1.00
   2   1  -1    0.10    1.20
   2   1  -1    3.20    0.90
  -2  -1   1    0.70    0.90
  -2  -1   1    1.30    0.90
  -2  -1   1    1.10    0.90
   1   1  -1 2482.95   62.29
   1   1  -1 2542.25   61.09
  -1  -1   1 2598.24   61.19
  -1  -1   1 2634.84   61.69
  -1  -1   1 2653.83   61.49
  -1  -1   1 2415.26   60.99
  -1  -1   1 2524.85   61.19
   0   1  -1   96.79    2.50
   0   1  -1  101.69    2.90
   0  -1   1  104.99    2.80
   0  -1   1  105.89    2.50
   0  -1   1   96.49    2.50
   0  -1   1  107.09    2.50
   0  -1   1  101.89    2.70
  -1   1  -1 1294.17   30.20
  -1   1  -1 1237.18   30.20
  -1   1  -1 1222.78   30.00
   1  -1   1 1252.77   30.50
   1  -1   1 1248.78   30.10
   1  -1   1 1254.87   30.10
   1  -1   1 1278.67   30.40
  -2   1  -1    8.90    1.60
  -2   1  -1   10.80    1.50
  -2   1  -1    8.40    1.10
   2  -1   1   10.90    1.30
   2  -1   1   10.60    2.20
   2  -1   1    8.10    1.90
   2  -1   1    7.60    1.40
  -3   1  -1  299.77    8.10
  -3   1  -1  292.87    7.70
  -3   1  -1  298.17    8.00
   3  -1   1  303.77    8.70
   3  -1   1  291.87    7.80
   3  -1   1  287.17    7.90
   3  -1   1  285.67    8.70
  -4   1  -1   45.10    2.60
  -4   1  -1   40.40    2.90
  -4   1  -1   52.09    3.30
   4  -1   1   39.50    3.00
   4  -1   1   41.40    4.00
   4  -1   1   40.90    2.80
  -5   1  -1   10.50    2.70
   5  -1   1    9.30    3.50
  -6   1  -1    1.10    2.90
   6  -1   1    6.10    4.40
   6   0  -1   12.40    4.60
  -6   0   1   14.60    3.30
   5   0  -1    9.10    2.60
   5   0  -1   11.40    3.40
  -5   0   1    6.30    2.00
  -5   0   1   11.40    2.40
  -5   0   1    7.90    2.10
   4   0  -1   87.79    4.80
   4   0  -1   84.19    4.00
  -4   0   1   82.39    3.60
  -4   0   1   85.49    3.50
  -4   0   1   81.19    3.80
   3   0  -1    1.10    0.90
   3   0  -1   -0.40    1.30
   3   0  -1   -0.30    1.30
  -3   0   1   -1.40    1.00
  -3   0   1   -1.30    1.10
  -3   0   1   -0.70    1.30
   2   0  -1  179.88    5.50
   2   0  -1  186.08    5.10
   2   0  -1  185.28    5.20
  -2   0   1  184.28    5.10
  -2   0   1  194.08    5.20
  -2   0   1  190.38    5.00
   1   0  -1    2.50    0.60
   1   0  -1    4.30    0.90
   1   0  -1    2.40    0.80
  -1   0   1    4.80    0.90
  -1   0   1    4.40    0.70
  -1   0   1    3.70    0.70
   0   0  -1  284.17    6.70
   0   0  -1  284.17    6.80
   0   0   1  247.78    6.80
   0   0   1  306.77    6.80
   0   0   1  304.27    6.70
   0   0   1  247.98    6.70
   0   0   1  292.17    7.00
  -1   0  -1  573.44   14.20
  -1   0  -1  576.84   14.20
  -1   0  -1  586.34   14.20
   1   0   1  610.14   14.60
   1   0   1  587.74   14.60
   1   0   1  578.24   14.20
  -2   0  -1  569.34   14.20
  -2   0  -1  582.44   14.40
  -2   0  -1  581.14   14.30
   2   0   1  579.64   14.20
   2   0   1  565.34   14.90
   2   0   1  574.14   14.30
   2   0   1  594.34   14.80
  -3   0  -1   29.20    2.00
  -3   0  -1   29.80    2.10
  -3   0  -1   26.20    2.00
   3   0   1   28.50    2.70
   3   0   1   30.60    2.00
   3   0   1   29.30    2.70
   3   0   1   27.20    2.00
  -4   0  -1    9.10    1.90
  -4   0  -1    6.90    1.60
  -4   0  -1    4.70    1.60
   4   0   1    3.80    2.10
   4   0   1    8.80    1.80
   4   0   1    7.40    1.70
  -5   0  -1    6.70    2.30
  -5   0  -1    5.00    2.10
   5   0   1    7.10    3.30
  -6   0  -1    2.40    2.60
   6   0   1    1.10    4.20
   6  -1  -1   31.20    6.90
  -6   1   1   35.00    5.20
   5  -1  -1    2.00    3.10
   5  -1  -1   -1.10    2.50
  -5   1   1    4.00    2.30
  -5   1   1    2.20    1.80
   4  -1  -1    3.50    1.70
   4  -1  -1    5.70    2.20
   4  -1  -1    4.20    1.90
  -4   1   1    7.00    2.00
  -4   1   1    2.20    1.60
  -4   1   1    3.10    1.50
   3  -1  -1  144.49    4.50
   3  -1  -1  148.59    5.20
   3  -1  -1  153.08    4.70
  -3   1   1  149.19    4.70
  -3   1   1  145.89    4.60
  -3   1   1  149.49    4.40
   2  -1  -1 1437.16   36.40
   2  -1  -1 1493.45   36.10
   2  -1  -1 1489.65   36.10
  -2   1   1 1507.95   35.90
  -2   1   1 1545.05   36.10
  -2   1   1 1498.95   36.10
   1  -1  -1 1784.22   42.50
   1  -1  -1 1746.03   42.40
   1  -1  -1 1786.12   42.40
  -1   1   1 1768.52   42.30
  -1   1   1 1752.02   42.40
  -1   1   1 1753.32   42.50
  -1   1   1 1805.12   42.40
   0  -1  -1    3.80    0.70
   0  -1  -1    3.40    0.50
   0  -1  -1    4.00    0.60
   0   1   1    2.60    0.80
   0   1   1    3.30    0.50
   0   1   1    4.30    0.80
   0   1   1    3.30    0.50
  -1  -1  -1  759.92   18.90
  -1  -1  -1  773.22   19.00
  -1  -1  -1  789.32   18.90
   1   1   1  791.02   19.00
   1   1   1  786.02   19.40
   1   1   1  797.22   19.30
  -2  -1  -1  446.46   11.10
  -2  -1  -1  436.66   11.20
  -2  -1  -1  440.86   11.10
   2   1   1  434.96   11.60
   2   1   1  446.96   11.70
   2   1   1  436.46   10.90
   2   1   1  438.56   11.10
  -3  -1  -1   16.90    1.90
  -3  -1  -1   16.90    1.90
  -3  -1  -1   16.90    1.90
   3   1   1   19.40    2.30
   3   1   1   16.90    1.90
   3   1   1   19.10    1.70
   3   1   1   17.00    2.50
  -4  -1  -1    7.40    1.80
  -4  -1  -1    9.40    1.80
  -4  -1  -1    9.00    1.80
   4   1   1    7.80    2.30
   4   1   1    9.80    2.00
   4   1   1    8.80    1.80
  -5  -1  -1    2.60    2.20
  -5  -1  -1    4.70    2.20
   5   1   1    8.60    3.40
  -6  -1  -1   -2.00    2.30
   6   1   1   -3.80    4.10
   6  -2  -1    4.00    4.30
  -6   2   1    4.10    3.10
   5  -2  -1   20.10    3.80
   5  -2  -1   18.50    3.20
  -5   2   1   18.70    3.00
   4  -2  -1    1.70    2.20
   4  -2  -1    1.20    1.50
   4  -2  -1   -0.30    2.00
  -4   2   1   -0.30    2.00
  -4   2   1    1.40    1.40
  -4   2   1    0.10    1.40
   3  -2  -1   47.20    3.10
   3  -2  -1   45.50    2.70
   3  -2  -1   37.00    2.20
  -3   2   1   37.70    2.00
  -3   2   1   43.00    2.40
  -3   2   1   44.00    2.70
   2  -2  -1   20.80    2.00
   2  -2  -1   17.50    1.60
   2  -2  -1   19.00    1.90
  -2   2   1   18.70    1.90
  -2   2   1   13.80    2.50
  -2   2   1   18.00    1.60
  -2   2   1   21.70    1.30
   1  -2  -1 6008.20  136.69
   1  -2  -1 5410.76  136.99
   1  -2  -1 5840.82  136.99
  -1   2   1 5501.75  136.09
  -1   2   1 5749.42  136.79
  -1   2   1 5721.43  136.59
   0  -2  -1  111.39    3.10
   0  -2  -1  110.39    3.10
   0  -2  -1  109.79    3.10
   0   2   1  109.19    3.00
   0   2   1  109.69    3.30
   0   2   1  115.59    3.10
   0   2   1  109.39    4.00
  -1  -2  -1    6.30    0.80
  -1  -2  -1    4.80    1.00
  -1  -2  -1    4.80    0.90
  -1  -2  -1    6.10    0.90
   1   2   1    4.60    1.20
   1   2   1    3.70    1.20
   1   2   1    4.80    0.90
  -2  -2  -1  102.99    3.40
  -2  -2  -1  104.59    3.20
  -2  -2  -1  103.39    3.20
  -2  -2  -1  103.89    3.40
   2   2   1  109.59    4.20
   2   2   1  103.89    3.40
   2   2   1  102.69    3.90
  -3  -2  -1   43.90    2.50
  -3  -2  -1   37.10    2.40
  -3  -2  -1   44.00    2.20
   3   2   1   41.00    2.20
   3   2   1   39.20    2.90
   3   2   1   41.00    2.40
   3   2   1   41.00    3.10
  -4  -2  -1    6.40    1.70
  -4  -2  -1    5.40    1.80
  -4  -2  -1    5.50    1.70
   4   2   1    4.20    1.70
   4   2   1    4.00    2.20
  -5  -2  -1    0.80    2.10
  -5  -2  -1    2.90    1.90
   5   2   1   -0.60    3.10
  -6  -2  -1    0.80    2.30
  -6  -2  -1    0.20    2.50
   6   2   1    3.10    4.50
   6  -3  -1    2.60    4.20
   6  -3  -1   -0.90    3.80
  -6   3   1   -1.40    3.20
   5  -3  -1    3.50    3.30
   5  -3  -1    0.00    3.00
  -5   3   1    2.60    2.90
   4  -3  -1    7.70    1.90
   4  -3  -1   10.20    2.50
   4  -3  -1    9.30    2.60
  -4   3   1    8.80    2.40
  -4   3   1    7.40    1.80
  -4   3   1    7.10    1.40
   3  -3  -1    2.70    1.30
   3  -3  -1    5.50    1.70
   3  -3  -1    3.30    1.60
  -3   3   1    2.60    1.20
  -3   3   1   -2.10    1.90
  -3   3   1    4.50    1.00
  -3   3   1    3.20    1.70
   2  -3  -1   84.49    3.00
   2  -3  -1   80.39    3.20
   2  -3  -1   82.39    3.20
  -2   3   1   81.39    2.50
  -2   3   1   77.79    2.90
  -2   3   1   77.39    4.00
  -2   3   1   80.59    3.20
   1  -3  -1 1779.62   41.70
   1  -3  -1 1734.73   41.50
   1  -3  -1 1759.72   41.80
   1  -3  -1 1689.53   41.80
  -1   3   1 1729.13   41.70
  -1   3   1 1750.42   42.40
  -1   3   1 1694.13   41.60
   0  -3  -1   97.29    3.00
   0  -3  -1   96.19    2.90
   0  -3  -1  100.19    3.10
   0   3   1   97.19    2.70
   0   3   1   98.89    3.40
   0   3   1   97.39    4.20
   0   3   1   95.59    3.00
  -1  -3  -1  137.69    3.70
  -1  -3  -1  141.29    4.00
  -1  -3  -1  142.69    4.10
  -1  -3  -1  137.09    4.10
   1   3   1  139.69    4.10
   1   3   1  151.38    4.80
   1   3   1  141.69    5.00
  -2  -3  -1   37.40    1.80
  -2  -3  -1   37.00    1.80
  -2  -3  -1   37.60    2.00
   2   3   1   36.40    2.10
   2   3   1   45.20    3.30
   2   3   1   36.50    2.80
  -3  -3  -1   14.90    2.10
  -3  -3  -1   14.80    1.70
  -3  -3  -1   17.00    2.10
   3   3   1   15.80    2.60
   3   3   1   17.30    2.10
   3   3   1   12.30    2.90
  -4  -3  -1    0.90    1.40
  -4  -3  -1    1.00    1.80
  -4  -3  -1   -0.90    1.60
   4   3   1    1.70    2.20
   4   3   1    0.60    2.10
  -5  -3  -1    1.60    1.80
  -5  -3  -1   -0.50    2.10
   5   3   1   -0.10    3.10
  -6  -3  -1    0.00    2.50
   6   3   1    3.20    4.40
   6  -4  -1   15.70    4.60
   6  -4  -1   18.00    4.40
  -6   4   1   16.00    4.10
   5  -4  -1    5.60    3.40
   5  -4  -1    2.00    3.40
  -5   4   1    5.80    3.20
   4  -4  -1   24.40    4.40
   4  -4  -1   17.20    3.00
   4  -4  -1   14.80    2.40
  -4   4   1   19.00    2.70
   3  -4  -1  116.29    5.00
   3  -4  -1  109.89    4.20
   3  -4  -1  116.09    4.50
  -3   4   1  114.89    4.40
  -3   4   1  119.09    3.60
  -3   4   1  125.19    5.70
  -3   4   1  109.89    4.20
   2  -4  -1 1586.94   37.80
   2  -4  -1 1543.25   37.90
   2  -4  -1 1558.74   37.20
   2  -4  -1 1541.65   37.60
  -2   4   1 1498.85   37.60
  -2   4   1 1539.05   37.60
  -2   4   1 1580.84   38.60
   1  -4  -1  151.28    4.70
   1  -4  -1  155.28    4.50
   1  -4  -1  153.48    4.10
   1  -4  -1  152.98    4.60
  -1   4   1  134.19    6.60
  -1   4   1  159.98    4.50
  -1   4   1  157.48    4.40
   0  -4  -1   49.40    2.10
   0  -4  -1   50.29    2.20
   0  -4  -1   50.79    2.30
   0   4   1   48.60    2.20
   0   4   1   49.30    3.90
   0   4   1   55.09    2.90
   0   4   1   49.99    1.80
  -1  -4  -1   21.60    1.80
  -1  -4  -1   22.00    1.80
  -1  -4  -1   22.50    1.70
   1   4   1   22.90    2.70
   1   4   1   20.60    1.80
   1   4   1   19.00    2.90
  -2  -4  -1  446.46   11.40
  -2  -4  -1  451.95   11.60
  -2  -4  -1  444.66   11.50
  -2  -4  -1  436.86   11.10
   2   4   1  438.36   11.50
   2   4   1  444.16   12.50
   2   4   1  459.95   12.40
  -3  -4  -1    0.80    1.40
  -3  -4  -1    3.80    1.70
  -3  -4  -1    1.30    1.10
  -3  -4  -1    1.30    1.20
   3   4   1    2.60    2.20
   3   4   1    4.80    1.70
   3   4   1    1.30    1.70
  -4  -4  -1   51.69    3.50
  -4  -4  -1   53.89    3.80
  -4  -4  -1   50.49    2.90
   4   4   1   53.69    5.10
  -5  -4  -1    0.80    2.30
   5   4   1    4.60    3.50
  -6  -4  -1    9.20    3.00
   6   4   1    9.20    6.20
   6  -5  -1    1.60    4.30
  -6   5   1    3.00    3.90
   5  -5  -1   -1.50    3.60
   5  -5  -1    1.60    3.60
  -5   5   1   -0.70    3.30
   4  -5  -1    2.40    2.90
   4  -5  -1    4.40    2.80
  -4   5   1   -7.00    3.50
  -4   5   1    9.80    2.70
   3  -5  -1    3.20    2.10
   3  -5  -1    0.50    1.60
   3  -5  -1    1.40    1.50
   3  -5  -1    1.00    2.00
  -3   5   1   -2.70    2.80
  -3   5   1    0.00    1.60
  -3   5   1    1.20    1.90
   2  -5  -1  165.38    5.20
   2  -5  -1  154.18    5.00
   2  -5  -1  154.28    5.30
  -2   5   1  156.68    5.00
  -2   5   1  152.58    4.90
  -2   5   1  161.88    6.90
   1  -5  -1    4.60    1.40
   1  -5  -1    6.20    1.60
   1  -5  -1    6.60    1.00
   1  -5  -1    5.40    1.20
  -1   5   1    8.10    1.30
  -1   5   1    5.30    1.30
  -1   5   1    8.40    2.50
   0  -5  -1    9.80    1.60
   0  -5  -1    5.80    1.40
   0  -5  -1    5.80    1.20
   0   5   1    2.90    2.70
   0   5   1    3.20    1.70
   0   5   1    5.40    1.20
   0   5   1    7.80    1.10
  -1  -5  -1   30.90    2.20
  -1  -5  -1   28.70    2.20
  -1  -5  -1   32.20    2.10
   1   5   1   29.90    3.50
   1   5   1   34.10    2.20
   1   5   1   36.60    3.30
  -2  -5  -1    0.40    1.20
  -2  -5  -1    0.60    1.40
  -2  -5  -1    0.10    1.20
   2   5   1   -0.60    1.20
   2   5   1   -1.10    1.90
   2   5   1   -0.90    1.70
  -3  -5  -1   18.20    2.20
  -3  -5  -1   21.10    2.60
  -3  -5  -1   14.70    2.10
   3   5   1   19.10    3.40
   3   5   1   20.20    4.60
  -4  -5  -1    2.10    2.20
  -4  -5  -1    1.10    1.80
   4   5   1    4.70    3.00
  -5  -5  -1    1.80    2.60
   5   5   1    2.00    3.70
   6  -6  -1   -1.90    4.40
  -6   6   1    4.80    6.60
   5  -6  -1    4.00    4.00
  -5   6   1    6.30    3.60
   4  -6  -1   69.09    5.50
   4  -6  -1   71.49    6.10
  -4   6   1   77.29    7.70
  -4   6   1   75.19    5.00
   3  -6  -1  369.46   11.10
   3  -6  -1  379.06   10.60
   3  -6  -1  377.86   10.80
  -3   6   1  369.66   10.60
  -3   6   1  384.76   12.90
   2  -6  -1   -0.10    1.60
   2  -6  -1    2.10    1.70
   2  -6  -1    3.10    1.10
  -2   6   1    2.80    1.40
  -2   6   1    1.80    3.10
  -2   6   1    1.10    1.70
   1  -6  -1   22.90    1.80
   1  -6  -1   23.80    2.80
   1  -6  -1   27.90    2.40
   1  -6  -1   21.90    2.50
  -1   6   1   24.00    2.10
  -1   6   1   23.10    2.20
  -1   6   1   18.10    3.50
   0  -6  -1    1.60    1.50
   0  -6  -1    1.90    1.20
   0  -6  -1    0.60    1.30
   0   6   1    0.40    1.20
   0   6   1    0.10    1.90
   0   6   1   -0.80    2.80
  -1  -6  -1   18.10    2.00
  -1  -6  -1   17.50    2.20
  -1  -6  -1   21.30    2.20
   1   6   1   22.80    4.00
   1   6   1   20.40    2.30
   1   6   1   20.00    4.10
  -2  -6  -1   -1.00    1.50
  -2  -6  -1    2.20    1.50
  -2  -6  -1    1.60    1.80
   2   6   1   -1.70    2.50
   2   6   1    0.90    2.20
  -3  -6  -1    4.80    1.70
  -3  -6  -1    3.70    1.90
  -3  -6  -1    5.90    2.10
   3   6   1    2.70    2.30
   3   6   1   28.90    6.30
  -4  -6  -1   -0.70    2.20
   4   6   1    2.40    3.50
  -5  -6  -1    6.90    2.90
   5   6   1    3.20    4.10
   5  -7  -1    0.20    4.30
  -5   7   1    3.90    3.60
   4  -7  -1    2.20    3.70
  -4   7   1    1.30    3.00
   3  -7  -1    9.70    2.80
   3  -7  -1   11.40    2.70
  -3   7   1    9.70    2.60
  -3   7   1   -3.20    5.40
   2  -7  -1   36.60    3.50
   2  -7  -1   34.00    3.70
   2  -7  -1   36.70    3.20
  -2   7   1   38.50    3.10
   1  -7  -1   14.20    2.70
   1  -7  -1   16.60    2.00
   1  -7  -1   20.50    3.40
   1  -7  -1    8.90    1.80
  -1   7   1   16.90    2.20
   0  -7  -1    0.70    1.60
   0  -7  -1    3.50    1.80
   0  -7  -1    2.80    1.70
   0   7   1   -5.60    2.30
  -1  -7  -1    4.40    1.90
  -1  -7  -1    7.40    1.80
  -1  -7  -1    9.40    2.10
   1   7   1    4.70    3.00
   1   7   1    2.20    2.80
  -2  -7  -1   17.60    2.90
  -2  -7  -1   15.00    2.60
  -2  -7  -1   18.10    2.40
   2   7   1   11.40    3.10
   2   7   1    4.10    4.00
  -3  -7  -1    7.00    1.90
  -3  -7  -1    7.20    2.50
  -3  -7  -1    7.80    2.30
   3   7   1    3.60    2.60
   3   7   1    8.90    4.20
  -4  -7  -1    9.20    2.80
   4   7   1   11.80    4.10
  -5  -7  -1    1.90    3.00
   5   7   1    1.80    4.40
   5  -8  -1   15.90    4.70
  -5   8   1   17.20    4.10
   4  -8  -1  146.89    7.40
  -4   8   1  145.89    6.50
  -4   8   1  137.09   11.20
   3  -8  -1    8.90    2.80
   3  -8  -1    7.70    3.30
  -3   8   1    5.30    2.60
  -3   8   1    2.80    6.00
   2  -8  -1    1.00    2.40
   2  -8  -1    0.90    2.50
   2  -8  -1   -1.10    2.40
  -2   8   1   -8.30    4.70
  -2   8   1   -0.50    2.10
   1  -8  -1   14.30    2.40
   1  -8  -1   12.20    2.50
   1  -8  -1   16.80    2.40
  -1   8   1   22.70    4.40
  -1   8   1    8.00    4.40
   0  -8  -1    1.70    2.30
   0  -8  -1   -1.40    1.70
   0  -8  -1    1.70    2.10
   0   8   1    3.00    2.70
   0   8   1   -3.10    4.10
  -1  -8  -1   14.20    2.30
  -1  -8  -1   11.20    2.40
  -1  -8  -1    9.90    2.40
   1   8   1   -3.30    3.70
   1   8   1    9.40    4.10
  -2  -8  -1    3.60    2.20
  -2  -8  -1    4.90    2.20
  -2  -8  -1    4.20    2.40
   2   8   1    6.50    3.90
   2   8   1    0.20    3.10
  -3  -8  -1    4.50    2.40
  -3  -8  -1    3.00    2.40
   3   8   1    0.50    2.70
   3   8   1    4.30    4.80
  -4  -8  -1   10.80    3.10
   4   8   1   14.70    4.70
   5  -9  -1    0.70    4.80
  -5   9   1    1.00    3.70
   4  -9  -1    2.80    4.20
  -4   9   1    7.20    3.40
   3  -9  -1   15.70    3.90
  -3   9   1   11.30    3.00
  -3   9   1    9.20    6.90
   2  -9  -1   14.50    2.60
   2  -9  -1   12.10    3.30
  -2   9   1    8.50    5.80
   1  -9  -1    4.40    2.30
   1  -9  -1    2.00    2.80
  -1   9   1    0.10    3.10
  -1   9   1    2.00    5.40
   0  -9  -1    3.00    2.50
   0  -9  -1    1.60    2.10
   0  -9  -1    2.40    2.80
   0   9   1    2.80    3.30
   0   9   1    4.50    4.60
  -1  -9  -1    3.50    2.60
  -1  -9  -1    3.30    2.30
  -1  -9  -1    6.50    2.60
   1   9   1   -2.30    3.70
   1   9   1   -4.40    4.00
  -2  -9  -1   -3.90    2.60
  -2  -9  -1    1.20    2.40
  -2  -9  -1   -2.70    2.30
   2   9   1   -0.90    3.80
   2   9   1   -3.80    4.60
  -3  -9  -1    2.10    2.60
   3   9   1   -0.60    3.20
   3   9   1   17.50    6.00
  -4  -9  -1    1.70    3.10
   4   9   1    4.80    4.80
   4 -10  -1   -4.60    4.50
  -4  10   1  -18.20    8.90
   3 -10  -1   -0.60    3.90
   2 -10  -1    2.00    3.50
  -2  10   1    1.20    6.70
   1 -10  -1   12.80    2.80
   1 -10  -1    7.80    3.30
  -1  10   1   16.00    7.50
   0 -10  -1    3.00    2.30
   0 -10  -1   -0.80    2.80
   0 -10  -1   -1.60    3.00
   0  10   1    5.00    5.70
  -1 -10  -1   -0.30    2.90
  -1 -10  -1    3.20    2.90
  -1 -10  -1   -0.70    2.40
   1  10   1  -10.40    4.40
   1  10   1   -3.30    4.30
  -2 -10  -1   -1.00    2.60
  -2 -10  -1   -0.20    2.60
  -2 -10  -1    5.10    4.70
   2  10   1  -12.20    5.50
   2  10   1   -2.60    4.30
  -3 -10  -1    6.70    2.90
   3  10   1    9.50    6.00
   3 -11  -1    1.90    4.40
  -3  11   1    4.60    9.60
   2 -11  -1    1.20    3.80
  -2  11   1    6.00    8.60
   1 -11  -1    0.40    3.60
  -1  11   1   -3.70    7.30
   0 -11  -1    4.30    4.70
   0 -11  -1    3.30    3.50
   0  11   1    2.20    6.20
  -1 -11  -1    4.10    2.70
  -1 -11  -1    4.10    3.30
   1  11   1    2.00    5.90
  -2 -11  -1    3.80    3.80
  -2 -11  -1    3.10    2.80
   2  11   1   -5.80    4.80
   2  11   1    2.10    5.70
   2 -12  -1    6.60    4.30
  -2  12   1   -2.80    9.00
   1 -12  -1    2.30    3.90
  -1  12   1   -4.00    7.00
   0 -12  -1    2.30    3.70
   0  12   1   -4.80    6.50
  -1 -12  -1    1.60    3.40
   1  12   1  -12.00    6.30
   1  13  -2   -9.60    5.80
  -1 -13   2   -0.70    3.30
   0  13  -2   -2.40    7.10
   0 -13   2   10.10    4.30
   0 -13   2   -1.80    3.60
   1 -13   2   36.30    5.90
   2  12  -2  -12.20    5.50
  -2 -12   2   -0.10    2.70
  -2 -12   2    1.50    3.30
  -2 -12   2    4.30    3.30
   1  12  -2    1.80    6.00
   1  12  -2  -11.70    4.80
  -1 -12   2    7.10    3.40
  -1 -12   2    8.50    3.30
   0  12  -2   -2.10    6.40
   0  12  -2    5.20    3.90
   0 -12   2    6.60    3.60
   0 -12   2    4.80    3.70
  -1  12  -2   38.50   10.20
   1 -12   2   53.59    5.90
   1 -12   2   54.59    5.40
  -2  12  -2   -5.40    6.70
   2 -12   2    3.20    3.30
   2 -12   2    3.30    4.30
   3 -12   2    4.50    3.70
   3  11  -2   -0.80    5.70
  -3 -11   2    3.80    3.20
  -3 -11   2   10.70    3.20
  -3 -11   2    8.30    3.40
   2  11  -2  -10.10    4.90
  -2 -11   2   -2.70    2.80
  -2 -11   2    3.00    2.70
  -2 -11   2    2.40    3.00
   1  11  -2   -4.40    4.60
   1  11  -2    0.80    4.10
  -1 -11   2    3.50    3.00
  -1 -11   2   -0.30    2.90
   0  11  -2   87.49    7.40
   0  11  -2   64.99    9.60
   0 -11   2   68.29    5.70
   0 -11   2   73.49    5.60
  -1  11  -2    2.20    5.10
  -1  11  -2    6.80    3.90
   1 -11   2    5.30    3.50
   1 -11   2    4.00    2.80
  -2  11  -2  -16.50    6.20
   2 -11   2   -3.20    3.00
   2 -11   2   -0.60    3.50
   2 -11   2    1.20    3.80
   3 -11   2    2.80    4.30
   3 -11   2   -2.50    3.20
  -4  11  -2   -2.70    8.30
   4  10  -2    8.40    7.30
  -4 -10   2    4.90    3.10
  -4 -10   2    2.80    3.30
   3  10  -2  -11.70    4.90
  -3 -10   2    3.20    2.90
  -3 -10   2   -0.40    2.90
  -3 -10   2   -0.70    2.60
   2  10  -2   -3.30    4.00
   2  10  -2   -7.80    3.90
  -2 -10   2    2.10    2.70
  -2 -10   2    1.00    2.40
  -2 -10   2    2.70    2.70
   1  10  -2    9.90    4.00
   1  10  -2    4.20    4.90
  -1 -10   2   15.10    2.80
  -1 -10   2   13.70    2.40
  -1 -10   2   12.70    3.10
   0  10  -2  103.69    8.70
   0  10  -2  116.99    7.50
   0 -10   2  118.19    5.70
   0 -10   2   97.69    5.80
  -1  10  -2   10.50    5.00
   1 -10   2    2.40    3.20
   1 -10   2    3.60    2.50
  -2  10  -2   -1.30    5.90
   2 -10   2    1.40    3.40
   2 -10   2    2.60    3.20
   2 -10   2    5.40    2.60
  -3  10  -2    3.60    6.40
   3 -10   2    6.50    3.20
   3 -10   2   10.10    4.00
   3 -10   2    9.10    3.70
   4 -10   2    2.20    3.50
   4 -10   2    5.70    4.20
   4   9  -2   42.10   10.10
  -4  -9   2   10.30    3.00
  -4  -9   2   13.30    3.10
  -4  -9   2    4.50    4.90
   3   9  -2    1.40    4.30
  -3  -9   2    3.60    2.50
  -3  -9   2    4.60    2.60
  -3  -9   2    0.90    2.60
   2   9  -2   -3.80    3.30
   2   9  -2   10.10    3.90
  -2  -9   2    6.70    2.30
  -2  -9   2    6.00    2.50
  -2  -9   2   -0.60    2.30
   1   9  -2  144.19    8.20
   1   9  -2  141.39    9.50
  -1  -9   2  147.69    5.70
  -1  -9   2  141.49    6.00
  -1  -9   2  144.79    5.20
   0   9  -2   24.80    5.50
   0   9  -2   19.70    4.50
   0  -9   2   23.10    2.70
   0  -9   2   31.10    3.60
   0  -9   2   21.40    3.10
  -1   9  -2    7.40    4.20
   1  -9   2    2.90    2.80
   1  -9   2    5.50    2.10
   1  -9   2    4.80    2.70
  -2   9  -2   25.80    7.20
   2  -9   2   13.50    3.20
   2  -9   2   12.30    3.10
   2  -9   2   15.00    2.70
  -3   9  -2    8.00    2.90
   3  -9   2    3.90    3.40
   3  -9   2    2.20    2.80
   3  -9   2    3.20    3.20
  -4   9  -2    7.20    3.60
  -4   9  -2    5.70    6.10
   4  -9   2   10.40    4.10
   4  -9   2    5.50    3.90
  -5   9  -2   -2.80    4.20
   5  -9   2    1.70    4.00
   5   8  -2    5.70    6.20
  -5  -8   2    5.20    3.40
  -5  -8   2    5.10    3.00
   4   8  -2    3.40    5.30
  -4  -8   2   -0.90    2.30
  -4  -8   2    1.10    2.70
  -4  -8   2    1.10    2.50
   3   8  -2    9.70    4.00
  -3  -8   2   10.60    2.60
  -3  -8   2   16.20    2.70
  -3  -8   2   14.70    2.70
   2   8  -2    1.40    2.90
   2   8  -2    4.60    3.30
  -2  -8   2   12.10    2.20
  -2  -8   2    9.10    2.30
  -2  -8   2   16.20    2.40
   1   8  -2  287.47   11.10
   1   8  -2  291.87   10.00
  -1  -8   2  279.17    8.10
  -1  -8   2  275.67    8.60
  -1  -8   2  289.07    8.30
   0   8  -2   -2.30    3.50
   0   8  -2   -1.00    2.40
   0  -8   2    0.70    1.40
   0  -8   2    1.80    2.00
   0  -8   2   -1.00    1.60
   1  -8   2    2.40    2.10
   1  -8   2    2.40    1.60
   1  -8   2    3.20    2.30
  -2   8  -2    5.00    2.10
  -2   8  -2   -6.30    3.50
   2  -8   2    5.00    2.50
   2  -8   2    4.50    2.50
   2  -8   2   -0.40    1.90
  -3   8  -2    4.50    4.20
  -3   8  -2    3.00    2.70
   3  -8   2    3.20    3.00
   3  -8   2    2.90    2.90
  -4   8  -2   -0.40    3.30
  -4   8  -2    3.20    4.90
   4  -8   2    4.20    3.50
   4  -8   2   -4.00    3.40
   4  -8   2    2.20    2.80
  -5   8  -2    2.40    4.10
   5  -8   2    1.10    4.10
   5  -8   2    1.80    3.90
   5   7  -2   25.80    5.60
  -5  -7   2   22.90    3.30
  -5  -7   2   16.40    3.40
   4   7  -2    8.00    4.60
  -4  -7   2    2.10    2.30
  -4  -7   2    2.20    2.30
  -4  -7   2    3.80    2.30
   3   7  -2   29.10    6.50
  -3  -7   2   22.50    2.70
  -3  -7   2   17.10    2.50
  -3  -7   2   14.80    2.40
   2   7  -2  559.74   16.40
   2   7  -2  550.64   16.40
  -2  -7   2  592.64   14.80
  -2  -7   2  568.24   14.70
  -2  -7   2  562.94   15.00
   1   7  -2   47.40    4.80
   1   7  -2   48.40    4.20
  -1  -7   2   44.80    2.60
  -1  -7   2   44.00    3.20
  -1  -7   2   43.20    2.80
   0   7  -2   17.70    4.40
   0  -7   2    6.40    1.90
   0  -7   2   10.00    1.40
   0  -7   2    7.10    1.40
  -1   7  -2   80.09    5.50
  -1   7  -2   72.09    2.90
   1  -7   2   69.89    4.10
   1  -7   2   68.19    3.60
   1  -7   2   65.89    3.10
   1  -7   2   66.99    2.50
  -2   7  -2   22.70    5.30
  -2   7  -2   18.60    2.30
   2  -7   2   20.90    3.10
   2  -7   2   23.90    3.60
  -3   7  -2   54.59    4.10
  -3   7  -2   41.00    6.70
   3  -7   2   53.89    4.40
   3  -7   2   49.50    3.90
   3  -7   2   45.90    5.10
  -4   7  -2   -2.50    4.40
  -4   7  -2    1.90    3.20
   4  -7   2    2.20    3.10
   4  -7   2    0.40    3.50
   4  -7   2    2.70    2.50
  -5   7  -2    2.90    3.90
   5  -7   2    0.00    4.20
   5  -7   2    1.10    3.50
   5   6  -2    4.90    4.40
  -5  -6   2   -0.30    2.40
  -5  -6   2    1.90    2.60
   4   6  -2   -0.80    3.60
  -4  -6   2   -2.00    2.00
  -4  -6   2    1.10    2.10
  -4  -6   2   -0.50    2.10
   3   6  -2    0.50    2.60
   3   6  -2   -1.50    1.90
  -3  -6   2    1.30    1.70
  -3  -6   2    0.00    1.70
  -3  -6   2   -0.70    1.70
   2   6  -2  240.78    8.10
   2   6  -2  223.58    7.90
  -2  -6   2  236.48    6.80
  -2  -6   2  227.08    6.90
  -2  -6   2  241.68    6.80
   1   6  -2   18.00    3.10
   1   6  -2   21.00    3.50
  -1  -6   2   15.60    1.90
  -1  -6   2   16.10    1.80
  -1  -6   2   15.00    2.30
   0   6  -2    0.80    1.00
   0   6  -2    2.50    2.10
   0  -6   2    2.40    1.10
   0  -6   2    1.10    1.50
   0  -6   2    2.60    1.20
   0  -6   2    3.20    1.50
   0  -6   2    0.70    1.10
  -1   6  -2    4.50    2.30
  -1   6  -2    2.00    1.20
  -1   6  -2    3.10    1.10
   1  -6   2    3.90    1.10
   1  -6   2    5.10    1.70
   1  -6   2    2.80    0.80
   1  -6   2    2.90    1.60
  -2   6  -2   12.80    2.90
  -2   6  -2   13.70    1.90
   2  -6   2   13.50    2.10
   2  -6   2    9.40    2.10
   2  -6   2   12.90    1.70
  -3   6  -2   23.10    2.90
  -3   6  -2   21.20    4.00
   3  -6   2   26.90    4.40
   3  -6   2   35.40    3.60
   3  -6   2   25.60    3.10
  -4   6  -2    1.40    3.90
  -4   6  -2   -1.70    2.90
   4  -6   2    0.50    3.30
   4  -6   2    0.80    2.90
   4  -6   2   -1.00    2.10
  -5   6  -2    6.20    3.80
   5  -6   2   -0.10    4.00
   5  -6   2   -2.50    3.40
   6  -6   2    2.90    4.70
   6   5  -2    4.70    5.40
  -6  -5   2    5.90    3.00
   5   5  -2   -3.50    3.50
   5   5  -2    0.30    3.10
  -5  -5   2   -0.20    2.40
  -5  -5   2    1.30    2.40
   4   5  -2    3.70    3.20
  -4  -5   2   -0.10    1.90
  -4  -5   2    1.30    1.90
   3   5  -2  634.94   17.50
  -3  -5   2  629.34   16.20
  -3  -5   2  629.44   16.20
  -3  -5   2  621.04   16.30
   2   5  -2   10.70    2.20
   2   5  -2    7.00    1.70
  -2  -5   2   12.50    1.80
  -2  -5   2   11.60    1.50
  -2  -5   2   13.40    1.90
   1   5  -2    4.70    1.80
   1   5  -2    5.80    1.90
   1   5  -2    8.60    1.20
  -1  -5   2    8.30    1.30
  -1  -5   2    5.70    1.20
  -1  -5   2    8.90    1.40
  -1  -5   2    6.80    1.50
   0   5  -2   13.60    3.30
   0   5  -2   26.00    1.60
   0  -5   2   26.00    2.10
   0  -5   2   25.60    1.50
   0  -5   2   26.80    1.70
   0  -5   2   24.60    1.60
   0  -5   2   24.70    2.50
  -1   5  -2   90.69    3.00
  -1   5  -2   92.49    4.90
  -1   5  -2   87.29    3.00
   1  -5   2   82.69    2.50
   1  -5   2   88.09    3.40
   1  -5   2   91.59    3.80
   1  -5   2   96.69    3.40
  -2   5  -2   87.09    3.50
  -2   5  -2   85.39    3.20
  -2   5  -2   92.69    5.20
   2  -5   2   90.59    4.20
   2  -5   2   94.69    3.70
   2  -5   2   90.29    3.30
  -3   5  -2   34.30    3.20
  -3   5  -2   30.60    5.00
   3  -5   2   33.30    4.10
   3  -5   2   34.60    3.20
   3  -5   2   39.00    2.80
  -4   5  -2    5.10    2.70
  -4   5  -2    0.10    3.40
   4  -5   2    1.00    2.90
   4  -5   2    4.40    2.70
   4  -5   2    2.90    2.00
  -5   5  -2   18.70    3.90
   5  -5   2    9.20    4.10
   5  -5   2   13.60    3.50
  -6   5  -2   -1.30    4.00
   6  -5   2    4.20    4.70
   6   4  -2   -0.90    4.00
  -6  -4   2    3.30    2.70
   5   4  -2    1.70    2.40
   5   4  -2    0.10    3.30
  -5  -4   2   -1.50    2.20
  -5  -4   2   -0.70    2.10
   4   4  -2   -1.00    1.80
   4   4  -2    5.00    2.80
  -4  -4   2    2.40    1.70
  -4  -4   2    2.80    1.80
  -4  -4   2    4.40    1.40
   3   4  -2  590.04   16.30
  -3  -4   2  594.94   15.10
  -3  -4   2  574.54   15.00
  -3  -4   2  601.44   14.70
  -3  -4   2  578.54   15.20
   2   4  -2  414.36   11.30
   2   4  -2  389.36   10.30
  -2  -4   2  407.66   10.40
  -2  -4   2  401.56   10.30
  -2  -4   2  392.46   10.60
   1   4  -2  147.79    5.20
   1   4  -2  148.59    5.20
   1   4  -2  146.79    4.20
  -1  -4   2  153.08    4.30
  -1  -4   2  154.88    4.30
  -1  -4   2  146.69    4.20
  -1  -4   2  149.59    4.50
   0   4  -2   18.80    2.90
   0   4  -2   18.80    1.40
   0  -4   2   18.60    1.40
   0  -4   2   20.10    1.80
   0  -4   2   18.50    1.30
   0  -4   2   18.00    1.20
   0  -4   2   17.10    2.20
  -1   4  -2   85.79    2.90
  -1   4  -2   88.99    4.30
  -1   4  -2   85.49    2.90
   1  -4   2   90.89    2.90
   1  -4   2   88.89    3.20
   1  -4   2   89.99    3.60
   1  -4   2   91.69    3.00
  -2   4  -2    1.10    1.00
  -2   4  -2   -0.30    2.10
   2  -4   2    1.80    1.40
   2  -4   2    2.90    1.40
   2  -4   2    1.40    1.10
  -3   4  -2    2.70    2.60
  -3   4  -2    0.30    1.80
   3  -4   2    5.00    1.80
   3  -4   2    1.30    1.40
   3  -4   2    3.50    1.90
  -4   4  -2    0.50    2.30
  -4   4  -2   -3.40    3.00
   4  -4   2    2.40    2.60
   4  -4   2    0.90    2.30
   4  -4   2   -0.70    1.80
  -5   4  -2   14.10    3.40
   5  -4   2    9.70    3.90
   5  -4   2   19.00    4.00
  -6   4  -2   -1.10    3.90
   6  -4   2   -1.60    4.20
   6   3  -2   -0.70    3.80
  -6  -3   2    1.80    2.50
   5   3  -2    1.00    3.00
   5   3  -2   -0.90    2.60
  -5  -3   2   -1.10    2.10
  -5  -3   2    1.40    1.70
  -5  -3   2    0.70    2.00
   4   3  -2  669.23   17.20
   4   3  -2  668.23   18.50
  -4  -3   2  669.13   17.10
  -4  -3   2  652.73   17.10
  -4  -3   2  644.14   16.80
   3   3  -2    9.70    2.30
  -3  -3   2    9.00    1.20
  -3  -3   2    6.50    1.40
  -3  -3   2   10.80    1.50
   2   3  -2  146.39    4.30
   2   3  -2  153.78    5.30
  -2  -3   2  146.39    4.30
  -2  -3   2  148.89    4.50
  -2  -3   2  147.79    4.40
  -2  -3   2  144.59    4.00
   1   3  -2    8.90    1.40
   1   3  -2    8.10    1.30
   1   3  -2   11.40    2.10
  -1  -3   2    9.00    1.40
  -1  -3   2   11.40    1.50
  -1  -3   2   10.30    1.20
  -1  -3   2   10.00    1.20
   0   3  -2 1024.10   25.40
   0  -3   2 1027.10   25.20
   0  -3   2 1025.70   24.90
   0  -3   2  996.80   24.60
   0  -3   2 1019.80   24.60
   0  -3   2 1059.79   24.70
  -1   3  -2    7.60    1.90
  -1   3  -2    7.30    1.20
   1  -3   2    9.30    1.40
   1  -3   2   10.00    1.60
   1  -3   2    8.40    1.80
   1  -3   2   10.50    1.20
  -2   3  -2  132.29    5.30
  -2   3  -2  118.79    4.00
  -2   3  -2  124.19    3.80
   2  -3   2  120.39    4.50
   2  -3   2  122.69    3.80
   2  -3   2  124.79    3.90
  -3   3  -2    1.90    1.50
  -3   3  -2    1.50    1.30
  -3   3  -2    1.30    0.80
  -3   3  -2    0.70    2.40
   3  -3   2    1.30    1.30
   3  -3   2    3.00    1.60
   3  -3   2    2.00    1.70
  -4   3  -2  104.09    6.20
  -4   3  -2   96.79    4.60
   4  -3   2  101.79    4.40
   4  -3   2  103.89    4.30
   4  -3   2   97.29    5.70
  -5   3  -2    0.10    2.90
   5  -3   2    2.10    3.60
  -6   3  -2    1.30    3.60
   6  -3   2   -0.40    4.30
   6   2  -2   -1.40    3.90
  -6  -2   2    0.80    2.60
  -6  -2   2    1.70    2.40
   5   2  -2   26.60    3.50
   5   2  -2   24.50    3.90
  -5  -2   2   21.00    3.40
  -5  -2   2   22.80    3.40
  -5  -2   2   18.40    2.50
   4   2  -2  327.07    9.20
   4   2  -2  311.97   10.20
  -4  -2   2  321.77    9.10
  -4  -2   2  320.07    8.80
  -4  -2   2  312.77    9.00
   3   2  -2  158.38    4.90
   3   2  -2  146.59    4.60
   3   2  -2  152.08    5.60
  -3  -2   2  150.68    4.70
  -3  -2   2  150.48    4.70
  -3  -2   2  148.79    4.50
   2   2  -2  361.46    9.20
   2   2  -2  349.67   10.00
  -2  -2   2  368.66    9.10
  -2  -2   2  354.36    9.20
  -2  -2   2  365.06    9.30
  -2  -2   2  355.86    9.30
   1   2  -2  294.97    8.00
  -1  -2   2  295.67    7.30
  -1  -2   2  294.37    7.40
  -1  -2   2  295.37    7.40
  -1  -2   2  306.77    7.60
  -1  -2   2  295.87    7.70
   0   2  -2  295.77    8.20
   0   2  -2  291.97    7.50
   0  -2   2  321.17    7.50
   0  -2   2  313.57    7.70
   0  -2   2  298.77    7.50
   0  -2   2  312.07    8.00
   0  -2   2  313.57    7.50
  -1   2  -2  101.99    3.10
  -1   2  -2  102.89    3.00
   1  -2   2  107.59    3.10
   1  -2   2  104.39    3.00
   1  -2   2  103.09    4.00
   1  -2   2  101.89    3.00
   1  -2   2  100.99    3.50
  -2   2  -2   17.90    1.60
  -2   2  -2   15.20    1.80
  -2   2  -2   15.30    1.10
   2  -2   2   16.40    2.70
   2  -2   2   15.70    1.50
   2  -2   2   16.60    2.20
   2  -2   2   19.60    1.60
  -3   2  -2    2.30    0.90
  -3   2  -2    4.00    1.30
  -3   2  -2    0.70    1.40
   3  -2   2    2.60    1.30
   3  -2   2    2.60    1.60
   3  -2   2    2.30    1.20
  -4   2  -2   39.80    3.40
  -4   2  -2   37.90    4.80
  -4   2  -2   34.50    2.30
   4  -2   2   35.50    2.90
   4  -2   2   41.10    2.90
   4  -2   2   39.90    4.30
  -5   2  -2    6.40    2.70
   5  -2   2    0.90    3.30
  -6   2  -2    2.50    3.30
   6  -2   2   -0.20    4.30
   6   1  -2   -3.40    4.10
  -6  -1   2   -2.30    2.40
  -6  -1   2    0.40    2.50
   5   1  -2  275.77    9.00
   5   1  -2  278.67   10.30
  -5  -1   2  280.17    8.40
  -5  -1   2  258.67    8.40
  -5  -1   2  262.97    8.40
   4   1  -2    1.80    1.90
   4   1  -2    1.20    1.90
  -4  -1   2    0.70    1.50
  -4  -1   2   -1.50    1.30
  -4  -1   2   -0.60    1.40
   3   1  -2    7.20    1.70
   3   1  -2    8.80    1.50
   3   1  -2   10.50    1.60
  -3  -1   2    8.40    1.40
  -3  -1   2   10.00    1.40
  -3  -1   2   11.20    1.80
   2   1  -2  386.96   10.30
   2   1  -2  387.66    9.70
   2   1  -2  371.66    9.80
  -2  -1   2  382.66    9.70
  -2  -1   2  393.66    9.80
  -2  -1   2  384.06    9.80
   1   1  -2   68.69    2.70
  -1  -1   2   75.29    2.30
  -1  -1   2   74.49    2.50
  -1  -1   2   78.99    2.40
  -1  -1   2   78.49    2.20
  -1  -1   2   80.49    2.30
   0  -1   2 2527.15   60.99
   0  -1   2 2565.54   61.19
   0  -1   2 2543.95   61.59
   0  -1   2 2607.44   62.19
   0  -1   2 2533.75   61.09
  -1   1  -2  425.56   10.70
  -1   1  -2  423.16   10.50
  -1   1  -2  435.06   10.60
   1  -1   2  436.26   10.60
   1  -1   2  426.36   10.60
   1  -1   2  429.16   11.20
   1  -1   2  451.05   11.00
   1  -1   2  430.36   10.50
  -2   1  -2   10.30    1.50
  -2   1  -2   10.30    1.70
  -2   1  -2   10.60    1.10
   2  -1   2   10.50    2.30
   2  -1   2   11.00    2.00
   2  -1   2    9.60    1.30
   2  -1   2    9.10    1.40
  -3   1  -2  160.68    5.00
  -3   1  -2  158.48    4.90
  -3   1  -2  162.78    4.60
   3  -1   2  157.08    4.70
   3  -1   2  161.38    4.90
   3  -1   2  164.68    5.80
   3  -1   2  158.68    5.70
  -4   1  -2   18.60    2.80
  -4   1  -2   13.70    2.30
   4  -1   2   15.60    2.80
   4  -1   2   18.90    2.60
   4  -1   2   14.90    2.40
   4  -1   2   17.00    3.60
  -5   1  -2    0.60    2.40
   5  -1   2    1.10    3.10
  -6   1  -2   11.60    3.30
   6  -1   2   16.20    4.80
   6   0  -2    8.10    4.50
   6   0  -2    8.20    4.40
  -6   0   2    5.50    2.90
   5   0  -2   27.60    5.40
   5   0  -2   25.60    4.20
  -5   0   2   23.60    3.30
  -5   0   2   19.90    2.60
  -5   0   2   27.50    3.80
   4   0  -2   53.49    3.70
   4   0  -2   56.99    4.20
  -4   0   2   57.69    3.00
  -4   0   2   51.79    3.10
  -4   0   2   59.49    3.40
   3   0  -2   52.39    2.30
   3   0  -2   49.80    2.80
   3   0  -2   51.09    3.00
  -3   0   2   53.59    2.70
  -3   0   2   52.29    2.40
  -3   0   2   51.79    2.50
   2   0  -2   25.20    1.90
   2   0  -2   22.50    2.00
   2   0  -2   25.20    1.50
  -2   0   2   22.80    1.80
  -2   0   2   24.10    1.50
  -2   0   2   28.30    1.70
   1   0  -2  364.86    8.90
   1   0  -2  361.06    9.10
  -1   0   2  358.86    8.90
  -1   0   2  361.46    8.90
  -1   0   2  363.56    9.00
  -1   0   2  361.56    9.00
   0   0  -2   99.59    2.70
   0   0  -2  102.79    2.80
   0   0   2  105.49    3.20
   0   0   2  109.09    2.80
   0   0   2  106.19    2.70
   0   0   2  107.59    2.80
   0   0   2  104.49    2.70
  -1   0  -2  873.91   21.80
  -1   0  -2  888.21   21.80
  -1   0  -2  911.71   21.90
   1   0   2  892.01   21.80
   1   0   2  905.81   22.40
   1   0   2  952.90   22.20
  -2   0  -2    0.30    0.80
  -2   0  -2    0.50    1.10
  -2   0  -2    1.30    0.90
   2   0   2    1.30    1.20
   2   0   2   -0.10    0.80
   2   0   2   -0.70    1.20
  -3   0  -2    8.20    1.30
  -3   0  -2   11.80    1.60
  -3   0  -2    7.90    1.40
   3   0   2   10.30    1.30
   3   0   2    7.70    1.70
   3   0   2    8.90    2.50
   3   0   2    6.80    1.30
  -4   0  -2   13.30    1.80
  -4   0  -2   15.00    2.50
   4   0   2   14.80    1.90
   4   0   2   10.70    1.90
   4   0   2   10.80    2.40
   4   0   2   10.00    2.50
  -5   0  -2    6.70    2.10
  -5   0  -2    2.80    2.30
   5   0   2    2.20    3.20
  -6   0  -2    3.70    2.90
   6   0   2    2.90    4.30
   6  -1  -2  120.29    8.40
   6  -1  -2  125.09    6.80
  -6   1   2  118.89    6.20
   5  -1  -2    0.10    3.00
   5  -1  -2    4.20    2.90
  -5   1   2    5.30    2.50
  -5   1   2   -1.40    1.90
  -5   1   2    2.40    1.90
   4  -1  -2   16.20    3.00
   4  -1  -2   16.40    3.70
  -4   1   2   16.70    2.90
  -4   1   2   15.80    2.30
  -4   1   2   14.70    1.90
   3  -1  -2   13.40    2.40
   3  -1  -2   15.50    2.20
   3  -1  -2   14.30    1.70
  -3   1   2   17.70    2.30
  -3   1   2   13.50    1.70
  -3   1   2   16.90    1.80
   2  -1  -2    2.20    1.00
   2  -1  -2    3.90    1.00
   2  -1  -2    3.10    1.30
  -2   1   2    1.60    0.90
  -2   1   2    3.80    1.20
  -2   1   2    2.40    0.90
   1  -1  -2  190.78    4.80
   1  -1  -2  171.58    5.00
   1  -1  -2  184.48    4.80
  -1   1   2  195.68    4.90
  -1   1   2  185.88    5.30
  -1   1   2  187.38    4.80
  -1   1   2  179.78    4.90
   0  -1  -2  656.23   16.20
   0  -1  -2  730.73   16.20
   0  -1  -2  658.43   16.20
   0   1   2  603.54   16.10
   0   1   2  675.33   16.20
   0   1   2  682.63   16.20
   0   1   2  690.93   16.70
   0   1   2  671.73   16.20
  -1  -1  -2  154.58    4.20
  -1  -1  -2  155.58    4.20
  -1  -1  -2  153.78    4.20
   1   1   2  154.08    4.20
   1   1   2  155.28    4.60
   1   1   2  156.78    4.90
  -2  -1  -2  553.24   14.20
  -2  -1  -2  563.54   14.10
  -2  -1  -2  567.44   14.10
   2   1   2  579.04   14.90
   2   1   2  577.34   14.80
   2   1   2  568.14   14.20
  -3  -1  -2   16.70    1.90
  -3  -1  -2   21.30    1.90
  -3  -1  -2   18.20    2.00
   3   1   2   20.60    2.70
   3   1   2   17.50    1.70
   3   1   2   19.30    2.00
   3   1   2   18.30    2.50
  -4  -1  -2    5.70    1.80
  -4  -1  -2    3.00    1.60
   4   1   2    7.20    2.30
   4   1   2    6.20    2.10
   4   1   2    5.50    1.70
  -5  -1  -2   39.10    3.70
  -5  -1  -2   35.40    3.90
   5   1   2   36.60    5.90
  -6  -1  -2    4.70    2.80
   6   1   2    3.70    4.30
   6  -2  -2   32.70    7.10
   6  -2  -2   32.90    5.60
  -6   2   2   32.10    5.20
   5  -2  -2   46.90    4.80
   5  -2  -2   45.80    5.60
  -5   2   2   50.19    4.50
  -5   2   2   43.20    5.90
  -5   2   2   40.30    4.90
   4  -2  -2    0.90    2.10
   4  -2  -2    1.80    2.20
  -4   2   2    1.50    2.00
  -4   2   2    0.50    1.60
  -4   2   2   -0.10    1.40
   3  -2  -2  235.88    6.90
   3  -2  -2  231.38    7.20
   3  -2  -2  228.48    6.60
  -3   2   2  236.28    6.40
  -3   2   2  237.88    6.70
  -3   2   2  245.18    6.90
   2  -2  -2   91.09    3.00
   2  -2  -2   91.59    3.30
   2  -2  -2   92.59    3.30
  -2   2   2   90.59    3.10
  -2   2   2   88.99    3.20
  -2   2   2   92.59    2.90
   1  -2  -2   12.50    1.20
   1  -2  -2   12.40    1.30
   1  -2  -2   13.20    1.60
   1  -2  -2   15.30    1.30
  -1   2   2   12.80    1.30
  -1   2   2   15.50    2.30
  -1   2   2   13.00    1.50
   0  -2  -2  786.72   18.80
   0  -2  -2  801.62   18.80
   0  -2  -2  757.12   18.80
   0   2   2  775.92   18.80
   0   2   2  741.93   18.80
   0   2   2  786.62   19.50
   0   2   2  779.92   18.80
  -1  -2  -2  421.86   10.40
  -1  -2  -2  413.26   10.50
  -1  -2  -2  423.86   10.60
   1   2   2  421.36   10.50
   1   2   2  423.56   10.90
   1   2   2  416.86   11.30
  -2  -2  -2  312.87    8.30
  -2  -2  -2  324.77    8.40
  -2  -2  -2  312.57    8.20
   2   2   2  320.47    9.00
   2   2   2  306.47    9.10
   2   2   2  323.77    8.40
  -3  -2  -2    2.00    1.30
  -3  -2  -2    1.20    1.20
  -3  -2  -2   -0.50    1.30
   3   2   2    0.90    1.30
   3   2   2    0.50    1.60
   3   2   2    0.60    1.50
  -4  -2  -2    7.10    1.70
  -4  -2  -2    9.20    2.00
   4   2   2   12.00    2.80
   4   2   2    7.40    2.10
   4   2   2    8.30    2.50
  -5  -2  -2    3.00    2.20
  -5  -2  -2    4.50    2.10
   5   2   2    2.80    3.20
  -6  -2  -2    4.00    2.80
  -6  -2  -2   -0.10    2.50
   6   2   2    2.50    4.30
   6  -3  -2   -0.40    4.00
   6  -3  -2    0.50    3.90
  -6   3   2    2.30    3.50
   5  -3  -2   -3.30    3.10
   5  -3  -2    1.70    3.20
  -5   3   2    4.00    2.90
   4  -3  -2   15.30    2.70
   4  -3  -2   11.90    2.60
  -4   3   2   10.20    1.60
  -4   3   2   14.50    2.50
  -4   3   2   12.60    2.40
   3  -3  -2  136.79    4.40
   3  -3  -2  131.79    4.80
   3  -3  -2  134.19    5.00
  -3   3   2  134.59    4.70
  -3   3   2  121.79    5.80
  -3   3   2  129.79    4.40
  -3   3   2  131.09    4.00
   2  -3  -2  384.06   10.10
   2  -3  -2  387.66   10.10
   2  -3  -2  382.56    9.90
  -2   3   2  383.66   10.00
  -2   3   2  382.86   10.90
  -2   3   2  376.56    9.90
  -2   3   2  390.16    9.70
   1  -3  -2  165.18    4.40
   1  -3  -2  162.58    4.60
   1  -3  -2  159.18    4.70
  -1   3   2  165.28    4.60
  -1   3   2  158.68    4.60
  -1   3   2  164.98    5.70
   0  -3  -2  262.57    6.70
   0  -3  -2  258.17    6.70
   0  -3  -2  258.77    6.70
   0   3   2  259.77    7.80
   0   3   2  259.47    6.90
   0   3   2  249.58    6.50
   0   3   2  254.97    6.70
  -1  -3  -2 2798.02   66.59
  -1  -3  -2 2757.42   66.79
  -1  -3  -2 2764.12   66.69
  -1  -3  -2 2924.61   66.79
   1   3   2 2751.72   67.69
   1   3   2 2778.42   67.19
   1   3   2 2737.93   66.79
  -2  -3  -2    2.90    0.90
  -2  -3  -2    3.70    1.20
  -2  -3  -2    4.00    1.20
  -2  -3  -2    3.60    1.00
   2   3   2    2.30    1.50
   2   3   2    4.30    1.20
   2   3   2    3.50    1.60
  -3  -3  -2  120.49    4.30
  -3  -3  -2  113.69    4.10
  -3  -3  -2  118.39    3.90
   3   3   2  119.39    5.20
   3   3   2  117.19    5.20
   3   3   2  119.39    4.30
  -4  -3  -2   17.40    2.30
  -4  -3  -2   13.20    2.40
   4   3   2   13.00    2.80
  -5  -3  -2   -1.30    2.20
  -5  -3  -2    2.90    2.00
   5   3   2   -1.90    3.20
  -6  -3  -2    7.90    2.70
   6   3   2   14.00    4.80
   6  -4  -2    2.80    4.30
  -6   4   2    1.90    3.60
   5  -4  -2    2.00    3.30
   5  -4  -2    7.00    3.60
  -5   4   2    1.30    3.00
   4  -4  -2    9.70    2.70
   4  -4  -2    9.00    2.80
  -4   4   2   13.20    2.60
  -4   4   2   11.10    2.10
   3  -4  -2   12.40    2.20
   3  -4  -2    8.70    1.90
   3  -4  -2    9.10    1.70
  -3   4   2   13.40    3.00
  -3   4   2    9.70    2.00
  -3   4   2    8.00    1.60
   2  -4  -2    3.00    1.00
   2  -4  -2    1.30    1.20
   2  -4  -2    1.50    1.20
   2  -4  -2    1.30    1.50
  -2   4   2    5.80    2.40
  -2   4   2    1.50    1.40
  -2   4   2    2.40    1.10
   1  -4  -2   35.30    1.90
   1  -4  -2   38.80    2.20
   1  -4  -2   37.00    2.10
   1  -4  -2   35.20    2.30
  -1   4   2   43.30    4.10
  -1   4   2   41.40    2.10
  -1   4   2   39.20    2.10
   0  -4  -2  318.87    8.30
   0  -4  -2  310.67    8.20
   0  -4  -2  316.57    8.10
   0   4   2  337.27   10.10
   0   4   2  311.87    8.00
   0   4   2  315.67    8.20
   0   4   2  306.07    8.60
  -1  -4  -2  167.38    5.00
  -1  -4  -2  163.18    4.80
  -1  -4  -2  174.18    5.00
   1   4   2  175.18    5.80
   1   4   2  169.38    5.00
   1   4   2  169.48    6.20
  -2  -4  -2   19.90    1.50
  -2  -4  -2   18.50    2.00
  -2  -4  -2   19.60    1.60
  -2  -4  -2   21.60    2.20
   2   4   2   30.80    3.70
   2   4   2   22.10    3.00
   2   4   2   21.10    2.10
  -3  -4  -2   15.30    1.90
  -3  -4  -2   16.70    1.80
  -3  -4  -2   12.80    1.90
  -3  -4  -2   16.90    2.20
   3   4   2   14.30    3.20
   3   4   2   15.00    2.00
  -4  -4  -2    8.80    1.70
  -4  -4  -2   12.40    2.40
   4   4   2   13.40    3.10
  -5  -4  -2   -3.70    2.30
   5   4   2    3.00    3.40
  -6  -4  -2   10.00    3.00
   6  -5  -2    3.30    4.50
  -6   5   2    3.30    3.80
   5  -5  -2    6.90    3.90
  -5   5   2    3.70    3.30
   4  -5  -2   18.90    3.40
   4  -5  -2   19.90    4.80
  -4   5   2   15.40    2.90
   3  -5  -2  111.49    3.70
   3  -5  -2  105.99    4.40
   3  -5  -2  101.19    4.80
   3  -5  -2  111.89    5.00
  -3   5   2  108.39    4.50
   2  -5  -2   39.20    2.90
   2  -5  -2   39.80    2.10
   2  -5  -2   40.50    2.80
  -2   5   2   21.90    6.00
  -2   5   2   41.90    2.70
  -2   5   2   38.50    2.50
   1  -5  -2    4.50    1.50
   1  -5  -2    2.90    1.20
   1  -5  -2    1.30    1.30
   1  -5  -2    3.00    1.10
  -1   5   2    1.60    1.20
  -1   5   2    5.40    2.50
  -1   5   2    2.90    1.30
   0  -5  -2  890.01   21.60
   0  -5  -2  876.51   21.80
   0  -5  -2  854.21   21.70
   0   5   2  851.21   21.40
   0   5   2  944.81   22.10
   0   5   2  868.51   23.20
   0   5   2  874.41   21.70
  -1  -5  -2   42.60    2.30
  -1  -5  -2   42.00    2.40
  -1  -5  -2   37.10    2.50
   1   5   2   39.10    2.50
   1   5   2   44.10    3.70
   1   5   2   35.40    3.80
  -2  -5  -2   80.29    3.30
  -2  -5  -2   75.59    2.70
  -2  -5  -2   77.09    3.00
  -2  -5  -2   83.09    3.50
   2   5   2   77.69    5.40
   2   5   2   78.49    4.60
   2   5   2   77.79    3.40
  -3  -5  -2   96.89    4.40
  -3  -5  -2   96.49    4.10
  -3  -5  -2   90.69    3.70
   3   5   2  119.59    6.30
   3   5   2   94.19    5.30
  -4  -5  -2   10.20    2.40
   4   5   2    4.10    3.10
  -5  -5  -2    9.20    2.80
   5   5   2    6.00    3.80
   6  -6  -2    5.20    4.70
   5  -6  -2    6.80    4.20
  -5   6   2    7.30    3.50
   4  -6  -2   17.80    3.70
  -4   6   2   15.50    3.10
  -4   6   2   15.40    5.40
   3  -6  -2   34.70    3.50
   3  -6  -2   37.40    3.70
   3  -6  -2   34.80    4.00
  -3   6   2   26.00    5.30
  -3   6   2   36.80    3.50
   2  -6  -2    2.80    1.90
   2  -6  -2    2.70    1.70
   2  -6  -2   -1.30    1.60
   2  -6  -2    2.40    1.30
  -2   6   2   -3.60    1.70
  -2   6   2    0.10    1.60
  -2   6   2   -8.80    4.20
   1  -6  -2   90.79    3.70
   1  -6  -2   87.99    3.90
   1  -6  -2   89.99    3.20
  -1   6   2   90.29    3.40
  -1   6   2   86.09    3.60
  -1   6   2  111.29    6.80
   0  -6  -2   23.70    2.40
   0  -6  -2   20.10    2.00
   0  -6  -2   22.90    2.40
   0   6   2   20.70    2.50
   0   6   2   23.80    1.70
   0   6   2   29.60    5.50
   0   6   2   23.00    2.40
  -1  -6  -2   15.40    2.20
  -1  -6  -2   10.60    1.70
  -1  -6  -2   18.90    2.50
   1   6   2   16.40    2.50
   1   6   2   10.30    2.60
   1   6   2    8.00    2.70
  -2  -6  -2    1.10    1.60
  -2  -6  -2    3.20    1.60
  -2  -6  -2    1.50    1.70
   2   6   2   30.30    6.50
   2   6   2    5.00    2.50
  -3  -6  -2    2.00    1.90
  -3  -6  -2    0.40    1.90
   3   6   2    5.60    3.40
   3   6   2    2.20    2.40
  -4  -6  -2    4.30    2.40
   4   6   2    6.80    3.50
  -5  -6  -2   -2.30    2.60
   5   6   2    4.70    3.90
   5  -7  -2    5.50    4.30
  -5   7   2    8.00    3.60
   4  -7  -2   12.20    3.90
  -4   7   2   -3.80    7.00
  -4   7   2   18.20    3.20
   3  -7  -2   36.80    4.40
  -3   7   2   30.50    3.80
   2  -7  -2    4.00    2.40
   2  -7  -2    4.70    2.00
   2  -7  -2    9.00    1.60
   2  -7  -2    2.80    1.90
  -2   7   2    3.30    2.10
  -2   7   2    8.70    4.60
   1  -7  -2  110.49    4.40
   1  -7  -2  109.99    3.80
   1  -7  -2  107.29    4.60
  -1   7   2  105.29    3.90
  -1   7   2  106.19    8.40
  -1   7   2  102.69    4.40
  -1   7   2  117.79    5.30
   0  -7  -2    7.60    2.10
   0  -7  -2   10.80    1.80
   0  -7  -2    9.80    2.00
   0   7   2    8.00    2.10
   0   7   2    8.60    3.40
   0   7   2    8.80    2.50
  -1  -7  -2    5.80    2.10
  -1  -7  -2    3.10    1.90
  -1  -7  -2    2.30    1.80
   1   7   2    8.60    3.90
  -2  -7  -2   11.00    2.00
  -2  -7  -2    7.10    2.30
  -2  -7  -2   12.50    2.20
   2   7   2    4.90    2.90
   2   7   2    8.50    3.70
  -3  -7  -2    8.50    2.40
   3   7   2   11.30    4.00
   3   7   2    4.00    2.80
  -4  -7  -2   14.80    3.00
   4   7   2   30.90    6.80
   5   7   2    0.30    4.20
   5  -8  -2   17.50    4.90
  -5   8   2   18.90    3.90
   4  -8  -2   17.10    4.20
  -4   8   2   -4.30    7.60
  -4   8   2   29.50    4.60
   3  -8  -2    0.90    3.30
  -3   8   2   -6.70    6.30
  -3   8   2    0.70    2.70
   2  -8  -2   19.90    3.20
   2  -8  -2   23.90    3.60
  -2   8   2   14.60    6.50
  -2   8   2   19.30    3.40
   1  -8  -2    7.70    2.20
   1  -8  -2    4.60    2.50
   1  -8  -2    4.90    1.80
  -1   8   2    2.90    3.80
  -1   8   2   -1.90    5.90
   0  -8  -2   25.00    3.50
   0  -8  -2   25.70    3.10
   0  -8  -2   22.50    3.40
   0   8   2   11.30    3.30
   0   8   2   31.10    7.50
  -1  -8  -2    0.40    2.10
  -1  -8  -2    0.00    2.20
  -1  -8  -2    2.10    2.10
   1   8   2   -1.10    3.70
   1   8   2   -0.60    3.70
  -2  -8  -2    8.90    2.70
  -2  -8  -2   11.70    2.50
  -2  -8  -2    7.00    2.20
   2   8   2    5.70    4.00
   2   8   2    4.20    3.40
  -3  -8  -2   -2.00    2.40
   3   8   2    0.60    3.00
   3   8   2    4.40    4.20
  -4  -8  -2   -0.40    2.80
   4   8   2    6.40    4.40
   4  -9  -2    7.90    4.30
  -4   9   2  -11.30    9.00
  -4   9   2    2.40    3.40
   3  -9  -2   -0.10    3.70
  -3   9   2    2.50    2.80
  -3   9   2   -8.30    7.40
   2  -9  -2   39.30    4.80
  -2   9   2   29.60    7.60
   1  -9  -2    3.40    2.80
   1  -9  -2    4.90    2.50
   1  -9  -2    9.00    2.60
  -1   9   2   11.20    5.80
   0  -9  -2    1.80    2.60
   0  -9  -2    1.80    2.80
   0  -9  -2    2.50    2.20
   0   9   2   -2.60    4.40
  -1  -9  -2   10.90    2.80
  -1  -9  -2   12.10    2.70
  -1  -9  -2    8.40    2.50
   1   9   2    3.80    4.50
   1   9   2    2.00    4.20
  -2  -9  -2    1.60    2.60
  -2  -9  -2   -0.30    2.30
   2   9   2   -0.50    4.50
   2   9   2   -2.50    3.70
  -3  -9  -2    7.60    3.00
   3   9   2   59.49    9.50
   4   9   2    2.30    4.50
   4 -10  -2    0.70    4.60
  -4  10   2   -1.00   11.40
   3 -10  -2    3.20    4.10
  -3  10   2    2.30   10.30
   2 -10  -2    2.00    3.40
  -2  10   2    1.30    7.70
   1 -10  -2   -0.90    3.20
  -1  10   2    2.20    6.00
   0 -10  -2    6.90    2.60
   0 -10  -2    6.30    3.20
   0  10   2    0.00    5.20
  -1 -10  -2    2.20    2.50
  -1 -10  -2    4.00    2.90
   1  10   2   -8.40    4.80
  -2 -10  -2    1.20    2.60
   2  10   2   -3.60    4.20
   2  10   2   12.80    5.90
  -3 -10  -2    2.20    2.90
   3  10   2    6.00    5.30
   3 -11  -2   19.40    4.80
  -3  11   2   -2.70   10.70
   2 -11  -2    1.00    3.90
  -2  11   2    0.40    8.30
   1 -11  -2    6.30    3.70
  -1  11   2    6.40    7.30
   0 -11  -2    3.10    3.40
   0  11   2    6.50    6.50
  -1 -11  -2    5.90    2.90
  -1 -11  -2    3.40    3.30
   1  11   2  -13.10    5.60
  -2 -11  -2    8.90    3.10
   2  11   2    3.30    4.90
   2 -12  -2   -0.70    6.10
   1 -12  -2    5.60    4.00
  -1  12   2    1.70    7.50
   0 -12  -2    3.00    3.80
   0  12   2  -11.50    6.90
  -1 -12  -2    0.40    3.30
   1  12   2   -8.20    6.40
   1  13  -3   -2.50    4.70
  -1 -13   3   -3.50    3.20
  -1 -13   3    3.40    4.50
   0  13  -3    7.90    4.30
   0  13  -3   -4.80    6.90
   0 -13   3    5.20    3.70
   0 -13   3   -1.80    3.80
   1 -13   3    9.70    3.90
   2  12  -3  -10.90    4.90
   2  12  -3  -10.20    7.00
  -2 -12   3    1.30    3.30
  -2 -12   3   -4.00    3.00
   1  12  -3   -8.00    5.10
   1  12  -3   -7.60    4.40
  -1 -12   3   -0.10    3.00
  -1 -12   3   -1.00    3.30
   0  12  -3   29.70    7.00
   0  12  -3    8.90    6.20
   0 -12   3   16.10    3.60
   0 -12   3   11.60    3.90
  -1  12  -3   12.10    5.90
  -1  12  -3   34.30    7.30
   1 -12   3   19.30    4.20
   1 -12   3   18.10    3.60
  -2  12  -3  -11.40    6.60
   2 -12   3    0.00    4.00
   2 -12   3    1.50    4.20
   2 -12   3   -2.30    3.10
  -3  12  -3    1.80   12.80
   3 -12   3   -4.00    3.40
   3 -12   3    5.90    6.20
   3  11  -3   -6.10    5.20
  -3 -11   3   -1.50    3.10
  -3 -11   3    2.80    3.20
  -3 -11   3   -1.60    2.80
   2  11  -3   -8.10    4.30
  -2 -11   3   10.40    3.10
  -2 -11   3    6.90    2.70
  -2 -11   3    0.70    3.10
   1  11  -3    4.80    4.00
   1  11  -3   -2.70    5.10
  -1 -11   3    0.70    2.80
  -1 -11   3   -0.30    2.90
   0  11  -3   12.70    5.10
   0  11  -3   11.90    4.10
   0 -11   3    7.40    3.40
   0 -11   3   12.10    3.30
  -1  11  -3   14.70    5.40
   1 -11   3    6.40    2.80
   1 -11   3    2.40    3.50
  -2  11  -3  -12.60    5.60
   2 -11   3   -1.40    2.90
   2 -11   3    0.60    3.60
   2 -11   3   -2.80    3.60
  -3  11  -3   -8.60    6.40
   3 -11   3    1.20    4.10
   3 -11   3    3.20    3.80
   3 -11   3    2.20    3.20
  -4  11  -3    5.80    7.70
   4 -11   3   -2.30    4.30
   4 -11   3    5.70    3.70
   4  10  -3   -2.10    6.30
  -4 -10   3    5.40    3.00
  -4 -10   3    3.70    3.10
  -4 -10   3    8.00    3.30
   3  10  -3  -11.50    4.90
  -3 -10   3   -0.20    2.60
  -3 -10   3    3.10    2.90
  -3 -10   3    1.20    2.90
   2  10  -3   -7.80    3.50
   2  10  -3   -6.00    3.70
  -2 -10   3    0.20    2.50
  -2 -10   3    2.70    2.30
  -2 -10   3   -2.20    2.60
   1  10  -3   23.10    4.20
   1  10  -3   14.60    4.60
  -1 -10   3   22.80    3.30
  -1 -10   3   18.10    3.20
  -1 -10   3   25.60    3.10
   0  10  -3   97.79    8.20
   0  10  -3  103.49    7.30
   0 -10   3   81.69    5.40
   0 -10   3   98.89    5.20
  -1  10  -3   13.50    4.80
   1 -10   3    2.40    3.10
   1 -10   3    2.60    2.40
   1 -10   3    3.10    3.30
  -2  10  -3   10.90    5.70
   2 -10   3   16.70    3.60
   2 -10   3   17.10    3.80
   2 -10   3   18.60    2.90
  -3  10  -3    4.70    5.60
   3 -10   3    6.50    3.70
   3 -10   3    7.30    3.10
   3 -10   3   -1.70    3.70
  -4  10  -3   -7.10    6.40
   4 -10   3    2.40    4.10
   4 -10   3    4.00    4.20
   4 -10   3    4.60    3.60
   4   9  -3    3.60    5.30
  -4  -9   3    2.90    2.80
  -4  -9   3   -0.20    2.80
  -4  -9   3    1.20    2.70
   3   9  -3   -8.20    3.90
  -3  -9   3    3.30    2.40
  -3  -9   3    0.90    2.60
  -3  -9   3    4.30    2.60
   2   9  -3   17.00    4.00
   2   9  -3    9.20    3.50
  -2  -9   3   17.00    2.90
  -2  -9   3   18.80    2.60
  -2  -9   3   23.00    2.80
   1   9  -3   52.79    6.10
   1   9  -3   51.19    6.90
  -1  -9   3   71.89    4.00
  -1  -9   3   60.79    4.20
  -1  -9   3   54.09    3.60
   0   9  -3    9.40    3.20
   0   9  -3   12.50    4.50
   0  -9   3    9.70    2.20
   0  -9   3    8.40    2.80
  -1   9  -3    3.90    3.90
   1  -9   3    0.90    2.60
   1  -9   3    1.70    1.90
   1  -9   3    3.00    2.70
  -2   9  -3   26.30    7.10
   2  -9   3   13.20    3.10
   2  -9   3   10.20    3.20
   2  -9   3   12.30    2.60
  -3   9  -3   -7.30    5.00
  -3   9  -3    3.30    2.80
   3  -9   3   -1.70    2.70
   3  -9   3    3.30    3.40
   3  -9   3    0.70    3.30
  -4   9  -3    0.90    3.40
  -4   9  -3   -2.40    5.70
   4  -9   3   -0.10    2.90
   4  -9   3   -3.70    3.50
   4  -9   3   -0.30    3.80
  -5   9  -3    3.60    4.30
   5  -9   3    2.80    4.50
   5  -9   3    3.00    4.00
   5   8  -3    6.00    5.50
  -5  -8   3   -2.30    2.90
  -5  -8   3   -1.90    2.70
   4   8  -3   -0.80    4.80
  -4  -8   3    0.60    2.60
  -4  -8   3    6.20    2.70
  -4  -8   3    4.60    2.60
   3   8  -3   -4.00    3.40
  -3  -8   3    1.70    2.20
  -3  -8   3    2.50    2.30
  -3  -8   3   -0.80    2.20
   2   8  -3   51.69    5.40
   2   8  -3   54.59    5.80
  -2  -8   3   59.59    3.70
  -2  -8   3   63.99    3.80
  -2  -8   3   59.39    3.80
   1   8  -3  137.99    7.90
   1   8  -3  128.69    6.70
  -1  -8   3  142.39    4.90
  -1  -8   3  141.39    4.90
  -1  -8   3  138.99    5.40
   0   8  -3   23.10    5.60
   0  -8   3   20.50    2.10
   0  -8   3   21.60    2.60
   0  -8   3   19.30    3.00
   1  -8   3   58.39    4.50
   1  -8   3   47.70    2.90
   1  -8   3   61.99    3.90
  -2   8  -3   45.90    6.70
  -2   8  -3   48.70    3.60
   2  -8   3   45.40    4.10
   2  -8   3   56.09    3.60
   2  -8   3   48.70    4.60
  -3   8  -3   14.20    3.00
  -3   8  -3   15.70    4.70
   3  -8   3    9.10    3.30
   3  -8   3    6.40    3.10
   3  -8   3   15.50    2.70
  -4   8  -3    5.80    3.60
  -4   8  -3    2.70    5.20
   4  -8   3    2.10    2.80
   4  -8   3   -0.40    3.20
   4  -8   3   -2.50    3.60
  -5   8  -3   -1.20    4.20
   5  -8   3   -3.70    3.50
   5  -8   3   -2.50    3.50
   5  -8   3    2.30    4.20
   5   7  -3    9.70    5.00
  -5  -7   3    2.60    2.70
  -5  -7   3    5.70    3.00
   4   7  -3    0.00    4.00
  -4  -7   3   -1.90    2.10
  -4  -7   3   -0.80    2.30
  -4  -7   3   -3.70    2.20
   3   7  -3   -5.50    3.20
  -3  -7   3    2.40    2.00
  -3  -7   3    1.50    1.90
  -3  -7   3    1.30    2.10
   2   7  -3   18.80    5.00
   2   7  -3   25.10    3.80
  -2  -7   3   22.50    2.80
  -2  -7   3   20.30    2.70
  -2  -7   3   22.90    2.80
   1   7  -3   -1.50    2.00
   1   7  -3    3.10    2.50
  -1  -7   3    1.30    1.70
  -1  -7   3   -0.30    1.30
  -1  -7   3    0.60    1.30
   0   7  -3   52.09    4.80
   0  -7   3   40.20    2.90
   0  -7   3   44.20    2.50
   0  -7   3   43.10    2.20
   0  -7   3   44.40    3.60
  -1   7  -3   48.70    4.90
   1  -7   3   39.60    3.00
   1  -7   3   38.60    3.50
   1  -7   3   37.70    2.40
  -2   7  -3   15.20    3.50
  -2   7  -3   15.70    2.20
   2  -7   3   15.10    3.50
   2  -7   3   17.40    3.10
  -3   7  -3   19.70    2.90
  -3   7  -3   17.00    4.50
   3  -7   3   18.80    3.10
   3  -7   3   15.30    2.40
   3  -7   3   15.70    3.20
  -4   7  -3    2.10    3.30
  -4   7  -3   -2.70    4.60
   4  -7   3   -1.10    3.00
   4  -7   3   -1.10    3.60
   4  -7   3    1.90    2.60
  -5   7  -3    5.20    4.00
   5  -7   3   -1.20    4.30
   5  -7   3   -4.10    4.30
   5  -7   3   -4.20    2.80
   5   6  -3    4.00    4.30
   5   6  -3    0.70    2.60
  -5  -6   3   -1.40    2.50
  -5  -6   3    3.00    2.60
   4   6  -3   13.80    4.20
  -4  -6   3   11.00    2.40
  -4  -6   3   10.90    2.30
  -4  -6   3   14.80    2.60
   3   6  -3   37.10    4.60
  -3  -6   3   41.10    3.00
  -3  -6   3   41.10    3.10
  -3  -6   3   38.50    3.20
   2   6  -3  175.98    6.80
   2   6  -3  190.68    7.00
  -2  -6   3  185.78    5.70
  -2  -6   3  186.38    5.90
  -2  -6   3  190.68    5.60
   1   6  -3   12.80    3.10
   1   6  -3   18.00    3.40
  -1  -6   3   10.20    1.80
  -1  -6   3   11.60    1.80
  -1  -6   3    9.80    1.80
   0   6  -3  216.38    7.60
   0  -6   3  211.58    5.90
   0  -6   3  224.58    6.40
   0  -6   3  204.58    5.80
   0  -6   3  214.18    5.70
   0  -6   3  213.18    6.90
  -1   6  -3   64.29    4.80
  -1   6  -3   62.29    2.60
   1  -6   3   59.09    3.40
   1  -6   3   61.89    3.10
   1  -6   3   59.19    2.50
  -2   6  -3    8.10    2.90
  -2   6  -3    7.10    1.80
   2  -6   3    6.80    1.90
   2  -6   3    7.80    2.10
   2  -6   3    8.00    1.60
  -3   6  -3   19.10    3.90
  -3   6  -3   17.80    2.80
   3  -6   3   24.40    3.00
   3  -6   3   28.60    4.60
   3  -6   3   22.90    3.50
  -4   6  -3   -4.00    3.00
  -4   6  -3    0.50    4.00
   4  -6   3    1.30    3.40
   4  -6   3    1.60    2.70
   4  -6   3    2.10    2.20
  -5   6  -3   10.50    4.00
   5  -6   3    8.50    4.30
   5  -6   3    2.90    2.70
   6  -6   3    8.40    4.90
   6   5  -3    5.50    4.50
  -6  -5   3    2.10    2.90
  -6  -5   3    7.80    2.70
   5   5  -3   -1.60    2.60
   5   5  -3   -2.40    3.60
  -5  -5   3   -0.60    2.10
  -5  -5   3    3.30    2.50
   4   5  -3   26.30    4.20
  -4  -5   3   23.00    2.60
  -4  -5   3   22.40    3.10
   3   5  -3  225.08    8.20
  -3  -5   3  232.98    6.70
  -3  -5   3  221.68    6.80
  -3  -5   3  227.28    7.00
   2   5  -3   23.10    3.20
   2   5  -3   13.90    2.80
  -2  -5   3   17.80    1.90
  -2  -5   3   19.30    2.10
  -2  -5   3   17.40    1.90
   1   5  -3   21.80    2.60
   1   5  -3   16.90    2.90
  -1  -5   3   23.30    1.70
  -1  -5   3   20.60    2.10
  -1  -5   3   21.20    1.50
  -1  -5   3   18.90    1.60
   0   5  -3  169.18    6.30
   0  -5   3  172.78    5.10
   0  -5   3  174.48    5.60
   0  -5   3  169.58    4.70
   0  -5   3  162.68    4.60
   0  -5   3  174.98    4.70
  -1   5  -3   11.60    1.70
  -1   5  -3   15.40    3.30
   1  -5   3   14.10    2.10
   1  -5   3   14.00    2.30
   1  -5   3   13.60    1.60
  -2   5  -3   22.30    2.50
  -2   5  -3   22.50    4.10
   2  -5   3   24.00    2.00
   2  -5   3   22.80    2.50
   2  -5   3   23.10    3.10
  -3   5  -3   15.40    2.50
  -3   5  -3   10.80    3.40
   3  -5   3   15.80    3.80
   3  -5   3   19.40    2.50
   3  -5   3   15.90    3.00
  -4   5  -3   10.30    3.90
  -4   5  -3   17.80    3.20
   4  -5   3   14.40    3.30
   4  -5   3   13.60    2.80
   4  -5   3   13.70    2.30
  -5   5  -3    0.20    3.50
   5  -5   3    1.70    4.00
   5  -5   3    1.80    2.40
  -6   5  -3    2.40    4.30
   6  -5   3    2.20    4.80
   6   4  -3    2.60    4.10
  -6  -4   3   -0.20    2.50
  -6  -4   3    1.10    2.60
   5   4  -3   17.70    3.10
   5   4  -3    6.40    3.60
  -5  -4   3    8.60    2.50
  -5  -4   3   12.30    2.60
   4   4  -3    5.60    2.10
   4   4  -3    6.30    3.00
  -4  -4   3    2.80    1.70
  -4  -4   3    4.40    1.90
  -4  -4   3    2.40    1.40
   3   4  -3  172.68    6.60
  -3  -4   3  171.68    4.90
  -3  -4   3  172.38    5.40
  -3  -4   3  176.38    5.40
  -3  -4   3  178.38    5.70
   2   4  -3   66.69    2.70
   2   4  -3   65.99    3.70
  -2  -4   3   64.59    2.90
  -2  -4   3   61.99    2.70
  -2  -4   3   66.49    2.40
  -2  -4   3   66.29    2.60
   1   4  -3  537.25   14.20
   1   4  -3  512.15   14.10
  -1  -4   3  568.34   13.30
  -1  -4   3  537.25   13.30
  -1  -4   3  557.24   13.40
  -1  -4   3  515.95   13.60
   0   4  -3    1.90    1.70
   0  -4   3    4.10    1.30
   0  -4   3    3.00    0.80
   0  -4   3    3.00    0.70
   0  -4   3    3.70    0.80
   0  -4   3    2.60    1.40
  -1   4  -3  263.37    7.10
  -1   4  -3  280.07    8.60
   1  -4   3  276.37    7.30
   1  -4   3  270.27    7.00
   1  -4   3  280.17    7.10
   1  -4   3  267.47    7.80
  -2   4  -3   25.00    3.80
  -2   4  -3   23.80    2.30
  -2   4  -3   23.20    1.80
   2  -4   3   23.90    1.90
   2  -4   3   24.30    2.20
   2  -4   3   25.50    2.70
  -3   4  -3   15.60    3.20
  -3   4  -3   17.80    2.70
   3  -4   3   15.20    3.20
   3  -4   3   17.20    2.70
   3  -4   3   18.30    2.40
  -4   4  -3    1.70    2.50
  -4   4  -3    3.10    3.50
   4  -4   3    2.90    2.30
   4  -4   3    4.40    2.70
   4  -4   3    2.30    1.80
  -5   4  -3   11.40    3.50
   5  -4   3    3.60    2.40
   5  -4   3   10.10    3.80
  -6   4  -3    1.40    3.90
   6  -4   3    0.40    4.40
   6   3  -3    5.00    3.90
  -6  -3   3    3.30    2.50
  -6  -3   3    2.20    2.70
   5   3  -3    1.50    2.90
   5   3  -3    3.00    3.20
  -5  -3   3    4.10    2.20
  -5  -3   3    4.30    2.00
  -5  -3   3    3.10    1.90
   4   3  -3  193.08    6.40
   4   3  -3  193.68    7.70
  -4  -3   3  179.38    5.70
  -4  -3   3  185.18    6.00
  -4  -3   3  184.48    6.10
   3   3  -3  124.99    5.30
  -3  -3   3  119.99    4.00
  -3  -3   3  125.19    3.80
  -3  -3   3  119.39    4.20
   2   3  -3   11.20    2.50
   2   3  -3   10.30    1.60
  -2  -3   3   11.00    1.30
  -2  -3   3   15.40    1.10
  -2  -3   3   13.50    1.60
  -2  -3   3   12.00    1.50
  -2  -3   3   13.80    1.80
   1   3  -3  547.15   14.20
   1   3  -3  563.44   14.50
  -1  -3   3  543.25   13.70
  -1  -3   3  576.94   13.70
  -1  -3   3  546.15   14.00
  -1  -3   3  590.84   13.90
   0   3  -3  132.19    3.60
   0   3  -3  127.69    4.70
   0  -3   3  135.89    4.00
   0  -3   3  136.59    3.50
   0  -3   3  132.89    3.60
   0  -3   3  138.29    4.40
   0  -3   3  141.09    3.60
  -1   3  -3  819.12   20.10
  -1   3  -3  819.52   21.00
   1  -3   3  818.02   20.10
   1  -3   3  817.52   19.90
   1  -3   3  805.92   20.60
   1  -3   3  852.21   20.00
  -2   3  -3   92.79    3.30
  -2   3  -3   92.39    3.10
   2  -3   3   88.69    3.90
   2  -3   3   96.29    3.10
   2  -3   3   93.09    3.20
  -3   3  -3   19.70    1.30
  -3   3  -3   19.60    2.50
   3  -3   3   20.10    2.20
   3  -3   3   23.50    2.30
   3  -3   3   21.30    2.90
  -4   3  -3    6.50    2.30
  -4   3  -3    2.40    3.20
   4  -3   3    4.40    2.60
   4  -3   3    3.90    1.90
   4  -3   3    6.00    2.10
  -5   3  -3   -0.70    2.90
   5  -3   3    0.50    3.50
   5  -3   3    3.40    2.20
  -6   3  -3    3.50    3.90
   6  -3   3    5.70    4.50
   6   2  -3    2.20    3.90
   6   2  -3   -2.00    3.70
  -6  -2   3   -3.50    2.30
  -6  -2   3    1.80    2.60
  -6  -2   3    3.00    2.60
   5   2  -3   28.50    5.50
   5   2  -3   32.00    3.80
  -5  -2   3   29.30    3.40
  -5  -2   3   25.20    3.50
  -5  -2   3   32.80    3.30
   4   2  -3   77.09    3.90
   4   2  -3   78.49    4.90
  -4  -2   3   76.29    3.50
  -4  -2   3   70.69    3.40
  -4  -2   3   73.09    3.50
   3   2  -3    2.90    1.50
   3   2  -3    3.20    1.10
   3   2  -3    2.60    1.70
  -3  -2   3    2.00    1.20
  -3  -2   3    3.60    1.30
  -3  -2   3    5.50    1.20
   2   2  -3  465.45   11.90
   2   2  -3  473.15   12.90
  -2  -2   3  483.05   11.80
  -2  -2   3  479.35   12.00
  -2  -2   3  473.15   12.20
  -2  -2   3  480.15   11.80
  -2  -2   3  473.95   11.90
   1   2  -3   42.30    2.30
  -1  -2   3   43.90    2.10
  -1  -2   3   41.90    1.50
  -1  -2   3   47.50    1.90
  -1  -2   3   48.60    1.60
  -1  -2   3   45.00    1.60
   0  -2   3  139.19    3.60
   0  -2   3  136.19    4.50
   0  -2   3  141.39    3.90
   0  -2   3  141.29    4.20
  -1   2  -3   11.00    1.60
   1  -2   3   12.00    1.30
   1  -2   3   11.20    1.30
   1  -2   3   11.30    2.30
   1  -2   3   14.80    1.80
   1  -2   3   13.00    1.20
  -2   2  -3    4.70    1.20
  -2   2  -3    5.40    0.90
  -2   2  -3    5.00    1.10
   2  -2   3    5.40    1.00
   2  -2   3    6.00    1.10
   2  -2   3    5.40    1.70
   2  -2   3    7.60    1.50
  -3   2  -3    4.30    1.00
  -3   2  -3    4.70    1.50
  -3   2  -3    3.60    1.20
   3  -2   3    2.80    1.90
   3  -2   3    2.70    1.20
   3  -2   3    3.00    1.70
   3  -2   3    5.20    1.40
  -4   2  -3   10.70    2.20
   4  -2   3   13.40    1.90
   4  -2   3   10.00    2.60
   4  -2   3   12.90    2.10
  -5   2  -3   -0.70    2.80
   5  -2   3    3.00    3.50
   5  -2   3    2.60    2.30
  -6   2  -3   10.90    3.70
   6  -2   3    5.20    4.60
   6   1  -3    1.60    4.20
   6   1  -3    4.00    3.80
  -6  -1   3    1.10    2.60
  -6  -1   3    2.30    2.40
   5   1  -3   98.29    6.50
   5   1  -3  100.39    5.80
  -5  -1   3   88.29    4.60
  -5  -1   3   94.89    4.60
  -5  -1   3   98.49    4.70
   4   1  -3   16.50    3.40
   4   1  -3   20.10    2.50
  -4  -1   3   16.50    2.50
  -4  -1   3   15.60    2.40
  -4  -1   3   18.80    2.60
   3   1  -3    9.60    1.70
   3   1  -3    7.20    1.20
   3   1  -3    3.40    1.60
  -3  -1   3    7.70    1.30
  -3  -1   3    6.40    1.30
  -3  -1   3    9.40    1.40
   2   1  -3   59.59    2.10
   2   1  -3   56.69    2.90
   2   1  -3   61.49    2.60
  -2  -1   3   60.69    2.30
  -2  -1   3   62.99    2.30
  -2  -1   3   59.09    2.30
  -2  -1   3   61.89    2.20
   1   1  -3 1126.09   28.60
  -1  -1   3 1162.18   28.20
  -1  -1   3 1172.48   28.30
  -1  -1   3 1212.98   28.20
  -1  -1   3 1184.68   28.50
  -1  -1   3 1212.58   28.40
   0  -1   3  131.99    3.70
   0  -1   3  125.99    3.50
   0  -1   3  125.09    3.40
   0  -1   3  126.69    3.50
   0  -1   3  132.09    4.10
  -1   1  -3    2.80    0.90
  -1   1  -3    4.10    0.70
  -1   1  -3    2.40    1.00
   1  -1   3    4.60    0.90
   1  -1   3    3.10    0.80
   1  -1   3    4.10    1.10
   1  -1   3    3.40    1.40
  -2   1  -3   24.90    1.70
  -2   1  -3   24.00    1.30
  -2   1  -3   24.30    2.00
   2  -1   3   25.90    2.40
   2  -1   3   22.40    1.70
   2  -1   3   25.80    2.70
  -3   1  -3   65.29    2.90
  -3   1  -3   69.29    3.00
  -3   1  -3   65.99    2.60
   3  -1   3   70.19    3.00
   3  -1   3   63.59    3.70
   3  -1   3   67.19    4.00
  -4   1  -3    0.00    1.80
  -4   1  -3   -0.30    1.50
   4  -1   3   -0.10    1.50
   4  -1   3    0.90    2.20
   4  -1   3    0.10    2.20
  -5   1  -3    0.00    2.60
   5  -1   3    1.70    3.40
  -6   1  -3    1.90    3.10
   6  -1   3   -3.80    4.10
   6   0  -3    2.80    4.20
   6   0  -3   11.20    4.00
  -6   0   3    3.40    2.80
  -6   0   3    2.40    2.90
   5   0  -3  135.29    7.20
   5   0  -3  140.99    6.30
  -5   0   3  130.09    5.20
  -5   0   3  122.59    5.30
  -5   0   3  136.29    5.60
   4   0  -3   25.90    3.30
   4   0  -3   28.60    3.70
  -4   0   3   32.40    3.00
  -4   0   3   31.10    2.60
  -4   0   3   30.80    2.50
   3   0  -3   14.00    2.40
   3   0  -3   17.00    1.60
   3   0  -3   12.50    2.20
  -3   0   3   14.90    1.70
  -3   0   3   16.70    1.70
  -3   0   3   12.30    2.00
   2   0  -3   87.19    2.80
   2   0  -3   90.39    3.20
  -2   0   3   83.49    2.80
  -2   0   3   89.59    3.00
  -2   0   3   88.89    2.90
  -2   0   3   87.29    2.80
   1   0  -3  177.28    4.90
   1   0  -3  149.88    4.70
  -1   0   3  180.48    4.70
  -1   0   3  186.98    4.80
  -1   0   3  186.38    4.60
  -1   0   3  186.48    4.60
   0   0  -3 1022.90   25.40
   0   0  -3 1048.90   25.50
   0   0   3 1085.49   25.60
   0   0   3 1061.59   25.40
   0   0   3 1076.69   26.00
   0   0   3 1051.29   25.40
   0   0   3 1080.29   25.50
  -1   0  -3   96.59    2.90
  -1   0  -3   99.89    3.10
  -1   0  -3   96.29    2.80
   1   0   3  100.89    3.40
   1   0   3   97.09    3.80
   1   0   3   95.29    2.90
   1   0   3   97.79    2.90
  -2   0  -3   56.89    2.50
  -2   0  -3   54.39    2.30
  -2   0  -3   53.69    2.10
   2   0   3   57.89    3.00
   2   0   3   58.29    2.30
   2   0   3   54.39    3.20
  -3   0  -3  232.88    6.50
  -3   0  -3  242.38    6.80
  -3   0  -3  236.08    6.80
   3   0   3  235.38    7.80
   3   0   3  243.58    6.80
   3   0   3  228.78    7.60
  -4   0  -3    2.70    1.80
  -4   0  -3    4.00    1.60
   4   0   3    4.10    2.20
   4   0   3    4.00    2.20
   4   0   3    3.70    1.80
  -5   0  -3   30.00    4.10
  -5   0  -3   38.30    4.30
   5   0   3   30.70    6.00
  -6   0  -3    3.30    2.90
   6   0   3    0.40    4.20
   6  -1  -3   63.89    7.50
   6  -1  -3   65.49    6.20
  -6   1   3   71.09    5.40
   5  -1  -3    5.40    3.10
   5  -1  -3   10.00    3.30
  -5   1   3    6.90    2.50
  -5   1   3    8.50    2.20
  -5   1   3    4.80    2.00
   4  -1  -3    4.10    2.20
   4  -1  -3    9.60    2.30
  -4   1   3    8.10    1.70
  -4   1   3    5.70    1.60
  -4   1   3    6.60    1.90
   3  -1  -3   12.10    1.70
   3  -1  -3   13.50    2.20
   3  -1  -3   11.90    2.30
  -3   1   3   12.80    1.80
  -3   1   3   13.90    1.70
  -3   1   3   11.90    1.80
   2  -1  -3  266.67    7.20
   2  -1  -3  251.47    7.10
   2  -1  -3  266.77    6.90
  -2   1   3  263.77    6.90
  -2   1   3  267.97    7.00
  -2   1   3  256.77    6.80
   1  -1  -3   44.60    2.10
   1  -1  -3   50.19    1.80
  -1   1   3   49.60    1.90
  -1   1   3   45.60    2.00
  -1   1   3   51.09    1.80
  -1   1   3   49.30    1.80
  -1   1   3   47.30    2.60
   0  -1  -3  840.82   20.40
   0  -1  -3  871.31   20.50
   0  -1  -3  818.12   20.40
   0   1   3  869.31   21.10
   0   1   3  854.21   20.50
   0   1   3  859.41   20.40
   0   1   3  842.02   20.40
   0   1   3  813.92   20.40
  -1  -1  -3   50.89    2.10
  -1  -1  -3   50.29    2.00
  -1  -1  -3   51.09    2.10
   1   1   3   51.89    2.40
   1   1   3   52.09    2.10
   1   1   3   52.99    2.90
  -2  -1  -3  222.58    6.30
  -2  -1  -3  231.08    6.20
  -2  -1  -3  225.98    6.30
   2   1   3  227.78    6.30
   2   1   3  230.88    7.20
   2   1   3  231.28    6.90
  -3  -1  -3   21.50    2.00
  -3  -1  -3   26.80    2.20
  -3  -1  -3   25.40    2.20
   3   1   3   22.40    2.20
   3   1   3   21.00    3.00
   3   1   3   23.20    2.90
  -4  -1  -3   19.50    2.70
  -4  -1  -3   20.70    2.70
   4   1   3   22.20    3.90
   4   1   3   17.00    2.30
   4   1   3   19.10    3.70
  -5  -1  -3   -1.20    2.10
  -5  -1  -3    0.90    2.10
   5   1   3    2.20    3.30
  -6  -1  -3   -1.80    2.50
   6   1   3   -1.50    4.20
   6  -2  -3   34.70    5.90
   6  -2  -3   29.80    6.70
  -6   2   3   18.50    3.70
   5  -2  -3   13.60    3.50
   5  -2  -3   14.90    3.40
  -5   2   3   19.80    3.00
  -5   2   3   11.70    2.30
  -5   2   3   11.80    2.20
   4  -2  -3   30.20    3.50
   4  -2  -3   32.00    3.90
  -4   2   3   25.60    2.60
  -4   2   3   20.50    3.10
  -4   2   3   26.80    2.50
   3  -2  -3   22.40    2.00
   3  -2  -3   21.70    2.50
   3  -2  -3   28.30    2.70
  -3   2   3   25.50    2.50
  -3   2   3   22.80    1.90
  -3   2   3   24.60    2.10
   2  -2  -3   18.30    1.60
   2  -2  -3   18.30    1.70
   2  -2  -3   17.60    2.10
  -2   2   3   19.60    1.50
  -2   2   3   17.60    1.60
  -2   2   3   16.00    1.90
   1  -2  -3   31.40    1.70
   1  -2  -3   33.20    1.90
  -1   2   3   28.30    1.60
  -1   2   3   29.00    2.80
  -1   2   3   28.70    1.80
   0  -2  -3   32.60    1.60
   0  -2  -3   35.60    1.70
   0  -2  -3   34.20    1.60
   0   2   3   27.00    1.60
   0   2   3   33.90    1.70
   0   2   3   32.60    2.70
   0   2   3   33.60    1.60
  -1  -2  -3   17.60    1.50
  -1  -2  -3   17.30    1.60
   1   2   3   17.70    1.60
   1   2   3   16.10    2.50
   1   2   3   17.00    1.90
  -2  -2  -3   83.19    2.90
  -2  -2  -3   86.69    3.10
  -2  -2  -3   82.39    3.00
   2   2   3   84.29    4.00
   2   2   3   88.69    3.20
   2   2   3   88.89    3.80
  -3  -2  -3    8.20    1.50
  -3  -2  -3    5.00    1.40
  -3  -2  -3    7.20    1.60
   3   2   3    9.10    1.70
   3   2   3    6.90    2.00
   3   2   3    8.40    2.00
  -4  -2  -3   46.20    3.20
  -4  -2  -3   45.40    3.10
   4   2   3   48.50    3.50
   4   2   3   42.60    4.60
   4   2   3   43.10    4.20
  -5  -2  -3    3.80    2.10
  -5  -2  -3    5.00    2.30
   5   2   3    5.30    3.40
  -6  -2  -3    1.70    2.50
   6   2   3    3.00    4.30
   6  -3  -3    4.00    4.20
  -6   3   3   -2.20    3.30
   5  -3  -3   -0.20    3.00
   5  -3  -3    0.20    3.40
  -5   3   3    0.30    2.80
   4  -3  -3   13.00    2.80
   4  -3  -3   13.40    2.60
  -4   3   3   14.80    2.40
  -4   3   3   12.30    2.10
  -4   3   3   12.50    2.30
   3  -3  -3   47.50    2.70
   3  -3  -3   46.00    3.20
   3  -3  -3   49.00    3.20
  -3   3   3   46.10    2.90
  -3   3   3   56.19    4.60
  -3   3   3   49.20    2.70
  -3   3   3   50.09    2.40
   2  -3  -3    0.20    1.00
   2  -3  -3    0.40    1.40
   2  -3  -3    0.60    0.90
  -2   3   3    4.60    2.10
  -2   3   3    0.30    1.20
  -2   3   3    0.40    1.10
   1  -3  -3   18.70    1.60
   1  -3  -3   16.20    1.80
   1  -3  -3   19.40    1.50
  -1   3   3   20.10    1.80
  -1   3   3   20.00    1.60
   0  -3  -3   35.10    1.80
   0  -3  -3   38.50    1.90
   0  -3  -3   36.40    1.80
   0   3   3   33.30    3.30
   0   3   3   34.50    2.00
   0   3   3   32.30    1.80
   0   3   3   36.20    1.80
  -1  -3  -3   12.00    1.50
  -1  -3  -3   17.80    1.80
   1   3   3   12.30    2.70
   1   3   3   14.30    1.70
   1   3   3   10.50    2.20
  -2  -3  -3  174.28    5.20
  -2  -3  -3  168.18    4.90
  -2  -3  -3  171.08    5.10
   2   3   3  171.98    6.30
   2   3   3  167.28    5.20
   2   3   3  171.08    5.80
  -3  -3  -3   15.30    2.20
  -3  -3  -3   16.10    2.00
  -3  -3  -3   17.30    2.40
   3   3   3   14.20    3.00
   3   3   3   17.10    2.50
   3   3   3   12.40    3.20
  -4  -3  -3   51.29    3.10
  -4  -3  -3   56.59    3.50
   4   3   3   53.09    4.60
   4   3   3   55.09    5.10
  -5  -3  -3    0.60    2.00
  -5  -3  -3    6.20    2.40
   5   3   3   -2.50    3.10
  -6  -3  -3   -0.40    2.60
   6  -4  -3    4.50    4.60
  -6   4   3    9.30    4.00
   5  -4  -3   23.70    4.00
  -5   4   3   22.20    3.60
   4  -4  -3    6.60    2.60
   4  -4  -3    7.00    2.80
  -4   4   3    9.70    2.20
  -4   4   3    7.80    1.80
  -4   4   3    6.40    2.30
   3  -4  -3    6.90    1.60
   3  -4  -3   10.30    2.20
   3  -4  -3   12.90    2.70
  -3   4   3   10.20    2.00
  -3   4   3    4.90    1.60
  -3   4   3    3.90    4.00
   2  -4  -3    8.70    1.70
   2  -4  -3   11.70    1.90
   2  -4  -3   10.90    1.80
   2  -4  -3   11.30    1.70
  -2   4   3    7.00    1.60
  -2   4   3   10.80    2.80
  -2   4   3    9.20    1.50
   1  -4  -3  382.06    9.90
   1  -4  -3  360.66   10.00
   1  -4  -3  386.46    9.70
  -1   4   3  381.46    9.80
  -1   4   3  406.96   11.80
  -1   4   3  370.36    9.90
   0  -4  -3   29.80    1.90
   0  -4  -3   32.40    2.00
   0  -4  -3   32.10    2.00
   0   4   3   36.80    4.00
   0   4   3   36.10    2.00
   0   4   3   33.20    1.80
   0   4   3   23.50    2.50
  -1  -4  -3   15.50    1.90
  -1  -4  -3   17.70    1.60
  -1  -4  -3   16.60    1.70
   1   4   3   16.80    3.20
   1   4   3   17.70    2.70
   1   4   3   17.10    2.00
  -2  -4  -3    3.40    1.30
  -2  -4  -3    1.90    1.40
  -2  -4  -3    3.10    1.00
   2   4   3    3.70    1.90
   2   4   3    1.20    1.80
   2   4   3    2.40    1.50
  -3  -4  -3   -0.10    1.50
  -3  -4  -3   -1.10    1.70
  -3  -4  -3    1.20    1.30
   3   4   3   -0.50    2.00
   3   4   3    2.50    1.80
   3   4   3    1.00    2.10
  -4  -4  -3   17.90    2.50
  -4  -4  -3   11.40    1.80
   4   4   3   13.00    3.20
  -5  -4  -3    5.50    2.60
   5   4   3   -2.00    3.30
   6  -5  -3    1.60    4.60
  -6   5   3   -1.20    3.90
   5  -5  -3   11.30    4.10
  -5   5   3    8.50    3.30
   4  -5  -3   23.80    3.60
  -4   5   3   25.80    3.90
  -4   5   3   15.40    2.80
   3  -5  -3    7.90    1.70
   3  -5  -3    4.40    1.90
   3  -5  -3    3.20    2.30
  -3   5   3    5.30    1.90
  -3   5   3    8.70    2.20
   2  -5  -3    0.50    1.80
   2  -5  -3    0.30    1.40
   2  -5  -3    0.30    1.30
   2  -5  -3   -0.90    1.30
  -2   5   3   -1.10    1.30
  -2   5   3    1.60    3.30
  -2   5   3   -0.30    1.60
   1  -5  -3    5.20    1.60
   1  -5  -3    8.30    1.40
   1  -5  -3    7.10    1.30
  -1   5   3    7.00    1.40
  -1   5   3    5.00    1.40
  -1   5   3    4.20    3.00
  -1   5   3    5.30    1.50
   0  -5  -3  169.28    5.20
   0  -5  -3  171.28    5.30
   0  -5  -3  178.48    5.10
   0   5   3  176.08    7.10
   0   5   3  173.48    4.90
   0   5   3  180.98    5.70
   0   5   3  171.08    5.30
  -1  -5  -3   29.70    2.40
  -1  -5  -3   26.80    2.20
  -1  -5  -3   27.60    2.10
   1   5   3   42.80    4.10
   1   5   3   28.20    2.60
   1   5   3   45.50    4.30
  -2  -5  -3    1.40    1.50
  -2  -5  -3    0.80    1.00
  -2  -5  -3    0.90    1.40
  -2  -5  -3    1.60    1.20
   2   5   3   -1.70    1.50
   2   5   3    1.20    2.10
  -3  -5  -3    6.80    2.00
   3   5   3    8.30    2.80
   3   5   3    7.00    2.60
  -4  -5  -3   12.00    2.50
   4   5   3    8.00    3.20
  -5  -5  -3   -1.40    2.50
   5   5   3    0.30    3.60
   6  -6  -3    4.40    5.10
   5  -6  -3    0.00    4.10
  -5   6   3    0.10    3.40
   4  -6  -3    3.60    3.40
  -4   6   3    5.60    2.90
  -4   6   3    4.00    6.70
   3  -6  -3    1.40    2.80
   3  -6  -3    1.70    2.60
  -3   6   3    1.30    2.20
  -3   6   3    1.30    1.90
   2  -6  -3    4.90    2.20
   2  -6  -3    6.20    1.70
   2  -6  -3    5.10    1.80
   2  -6  -3    8.30    1.60
  -2   6   3    7.10    4.40
  -2   6   3    5.00    1.80
  -2   6   3    6.50    1.90
   1  -6  -3    8.90    1.80
   1  -6  -3   12.90    1.70
   1  -6  -3    8.90    2.00
  -1   6   3   13.70    3.00
  -1   6   3    5.70    3.70
  -1   6   3    7.40    1.70
  -1   6   3   11.20    1.70
   0  -6  -3   90.49    3.70
   0  -6  -3   93.79    3.50
   0  -6  -3   82.19    3.70
   0   6   3   83.49    6.00
   0   6   3   93.39    3.80
   0   6   3   91.39    4.60
   0   6   3   88.09    3.20
  -1  -6  -3   13.00    2.20
  -1  -6  -3   10.90    1.80
  -1  -6  -3   13.00    1.90
   1   6   3   17.50    4.50
   1   6   3   10.00    3.10
   1   6   3   11.80    2.00
  -2  -6  -3   27.40    2.90
  -2  -6  -3   23.30    3.20
  -2  -6  -3   27.10    2.40
   2   6   3   20.90    4.30
   2   6   3   34.90    5.90
  -3  -6  -3    0.30    2.00
   3   6   3   -0.40    2.90
   3   6   3   -1.70    2.50
  -4  -6  -3    4.00    2.40
   4   6   3    0.10    3.20
  -5  -6  -3   -0.60    2.80
   5   6   3    3.30    3.80
   5  -7  -3    4.30    4.40
  -5   7   3   10.80    3.80
   4  -7  -3    5.70    3.70
  -4   7   3    5.80    3.10
  -4   7   3   13.60    7.10
   3  -7  -3    4.30    3.10
  -3   7   3    2.40    2.60
  -3   7   3    7.00    6.30
   2  -7  -3   17.80    3.00
   2  -7  -3   25.90    3.60
   2  -7  -3   15.40    2.30
  -2   7   3   14.30    2.40
  -2   7   3    1.40    6.20
   1  -7  -3  134.29    5.10
   1  -7  -3  132.89    4.60
   1  -7  -3  132.69    5.30
  -1   7   3  130.39    5.10
  -1   7   3  173.28   10.50
  -1   7   3  134.79    4.60
   0  -7  -3   18.00    2.40
   0  -7  -3   20.00    2.90
   0  -7  -3   16.50    2.10
   0   7   3   15.60    2.30
   0   7   3   12.60    2.10
  -1  -7  -3   37.40    3.50
  -1  -7  -3   37.70    3.00
  -1  -7  -3   36.90    3.00
   1   7   3   30.70    6.20
   1   7   3   33.00    5.50
  -2  -7  -3   29.00    3.30
  -2  -7  -3   28.50    2.80
   2   7   3   22.90    4.90
  -3  -7  -3    3.10    2.40
   3   7   3    5.60    3.60
   3   7   3    3.70    3.00
  -4  -7  -3    3.00    2.70
   4   7   3    0.10    3.50
   5  -8  -3   -1.60    4.70
  -5   8   3    0.90    3.70
   4  -8  -3    5.40    4.20
  -4   8   3    0.40    3.20
  -4   8   3  -12.40   10.40
   3  -8  -3    2.70    3.30
  -3   8   3    0.10    2.70
  -3   8   3   -2.60    9.10
   2  -8  -3    3.50    3.00
  -2   8   3    1.70    6.50
  -2   8   3    0.80    2.30
   1  -8  -3   23.60    3.60
   1  -8  -3   21.60    3.30
   1  -8  -3   23.80    2.90
  -1   8   3   13.10    5.00
   0  -8  -3   11.90    2.60
   0  -8  -3    9.20    2.20
   0  -8  -3   12.10    2.70
   0   8   3    5.80    4.20
  -1  -8  -3   33.50    3.50
  -1  -8  -3   41.30    3.50
   1   8   3   41.70    7.00
   1   8   3   35.00    6.60
  -2  -8  -3   10.70    2.50
   2   8   3    7.50    3.50
  -3  -8  -3   15.30    3.00
   3   8   3   44.40    7.70
   3   8   3    7.20    3.40
  -4  -8  -3    1.40    2.90
   4   8   3    3.40    3.90
   4  -9  -3    4.10    4.40
  -4   9   3   -1.80   12.20
  -4   9   3    2.10    3.40
   3  -9  -3   -4.60    3.60
  -3   9   3    6.50    9.10
  -3   9   3    6.00    3.00
   2  -9  -3   57.39    5.20
  -2   9   3   73.89   12.70
   1  -9  -3    4.00    2.20
   1  -9  -3   -0.50    2.90
  -1   9   3   -3.60    5.30
   0  -9  -3   13.10    3.10
   0  -9  -3   12.90    2.70
   0   9   3   10.80    5.10
  -1  -9  -3    9.20    2.70
  -1  -9  -3    4.70    2.60
   1   9   3   11.50    4.90
  -2  -9  -3    6.20    2.70
   2   9   3   -0.50    3.60
   2   9   3    5.90    5.00
  -3  -9  -3   -3.00    2.70
   3   9   3   12.00    4.70
   3   9   3   -4.30    3.30
  -4  10   3   14.70   12.00
   3 -10  -3   -1.50    4.00
  -3  10   3    5.80    9.90
   2 -10  -3    6.30    3.60
  -2  10   3   16.90    9.00
   1 -10  -3   -3.40    3.20
  -1  10   3  -12.60    5.80
   0 -10  -3    9.40    2.70
   0 -10  -3   10.90    3.30
   0  10   3   -0.10    5.60
  -1 -10  -3   -2.70    2.70
  -1 -10  -3    5.30    3.00
   1  10   3    1.10    5.20
  -2 -10  -3    3.80    2.90
   2  10   3   -3.30    4.10
  -3 -10  -3    0.50    3.50
   3  10   3    1.10    4.00
   3 -11  -3   10.50    4.90
  -3  11   3   26.70   10.90
   2 -11  -3    1.00    4.00
  -2  11   3   17.50    9.70
   1 -11  -3    4.30    3.70
  -1  11   3    7.80    7.30
   0 -11  -3    2.20    3.50
   0  11   3  -11.10    6.30
  -1 -11  -3    3.40    4.40
  -1 -11  -3    1.30    2.80
   1  11   3   -9.70    5.60
  -2 -11  -3    1.50    3.00
   2  11   3   -1.00    4.50
   1 -12  -3    1.30    3.90
   0 -12  -3   -2.20    3.70
   1  13  -4    5.20    4.60
   1  13  -4  -12.10    5.10
  -1 -13   4   -2.70    3.30
   0  13  -4    2.20    6.30
   0  13  -4   11.20    4.30
   0 -13   4    5.40    3.50
   0 -13   4   -0.20    4.00
  -1  13  -4   10.90    6.80
  -1  13  -4    2.50    4.60
   1 -13   4    5.20    5.40
   1 -13   4   -2.70    3.50
   2  12  -4    1.90    4.90
  -2 -12   4    8.00    3.50
  -2 -12   4    6.80    3.20
   1  12  -4    1.30    4.50
   1  12  -4   -7.40    5.60
  -1 -12   4   -1.80    2.90
  -1 -12   4    1.70    3.50
   0  12  -4   13.60    4.50
   0  12  -4    5.60    5.50
   0 -12   4   12.30    3.50
   0 -12   4    5.40    3.70
  -1  12  -4   16.20    6.00
  -1  12  -4   14.80    4.70
   1 -12   4   11.40    4.10
   1 -12   4   20.10    3.60
  -2  12  -4   -7.50    6.50
   2 -12   4   -3.10    3.20
   2 -12   4    0.20    4.00
   2 -12   4    9.40    4.40
   3 -12   4    1.40    4.60
   3 -12   4   -5.40    4.00
   3 -12   4   -2.40    3.20
   3  11  -4  -11.00    4.90
  -3 -11   4   -3.80    3.00
  -3 -11   4   -4.50    3.10
  -3 -11   4   -2.30    2.80
   2  11  -4   -7.20    4.30
   2  11  -4   -8.50    4.10
  -2 -11   4    2.00    2.80
  -2 -11   4   -2.70    2.30
  -2 -11   4    5.80    3.20
   1  11  -4   12.50    4.10
   1  11  -4    7.80    4.70
  -1 -11   4    7.60    3.30
  -1 -11   4    9.60    3.00
   0  11  -4    3.10    4.00
   0  11  -4   11.40    4.70
   0 -11   4    4.30    3.40
   0 -11   4   -0.70    2.80
  -1  11  -4   10.00    5.30
   1 -11   4    3.20    3.40
   1 -11   4    3.40    2.60
  -2  11  -4   -5.10    5.30
   2 -11   4    5.50    3.90
   2 -11   4    1.50    3.70
   2 -11   4    0.00    2.90
  -3  11  -4   -1.90    6.10
   3 -11   4    6.90    4.10
   3 -11   4    7.20    3.40
   3 -11   4    7.90    4.20
  -4  11  -4   17.40    8.30
   4 -11   4    0.70    4.20
   4 -11   4   -4.70    4.10
   4  10  -4   -4.60    5.70
  -4 -10   4   -0.80    2.80
  -4 -10   4   -3.90    3.00
  -4 -10   4    2.70    2.90
   3  10  -4   -4.20    4.90
  -3 -10   4   12.00    3.10
  -3 -10   4   12.10    3.40
  -3 -10   4    7.90    2.90
   2  10  -4    0.80    3.70
   2  10  -4   -4.70    3.50
  -2 -10   4    5.20    2.80
  -2 -10   4    2.00    2.30
  -2 -10   4    4.10    2.50
   1  10  -4   23.00    6.20
   1  10  -4   12.90    3.70
  -1 -10   4    6.20    2.80
  -1 -10   4    9.90    2.50
  -1 -10   4    6.40    2.10
   0  10  -4    8.60    4.70
   0  10  -4    4.10    3.60
   0 -10   4    1.00    2.80
   0 -10   4    5.70    2.50
  -1  10  -4   12.70    4.90
   1 -10   4   -0.50    3.20
   1 -10   4   -0.30    2.30
   1 -10   4    3.00    3.00
  -2  10  -4    2.20    5.10
   2 -10   4    8.50    3.50
   2 -10   4    8.60    3.50
   2 -10   4   10.20    2.70
  -3  10  -4    4.60    5.70
   3 -10   4    6.10    3.80
   3 -10   4    5.90    3.10
   3 -10   4    6.70    3.80
  -4  10  -4   -1.70    6.30
   4 -10   4    0.80    4.00
   4 -10   4    2.20    4.20
   4   9  -4   -4.60    4.90
  -4  -9   4    0.90    2.90
  -4  -9   4    0.10    2.70
  -4  -9   4   -0.80    2.60
   3   9  -4   -2.60    4.00
  -3  -9   4    3.00    2.40
  -3  -9   4    3.20    2.50
  -3  -9   4    4.90    2.80
   2   9  -4   13.40    3.70
   2   9  -4    9.30    3.50
  -2  -9   4   10.40    2.70
  -2  -9   4    5.70    2.20
  -2  -9   4    7.80    2.30
   1   9  -4    2.80    3.10
   1   9  -4    3.60    3.60
  -1  -9   4    0.40    1.70
  -1  -9   4    5.10    2.00
  -1  -9   4    5.50    2.40
   0   9  -4    6.00    4.20
   0   9  -4   -0.80    2.80
   0  -9   4    1.10    1.80
   0  -9   4    5.70    2.50
  -1   9  -4    9.00    4.30
   1  -9   4    6.70    2.90
   1  -9   4    4.50    2.60
   1  -9   4    7.10    1.90
  -2   9  -4    4.30    4.20
   2  -9   4    7.50    2.40
   2  -9   4    6.30    3.20
   2  -9   4    7.60    3.00
  -3   9  -4    7.50    3.00
  -3   9  -4    1.30    5.10
   3  -9   4    7.60    3.60
   3  -9   4    8.70    3.40
  -4   9  -4   10.40    3.80
  -4   9  -4    2.30    6.00
   4  -9   4    3.70    3.00
   4  -9   4    1.40    4.00
   4  -9   4    4.90    3.80
  -5   9  -4    9.00    4.60
  -5   9  -4   34.30    9.50
   5  -9   4    8.10    3.50
   5  -9   4    3.90    4.60
   5   8  -4    6.10    3.10
   5   8  -4    4.60    5.30
  -5  -8   4    6.20    3.00
  -5  -8   4    9.00    3.30
   4   8  -4   14.80    4.90
  -4  -8   4   16.70    2.90
  -4  -8   4   11.50    3.10
  -4  -8   4   12.10    2.80
   3   8  -4    4.70    3.50
  -3  -8   4    7.30    2.50
  -3  -8   4    2.80    2.20
  -3  -8   4    3.70    2.20
   2   8  -4   42.50    5.40
   2   8  -4   40.20    5.10
  -2  -8   4   47.60    3.40
  -2  -8   4   37.70    3.20
  -2  -8   4   35.00    3.50
   1   8  -4   23.50    3.40
   1   8  -4   26.30    4.20
  -1  -8   4   21.90    2.70
  -1  -8   4   22.90    3.10
  -1  -8   4   22.80    2.50
   0   8  -4   10.80    3.60
   0  -8   4   11.00    1.70
   0  -8   4   10.20    2.30
   0  -8   4   13.20    1.90
  -1   8  -4   23.40    4.30
   1  -8   4   27.40    3.40
   1  -8   4   29.20    2.60
   1  -8   4   32.50    3.90
  -2   8  -4    7.20    2.20
  -2   8  -4    5.70    3.90
   2  -8   4    7.30    2.60
   2  -8   4    5.30    2.60
   2  -8   4   11.90    2.10
  -3   8  -4    6.90    4.50
  -3   8  -4    4.60    2.80
   3  -8   4    3.50    3.30
   3  -8   4    4.20    2.40
   3  -8   4    4.40    3.00
  -4   8  -4    0.90    5.20
  -4   8  -4    0.10    3.60
   4  -8   4   -1.00    3.70
   4  -8   4    1.50    3.30
   4  -8   4    0.00    2.80
  -5   8  -4   -0.90    4.00
  -5   8  -4   -1.80    6.50
   5  -8   4   -0.10    3.10
   5  -8   4    0.40    4.20
   5   7  -4    2.20    4.60
   5   7  -4    2.50    2.80
  -5  -7   4    6.30    2.80
  -5  -7   4   -4.30    2.60
   4   7  -4    0.60    3.90
  -4  -7   4    3.10    2.40
  -4  -7   4    0.80    2.40
  -4  -7   4    0.80    2.30
   3   7  -4   24.00    5.50
  -3  -7   4   29.70    3.40
  -3  -7   4   24.50    3.10
  -3  -7   4   36.20    3.50
   2   7  -4   17.80    3.40
   2   7  -4   18.80    4.80
  -2  -7   4   23.70    2.50
  -2  -7   4   24.10    2.70
  -2  -7   4   26.50    2.90
   1   7  -4   14.90    4.10
   1   7  -4    4.80    2.00
  -1  -7   4    7.50    1.50
  -1  -7   4    6.30    1.90
  -1  -7   4    7.40    1.40
   0   7  -4   60.99    5.00
   0  -7   4   44.50    2.30
   0  -7   4   50.59    2.50
   0  -7   4   51.09    3.70
   0  -7   4   50.79    3.20
  -1   7  -4   64.39    2.90
  -1   7  -4   71.19    5.60
   1  -7   4   60.19    2.80
   1  -7   4   63.29    4.10
   1  -7   4   65.29    3.70
  -2   7  -4   24.50    5.60
  -2   7  -4   29.60    3.10
   2  -7   4   26.20    2.60
   2  -7   4   19.10    3.20
   2  -7   4   26.50    3.90
  -3   7  -4    4.00    2.70
  -3   7  -4    1.50    3.90
   3  -7   4   -2.30    2.00
   3  -7   4   -1.00    2.50
   3  -7   4   -0.20    2.70
  -4   7  -4   12.70    3.60
  -4   7  -4    7.70    4.90
   4  -7   4   11.70    4.00
   4  -7   4   11.70    3.20
   4  -7   4    8.40    2.80
  -5   7  -4    4.50    4.10
  -5   7  -4    7.30    9.70
   5  -7   4   -0.50    4.50
   5  -7   4    4.10    3.00
   5   6  -4    5.00    4.30
   5   6  -4    7.50    3.00
  -5  -6   4    8.70    2.70
  -5  -6   4    7.80    2.90
   4   6  -4    9.10    3.60
  -4  -6   4   14.70    2.50
  -4  -6   4   14.90    2.30
   3   6  -4   34.50    4.40
  -3  -6   4   36.30    3.30
  -3  -6   4   32.10    2.80
  -3  -6   4   34.80    3.00
   2   6  -4   76.79    4.60
   2   6  -4   75.99    4.20
  -2  -6   4   73.39    3.50
  -2  -6   4   76.69    3.30
  -2  -6   4   79.99    3.10
   1   6  -4   11.20    3.10
   1   6  -4    5.10    1.70
  -1  -6   4    6.30    1.30
  -1  -6   4    6.00    1.70
  -1  -6   4    7.30    1.20
  -1  -6   4    4.60    1.20
   0   6  -4   44.70    4.20
   0  -6   4   44.10    3.20
   0  -6   4   40.70    2.00
   0  -6   4   47.50    2.80
   0  -6   4   39.70    2.00
   0  -6   4   40.70    1.90
  -1   6  -4   72.29    2.80
  -1   6  -4   71.79    5.00
   1  -6   4   69.09    2.70
   1  -6   4   72.49    3.40
   1  -6   4   69.19    3.70
  -2   6  -4    5.40    1.80
  -2   6  -4    0.80    2.70
   2  -6   4    4.10    1.40
   2  -6   4    5.60    2.00
   2  -6   4    1.90    1.80
  -3   6  -4   47.90    6.40
  -3   6  -4   40.30    4.20
   3  -6   4   47.70    4.90
   3  -6   4   43.70    3.70
   3  -6   4   46.60    3.20
  -4   6  -4   -2.60    4.20
  -4   6  -4   -2.10    3.00
   4  -6   4    1.30    3.40
   4  -6   4    1.70    2.20
   4  -6   4   -2.80    2.60
  -5   6  -4    3.90    4.00
   5  -6   4   -2.60    2.60
   5  -6   4   -0.80    4.10
   6   5  -4   -1.30    4.20
  -6  -5   4    3.10    3.00
  -6  -5   4    0.00    2.60
   5   5  -4    0.40    2.80
   5   5  -4   -4.50    3.70
  -5  -5   4    4.00    2.50
  -5  -5   4   -0.30    2.10
   4   5  -4    2.70    3.30
  -4  -5   4    7.90    2.10
  -4  -5   4    3.60    1.90
   3   5  -4    8.40    2.40
  -3  -5   4   10.70    1.70
  -3  -5   4    9.80    2.00
  -3  -5   4   11.40    1.80
   2   5  -4   21.60    3.30
  -2  -5   4   18.00    2.20
  -2  -5   4   17.00    2.00
  -2  -5   4   24.00    1.80
   1   5  -4   11.10    1.80
   1   5  -4    9.30    2.50
  -1  -5   4   10.40    1.70
  -1  -5   4    9.90    1.30
  -1  -5   4    9.00    1.40
  -1  -5   4   11.40    1.50
   0   5  -4  145.19    5.70
   0  -5   4  139.69    4.00
   0  -5   4  143.49    5.10
   0  -5   4  144.29    4.60
   0  -5   4  146.49    4.00
   0  -5   4  144.69    4.00
  -1   5  -4   62.19    4.40
  -1   5  -4   57.29    2.50
   1  -5   4   60.09    2.90
   1  -5   4   61.39    2.40
   1  -5   4   57.19    2.30
   1  -5   4   58.19    3.30
  -2   5  -4   57.89    4.90
  -2   5  -4   57.59    3.00
   2  -5   4   54.09    3.70
   2  -5   4   51.19    2.50
   2  -5   4   55.39    3.00
  -3   5  -4   11.90    2.30
  -3   5  -4   10.40    3.50
   3  -5   4   17.80    2.50
   3  -5   4   19.20    4.00
   3  -5   4   15.20    2.00
  -4   5  -4    0.50    2.90
  -4   5  -4    3.30    4.00
   4  -5   4    1.30    2.50
   4  -5   4    0.90    3.00
   4  -5   4    1.60    2.00
  -5   5  -4   10.30    3.80
   5  -5   4    2.00    4.00
   5  -5   4    3.70    2.60
   6  -5   4   -2.10    4.50
   6   4  -4    0.40    4.00
   6   4  -4    5.10    4.10
  -6  -4   4    3.30    2.80
  -6  -4   4    1.80    2.40
   5   4  -4    3.10    2.90
   5   4  -4    8.10    3.70
  -5  -4   4    5.40    2.40
  -5  -4   4    8.90    2.30
   4   4  -4  176.58    7.90
   4   4  -4  169.08    6.20
  -4  -4   4  170.48    5.70
  -4  -4   4  162.08    5.80
  -4  -4   4  159.18    5.30
   3   4  -4    6.10    2.10
  -3  -4   4    8.70    1.40
  -3  -4   4    7.40    1.50
  -3  -4   4    7.00    1.20
  -3  -4   4    9.30    1.80
   2   4  -4   96.19    4.40
  -2  -4   4   94.39    3.60
  -2  -4   4   99.59    3.30
  -2  -4   4   91.49    3.00
  -2  -4   4   96.79    3.10
   1   4  -4  879.91   22.90
   1   4  -4  904.31   23.00
  -1  -4   4  914.71   22.00
  -1  -4   4  939.81   22.30
  -1  -4   4  919.11   22.10
  -1  -4   4  913.91   22.50
   0   4  -4  175.88    6.30
   0   4  -4  187.18    4.90
   0  -4   4  195.68    4.90
   0  -4   4  188.68    4.80
   0  -4   4  194.08    5.90
   0  -4   4  186.08    5.40
   0  -4   4  181.98    4.90
  -1   4  -4   46.70    2.30
  -1   4  -4   50.49    4.00
   1  -4   4   47.10    1.90
   1  -4   4   48.50    3.00
   1  -4   4   49.60    2.40
   1  -4   4   50.99    2.10
  -2   4  -4  164.78    6.60
  -2   4  -4  155.78    4.90
  -2   4  -4  155.38    4.70
   2  -4   4  147.39    4.90
   2  -4   4  157.28    5.60
   2  -4   4  157.58    4.80
   2  -4   4  163.08    4.60
  -3   4  -4   25.30    4.90
  -3   4  -4   24.10    2.90
   3  -4   4   23.80    2.70
   3  -4   4   25.90    3.50
   3  -4   4   27.90    2.50
  -4   4  -4   34.10    6.20
  -4   4  -4   46.90    4.20
   4  -4   4   36.30    4.00
   4  -4   4   28.60    3.30
   4  -4   4   35.70    5.10
  -5   4  -4   10.70    3.40
   5  -4   4    2.60    3.70
   5  -4   4    4.10    2.40
  -6   4  -4    7.40    4.40
   6  -4   4    2.20    4.50
   6   3  -4   -2.00    3.70
   6   3  -4    1.10    3.60
  -6  -3   4    0.60    2.50
  -6  -3   4    0.30    2.70
   5   3  -4   -2.30    2.90
   5   3  -4    2.40    3.20
  -5  -3   4    0.50    2.30
  -5  -3   4   -2.30    1.80
  -5  -3   4   -0.50    1.80
   4   3  -4   15.20    2.60
   4   3  -4   10.30    2.80
  -4  -3   4   14.80    2.30
  -4  -3   4   11.80    2.00
  -4  -3   4   11.70    1.90
   3   3  -4   10.80    2.20
  -3  -3   4   13.50    1.60
  -3  -3   4   11.30    1.80
  -3  -3   4   11.80    1.60
   2   3  -4   62.29    3.50
  -2  -3   4   59.49    2.20
  -2  -3   4   58.89    2.20
  -2  -3   4   64.89    2.50
  -2  -3   4   56.89    2.70
  -2  -3   4   61.59    2.10
   1   3  -4  200.88    6.00
   1   3  -4  199.88    6.10
  -1  -3   4  207.98    5.50
  -1  -3   4  204.08    5.20
  -1  -3   4  203.38    5.70
   0   3  -4   92.49    2.80
   0  -3   4   96.09    2.70
   0  -3   4   94.99    3.20
   0  -3   4   98.99    3.60
  -1   3  -4   98.59    3.20
   1  -3   4   92.09    3.10
   1  -3   4   93.29    4.40
   1  -3   4   98.09    3.70
   1  -3   4   95.09    2.90
   1  -3   4   96.19    2.80
  -2   3  -4  576.04   14.40
  -2   3  -4  549.95   14.20
   2  -3   4  560.04   15.50
   2  -3   4  574.84   14.10
   2  -3   4  560.54   14.20
   2  -3   4  578.84   14.20
   2  -3   4  566.84   15.10
  -3   3  -4    6.70    1.80
   3  -3   4   10.60    1.70
   3  -3   4    5.40    1.90
   3  -3   4    8.70    1.50
   3  -3   4    7.30    2.50
   4  -3   4   95.49    5.80
   4  -3   4   89.39    4.20
  -5   3  -4    8.20    3.30
   5  -3   4    7.00    3.80
   5  -3   4    4.90    2.40
  -6   3  -4    7.70    4.10
   6  -3   4    4.60    4.50
   6   2  -4    5.20    4.10
   6   2  -4    9.80    4.20
  -6  -2   4    9.10    2.80
  -6  -2   4    6.70    2.60
  -6  -2   4    4.80    2.70
   5   2  -4   45.70    5.00
   5   2  -4   44.50    5.70
  -5  -2   4   50.99    3.80
  -5  -2   4   44.50    3.90
  -5  -2   4   48.70    3.70
   4   2  -4   60.29    3.90
   4   2  -4   61.59    4.60
  -4  -2   4   58.89    3.10
  -4  -2   4   55.39    3.10
  -4  -2   4   57.19    3.30
   3   2  -4   33.20    3.40
   3   2  -4   29.40    2.60
  -3  -2   4   33.10    2.00
  -3  -2   4   34.50    2.00
  -3  -2   4   28.10    2.20
   2   2  -4  750.32   19.10
  -2  -2   4  754.32   18.30
  -2  -2   4  736.53   18.30
  -2  -2   4  736.83   18.20
  -2  -2   4  756.42   18.50
   1   2  -4  289.17    8.20
  -1  -2   4  310.37    7.70
  -1  -2   4  309.67    7.80
  -1  -2   4  315.37    8.00
   0  -2   4  369.26    9.10
   0  -2   4  364.96    9.20
   0  -2   4  366.06    9.20
   0  -2   4  363.36    9.90
   0  -2   4  372.46    9.60
  -1   2  -4  314.17    8.20
  -1   2  -4  300.47    7.80
   1  -2   4  327.07    8.00
   1  -2   4  320.17    8.00
   1  -2   4  314.77    9.20
   1  -2   4  324.77    8.00
   1  -2   4  327.27    8.70
  -2   2  -4   61.29    2.80
  -2   2  -4   56.59    1.90
  -2   2  -4   54.89    2.30
   2  -2   4   56.59    3.70
   2  -2   4   59.89    2.40
   2  -2   4   60.29    3.20
   2  -2   4   59.69    2.40
  -3   2  -4    2.80    1.40
  -3   2  -4    2.70    1.00
   3  -2   4    0.80    1.70
   3  -2   4   -0.20    1.30
   3  -2   4    1.10    1.90
  -4   2  -4    0.00    2.10
   4  -2   4    0.80    2.50
   4  -2   4    0.50    2.30
   4  -2   4    0.40    1.70
  -5   2  -4    7.50    3.00
   5  -2   4    2.00    3.60
   5  -2   4    3.80    2.20
  -6   2  -4    1.80    3.50
   6  -2   4    2.60    4.40
   6   1  -4    2.70    4.10
   6   1  -4    3.10    4.20
  -6  -1   4   -3.50    2.60
  -6  -1   4    1.50    2.80
  -6  -1   4    0.40    2.30
   5   1  -4   37.40    4.80
   5   1  -4   36.90    5.40
  -5  -1   4   32.40    3.30
  -5  -1   4   31.40    3.50
  -5  -1   4   36.30    3.70
   4   1  -4    6.50    2.30
   4   1  -4    6.80    2.20
  -4  -1   4   10.00    1.80
  -4  -1   4    4.60    1.60
  -4  -1   4    6.00    1.70
   3   1  -4   19.90    2.10
   3   1  -4   11.60    1.90
  -3  -1   4   16.30    1.80
  -3  -1   4   17.80    1.90
  -3  -1   4   18.20    1.90
   2   1  -4  612.14   15.30
   2   1  -4  618.54   15.70
  -2  -1   4  602.94   15.10
  -2  -1   4  600.74   15.00
  -2  -1   4  606.74   15.10
  -2  -1   4  612.44   15.00
   1   1  -4    8.10    1.40
  -1  -1   4    6.60    0.80
  -1  -1   4    7.30    1.30
  -1  -1   4    6.30    0.90
  -1  -1   4    7.80    1.00
   0  -1   4  547.75   13.50
   0  -1   4  536.35   14.00
   0  -1   4  540.85   13.30
   0  -1   4  539.65   13.40
   0  -1   4  552.34   13.30
  -1   1  -4   10.00    1.20
  -1   1  -4    7.60    1.00
   1  -1   4    9.00    1.70
   1  -1   4   10.10    1.20
   1  -1   4    8.70    2.40
   1  -1   4    8.00    1.30
  -2   1  -4   59.89    2.80
  -2   1  -4   59.29    2.40
  -2   1  -4   58.89    2.10
   2  -1   4   61.49    3.60
   2  -1   4   58.19    2.40
   2  -1   4   61.19    3.20
  -3   1  -4  111.19    3.50
  -3   1  -4  106.69    4.10
   3  -1   4  109.19    4.80
   3  -1   4  112.49    5.30
   3  -1   4  110.59    3.90
  -4   1  -4   24.40    3.20
  -4   1  -4   28.00    2.50
   4  -1   4   22.00    2.80
   4  -1   4   20.00    4.20
   4  -1   4   23.10    4.30
  -5   1  -4   19.50    3.10
   5  -1   4   15.80    2.60
   5  -1   4   14.80    3.90
  -6   1  -4   -2.20    3.10
   6  -1   4    2.90    4.40
   6   0  -4   25.60    4.80
   6   0  -4   35.60    6.00
  -6   0   4   17.10    3.00
  -6   0   4   23.50    3.60
  -6   0   4   25.40    4.30
   5   0  -4   27.60    3.80
   5   0  -4   24.80    5.30
  -5   0   4   20.90    3.60
  -5   0   4   26.30    3.70
  -5   0   4   23.20    3.10
   4   0  -4    1.50    2.00
   4   0  -4    0.50    2.20
  -4   0   4    0.50    1.70
  -4   0   4   -0.20    1.40
  -4   0   4    1.70    1.60
   3   0  -4  663.93   17.00
   3   0  -4  612.54   16.30
   3   0  -4  673.93   16.70
  -3   0   4  648.64   16.40
  -3   0   4  651.53   16.40
  -3   0   4  662.43   16.50
   2   0  -4   77.99    2.50
   2   0  -4   77.19    3.00
  -2   0   4   77.69    2.80
  -2   0   4   74.99    2.50
  -2   0   4   81.49    2.80
  -2   0   4   75.59    2.60
   1   0  -4  707.93   19.00
   1   0  -4  769.72   19.20
  -1   0   4  804.62   19.50
  -1   0   4  815.82   19.00
  -1   0   4  764.52   19.20
  -1   0   4  830.82   19.00
  -1   0   4  814.72   19.20
   0   0  -4  328.57    8.30
   0   0   4  324.17    8.10
   0   0   4  327.47    9.00
   0   0   4  337.17    8.30
   0   0   4  326.87    8.10
   0   0   4  333.47    8.40
  -1   0  -4  151.58    4.40
  -1   0  -4  154.18    4.30
  -1   0  -4  167.68    4.60
   1   0   4  162.68    4.80
   1   0   4  158.28    4.40
   1   0   4  160.18    4.40
   1   0   4  162.88    5.50
  -2   0  -4    6.40    1.10
  -2   0  -4    8.70    1.30
  -2   0  -4    6.10    1.10
   2   0   4    6.00    1.20
   2   0   4    5.80    1.50
   2   0   4    5.60    1.70
  -3   0  -4   59.59    3.10
  -3   0  -4   59.79    2.60
   3   0   4   56.39    4.00
   3   0   4   62.69    3.00
   3   0   4   62.19    3.80
  -4   0  -4   25.40    2.70
  -4   0  -4   23.70    3.20
   4   0   4   26.70    3.00
   4   0   4   25.60    4.20
   4   0   4   26.60    4.10
  -5   0  -4   -1.80    2.20
   5   0   4    3.90    3.60
  -6   0  -4    4.80    3.00
   6   0   4    1.20    4.40
   6  -1  -4   13.60    4.30
   6  -1  -4   21.20    4.50
  -6   1   4   14.70    3.40
   5  -1  -4    4.20    3.00
   5  -1  -4    5.50    3.30
  -5   1   4    2.50    2.00
  -5   1   4    5.40    2.20
  -5   1   4    8.20    2.60
   4  -1  -4   -0.60    2.20
   4  -1  -4    3.20    2.10
  -4   1   4    0.70    1.50
  -4   1   4    0.10    1.60
  -4   1   4    2.30    1.80
   3  -1  -4  325.27    8.90
   3  -1  -4  333.87    9.40
   3  -1  -4  349.67    9.30
  -3   1   4  334.77    9.00
  -3   1   4  342.87    9.10
  -3   1   4  332.07    8.90
   2  -1  -4   52.49    2.30
   2  -1  -4   50.69    2.60
   2  -1  -4   54.69    2.20
  -2   1   4   50.39    2.30
  -2   1   4   51.19    2.20
  -2   1   4   55.39    2.20
  -2   1   4   55.69    2.50
   1  -1  -4  835.62   21.00
  -1   1   4  838.22   20.90
  -1   1   4  863.91   20.90
  -1   1   4  872.71   20.80
  -1   1   4  865.31   20.80
  -1   1   4  870.21   21.40
   0  -1  -4  128.49    3.60
   0  -1  -4  130.29    3.60
   0  -1  -4  125.59    3.50
   0   1   4  127.29    3.60
   0   1   4  130.69    3.80
   0   1   4  126.29    4.60
   0   1   4  130.09    3.50
   0   1   4  122.99    3.50
  -1  -1  -4  506.25   12.50
  -1  -1  -4  484.65   12.40
  -1  -1  -4  480.55   12.40
   1   1   4  507.65   12.80
   1   1   4  503.65   12.40
   1   1   4  479.65   13.40
   1   1   4  521.15   13.10
  -2  -1  -4   82.29    3.00
  -2  -1  -4   78.79    2.90
  -2  -1  -4   78.19    3.00
   2   1   4   80.59    3.00
   2   1   4   77.99    4.00
   2   1   4   83.79    3.60
  -3  -1  -4   93.39    3.70
  -3  -1  -4   91.79    3.40
   3   1   4   91.09    3.70
   3   1   4   87.49    4.70
   3   1   4   90.29    4.40
  -4  -1  -4   27.70    3.10
  -4  -1  -4   31.60    2.90
   4   1   4   28.80    4.40
   4   1   4   25.70    3.20
   4   1   4   26.20    4.10
  -5  -1  -4    2.50    2.40
  -5  -1  -4    0.00    2.10
   5   1   4    0.20    3.30
  -6  -1  -4    3.60    2.80
   6   1   4    4.60    4.60
   6  -2  -4   20.10    4.70
  -6   2   4   19.20    3.70
   5  -2  -4    0.80    3.30
   5  -2  -4   -0.40    2.90
  -5   2   4    0.30    2.00
  -5   2   4    1.00    2.00
  -5   2   4   -0.30    2.50
   4  -2  -4   84.49    4.70
   4  -2  -4   90.49    4.90
  -4   2   4   90.79    3.60
  -4   2   4   79.09    4.10
  -4   2   4   81.49    3.80
   3  -2  -4    5.60    1.80
   3  -2  -4    2.40    1.40
   3  -2  -4    2.50    1.30
  -3   2   4    2.70    1.20
  -3   2   4    1.30    1.50
  -3   2   4    2.90    1.30
   2  -2  -4  137.79    4.20
   2  -2  -4  139.59    4.30
   2  -2  -4  142.19    4.60
  -2   2   4  167.78    5.50
  -2   2   4  139.29    4.30
  -2   2   4  143.19    4.30
  -2   2   4  142.89    4.50
   1  -2  -4  148.19    4.10
   1  -2  -4  139.89    4.10
   1  -2  -4  141.49    4.30
  -1   2   4  143.99    4.10
  -1   2   4  151.38    5.30
  -1   2   4  140.89    4.30
   0  -2  -4   40.60    2.00
   0  -2  -4   34.20    1.60
   0  -2  -4   34.50    1.70
   0   2   4   33.80    3.00
   0   2   4   37.20    1.90
   0   2   4   34.50    1.80
   0   2   4   34.90    1.60
  -1  -2  -4   84.09    3.00
  -1  -2  -4   85.99    3.00
   1   2   4   88.49    3.00
   1   2   4   90.39    4.20
   1   2   4   92.19    3.30
  -2  -2  -4    5.90    1.20
  -2  -2  -4    4.80    1.20
  -2  -2  -4    7.30    1.30
   2   2   4    5.10    1.60
   2   2   4    6.30    1.80
   2   2   4    4.40    1.30
  -3  -2  -4   14.50    2.20
  -3  -2  -4   15.00    2.10
   3   2   4   16.70    3.40
   3   2   4   17.80    3.30
   3   2   4   15.60    2.00
  -4  -2  -4    8.50    1.90
  -4  -2  -4   12.60    2.10
   4   2   4    5.50    2.60
   4   2   4    9.70    2.90
   4   2   4    9.70    2.20
  -5  -2  -4    8.50    2.50
  -5  -2  -4    7.50    2.40
   5   2   4    7.60    3.80
  -6  -2  -4    2.10    2.70
   6  -3  -4    9.10    4.50
  -6   3   4    4.10    3.50
   5  -3  -4    6.20    3.70
  -5   3   4    8.80    3.00
  -5   3   4    8.80    2.30
   4  -3  -4   19.40    3.80
   4  -3  -4   24.10    3.90
  -4   3   4   13.40    2.30
  -4   3   4   16.70    2.90
  -4   3   4   16.60    2.60
   3  -3  -4   10.60    2.40
   3  -3  -4    9.70    2.20
  -3   3   4    8.60    1.50
  -3   3   4    8.40    1.60
  -3   3   4    5.70    1.70
  -3   3   4   18.80    5.20
   2  -3  -4    1.30    1.00
   2  -3  -4    0.80    1.10
   2  -3  -4    0.10    1.50
  -2   3   4   -0.90    1.30
  -2   3   4    1.50    2.20
  -2   3   4   -0.40    1.10
   1  -3  -4   82.89    3.00
   1  -3  -4   87.79    2.90
   1  -3  -4   83.79    3.20
  -1   3   4   89.69    3.00
  -1   3   4   85.09    4.60
  -1   3   4   83.49    3.10
   0  -3  -4   36.10    2.00
   0  -3  -4   39.50    2.00
   0  -3  -4   38.10    1.90
   0   3   4   37.80    2.10
   0   3   4   39.60    3.40
   0   3   4   37.50    2.00
   0   3   4   35.00    2.00
  -1  -3  -4   74.69    2.90
  -1  -3  -4   71.29    2.90
   1   3   4   75.39    2.80
   1   3   4   73.19    4.10
   1   3   4   74.49    2.80
   1   3   4   74.09    3.20
  -2  -3  -4   14.20    2.00
  -2  -3  -4   16.20    1.70
  -2  -3  -4   20.00    2.00
   2   3   4   14.00    3.20
   2   3   4   14.40    2.70
   2   3   4   16.60    2.20
  -3  -3  -4    8.90    1.60
  -3  -3  -4   11.90    1.80
   3   3   4   11.20    2.10
   3   3   4    9.10    2.30
   3   3   4    7.60    2.40
  -4  -3  -4   13.80    2.20
  -4  -3  -4    9.10    1.90
   4   3   4    9.50    3.00
   4   3   4   13.50    3.00
  -5  -3  -4    5.30    2.20
  -5  -3  -4    9.90    2.70
   5   3   4    6.80    3.70
   6  -4  -4    8.50    4.70
  -6   4   4    6.50    3.70
   5  -4  -4   35.30    5.50
  -5   4   4   36.00    4.80
   4  -4  -4   -1.00    2.60
  -4   4   4   -0.90    1.90
  -4   4   4    2.00    2.30
  -4   4   4    3.10    1.70
   3  -4  -4   13.00    1.80
   3  -4  -4    9.90    2.20
  -3   4   4    8.30    2.00
  -3   4   4   12.10    4.30
  -3   4   4    8.20    1.70
   2  -4  -4   58.39    2.60
   2  -4  -4   64.69    3.30
   2  -4  -4   68.89    2.80
  -2   4   4   59.89    3.10
  -2   4   4   61.29    2.90
  -2   4   4   78.79    6.80
   1  -4  -4   23.30    2.00
   1  -4  -4   29.10    2.00
   1  -4  -4   26.00    2.20
  -1   4   4   26.40    2.00
  -1   4   4   26.50    2.10
  -1   4   4   25.30    4.20
   0  -4  -4   27.40    2.00
   0  -4  -4   30.50    2.00
   0  -4  -4   33.00    2.00
   0   4   4   29.20    1.90
   0   4   4   29.00    3.60
   0   4   4   31.00    2.20
   0   4   4   27.00    2.20
  -1  -4  -4  246.38    6.70
  -1  -4  -4  236.58    6.80
  -1  -4  -4  239.48    6.50
   1   4   4  237.38    7.20
   1   4   4  240.18    6.60
   1   4   4  238.18    8.20
   1   4   4  236.58    6.80
  -2  -4  -4   10.70    1.80
  -2  -4  -4   12.90    1.80
  -2  -4  -4   15.50    2.10
   2   4   4   14.80    1.90
   2   4   4   16.70    3.60
  -3  -4  -4  164.38    5.60
   3   4   4  169.58    5.90
   3   4   4  164.98    7.10
   3   4   4  169.48    6.80
  -4  -4  -4    2.50    1.70
  -4  -4  -4    0.00    2.00
   4   4   4    2.20    2.70
   4   4   4    1.70    2.80
  -5  -4  -4    6.70    2.70
   5   4   4    7.20    3.70
   6  -5  -4    0.30    4.60
  -6   5   4   -5.70    4.10
   5  -5  -4    4.10    4.10
  -5   5   4    7.30    3.30
   4  -5  -4    9.00    3.30
  -4   5   4    6.00    2.20
  -4   5   4    7.40    2.80
   3  -5  -4    2.10    1.70
   3  -5  -4    1.90    2.40
  -3   5   4    2.00    2.20
  -3   5   4    3.80    1.90
  -3   5   4    4.40    5.00
   2  -5  -4   22.90    2.90
   2  -5  -4   20.70    2.40
   2  -5  -4   20.70    2.50
   2  -5  -4   17.50    3.40
  -2   5   4   25.10    2.80
  -2   5   4   31.70    7.20
  -2   5   4   20.80    2.50
   1  -5  -4   17.20    2.20
   1  -5  -4   14.30    2.30
   1  -5  -4   16.40    2.00
  -1   5   4   12.10    2.10
  -1   5   4   19.40    2.20
  -1   5   4   18.80    2.20
   0  -5  -4    9.60    1.60
   0  -5  -4    7.10    1.60
   0  -5  -4    5.00    1.40
   0   5   4   19.70    3.20
   0   5   4    8.50    1.50
   0   5   4    8.80    1.60
  -1  -5  -4    1.70    1.40
  -1  -5  -4    2.90    1.30
  -1  -5  -4    2.60    1.40
   1   5   4    0.50    2.30
   1   5   4    2.80    1.70
   1   5   4    2.40    2.10
   1   5   4    1.90    1.40
  -2  -5  -4    6.20    1.30
  -2  -5  -4    6.70    1.70
   2   5   4    5.20    1.80
   2   5   4    4.00    2.50
  -3  -5  -4    6.20    2.00
   3   5   4    8.10    2.80
   3   5   4    4.30    2.70
  -4  -5  -4    0.20    2.20
   4   5   4    2.10    3.00
  -5  -5  -4    8.40    3.00
   5   5   4    4.10    3.80
   5  -6  -4   -1.90    4.10
  -5   6   4   -0.30    3.40
   4  -6  -4    5.90    3.70
  -4   6   4    5.00    3.00
   3  -6  -4    9.20    2.00
   3  -6  -4   11.10    3.00
  -3   6   4    3.50    6.80
  -3   6   4    7.00    2.20
  -3   6   4    9.90    2.60
   1  -6  -4   53.09    3.30
   1  -6  -4   50.69    2.80
   1  -6  -4   44.70    3.30
  -1   6   4   48.20    2.90
  -1   6   4   49.90    3.20
   0  -6  -4    7.20    1.70
   0  -6  -4    5.10    1.80
   0  -6  -4    2.70    1.80
   0   6   4    4.40    1.80
   0   6   4    3.40    2.40
   0   6   4    4.20    1.50
  -1  -6  -4   22.40    2.50
  -1  -6  -4   24.50    2.50
  -1  -6  -4   20.80    2.90
   1   6   4   25.50    3.20
  -2  -6  -4   44.00    3.30
   2   6   4   44.60    3.60
   2   6   4   38.00    5.00
  -3  -6  -4   23.10    3.60
   3   6   4   29.60    5.10
   3   6   4   23.60    5.00
  -4  -6  -4   11.00    2.80
   4   6   4    7.80    3.40
  -5  -6  -4   16.00    3.80
   5   6   4   15.50    4.40
   5  -7  -4    6.90    4.70
  -5   7   4    4.70    3.80
   4  -7  -4   -1.70    3.80
  -4   7   4   -0.80    3.20
   3  -7  -4    3.10    3.30
  -3   7   4    5.60    7.00
  -3   7   4    0.00    2.60
   2  -7  -4    8.70    2.00
   2  -7  -4    4.00    2.50
  -2   7   4   15.00    5.90
  -2   7   4   10.10    2.40
  -2   7   4    9.80    2.30
   1  -7  -4   -0.20    1.80
   1  -7  -4    2.20    2.30
  -1   7   4    2.80    1.80
  -1   7   4   -0.40    1.90
  -1   7   4   -0.90    4.00
   0  -7  -4   38.70    3.10
   0  -7  -4   39.90    3.40
   0   7   4   35.50    6.30
   0   7   4   35.70    2.60
   0   7   4   41.30    3.60
  -1  -7  -4    6.30    2.10
  -1  -7  -4    1.00    1.90
   1   7   4    4.10    3.50
  -2  -7  -4    0.80    2.20
   2   7   4   -0.70    2.90
   2   7   4    2.40    3.40
  -3  -7  -4    1.80    2.40
   3   7   4    2.70    3.20
   3   7   4   -2.20    3.10
  -4  -7  -4    9.10    3.00
   4   7   4    9.00    3.70
   5  -8  -4   -0.90    4.90
  -5   8   4    2.70    3.80
   4  -8  -4   -1.30    4.00
  -4   8   4   -0.80    3.30
   3  -8  -4    5.90    3.50
  -3   8   4   54.69   11.60
  -3   8   4    5.60    2.90
   2  -8  -4    8.50    2.40
   2  -8  -4    9.80    3.30
  -2   8   4    5.40    6.30
  -2   8   4    6.90    2.50
   1  -8  -4    4.60    2.10
   1  -8  -4    6.20    2.70
  -1   8   4    2.20    5.00
   0  -8  -4    6.30    2.60
   0  -8  -4    2.60    2.30
   0   8   4    4.20    4.40
  -1  -8  -4    9.30    2.50
  -1  -8  -4   12.00    2.50
   1   8   4    6.80    4.00
  -2  -8  -4    0.70    2.40
   2   8   4    5.20    4.00
   2   8   4   -5.90    3.10
  -3  -8  -4    1.60    2.70
   3   8   4    2.10    3.70
   3   8   4   -2.40    3.20
  -4  -8  -4   23.00    4.80
   4   8   4   28.70    6.50
  -4   9   4   83.29   21.80
  -3   9   4   59.99   14.30
   2  -9  -4    2.70    3.40
  -2   9   4    4.70    7.10
   1  -9  -4    9.00    2.60
   1  -9  -4    6.80    3.10
  -1   9   4   21.20    6.90
   0  -9  -4    0.30    2.70
   0  -9  -4   -4.10    2.40
   0   9   4    7.10    5.50
  -1  -9  -4    3.50    2.60
  -1  -9  -4    2.50    2.50
   1   9   4   -0.90    4.30
  -2  -9  -4    0.50    2.70
   2   9   4   -3.20    3.70
  -3  -9  -4    8.60    3.20
   3   9   4    7.00    4.00
  -4  10   4   49.30   18.70
  -3  10   4   69.49   15.30
  -2  10   4   47.30   12.90
   1 -10  -4    3.00    3.30
  -1  10   4   10.70    7.30
   0 -10  -4   30.30    4.80
   0  10   4   37.80   10.60
  -1 -10  -4   -0.80    2.80
   1  10   4   -4.40    5.00
  -2 -10  -4   11.50    3.10
   2  10   4    1.50    4.30
  -3  11   4   13.80   11.00
   2 -11  -4    2.70    4.00
  -2  11   4   -1.80    8.50
   1 -11  -4    4.10    3.70
  -1  11   4   14.50    7.90
   0 -11  -4    2.90    3.50
   0 -11  -4    2.30    3.00
   0  11   4   -2.10    6.60
  -1 -11  -4    0.40    2.90
   1  11   4   -5.60    5.50
   1  13  -5   -4.00    6.10
   1  13  -5    2.30    4.50
  -1 -13   5   -1.60    5.70
   0  13  -5    4.70    4.50
   0  13  -5    3.70    5.50
   0 -13   5   -4.00    3.30
   0 -13   5    0.50    4.00
  -1  13  -5    5.00    4.60
  -1  13  -5   10.20    7.30
   1 -13   5    8.30    5.40
   1 -13   5    1.50    3.50
   2  12  -5   10.50    5.10
  -2 -12   5   14.20    3.90
  -2 -12   5   22.70    3.60
   1  12  -5    4.00    4.40
   1  12  -5    0.20    5.10
  -1 -12   5    3.30    3.70
  -1 -12   5   -0.20    2.90
   0  12  -5   17.50    5.50
   0  12  -5   15.80    4.90
   0 -12   5   15.90    3.40
   0 -12   5    6.00    3.90
  -1  12  -5   11.90    5.90
   1 -12   5    0.60    3.70
   1 -12   5    6.50    3.20
  -2  12  -5   -0.20    5.80
   2 -12   5    0.10    4.00
   2 -12   5    2.00    4.10
   2 -12   5   -4.40    3.00
   3 -12   5   -0.70    4.30
   3 -12   5   -2.70    3.40
   3 -12   5    1.90    4.50
   3  11  -5   -2.50    4.90
  -3 -11   5    1.90    3.40
  -3 -11   5    5.50    3.10
  -3 -11   5    4.90    2.80
   2  11  -5    6.30    4.60
  -2 -11   5    4.10    2.40
  -2 -11   5    0.00    2.80
  -2 -11   5    0.10    3.10
   1  11  -5    9.80    4.30
   1  11  -5    5.40    3.90
  -1 -11   5   -3.40    3.20
  -1 -11   5    1.40    2.70
   0  11  -5    0.20    4.00
   0  11  -5   31.80    8.30
   0 -11   5   -0.80    2.60
   0 -11   5    0.90    3.40
   1 -11   5    0.80    2.50
   1 -11   5    2.80    3.50
   1 -11   5   -2.30    3.50
  -2  11  -5    8.90    5.40
   2 -11   5    8.80    2.90
   2 -11   5    9.80    3.90
   2 -11   5   12.10    4.20
  -3  11  -5   -3.60    6.00
   3 -11   5   -1.10    3.20
   3 -11   5    3.90    4.10
   3 -11   5    4.80    4.20
   4  10  -5   -2.20    5.40
  -4 -10   5   14.10    3.70
  -4 -10   5    9.70    3.10
  -4 -10   5    5.10    3.00
   3  10  -5   26.50    5.40
  -3 -10   5   45.90    4.90
  -3 -10   5   45.90    4.40
  -3 -10   5   50.69    5.00
   2  10  -5    2.40    3.60
   2  10  -5   -2.50    3.50
  -2 -10   5   -2.30    2.40
  -2 -10   5    1.20    2.20
  -2 -10   5    2.40    2.80
   1  10  -5   56.99    6.70
   1  10  -5   61.39    6.80
  -1 -10   5   47.30    4.10
  -1 -10   5   48.00    4.80
   0  10  -5    8.90    3.70
   0  10  -5   35.40    7.80
   0 -10   5    1.10    2.90
   0 -10   5    7.80    2.50
  -1  10  -5   11.70    5.10
   1 -10   5    1.60    3.20
   1 -10   5    3.00    3.20
   1 -10   5    2.80    2.30
  -2  10  -5    8.50    5.00
   2 -10   5    7.90    2.60
   2 -10   5    8.10    3.60
   2 -10   5    8.00    3.50
  -3  10  -5    9.10    5.70
   3 -10   5    5.20    3.00
   3 -10   5    2.80    3.90
   3 -10   5   11.50    3.80
  -4  10  -5    6.20    6.20
   4 -10   5    2.70    4.00
   4 -10   5    0.20    4.30
   4   9  -5   -0.50    4.70
  -4  -9   5   11.50    3.40
  -4  -9   5    8.20    2.90
  -4  -9   5    4.70    2.90
   3   9  -5    7.10    4.10
  -3  -9   5    8.00    3.00
  -3  -9   5    8.20    2.50
  -3  -9   5   11.60    2.70
   2   9  -5    3.10    3.10
   2   9  -5    2.60    2.90
  -2  -9   5   -0.10    2.00
  -2  -9   5    0.50    2.10
  -2  -9   5    1.90    2.50
   1   9  -5   -0.80    3.70
   1   9  -5   -0.70    3.10
  -1  -9   5    1.30    1.60
  -1  -9   5    0.80    2.40
  -1  -9   5    2.20    1.90
   0   9  -5   19.30    4.70
   0  -9   5   16.60    2.10
   0  -9   5    8.10    2.70
  -1   9  -5    1.70    4.10
   1  -9   5   -0.70    2.70
   1  -9   5    3.20    2.60
   1  -9   5    0.40    1.60
  -2   9  -5   10.40    4.50
   2  -9   5    3.50    3.00
   2  -9   5    5.50    2.20
   2  -9   5    5.80    3.10
  -3   9  -5    7.90    3.00
  -3   9  -5    6.10    5.10
   3  -9   5    3.20    3.60
   3  -9   5    1.80    3.30
  -4   9  -5   -1.70    3.70
  -4   9  -5    0.50    5.70
   4  -9   5    6.10    4.30
   4  -9   5    1.80    2.90
   4  -9   5    0.40    3.50
   5   8  -5   -2.10    5.10
   5   8  -5    2.70    3.10
  -5  -8   5    3.40    2.80
  -5  -8   5    2.60    3.00
   4   8  -5   54.49    8.00
  -4  -8   5   61.89    5.20
  -4  -8   5   64.79    4.80
  -4  -8   5   61.39    4.70
   3   8  -5    1.90    3.30
  -3  -8   5    4.50    2.20
  -3  -8   5    2.00    2.50
  -3  -8   5    5.40    2.20
   2   8  -5   50.89    4.80
   2   8  -5   43.00    5.30
  -2  -8   5   44.50    3.70
  -2  -8   5   45.60    3.30
  -2  -8   5   41.70    3.20
   1   8  -5    0.40    2.20
   1   8  -5    3.90    3.00
  -1  -8   5   -2.10    2.00
  -1  -8   5    1.40    1.50
  -1  -8   5    1.10    1.40
   0   8  -5   -0.90    3.60
   0  -8   5    7.00    1.50
   0  -8   5    6.90    2.40
   0  -8   5    7.90    2.20
   0  -8   5    8.10    1.50
  -1   8  -5    5.80    3.50
   1  -8   5    4.60    1.50
   1  -8   5    2.50    2.30
   1  -8   5    1.10    2.20
  -2   8  -5    4.30    2.20
  -2   8  -5    2.60    3.90
   2  -8   5   -0.50    2.40
   2  -8   5    3.70    2.50
   2  -8   5    3.00    1.80
  -3   8  -5   15.10    4.90
  -3   8  -5   15.40    3.10
   3  -8   5   12.30    2.60
   3  -8   5   12.30    3.10
   3  -8   5   12.20    3.60
  -4   8  -5   -2.40    5.30
  -4   8  -5   -2.00    3.70
   4  -8   5   -5.30    2.60
   4  -8   5   -0.90    3.20
   4  -8   5   -0.60    3.90
  -5   8  -5   -0.70    6.00
  -5   8  -5    4.90    4.30
   5  -8   5    0.50    4.40
   5  -8   5    4.00    3.30
   5   7  -5    3.50    2.90
   5   7  -5    1.10    4.80
  -5  -7   5    5.70    2.90
  -5  -7   5    8.30    3.00
   4   7  -5    0.30    3.70
  -4  -7   5    1.70    2.60
  -4  -7   5   -0.70    2.30
  -4  -7   5    1.40    2.20
   3   7  -5    0.00    3.00
  -3  -7   5    2.90    2.30
  -3  -7   5    1.20    1.90
  -3  -7   5    5.20    1.90
   2   7  -5    4.70    2.50
   2   7  -5   -1.10    2.30
  -2  -7   5    1.90    1.80
  -2  -7   5    2.10    1.60
  -2  -7   5    1.30    1.40
   1   7  -5   -2.30    1.70
   1   7  -5    1.40    2.40
  -1  -7   5    0.80    1.30
  -1  -7   5    1.80    1.80
  -1  -7   5    1.00    1.20
   0   7  -5   12.40    3.10
   0  -7   5    8.80    1.20
   0  -7   5   12.10    1.80
   0  -7   5    9.20    2.20
   0  -7   5   14.10    2.10
  -1   7  -5   13.20    1.70
  -1   7  -5   11.00    3.20
   1  -7   5   10.20    2.10
   1  -7   5   15.10    2.80
   1  -7   5   12.30    1.90
  -2   7  -5   32.30    3.30
  -2   7  -5   28.00    5.60
   2  -7   5   27.80    3.90
   2  -7   5   33.00    3.40
   2  -7   5   23.00    2.60
  -3   7  -5    2.40    4.10
  -3   7  -5    7.90    2.90
   3  -7   5    3.90    2.90
   3  -7   5    6.50    2.70
   3  -7   5    7.30    2.20
  -4   7  -5   38.90    5.20
  -4   7  -5   40.20    8.20
   4  -7   5   26.80    4.40
   4  -7   5   28.90    4.40
   4  -7   5   29.30    6.30
  -5   7  -5   -3.90    5.50
  -5   7  -5    3.10    4.20
   5  -7   5   -1.80    2.90
   5  -7   5   -0.80    4.50
   5   6  -5   36.70    5.50
   5   6  -5   46.20    5.20
  -5  -6   5   45.60    4.50
  -5  -6   5   41.80    4.30
   4   6  -5   -2.40    3.10
  -4  -6   5    3.00    2.00
  -4  -6   5   -2.80    2.00
   3   6  -5   90.09    5.70
  -3  -6   5   98.99    4.10
  -3  -6   5  100.19    4.00
  -3  -6   5  101.59    4.60
   2   6  -5    2.70    1.80
   2   6  -5    2.40    2.00
  -2  -6   5    3.60    1.20
  -2  -6   5    3.30    1.70
  -2  -6   5    4.40    1.40
   1   6  -5   71.29    4.00
   1   6  -5   68.49    4.30
  -1  -6   5   75.59    2.90
  -1  -6   5   78.29    3.50
  -1  -6   5   75.59    2.60
  -1  -6   5   73.99    2.70
   0   6  -5   72.79    4.80
   0  -6   5   74.69    2.50
   0  -6   5   70.99    2.60
   0  -6   5   66.99    3.80
   0  -6   5   71.79    3.40
   0  -6   5   67.39    2.40
  -1   6  -5   25.60    4.30
  -1   6  -5   23.00    2.20
   1  -6   5   21.20    1.70
   1  -6   5   25.60    2.60
   1  -6   5   20.90    2.90
  -2   6  -5   24.70    5.10
  -2   6  -5   18.50    2.90
   2  -6   5   14.60    1.70
   2  -6   5   21.00    2.80
   2  -6   5   11.90    2.40
  -3   6  -5   26.50    3.80
  -3   6  -5   29.30    6.50
   3  -6   5   23.00    3.40
   3  -6   5   22.50    4.90
   3  -6   5   25.30    2.90
  -4   6  -5    6.90    3.40
  -4   6  -5    0.90    4.60
   4  -6   5    3.10    2.40
   4  -6   5    1.20    3.50
  -5   6  -5   -1.40    5.50
  -5   6  -5    5.00    4.10
   5  -6   5   -1.50    2.70
   5  -6   5    5.70    4.30
   6   5  -5   13.40    4.10
   6   5  -5    9.30    4.70
  -6  -5   5    6.10    3.00
  -6  -5   5    5.70    2.70
   5   5  -5    0.00    3.00
   5   5  -5   -5.00    3.60
  -5  -5   5    0.60    2.20
  -5  -5   5    3.00    2.60
   4   5  -5   -3.90    2.70
  -4  -5   5    0.10    1.90
  -4  -5   5    1.90    1.90
   3   5  -5    7.50    2.70
  -3  -5   5    7.50    1.50
  -3  -5   5    9.60    2.10
  -3  -5   5   13.00    1.90
   2   5  -5    0.80    1.70
  -2  -5   5    1.80    1.30
  -2  -5   5    0.00    1.00
  -2  -5   5   -0.50    1.50
   1   5  -5   25.70    2.60
   1   5  -5   23.80    2.80
  -1  -5   5   24.00    1.70
  -1  -5   5   28.20    1.50
  -1  -5   5   26.70    2.30
  -1  -5   5   26.80    1.50
   0   5  -5  236.88    8.10
   0  -5   5  242.98    6.40
   0  -5   5  249.28    6.30
   0  -5   5  253.17    6.40
   0  -5   5  245.38    7.50
   0  -5   5  249.08    7.00
  -1   5  -5   29.40    3.90
  -1   5  -5   30.00    2.20
   1  -5   5   35.60    1.90
   1  -5   5   31.90    2.90
   1  -5   5   32.40    1.80
   1  -5   5   32.90    2.40
  -2   5  -5   28.20    4.60
  -2   5  -5   20.50    2.70
   2  -5   5   20.90    2.00
   2  -5   5   26.10    3.40
   2  -5   5   26.00    2.50
  -3   5  -5   45.60    6.10
  -3   5  -5   42.90    3.80
   3  -5   5   38.40    4.40
   3  -5   5   46.10    3.30
   3  -5   5   43.10    3.00
  -4   5  -5    1.60    4.40
  -4   5  -5    6.50    3.10
   4  -5   5    5.40    2.20
   4  -5   5    8.00    3.30
  -5   5  -5    1.30    3.80
  -5   5  -5    4.80    7.10
   5  -5   5   -0.80    3.90
   5  -5   5    0.70    2.60
   6   4  -5   26.60    4.90
   6   4  -5   23.80    4.30
  -6  -4   5   28.00    4.20
  -6  -4   5   23.40    3.60
   5   4  -5    2.90    3.10
   5   4  -5   -2.70    3.40
  -5  -4   5    4.30    2.50
  -5  -4   5    3.30    2.10
   4   4  -5   25.70    3.50
   4   4  -5   22.70    3.80
  -4  -4   5   17.10    2.90
  -4  -4   5   20.00    2.80
  -4  -4   5   17.00    2.30
   3   4  -5   32.00    4.00
  -3  -4   5   29.70    1.90
  -3  -4   5   30.10    2.80
  -3  -4   5   32.20    2.20
  -3  -4   5   29.90    2.40
   2   4  -5    1.80    1.70
  -2  -4   5    1.60    1.10
  -2  -4   5    0.40    0.90
  -2  -4   5    1.60    0.80
  -2  -4   5    1.80    0.80
  -2  -4   5    0.60    1.40
   1   4  -5   57.89    3.10
   1   4  -5   57.39    3.10
  -1  -4   5   58.09    2.60
  -1  -4   5   57.09    2.30
   0   4  -5   50.79    1.90
   0   4  -5   40.20    3.50
   0  -4   5   49.90    2.90
   0  -4   5   48.90    2.50
   0  -4   5   49.99    1.80
  -1   4  -5  106.69    3.60
   1  -4   5  113.19    3.30
   1  -4   5  111.99    4.40
   1  -4   5  111.49    3.70
   1  -4   5  114.29    3.30
  -2   4  -5   44.50    2.80
   2  -4   5   46.80    2.50
   2  -4   5   46.80    3.30
   2  -4   5   46.80    2.30
  -3   4  -5    0.50    1.90
   3  -4   5    2.00    2.00
   3  -4   5    0.50    1.50
   3  -4   5    2.10    1.70
  -4   4  -5   32.90    6.50
  -4   4  -5   30.30    4.20
   4  -4   5   32.40    5.40
   4  -4   5   26.00    3.30
  -5   4  -5    6.10    3.60
   5  -4   5   -0.30    3.70
   5  -4   5   -2.00    2.20
   6  -4   5    3.30    5.80
   6   3  -5    0.60    3.90
   6   3  -5    0.10    3.70
  -6  -3   5   -0.50    2.50
  -6  -3   5    1.10    2.30
   5   3  -5   12.30    3.50
   5   3  -5    8.00    3.50
  -5  -3   5   11.00    2.20
  -5  -3   5   10.70    2.60
  -5  -3   5    7.00    2.10
   4   3  -5   31.40    3.70
   4   3  -5   33.80    4.90
  -4  -3   5   30.90    2.60
  -4  -3   5   35.40    3.10
  -4  -3   5   33.20    2.70
   3   3  -5   46.40    3.70
   3   3  -5   38.40    3.10
  -3  -3   5   42.50    2.30
  -3  -3   5   42.90    2.50
  -3  -3   5   41.00    2.30
   2   3  -5  100.19    4.30
  -2  -3   5   95.49    3.60
  -2  -3   5   99.99    3.00
  -2  -3   5   95.39    3.00
  -2  -3   5   99.79    3.00
  -2  -3   5  105.59    3.40
   1   3  -5   84.39    3.60
   1   3  -5   84.29    3.60
  -1  -3   5   93.59    2.80
  -1  -3   5   92.79    2.90
  -1  -3   5   93.49    3.30
   0  -3   5    7.40    1.80
   0  -3   5    6.50    1.40
   0  -3   5    8.40    1.10
   0  -3   5    9.00    1.60
  -1   3  -5  313.87    8.00
  -1   3  -5  322.07    8.50
   1  -3   5  329.67    8.40
   1  -3   5  328.47    9.70
   1  -3   5  333.27    9.10
   1  -3   5  321.17    8.20
   1  -3   5  328.57    8.20
  -2   3  -5   17.30    1.10
  -2   3  -5   23.60    2.40
   2  -3   5   21.10    2.60
   2  -3   5   21.70    1.80
   2  -3   5   24.00    1.80
   2  -3   5   22.80    1.80
   2  -3   5   19.80    3.30
  -3   3  -5   -1.80    1.60
   3  -3   5    1.50    2.30
   3  -3   5   -1.50    1.80
   3  -3   5    0.60    1.40
  -4   3  -5   10.30    2.60
   4  -3   5   11.90    2.10
   4  -3   5   12.00    2.90
  -5   3  -5    4.30    3.30
   5  -3   5    1.30    2.30
   5  -3   5   -0.90    3.60
  -6   3  -5    3.00    4.10
   6  -3   5    2.70    4.60
   6   2  -5    0.80    3.50
   6   2  -5    0.40    4.20
  -6  -2   5    1.00    2.80
  -6  -2   5    6.40    2.60
  -6  -2   5    3.80    2.70
   5   2  -5   38.30    5.50
   5   2  -5   32.80    4.90
  -5  -2   5   29.10    3.30
  -5  -2   5   27.00    3.50
  -5  -2   5   28.50    3.60
   4   2  -5   15.70    2.70
   4   2  -5    7.50    2.60
  -4  -2   5   10.70    1.90
  -4  -2   5   10.10    1.80
  -4  -2   5    8.50    1.70
   3   2  -5   19.30    3.10
   3   2  -5   18.40    2.60
  -3  -2   5   16.90    1.70
  -3  -2   5   16.70    1.90
  -3  -2   5   18.00    1.90
   2   2  -5  128.19    4.60
  -2  -2   5  123.19    3.70
  -2  -2   5  122.09    3.60
  -2  -2   5  124.79    3.50
  -2  -2   5  122.49    3.90
   1   2  -5    8.10    1.60
  -1  -2   5    8.80    1.40
  -1  -2   5    9.40    1.90
  -1  -2   5    9.90    1.30
  -1  -2   5    9.10    1.70
   0  -2   5    9.30    1.10
   0  -2   5   11.40    1.50
   0  -2   5   11.60    2.40
   0  -2   5    8.80    1.80
   0  -2   5   11.90    1.50
  -1   2  -5    6.30    0.70
  -1   2  -5    7.40    1.20
   1  -2   5    8.00    1.40
   1  -2   5    7.00    1.80
   1  -2   5    7.60    1.20
   1  -2   5    7.20    1.20
  -2   2  -5  279.17    7.20
  -2   2  -5  286.67    7.80
   2  -2   5  281.97    7.50
   2  -2   5  280.27    7.50
   2  -2   5  291.77    8.40
   2  -2   5  285.57    9.00
  -3   2  -5    2.10    1.00
  -3   2  -5    0.80    1.60
   3  -2   5   -1.20    2.00
   3  -2   5    0.10    1.30
   3  -2   5    0.40    1.80
  -4   2  -5    3.90    2.30
   4  -2   5    7.90    2.70
   4  -2   5    4.80    2.80
   4  -2   5    5.40    2.00
  -5   2  -5    2.00    2.80
   5  -2   5   -2.00    2.30
   5  -2   5    4.60    3.60
  -6   2  -5    4.90    3.80
   6  -2   5    5.10    4.50
   6   1  -5    1.70    4.10
   6   1  -5   -1.90    3.70
  -6  -1   5   -1.10    2.60
  -6  -1   5    4.10    3.00
  -6  -1   5    0.70    2.40
   5   1  -5   14.00    3.60
   5   1  -5    7.70    3.00
  -5  -1   5    7.90    2.50
  -5  -1   5   12.30    2.50
  -5  -1   5    6.70    2.10
   4   1  -5   -0.10    2.10
   4   1  -5    0.70    2.20
  -4  -1   5    1.90    1.60
  -4  -1   5   -1.70    1.60
  -4  -1   5    1.00    1.40
   3   1  -5   30.70    2.70
   3   1  -5   30.00    3.10
  -3  -1   5   30.80    1.90
  -3  -1   5   29.30    2.20
  -3  -1   5   28.60    2.30
   2   1  -5   87.59    3.60
   2   1  -5   87.49    3.40
  -2  -1   5   90.09    3.00
  -2  -1   5   92.19    2.80
  -2  -1   5   90.19    3.10
  -2  -1   5   88.79    2.80
   1   1  -5  165.68    4.90
   1   1  -5  169.38    4.90
  -1  -1   5  176.58    5.20
  -1  -1   5  169.68    4.70
  -1  -1   5  173.08    4.80
   0   1  -5    6.90    0.90
   0  -1   5    5.40    1.10
   0  -1   5    5.20    1.00
   0  -1   5    3.40    1.50
   0  -1   5    3.60    1.00
  -1   1  -5 1144.99   27.70
  -1   1  -5 1152.88   28.00
   1  -1   5 1125.59   27.70
   1  -1   5 1156.08   29.00
   1  -1   5 1187.58   28.40
   1  -1   5 1134.49   27.70
  -2   1  -5   11.50    1.50
  -2   1  -5   11.00    1.30
  -2   1  -5    9.90    1.50
   2  -1   5   10.00    2.00
   2  -1   5   12.10    1.60
   2  -1   5   12.20    2.30
   2  -1   5    9.10    1.60
  -3   1  -5   98.69    3.40
  -3   1  -5  103.49    4.10
   3  -1   5  102.89    5.30
   3  -1   5   98.29    3.80
   3  -1   5   97.19    4.80
  -4   1  -5    1.00    2.00
  -4   1  -5    0.90    1.60
   4  -1   5    1.30    1.80
   4  -1   5    1.00    2.50
   4  -1   5    2.70    2.70
  -5   1  -5   11.40    3.10
   5  -1   5   11.00    3.70
   5  -1   5    6.10    2.50
  -6   1  -5    0.20    3.20
   6  -1   5    5.70    4.60
   6   0  -5   29.20    6.70
   6   0  -5   30.20    4.90
  -6   0   5   22.00    3.50
  -6   0   5   20.50    3.00
  -6   0   5   29.70    4.50
   5   0  -5    4.40    3.40
   5   0  -5    1.70    2.90
  -5   0   5    3.10    2.40
  -5   0   5    5.10    2.40
  -5   0   5    1.10    1.90
   4   0  -5    3.40    2.10
   4   0  -5    8.30    2.40
  -4   0   5    3.30    1.80
  -4   0   5    3.60    1.50
  -4   0   5    2.90    1.80
   3   0  -5   51.49    3.10
   3   0  -5   48.90    3.00
  -3   0   5   46.40    2.60
  -3   0   5   55.79    2.70
  -3   0   5   47.10    2.40
   2   0  -5  584.64   15.00
  -2   0   5  597.94   14.80
  -2   0   5  603.04   14.60
  -2   0   5  577.14   14.80
  -2   0   5  598.54   14.60
   1   0  -5  190.18    5.30
   1   0  -5  195.68    5.60
  -1   0   5  209.88    5.20
  -1   0   5  208.48    5.60
  -1   0   5  203.98    6.00
  -1   0   5  202.48    5.20
  -1   0   5  211.38    5.50
   0   0  -5 1086.89   26.50
   0   0  -5 1054.59   26.30
   0   0   5 1091.99   26.30
   0   0   5 1112.99   26.50
   0   0   5 1103.09   27.30
   0   0   5 1102.29   26.60
   0   0   5 1101.89   26.30
  -1   0  -5    7.20    1.00
  -1   0  -5    7.50    1.30
   1   0   5    5.10    1.00
   1   0   5    5.30    1.70
   1   0   5    5.80    1.20
   1   0   5    6.20    1.00
  -2   0  -5    4.40    1.10
  -2   0  -5    7.90    1.50
  -2   0  -5    7.00    1.20
   2   0   5    6.40    1.20
   2   0   5    4.50    1.80
   2   0   5    6.80    1.60
  -3   0  -5   10.40    1.40
  -3   0  -5    8.90    1.80
   3   0   5   10.00    2.10
   3   0   5    8.80    1.70
   3   0   5    9.40    2.30
  -4   0  -5   30.10    3.40
  -4   0  -5   21.00    2.60
   4   0   5   21.10    4.60
   4   0   5   26.20    3.20
   4   0   5   25.50    4.50
  -5   0  -5    5.30    2.70
   5   0   5    9.10    3.70
   5   0   5    4.70    2.60
  -6   0  -5    0.20    3.10
   6   0   5   -0.90    5.00
   6  -1  -5    4.10    4.30
  -6   1   5   -0.60    2.30
  -6   1   5    2.40    4.10
  -6   1   5   -0.20    3.00
   5  -1  -5    4.30    3.00
   5  -1  -5    8.70    3.60
  -5   1   5    8.50    2.30
  -5   1   5    8.20    2.60
  -5   1   5    5.50    2.10
   4  -1  -5    0.50    2.40
   4  -1  -5   -0.20    2.10
  -4   1   5    0.30    1.80
  -4   1   5   -0.20    1.50
  -4   1   5    0.00    1.60
   3  -1  -5   23.00    2.60
   3  -1  -5   19.10    2.30
  -3   1   5   19.30    2.30
  -3   1   5   17.20    2.00
  -3   1   5   17.00    2.00
   2  -1  -5   78.49    3.20
   2  -1  -5   77.19    2.70
   2  -1  -5   77.89    2.70
  -2   1   5   73.79    2.60
  -2   1   5   79.29    2.90
  -2   1   5   83.89    3.10
  -2   1   5   83.19    2.80
   1  -1  -5   31.70    1.90
  -1   1   5   30.60    1.50
  -1   1   5   25.70    2.00
  -1   1   5   24.90    2.70
  -1   1   5   31.40    1.50
   0  -1  -5  982.90   23.80
   0  -1  -5  954.30   23.60
   0   1   5  970.20   23.80
   0   1   5 1012.00   24.70
   0   1   5  998.60   23.60
   0   1   5  955.90   23.60
   0   1   5  961.90   23.60
  -1  -1  -5   20.80    1.60
  -1  -1  -5   21.10    1.70
   1   1   5   22.80    1.60
   1   1   5   20.30    2.70
   1   1   5   21.10    1.70
   1   1   5   22.20    2.00
  -2  -1  -5  271.37    7.30
  -2  -1  -5  269.67    7.40
  -2  -1  -5  262.07    7.40
   2   1   5  273.17    7.40
   2   1   5  274.17    8.10
   2   1   5  263.47    8.70
  -3  -1  -5   14.00    1.90
  -3  -1  -5   12.50    1.70
   3   1   5   14.50    2.00
   3   1   5   13.80    3.40
   3   1   5   13.70    3.10
  -4  -1  -5   63.69    3.40
  -4  -1  -5   69.59    4.10
   4   1   5   64.69    5.30
   4   1   5   69.49    4.00
   4   1   5   63.69    5.40
  -5  -1  -5   -0.90    2.40
  -5  -1  -5    2.30    2.40
   5   1   5   -1.80    3.50
  -6  -1  -5    3.20    3.00
   6  -2  -5    6.60    4.50
  -6   2   5   -1.40    3.20
   5  -2  -5   -4.10    3.40
  -5   2   5    1.50    2.10
  -5   2   5    2.00    2.60
  -5   2   5   -3.30    2.10
   4  -2  -5   64.39    4.50
   4  -2  -5   64.99    4.30
  -4   2   5   63.79    3.80
  -4   2   5   63.59    3.50
  -4   2   5   64.49    3.50
   3  -2  -5   37.00    2.60
   3  -2  -5   40.80    3.20
  -3   2   5   35.30    2.40
  -3   2   5   40.20    2.40
  -3   2   5   35.20    2.80
   2  -2  -5   15.00    1.60
   2  -2  -5   12.80    2.30
  -2   2   5   13.20    3.10
  -2   2   5   18.90    1.70
  -2   2   5   20.20    1.80
  -2   2   5   16.50    2.00
   1  -2  -5  352.16    9.20
   1  -2  -5  361.06    9.20
   1  -2  -5  347.07    9.10
  -1   2   5  355.96    9.20
  -1   2   5  354.96    9.10
  -1   2   5  353.56    9.10
  -1   2   5  356.46   10.10
   0  -2  -5   19.00    1.80
   0  -2  -5   19.30    1.50
   0  -2  -5   16.50    1.40
   0   2   5   16.30    1.80
   0   2   5   19.50    1.70
   0   2   5   20.50    2.90
   0   2   5   20.80    1.60
  -1  -2  -5    6.80    1.10
  -1  -2  -5    7.10    1.30
   1   2   5    8.30    1.30
   1   2   5    8.60    1.90
   1   2   5    8.30    1.40
   1   2   5    6.50    1.90
  -2  -2  -5    2.80    1.20
  -2  -2  -5    1.80    1.20
  -2  -2  -5    2.10    1.30
   2   2   5    2.90    1.90
   2   2   5    2.70    1.60
   2   2   5    3.50    1.40
  -3  -2  -5    6.90    1.70
  -3  -2  -5    6.90    1.60
   3   2   5    6.00    2.20
   3   2   5    8.10    1.80
   3   2   5    6.20    2.40
  -4  -2  -5   -0.70    1.90
  -4  -2  -5   -0.30    1.80
   4   2   5    3.10    2.10
   4   2   5   -1.10    2.50
   4   2   5   -2.50    2.50
  -5  -2  -5    1.20    2.30
  -5  -2  -5    1.40    2.40
   5   2   5    1.00    3.40
   6  -3  -5    0.20    4.40
  -6   3   5    1.20    3.50
   5  -3  -5    3.70    3.80
  -5   3   5    5.00    2.40
  -5   3   5    0.40    2.20
  -5   3   5    5.00    3.00
   4  -3  -5   40.90    4.40
  -4   3   5   39.40    3.00
  -4   3   5   33.20    3.20
  -4   3   5   37.60    3.70
   3  -3  -5    2.50    2.10
   3  -3  -5    0.20    1.40
  -3   3   5    0.70    1.70
  -3   3   5    1.20    1.50
  -3   3   5    3.10    1.40
   2  -3  -5  155.88    5.30
   2  -3  -5  165.58    4.80
  -2   3   5  155.98    4.80
  -2   3   5  154.18    5.10
  -2   3   5  164.48    6.80
   1  -3  -5   52.89    2.40
   1  -3  -5   58.39    2.40
   1  -3  -5   52.29    2.60
  -1   3   5   52.79    2.60
  -1   3   5   54.29    4.00
  -1   3   5   52.89    2.40
   0  -3  -5  112.29    3.60
   0  -3  -5  103.19    3.40
   0  -3  -5  101.69    3.40
   0   3   5  100.99    3.30
   0   3   5  110.69    3.60
   0   3   5  111.89    5.00
   0   3   5  105.39    3.60
  -1  -3  -5    6.80    1.40
  -1  -3  -5    6.30    1.30
   1   3   5    5.10    1.40
   1   3   5    5.70    2.00
   1   3   5    4.00    1.30
   1   3   5    4.50    1.40
  -2  -3  -5   43.30    2.40
  -2  -3  -5   43.10    2.70
   2   3   5   38.90    2.80
   2   3   5   43.70    3.40
   2   3   5   41.80    4.00
  -3  -3  -5    9.70    1.80
  -3  -3  -5    9.90    1.90
   3   3   5   11.20    2.70
   3   3   5   10.00    2.50
   3   3   5   15.60    2.30
  -4  -3  -5   -0.50    1.90
  -4  -3  -5   -0.20    1.90
   4   3   5   -1.20    2.20
   4   3   5    1.20    2.70
   4   3   5    1.90    2.70
  -5  -3  -5   -0.10    2.40
  -5  -3  -5    0.00    2.20
   5   3   5    3.30    3.50
   6  -4  -5    4.40    4.60
  -6   4   5    6.70    3.80
   5  -4  -5   29.60    5.50
  -5   4   5   26.90    4.70
  -5   4   5   17.30    2.80
   4  -4  -5   -0.40    3.00
  -4   4   5    1.80    2.40
  -4   4   5    1.50    2.00
   3  -4  -5   28.10    3.40
   3  -4  -5   30.00    2.80
  -3   4   5   25.60    2.70
  -3   4   5   25.60    3.20
   2  -4  -5    4.20    1.90
   2  -4  -5    4.80    1.50
  -2   4   5    3.40    1.50
  -2   4   5    3.50    3.10
  -2   4   5    5.80    1.70
   1  -4  -5   13.80    1.90
   1  -4  -5   13.20    2.10
   1  -4  -5   16.50    2.10
  -1   4   5   12.00    2.00
  -1   4   5   10.70    2.80
  -1   4   5   15.10    2.10
   0  -4  -5    1.60    1.20
   0  -4  -5    1.00    1.30
   0  -4  -5    3.30    1.30
   0   4   5    2.70    2.30
   0   4   5    5.20    1.40
   0   4   5    4.50    1.30
   0   4   5    1.40    1.10
  -1  -4  -5   35.10    2.50
  -1  -4  -5   30.90    2.40
   1   4   5   33.00    2.30
   1   4   5   28.50    2.50
   1   4   5   27.90    3.80
   1   4   5   26.60    2.80
  -2  -4  -5   29.20    2.60
  -2  -4  -5   31.70    2.30
   2   4   5   32.50    2.90
   2   4   5   34.10    3.50
   2   4   5   31.20    4.20
  -3  -4  -5   43.80    3.40
   3   4   5   47.20    5.00
   3   4   5   48.00    3.70
   3   4   5   46.50    4.50
  -4  -4  -5   16.50    2.60
  -4  -4  -5   16.70    2.90
   4   4   5   11.00    3.20
   4   4   5   12.60    3.50
  -5  -4  -5   -5.70    2.30
   5   4   5   -0.60    3.40
   6  -5  -5   -4.30    5.20
   5  -5  -5   14.10    4.40
  -5   5   5    6.70    3.50
   4  -5  -5   -4.30    3.30
   4  -5  -5    1.40    3.00
  -4   5   5    2.80    2.20
  -4   5   5    0.80    2.70
   3  -5  -5   28.70    3.80
   3  -5  -5   24.80    3.00
  -3   5   5   22.70    3.50
  -3   5   5   21.30    3.10
   2  -5  -5   84.29    4.20
   2  -5  -5   83.09    3.70
  -2   5   5   87.39    3.90
  -2   5   5   98.09    7.60
  -2   5   5   89.89    4.00
   1  -5  -5   66.99    3.40
   1  -5  -5   58.59    4.30
   1  -5  -5   70.69    3.20
  -1   5   5   76.29    6.10
  -1   5   5   68.49    3.30
  -1   5   5   68.89    3.40
   0  -5  -5  113.19    4.20
   0  -5  -5  112.69    4.10
   0  -5  -5  112.49    4.10
   0   5   5  115.79    4.50
   0   5   5  112.59    4.00
   0   5   5  114.79    4.30
   0   5   5  107.59    5.90
  -1  -5  -5  244.08    7.10
  -1  -5  -5  240.28    6.80
   1   5   5  240.48    7.30
   1   5   5  250.57    7.80
   1   5   5  242.08    9.10
   1   5   5  243.48    6.90
  -2  -5  -5   28.00    2.90
  -2  -5  -5   34.60    2.40
   2   5   5   37.70    3.30
   2   5   5   40.50    4.20
   2   5   5   29.90    4.70
  -3  -5  -5   13.70    2.40
   3   5   5   18.30    4.20
   3   5   5   18.90    4.80
  -4  -5  -5   19.50    2.90
   4   5   5   12.60    3.60
   4   5   5   17.20    3.60
  -5  -5  -5   -4.00    2.50
   5   5   5    1.90    3.60
   5  -6  -5    1.50    4.40
  -5   6   5    0.30    3.50
   4  -6  -5    7.60    3.80
  -4   6   5   10.40    3.30
   3  -6  -5    7.90    3.10
   3  -6  -5   10.30    2.20
  -3   6   5    8.90    2.20
  -3   6   5    4.70    2.60
   2  -6  -5   10.80    2.10
   2  -6  -5   10.90    2.60
  -2   6   5   11.80    4.90
  -2   6   5    8.90    2.10
  -2   6   5   11.90    2.40
   1  -6  -5   12.60    2.30
   1  -6  -5   19.90    2.60
  -1   6   5   11.70    2.00
  -1   6   5   17.20    2.90
   0  -6  -5    4.20    1.90
   0  -6  -5    3.90    1.90
   0   6   5    4.00    1.90
   0   6   5    2.80    1.70
  -1  -6  -5   -0.30    1.80
  -1  -6  -5    0.50    1.60
   1   6   5   -0.30    2.00
   1   6   5    1.80    2.80
   1   6   5    6.40    2.70
  -2  -6  -5    5.90    2.10
   2   6   5    1.20    2.60
   2   6   5    0.50    2.10
   2   6   5    1.10    2.90
  -3  -6  -5    3.70    2.40
   3   6   5    1.30    3.10
   3   6   5   -4.00    2.60
  -4  -6  -5    0.10    2.50
   4   6   5   -1.60    3.10
   5  -7  -5    0.60    4.50
  -5   7   5    0.20    3.80
   4  -7  -5    4.90    4.10
  -4   7   5    5.90    3.30
   3  -7  -5   -1.00    3.20
  -3   7   5    9.30    7.10
  -3   7   5    1.50    2.70
   2  -7  -5    0.30    2.60
   2  -7  -5    2.40    2.00
  -2   7   5   -0.90    2.20
  -2   7   5   40.70    9.60
  -2   7   5    0.90    2.40
   1  -7  -5    5.20    2.10
   1  -7  -5    3.40    2.50
  -1   7   5    4.00    4.50
  -1   7   5    4.30    2.00
  -1   7   5    2.80    2.30
   0  -7  -5    2.70    2.00
   0  -7  -5    5.10    2.30
   0   7   5    2.70    3.50
   0   7   5    3.20    1.80
   0   7   5    3.30    2.30
  -1  -7  -5   65.99    3.70
   1   7   5   69.89    6.60
   1   7   5   77.09    5.40
  -2  -7  -5    1.60    2.30
   2   7   5    3.20    3.30
   2   7   5    3.30    3.10
  -3  -7  -5   -0.60    2.50
   3   7   5    4.20    3.20
   3   7   5   -0.10    3.30
  -4  -7  -5    1.50    2.90
   4   7   5   -2.10    3.20
  -5   8   5    1.00    3.80
   4  -8  -5    0.60    4.30
  -4   8   5   -1.90    3.30
   3  -8  -5    1.00    3.70
  -3   8   5    5.80    3.00
  -3   8   5   17.40    7.80
   2  -8  -5    6.50    2.30
   2  -8  -5    6.00    3.30
  -2   8   5    8.70    2.70
  -2   8   5   12.40    7.00
   1  -8  -5    5.90    2.40
   1  -8  -5    3.30    2.70
  -1   8   5    1.90    5.10
   0  -8  -5    0.40    2.40
   0  -8  -5   -1.60    2.50
   0   8   5    0.50    4.10
  -1  -8  -5    2.80    2.60
   1   8   5    4.40    4.10
  -2  -8  -5   15.50    3.00
   2   8   5    5.50    3.80
  -3  -8  -5    3.30    3.00
   3   8   5    6.50    3.90
   4  -9  -5    3.10    4.50
  -4   9   5    0.30    3.50
   2  -9  -5    4.10    3.50
  -2   9   5    8.90    7.40
   1  -9  -5    5.00    2.60
   1  -9  -5    9.60    3.30
  -1   9   5    1.00    5.60
   0  -9  -5    7.70    2.70
   0  -9  -5    2.60    2.90
   0   9   5   -2.00    4.90
  -1  -9  -5    8.20    2.90
   1   9   5    0.50    4.40
  -2  -9  -5    9.90    3.10
   2   9   5    2.80    4.20
  -3  -9  -5    3.40    3.30
   3   9   5   -1.50    3.80
   3 -10  -5    3.60    4.30
  -3  10   5    8.40    9.50
   2 -10  -5   -6.00    3.50
  -2  10   5    7.50    7.80
   1 -10  -5    0.40    3.40
  -1  10   5   13.20    6.90
   0 -10  -5   -3.20    2.90
   0 -10  -5   -0.90    3.20
   0  10   5    3.10    5.80
  -1 -10  -5    5.70    3.00
   1  10   5    5.20    5.10
  -2 -10  -5   -0.20    3.00
   2  10   5    0.70    4.40
   2 -11  -5    0.20    4.00
  -2  11   5    8.10    8.40
   1 -11  -5    2.50    3.70
  -1  11   5    6.50    7.50
   0 -11  -5   -0.80    2.90
   0  11   5   -1.00    6.50
  -1 -11  -5   -0.30    3.10
   1  13  -6    7.50    5.70
   0  13  -6    8.60    5.00
   0 -13   6   -3.50    4.70
   0 -13   6   -6.30    3.10
  -1  13  -6    5.00    4.80
   1 -13   6   -1.90    5.10
   1 -13   6    6.40    6.40
   2  12  -6    7.70    4.90
  -2 -12   6    9.70    3.10
  -2 -12   6    9.20    3.80
   1  12  -6    1.20    4.20
   1  12  -6    6.60    4.70
  -1 -12   6    3.10    3.70
  -1 -12   6    2.50    3.00
   0  12  -6   22.20    5.20
   0  12  -6   46.20    9.10
   0 -12   6    7.50    3.80
   0 -12   6   11.40    3.10
  -1  12  -6   38.80    9.40
   1 -12   6    1.10    3.00
   1 -12   6   -0.50    3.70
  -2  12  -6   20.80    6.20
   2 -12   6    2.50    4.20
   2 -12   6    3.00    3.10
   2 -12   6    6.10    4.30
   3 -12   6    4.00    4.60
   3  11  -6   -5.60    4.70
  -3 -11   6   -3.80    2.90
  -3 -11   6    7.10    3.50
  -3 -11   6    3.10    2.70
   2  11  -6    2.80    4.40
  -2 -11   6    1.50    3.30
  -2 -11   6    8.30    2.90
  -2 -11   6    2.90    3.30
   1  11  -6    4.00    4.00
  -1 -11   6   -0.10    2.50
  -1 -11   6    2.80    3.30
   0  11  -6    2.20    4.20
   0 -11   6    2.90    2.60
   0 -11   6   -2.50    3.30
  -1  11  -6   12.70    5.60
   1 -11   6    2.10    3.70
   1 -11   6    4.10    3.50
   1 -11   6    1.30    2.50
  -2  11  -6   10.00    5.50
   2 -11   6    2.30    4.00
   2 -11   6   -2.90    3.60
   2 -11   6    0.00    2.70
  -3  11  -6    3.50    5.80
   3 -11   6    1.60    3.90
   3 -11   6    0.30    3.00
   3 -11   6   -5.80    4.00
   4  10  -6   -7.10    5.50
  -4 -10   6    0.70    2.90
  -4 -10   6   -1.50    3.30
  -4 -10   6    1.80    2.90
   3  10  -6    1.00    4.50
  -3 -10   6    7.20    3.40
  -3 -10   6    6.00    2.70
  -3 -10   6    8.70    2.90
   2  10  -6    7.60    3.70
  -2 -10   6    7.00    2.50
  -2 -10   6    5.90    2.20
  -2 -10   6    7.40    3.10
   1  10  -6   15.70    4.20
   1  10  -6   32.00    7.00
  -1 -10   6   15.30    2.50
  -1 -10   6   14.80    3.30
   0 -10   6   13.40    2.40
   0 -10   6   14.80    3.30
  -1  10  -6    3.90    5.20
   1 -10   6   -2.20    3.10
   1 -10   6    1.10    3.30
   1 -10   6   -1.40    2.10
  -2  10  -6    3.50    4.90
   2 -10   6   -0.50    2.40
   2 -10   6    1.50    3.50
   2 -10   6    2.00    3.40
  -3  10  -6   16.90    6.00
   3 -10   6   10.40    4.20
   3 -10   6   15.10    3.30
   3 -10   6    9.60    3.80
  -4  10  -6    9.20    6.20
   4 -10   6   12.00    5.10
   4 -10   6    1.20    4.50
   4   9  -6   -0.10    4.50
  -4  -9   6    6.20    3.30
  -4  -9   6    3.70    2.70
  -4  -9   6   -1.60    2.70
   3   9  -6    2.50    3.80
  -3  -9   6    8.00    2.50
  -3  -9   6    5.00    2.40
  -3  -9   6    9.70    3.20
   2   9  -6    6.30    2.80
   2   9  -6    3.00    3.10
  -2  -9   6    0.00    1.90
  -2  -9   6    0.50    1.90
  -2  -9   6    0.10    2.50
   1   9  -6   -0.20    2.80
   1   9  -6    2.00    3.80
  -1  -9   6    2.10    2.60
  -1  -9   6    3.80    1.80
  -1  -9   6    2.90    1.60
   0   9  -6    1.30    4.50
   0  -9   6    0.60    2.50
   0  -9   6    1.20    2.50
   0  -9   6    3.00    1.70
  -1   9  -6    4.80    4.60
   1  -9   6    4.70    2.80
   1  -9   6    3.20    2.80
   1  -9   6    5.10    1.70
  -2   9  -6    3.10    4.70
   2  -9   6    5.10    3.00
   2  -9   6    7.10    2.20
   2  -9   6    4.80    3.10
  -3   9  -6    3.70    5.10
  -3   9  -6   -0.20    3.30
   3  -9   6    5.20    3.80
   3  -9   6    3.70    3.20
  -4   9  -6    6.70    6.20
  -4   9  -6    5.30    3.90
   4  -9   6    4.50    4.40
   4  -9   6    2.20    3.00
   5   8  -6    0.50    5.50
   5   8  -6    3.00    3.20
  -5  -8   6   -2.20    2.90
  -5  -8   6    5.80    2.90
   4   8  -6   14.70    4.70
  -4  -8   6   12.60    2.80
  -4  -8   6   15.40    2.80
  -4  -8   6   14.90    3.40
   3   8  -6    6.00    3.30
  -3  -8   6    9.80    2.30
  -3  -8   6    9.10    2.80
  -3  -8   6    9.80    2.30
   2   8  -6   52.69    5.50
   2   8  -6   57.19    4.80
  -2  -8   6   54.79    4.00
  -2  -8   6   58.29    3.40
  -2  -8   6   52.49    3.30
   1   8  -6   27.50    4.20
   1   8  -6   39.30    5.50
  -1  -8   6   27.20    3.30
  -1  -8   6   21.00    2.40
  -1  -8   6   29.60    2.50
   0   8  -6   -0.50    3.60
   0  -8   6    0.30    1.20
   0  -8   6    2.30    2.20
   0  -8   6    1.40    2.10
  -1   8  -6   36.80    6.40
   1  -8   6   35.50    4.10
   1  -8   6   37.40    3.70
   1  -8   6   33.50    2.50
  -2   8  -6    0.40    4.00
  -2   8  -6    2.90    2.30
   2  -8   6    0.80    2.50
   2  -8   6    2.00    1.70
   2  -8   6   -0.20    2.50
  -3   8  -6   14.60    3.40
  -3   8  -6   18.20    5.10
   3  -8   6   15.40    2.70
   3  -8   6   13.60    3.10
   3  -8   6   15.80    3.90
  -4   8  -6    7.70    3.80
  -4   8  -6   -0.10    5.60
   4  -8   6    3.80    4.10
   4  -8   6    3.40    2.90
  -5   8  -6    0.50    4.50
  -5   8  -6   -1.10    6.10
   5  -8   6    1.40    4.50
   5  -8   6   -2.90    3.10
   5   7  -6    8.90    5.00
   5   7  -6    2.60    3.30
  -5  -7   6    1.80    2.90
  -5  -7   6    5.20    2.60
   4   7  -6   -2.70    3.30
  -4  -7   6    0.80    2.70
  -4  -7   6   -2.40    2.20
  -4  -7   6   -1.20    2.10
   3   7  -6   23.80    3.70
  -3  -7   6   23.40    3.70
  -3  -7   6   19.80    3.20
  -3  -7   6   28.90    3.00
   2   7  -6   14.60    3.70
   2   7  -6    2.20    2.30
  -2  -7   6    3.10    1.60
  -2  -7   6    3.10    1.40
  -2  -7   6    0.70    1.90
   1   7  -6   24.50    4.10
   1   7  -6   23.30    3.50
  -1  -7   6   23.80    2.00
  -1  -7   6   18.00    2.80
  -1  -7   6   21.50    2.10
   0   7  -6    4.20    2.90
   0  -7   6    4.90    1.20
   0  -7   6    4.20    1.10
   0  -7   6    4.30    2.00
   0  -7   6    5.20    2.00
  -1   7  -6   -3.00    2.80
   1  -7   6    0.10    1.00
   1  -7   6   -0.40    1.70
   1  -7   6    3.00    2.10
  -2   7  -6   13.50    2.40
  -2   7  -6   11.00    3.70
   2  -7   6   10.50    1.70
   2  -7   6    9.80    2.40
   2  -7   6    8.30    2.60
  -3   7  -6   11.70    4.60
  -3   7  -6   13.60    3.10
   3  -7   6   10.40    3.30
   3  -7   6   13.90    2.80
   3  -7   6   13.90    2.40
  -4   7  -6    4.50    5.30
  -4   7  -6   -0.40    3.80
   4  -7   6   -3.40    3.70
   4  -7   6    3.20    2.60
  -5   7  -6    3.10    5.80
  -5   7  -6    0.70    4.30
   5  -7   6   -1.70    4.60
   5  -7   6    0.50    2.90
   5   6  -6   28.00    4.10
   5   6  -6   23.50    4.90
  -5  -6   6   29.70    4.20
  -5  -6   6   35.90    4.20
   4   6  -6   -3.00    2.90
  -4  -6   6    1.20    2.20
  -4  -6   6    1.00    2.00
   3   6  -6   86.49    5.80
  -3  -6   6   84.89    4.40
  -3  -6   6   91.79    4.10
  -3  -6   6   84.99    3.60
   2   6  -6   19.50    3.70
   2   6  -6   20.50    3.00
  -2  -6   6   23.00    2.30
  -2  -6   6   23.40    2.80
  -2  -6   6   23.30    2.00
   1   6  -6   21.50    2.90
   1   6  -6   15.10    3.30
  -1  -6   6   20.00    1.90
  -1  -6   6   19.10    1.60
  -1  -6   6   22.10    2.50
  -1  -6   6   20.30    1.50
   0   6  -6   64.79    2.30
   0   6  -6   60.69    4.70
   0  -6   6   61.29    2.20
   0  -6   6   61.39    3.70
   0  -6   6   58.09    2.30
   0  -6   6   60.79    3.30
  -1   6  -6   10.30    2.90
  -1   6  -6    9.20    1.60
   1  -6   6    8.40    1.10
   1  -6   6   10.60    2.10
   1  -6   6   10.60    2.00
  -2   6  -6  218.58    6.40
  -2   6  -6  197.98    8.70
   2  -6   6  193.88    6.30
   2  -6   6  191.88    7.30
   2  -6   6  193.68    5.80
  -3   6  -6   -0.90    2.70
  -3   6  -6    0.30    4.00
   3  -6   6    1.20    2.20
   3  -6   6    1.10    1.80
   3  -6   6    2.10    2.70
  -4   6  -6   -4.80    3.20
  -4   6  -6    0.50    5.00
   4  -6   6   -1.90    2.20
   4  -6   6    0.10    3.50
  -5   6  -6    0.40    4.30
  -5   6  -6   -4.00    5.60
   5  -6   6    0.00    2.70
   5  -6   6    0.20    4.40
   6   5  -6    3.30    4.00
   6   5  -6   -1.90    4.10
  -6  -5   6    4.00    2.70
  -6  -5   6    2.80    3.20
   5   5  -6   -2.80    3.70
   5   5  -6    0.20    3.20
  -5  -5   6    0.90    2.20
  -5  -5   6   -1.30    2.40
   4   5  -6   -0.60    2.70
   4   5  -6    0.30    2.60
  -4  -5   6   -3.30    1.90
  -4  -5   6    2.60    1.80
   3   5  -6   21.10    4.30
  -3  -5   6    8.50    1.80
  -3  -5   6    7.10    2.10
  -3  -5   6    7.10    1.40
   2   5  -6   14.20    3.00
  -2  -5   6   13.00    1.60
  -2  -5   6    9.70    1.50
  -2  -5   6   11.90    2.00
  -2  -5   6   15.40    2.40
   1   5  -6    6.90    1.70
   1   5  -6    7.80    1.70
  -1  -5   6    9.90    1.70
  -1  -5   6   10.80    1.80
   0   5  -6   29.90    1.60
   0   5  -6   24.30    3.50
   0  -5   6   27.30    2.80
   0  -5   6   28.40    2.40
   0  -5   6   25.20    1.50
  -1   5  -6   63.69    4.80
  -1   5  -6   65.09    2.90
   1  -5   6   65.09    3.70
   1  -5   6   68.39    2.50
   1  -5   6   63.99    2.40
   1  -5   6   67.39    3.10
  -2   5  -6   56.39    3.40
  -2   5  -6   62.59    5.40
   2  -5   6   57.19    3.00
   2  -5   6   55.39    2.60
   2  -5   6   56.39    4.10
  -3   5  -6   76.79    4.50
  -3   5  -6   75.09    7.00
   3  -5   6   79.69    3.60
   3  -5   6   73.59    5.20
   3  -5   6   76.79    3.80
  -4   5  -6   -0.60    3.10
  -4   5  -6    1.80    4.70
   4  -5   6    0.40    3.10
   4  -5   6    2.30    2.20
  -5   5  -6    3.00    5.60
  -5   5  -6    3.50    4.00
   5  -5   6    2.30    4.20
   5  -5   6   -3.20    2.70
   6   4  -6   29.10    4.70
   6   4  -6   20.40    4.60
  -6  -4   6   17.50    3.20
  -6  -4   6   19.60    3.10
   5   4  -6   -2.20    3.20
   5   4  -6   -6.70    3.30
  -5  -4   6   -1.30    2.40
  -5  -4   6   -1.10    2.00
   4   4  -6   73.89    4.70
   4   4  -6   70.49    6.00
  -4  -4   6   72.59    3.60
  -4  -4   6   69.59    3.50
  -4  -4   6   64.69    3.90
   3   4  -6    6.40    2.30
  -3  -4   6    5.30    1.20
  -3  -4   6    7.40    1.30
  -3  -4   6    7.30    1.60
   2   4  -6  172.68    6.10
  -2  -4   6  175.68    5.50
  -2  -4   6  178.28    5.20
  -2  -4   6  170.88    4.80
  -2  -4   6  171.38    4.70
  -2  -4   6  171.18    4.70
   1   4  -6   17.80    2.40
  -1  -4   6   16.60    2.00
  -1  -4   6   10.80    1.40
  -1  -4   6   13.20    1.60
   0   4  -6   30.70    1.70
   0  -4   6   27.90    2.20
   0  -4   6   27.60    2.50
   0  -4   6   26.20    1.50
  -1   4  -6    7.60    0.80
  -1   4  -6    6.80    1.40
   1  -4   6    5.50    1.40
   1  -4   6    5.90    0.90
   1  -4   6    6.00    1.00
   1  -4   6    7.20    2.20
   1  -4   6    6.20    1.70
  -2   4  -6  102.69    4.10
   2  -4   6   99.09    4.60
   2  -4   6  106.59    3.50
   2  -4   6  103.09    3.60
   2  -4   6   98.79    5.50
  -3   4  -6   12.50    2.30
   3  -4   6   10.80    2.70
   3  -4   6   14.10    1.90
   3  -4   6    6.10    2.20
  -4   4  -6   -2.40    2.80
   4  -4   6    0.20    2.00
   4  -4   6    2.00    2.90
  -5   4  -6    4.20    3.60
  -5   4  -6    3.50    5.50
   5  -4   6    2.40    2.60
   5  -4   6    4.20    4.10
   6   3  -6    0.80    3.60
   6   3  -6   -3.40    4.10
  -6  -3   6    0.00    2.80
  -6  -3   6    2.00    2.50
   5   3  -6    8.20    3.50
   5   3  -6    3.40    3.30
  -5  -3   6    6.70    2.40
  -5  -3   6    3.80    2.10
  -5  -3   6    2.10    2.00
   4   3  -6   38.40    4.10
   4   3  -6   32.90    4.90
  -4  -3   6   30.80    2.80
  -4  -3   6   33.10    3.00
  -4  -3   6   38.80    2.70
   3   3  -6   13.20    2.40
   3   3  -6   16.00    2.70
  -3  -3   6   13.10    2.00
  -3  -3   6   12.90    1.70
  -3  -3   6   11.80    1.80
   2   3  -6   38.80    3.00
  -2  -3   6   34.20    1.60
  -2  -3   6   33.30    2.40
  -2  -3   6   31.00    1.80
  -2  -3   6   31.00    1.50
  -2  -3   6   32.60    2.10
  -1  -3   6  307.57    7.90
  -1  -3   6  296.77    8.60
  -1  -3   6  298.87    8.20
  -1  -3   6  308.77    7.90
   0  -3   6   48.80    3.30
   0  -3   6   52.49    2.30
   0  -3   6   48.70    2.90
   0  -3   6   46.90    2.20
   0  -3   6   46.80    1.90
  -1   3  -6   15.20    1.10
  -1   3  -6   18.30    1.90
   1  -3   6   18.70    2.40
   1  -3   6   25.20    1.80
   1  -3   6   16.80    1.40
   1  -3   6   18.00    3.10
   1  -3   6   17.40    1.40
  -2   3  -6  149.29    4.80
  -2   3  -6  140.09    3.90
   2  -3   6  145.69    4.30
   2  -3   6  138.09    6.00
   2  -3   6  138.49    5.30
  -3   3  -6   17.00    2.90
   3  -3   6   13.20    1.80
   3  -3   6   13.80    3.30
   3  -3   6   17.50    4.30
  -4   3  -6    2.00    2.60
   4  -3   6    0.30    3.00
   4  -3   6    0.50    2.00
   4  -3   6    1.80    2.80
  -5   3  -6   15.90    3.70
   5  -3   6   10.00    2.70
   5  -3   6   16.00    4.30
   6   2  -6    2.20    3.60
   6   2  -6    5.50    4.50
  -6  -2   6    1.00    2.90
  -6  -2   6   -0.30    2.60
  -6  -2   6    1.40    2.40
   5   2  -6   53.59    5.90
   5   2  -6   62.99    5.60
  -5  -2   6   46.70    3.70
  -5  -2   6   50.89    4.30
  -5  -2   6   45.90    3.90
   4   2  -6    7.70    2.60
   4   2  -6    6.10    2.60
  -4  -2   6    8.90    1.70
  -4  -2   6   11.30    1.90
  -4  -2   6   11.60    2.00
   3   2  -6    8.30    2.00
   3   2  -6    4.60    1.90
  -3  -2   6    6.90    1.50
  -3  -2   6    7.10    1.20
  -3  -2   6    5.10    1.40
   2   2  -6   70.39    3.40
   2   2  -6   73.49    3.30
  -2  -2   6   75.39    2.40
  -2  -2   6   72.79    2.80
  -2  -2   6   70.19    2.40
  -2  -2   6   70.99    2.70
  -1  -2   6   45.70    2.80
  -1  -2   6   51.39    2.40
  -1  -2   6   49.20    2.10
  -1  -2   6   48.70    2.20
   0  -2   6  737.43   18.10
   0  -2   6  744.83   19.10
   0  -2   6  740.73   18.50
   0  -2   6  736.33   18.20
   0  -2   6  728.03   18.00
  -1   2  -6   18.10    1.20
  -1   2  -6   21.60    2.00
   1  -2   6   15.40    3.00
   1  -2   6   19.60    2.20
   1  -2   6   21.60    1.40
   1  -2   6   21.50    1.40
  -2   2  -6   44.50    1.90
  -2   2  -6   48.70    2.70
   2  -2   6   45.00    2.30
   2  -2   6   42.50    3.10
   2  -2   6   38.80    3.00
   2  -2   6   46.20    3.80
  -3   2  -6    7.60    1.30
  -3   2  -6    9.50    2.10
   3  -2   6    8.20    2.60
   3  -2   6   11.00    2.30
   3  -2   6    6.30    1.60
  -4   2  -6   -0.40    2.30
   4  -2   6    2.90    2.00
   4  -2   6    2.30    2.80
   4  -2   6    3.20    2.70
  -5   2  -6    1.90    3.30
   5  -2   6    4.30    3.90
   5  -2   6    5.50    4.50
   5  -2   6    2.80    2.40
   6   1  -6    4.50    4.40
   6   1  -6    1.50    4.40
  -6  -1   6    1.80    2.40
  -6  -1   6   -1.80    2.70
  -6  -1   6    2.70    3.00
   5   1  -6    0.40    2.80
   5   1  -6    1.80    3.60
  -5  -1   6    4.20    2.30
  -5  -1   6    1.00    1.90
  -5  -1   6    3.10    2.50
   4   1  -6   21.40    2.90
   4   1  -6   14.50    3.50
  -4  -1   6   21.50    2.90
  -4  -1   6   15.30    2.40
  -4  -1   6   17.00    2.80
   3   1  -6    8.30    1.90
   3   1  -6   17.40    2.60
  -3  -1   6   14.70    2.00
  -3  -1   6   15.50    1.70
  -3  -1   6   17.50    2.20
   2   1  -6    5.70    1.60
   2   1  -6    4.30    1.40
  -2  -1   6    4.70    0.90
  -2  -1   6    6.00    1.10
  -2  -1   6    4.10    0.80
  -2  -1   6    6.20    1.20
   1   1  -6   19.00    1.90
   1   1  -6   19.80    1.80
  -1  -1   6   24.10    2.40
  -1  -1   6   21.80    1.70
  -1  -1   6   23.80    1.70
   0   1  -6  107.09    3.40
   0  -1   6  119.89    3.70
   0  -1   6  113.79    4.70
   0  -1   6  117.49    3.70
  -1   1  -6  279.77    7.60
  -1   1  -6  282.57    7.30
   1  -1   6  282.07    7.20
   1  -1   6  276.97    7.20
   1  -1   6  289.87    8.80
   1  -1   6  283.67    7.90
  -2   1  -6    7.00    1.50
  -2   1  -6    8.50    1.40
   2  -1   6    9.10    2.20
   2  -1   6    7.90    1.80
   2  -1   6    7.40    1.30
  -3   1  -6   89.09    3.20
  -3   1  -6   85.99    4.10
   3  -1   6   84.99    5.30
   3  -1   6   82.99    4.60
   3  -1   6   84.39    3.60
  -4   1  -6    7.10    2.40
   4  -1   6    8.90    3.10
   4  -1   6   11.00    2.20
   4  -1   6   11.40    3.00
  -5   1  -6    2.00    3.00
   5  -1   6    1.10    2.30
   5  -1   6    4.00    3.70
   6   0  -6   18.30    4.70
  -6   0   6   12.50    2.70
  -6   0   6   17.50    3.20
  -6   0   6   17.10    3.40
   5   0  -6    3.40    2.90
   5   0  -6    6.40    3.50
  -5   0   6    3.10    2.40
  -5   0   6    6.00    2.50
  -5   0   6    4.30    2.00
   4   0  -6   20.60    3.60
   4   0  -6   20.90    3.70
  -4   0   6   17.70    2.90
  -4   0   6   17.50    2.50
  -4   0   6   24.90    3.00
   3   0  -6   -3.00    1.30
   3   0  -6   -0.20    1.80
  -3   0   6    1.50    1.50
  -3   0   6   -0.20    1.10
  -3   0   6   -0.60    1.20
   2   0  -6   66.79    2.80
   2   0  -6   70.69    3.10
  -2   0   6   71.49    2.50
  -2   0   6   73.99    2.90
  -2   0   6   70.69    2.40
  -2   0   6   67.59    2.70
   1   0  -6  885.31   22.00
   1   0  -6  833.22   21.80
  -1   0   6  928.81   21.70
  -1   0   6  932.41   22.00
  -1   0   6  908.41   22.60
  -1   0   6  905.61   22.00
  -1   0   6  879.91   21.60
   0   0  -6  270.27    7.20
   0   0  -6  261.07    7.00
   0   0   6  273.87    8.30
   0   0   6  270.77    6.90
   0   0   6  280.67    7.30
   0   0   6  273.77    7.20
   0   0   6  279.47    6.90
  -1   0  -6  563.44   14.10
  -1   0  -6  553.94   14.00
   1   0   6  566.64   15.40
   1   0   6  569.44   13.90
   1   0   6  567.44   14.40
   1   0   6  544.75   13.90
  -2   0  -6   36.40    2.10
  -2   0  -6   31.50    2.40
   2   0   6   32.30    2.20
   2   0   6   34.50    2.90
   2   0   6   33.50    3.60
  -3   0  -6   52.59    2.70
  -3   0  -6   55.59    3.50
   3   0   6   55.99    3.20
   3   0   6   55.29    4.70
   3   0   6   54.49    4.10
  -4   0  -6    6.00    2.40
  -4   0  -6    3.70    1.70
   4   0   6    7.20    2.90
   4   0   6    5.40    2.10
   4   0   6    4.60    2.90
  -5   0  -6    0.50    2.70
   5   0   6    1.80    3.60
   5   0   6    2.70    2.40
   6  -1  -6   -0.30    4.40
  -6   1   6    0.60    2.30
  -6   1   6    6.40    3.10
  -6   1   6   -2.60    2.60
   5  -1  -6    2.30    3.70
  -5   1   6    5.10    2.10
  -5   1   6    4.70    2.30
  -5   1   6    2.80    2.50
   4  -1  -6   28.00    4.00
   4  -1  -6   19.90    3.50
  -4   1   6   21.20    2.60
  -4   1   6   17.30    3.10
  -4   1   6   19.70    2.80
   3  -1  -6   38.50    3.10
   3  -1  -6   41.80    2.70
  -3   1   6   47.40    2.70
  -3   1   6   40.40    2.90
  -3   1   6   46.70    2.50
   2  -1  -6  102.09    3.20
   2  -1  -6  104.79    4.00
  -2   1   6  112.59    3.60
  -2   1   6  109.79    3.40
  -2   1   6  113.69    4.20
  -2   1   6  110.09    3.80
   1  -1  -6   21.90    1.90
   1  -1  -6   23.20    1.80
  -1   1   6   20.60    1.40
  -1   1   6   18.10    1.90
  -1   1   6   20.30    1.40
  -1   1   6   22.50    2.60
   0  -1  -6   58.49    2.40
   0  -1  -6   58.59    2.10
   0   1   6   56.19    2.20
   0   1   6   58.69    2.20
   0   1   6   62.39    3.60
   0   1   6   56.09    2.10
   0   1   6   58.29    2.50
  -1  -1  -6   55.49    2.40
   1   1   6   57.59    2.60
   1   1   6   51.19    2.20
   1   1   6   54.69    2.40
   1   1   6   52.59    3.70
  -2  -1  -6   45.50    2.50
  -2  -1  -6   44.20    2.60
   2   1   6   50.79    3.30
   2   1   6   51.19    4.00
   2   1   6   44.40    2.60
  -3  -1  -6   25.00    3.00
  -3  -1  -6   30.50    2.60
   3   1   6   29.60    4.20
   3   1   6   27.00    3.60
   3   1   6   29.90    2.90
  -4  -1  -6    6.00    1.90
  -4  -1  -6    6.40    2.30
   4   1   6    6.40    3.00
   4   1   6    4.80    3.00
   4   1   6   10.30    2.30
  -5  -1  -6   -1.20    2.60
   5   1   6    3.80    3.60
   6  -2  -6   -4.80    4.40
  -6   2   6    0.70    2.70
  -6   2   6    0.90    3.20
   5  -2  -6    4.80    3.70
  -5   2   6   -2.40    2.60
  -5   2   6   -1.50    2.20
  -5   2   6    3.60    2.20
   4  -2  -6    0.00    2.80
  -4   2   6    5.40    1.90
  -4   2   6    2.30    1.70
  -4   2   6    3.90    2.20
   3  -2  -6    1.40    2.00
  -3   2   6   -0.90    1.60
  -3   2   6    0.10    1.30
  -3   2   6   -0.20    1.40
   2  -2  -6   18.60    2.50
  -2   2   6   19.00    1.80
  -2   2   6   19.90    3.00
  -2   2   6   20.90    2.20
   1  -2  -6  106.09    3.40
   1  -2  -6  106.39    3.60
   1  -2  -6  100.29    3.30
  -1   2   6   95.59    3.30
  -1   2   6  106.19    4.60
  -1   2   6  101.09    3.30
  -1   2   6  105.29    3.60
   0  -2  -6  193.38    5.50
   0  -2  -6  191.38    5.30
   0  -2  -6  187.98    5.20
   0   2   6  191.68    5.30
   0   2   6  188.68    5.30
   0   2   6  196.28    6.70
   0   2   6  187.98    5.50
  -1  -2  -6   62.99    2.70
  -1  -2  -6   68.99    2.80
   1   2   6   67.39    2.80
   1   2   6   66.49    2.90
   1   2   6   67.79    3.00
   1   2   6   64.29    4.10
  -2  -2  -6   25.80    2.40
  -2  -2  -6   21.60    2.20
   2   2   6   21.00    3.60
   2   2   6   18.00    2.80
   2   2   6   18.70    2.50
  -3  -2  -6    2.40    1.80
  -3  -2  -6    4.80    1.70
   3   2   6    1.90    2.20
   3   2   6    0.20    1.90
   3   2   6    1.80    2.60
  -4  -2  -6   -1.20    2.10
  -4  -2  -6    3.00    2.00
   4   2   6    3.80    2.80
   4   2   6    2.10    2.30
   4   2   6   -0.80    2.80
  -5  -2  -6    1.30    2.20
  -5  -2  -6    3.10    2.50
   5   2   6   -1.90    3.40
   6  -3  -6   -2.60    4.60
  -6   3   6    9.10    3.80
   5  -3  -6    6.00    3.90
  -5   3   6    1.70    2.40
  -5   3   6    1.80    3.00
  -5   3   6    1.10    2.40
   4  -3  -6   15.20    3.30
  -4   3   6   18.40    3.10
  -4   3   6   14.40    2.20
  -4   3   6   15.40    2.80
   3  -3  -6    5.10    2.40
  -3   3   6    4.80    1.80
  -3   3   6    4.10    1.60
   2  -3  -6   58.69    2.90
  -2   3   6   62.39    4.90
  -2   3   6   57.19    3.10
  -2   3   6   55.39    2.80
   1  -3  -6  105.29    3.60
   1  -3  -6  106.49    3.80
   1  -3  -6  108.49    3.60
  -1   3   6  101.59    3.60
  -1   3   6  107.49    5.20
  -1   3   6  108.59    3.80
   0  -3  -6   74.89    2.90
   0  -3  -6   79.99    3.10
   0  -3  -6   75.19    2.80
   0   3   6   75.59    3.10
   0   3   6   81.49    4.60
   0   3   6   76.39    3.10
  -1  -3  -6   96.79    3.60
   1   3   6   90.79    5.10
   1   3   6  102.19    3.90
   1   3   6   93.99    3.60
   1   3   6   93.79    3.60
  -2  -3  -6    0.60    1.50
  -2  -3  -6    3.00    1.50
   2   3   6   -1.10    2.20
   2   3   6    0.80    1.80
   2   3   6   -0.90    1.60
  -3  -3  -6   50.59    3.40
  -3  -3  -6   54.69    3.50
   3   3   6   55.89    3.80
   3   3   6   52.09    4.40
   3   3   6   55.09    5.30
  -4  -3  -6    8.50    2.30
  -4  -3  -6    6.10    2.30
   4   3   6    9.20    3.10
   4   3   6    8.90    2.60
   4   3   6    8.60    3.20
  -5  -3  -6    3.90    2.60
  -5  -3  -6    5.80    2.50
   5   3   6    0.80    3.50
   6  -4  -6    5.80    4.60
  -6   4   6   -8.10    4.00
   5  -4  -6    6.00    4.00
  -5   4   6    4.10    2.40
  -5   4   6    4.30    3.30
   4  -4  -6    6.20    3.20
  -4   4   6    2.20    2.00
  -4   4   6    2.40    2.60
   3  -4  -6    4.70    1.90
   3  -4  -6    5.20    2.50
  -3   4   6   28.10    7.40
  -3   4   6    1.80    2.00
  -3   4   6    1.70    1.80
   2  -4  -6   59.89    3.60
   2  -4  -6   58.39    3.10
  -2   4   6   55.39    3.10
  -2   4   6   61.89    3.40
   1  -4  -6    1.80    1.50
   1  -4  -6    4.50    1.70
  -1   4   6    2.90    1.50
  -1   4   6    2.60    2.30
  -1   4   6    3.00    1.50
   0  -4  -6   14.70    1.90
   0  -4  -6   15.10    2.10
   0   4   6   13.80    1.70
   0   4   6   14.00    2.20
   0   4   6   13.80    2.40
   0   4   6   18.50    3.90
  -1  -4  -6   11.10    1.70
   1   4   6    8.10    2.60
   1   4   6    9.10    1.80
   1   4   6    8.20    1.70
   1   4   6   12.10    1.80
  -2  -4  -6   24.80    2.50
  -2  -4  -6   28.10    2.80
   2   4   6   26.50    3.40
   2   4   6   29.70    3.10
   2   4   6   23.00    4.30
  -3  -4  -6    7.00    2.00
  -3  -4  -6    6.50    2.10
   3   4   6   10.10    3.10
   3   4   6    6.80    2.60
   3   4   6   10.60    2.50
  -4  -4  -6    5.60    2.40
  -4  -4  -6    2.20    2.10
   4   4   6   -0.10    3.10
   4   4   6    3.20    2.90
  -5  -4  -6   16.70    3.10
   5   4   6   19.20    4.20
   5  -5  -6    1.80    4.20
  -5   5   6    3.10    3.60
   4  -5  -6    4.30    2.50
   4  -5  -6    4.10    3.50
  -4   5   6    5.30    2.50
  -4   5   6    6.80    3.10
   3  -5  -6   30.80    3.20
   3  -5  -6   34.80    4.20
  -3   5   6   38.10    3.90
  -3   5   6   32.60    3.50
   2  -5  -6   51.09    3.90
   2  -5  -6   56.49    3.30
  -2   5   6   59.29    3.70
  -2   5   6   49.99    3.50
   1  -5  -6    2.70    1.90
   1  -5  -6    1.50    1.70
  -1   5   6    2.20    1.70
  -1   5   6    1.90    2.90
  -1   5   6    2.00    1.70
   0  -5  -6    7.10    1.70
   0  -5  -6    4.60    1.70
   0   5   6    5.50    2.90
   0   5   6    7.30    2.00
   0   5   6    6.50    1.70
  -1  -5  -6   48.80    2.70
  -1  -5  -6   53.49    3.20
   1   5   6   48.00    3.50
   1   5   6   53.19    3.60
   1   5   6   52.49    3.00
   1   5   6   52.09    5.20
  -2  -5  -6   35.10    3.20
  -2  -5  -6   29.80    2.70
   2   5   6   25.00    5.10
   2   5   6   29.90    3.80
   2   5   6   28.40    3.40
  -3  -5  -6    5.60    2.40
   3   5   6    2.40    2.50
   3   5   6    3.00    3.00
   3   5   6    4.50    2.70
  -4  -5  -6    1.70    2.50
   4   5   6    0.30    3.30
   4   5   6    1.20    3.00
  -5  -5  -6   -0.30    3.20
   5   5   6    3.10    3.80
   5  -6  -6    0.80    4.40
  -5   6   6    6.70    3.70
   4  -6  -6   -1.80    3.70
  -4   6   6    4.20    3.20
  -4   6   6    1.00    2.50
   3  -6  -6   12.90    3.40
   3  -6  -6   11.20    2.50
  -3   6   6   14.00    5.80
  -3   6   6    9.90    2.80
  -3   6   6   10.00    2.50
   2  -6  -6   34.00    3.20
   2  -6  -6   32.90    4.00
  -2   6   6   36.60    3.60
  -2   6   6   37.30    3.80
   1  -6  -6    6.90    2.30
   1  -6  -6    6.20    2.10
  -1   6   6    7.30    2.20
  -1   6   6    9.30    3.80
  -1   6   6    7.30    2.10
   0  -6  -6   40.20    3.20
   0  -6  -6   40.00    3.30
   0   6   6   35.10    2.90
   0   6   6   39.70    5.90
   0   6   6   41.70    3.70
  -1  -6  -6   14.40    2.20
   1   6   6   12.30    2.30
   1   6   6   10.50    3.40
  -2  -6  -6   10.60    2.50
   2   6   6   13.50    2.60
   2   6   6    8.20    3.40
   2   6   6    8.80    2.60
  -3  -6  -6    3.10    2.40
   3   6   6   -2.10    2.60
   3   6   6   -0.40    3.10
  -4  -6  -6    8.50    3.00
   4   6   6    1.70    3.70
   4   6   6    7.00    3.40
   5  -7  -6    3.80    4.90
  -5   7   6    1.90    3.80
   4  -7  -6    9.00    4.30
  -4   7   6    9.80    3.50
   3  -7  -6   15.40    3.80
   3  -7  -6   11.10    3.00
  -3   7   6   15.50    3.20
  -3   7   6    8.30    2.90
   2  -7  -6   -2.40    2.80
   2  -7  -6   -1.70    2.20
  -2   7   6   -1.10    5.10
  -2   7   6   -3.40    2.40
  -2   7   6   -0.20    2.30
   1  -7  -6   11.60    2.40
   1  -7  -6    6.70    2.70
  -1   7   6    6.50    2.30
  -1   7   6    5.10    4.20
  -1   7   6    7.90    2.50
   0  -7  -6   35.40    3.60
   0  -7  -6   35.70    3.60
   0   7   6   32.20    4.10
   0   7   6   28.30    3.00
   0   7   6   32.20    6.70
  -1  -7  -6    2.60    2.40
   1   7   6    1.50    3.50
   1   7   6    0.40    2.30
  -2  -7  -6   11.20    2.80
   2   7   6    4.70    3.50
  -3  -7  -6   18.40    3.10
   3   7   6   12.30    3.90
  -4  -7  -6    4.70    4.20
   4   7   6    6.10    3.60
   4  -8  -6   -1.20    4.40
  -4   8   6    4.80    3.60
  -3   8   6   57.59   12.10
  -3   8   6    2.00    3.20
   2  -8  -6   23.10    3.70
   2  -8  -6   13.00    3.60
  -2   8   6   18.20    3.00
  -2   8   6   18.30    6.30
   1  -8  -6    7.70    2.50
   1  -8  -6    6.40    3.00
  -1   8   6   48.50    9.00
   0  -8  -6   14.60    2.90
   0  -8  -6   11.90    2.80
   0   8   6   13.90    5.10
  -1  -8  -6    7.60    2.90
   1   8   6    1.40    4.00
  -2  -8  -6   -1.80    2.70
   2   8   6   -1.20    3.70
  -3  -8  -6    0.80    2.90
   3   8   6   -4.30    3.50
   4  -9  -6   10.10    7.90
  -4   9   6   -4.40    3.50
   3  -9  -6   -1.80    3.90
  -3   9   6   -5.80    4.40
  -3   9   6   51.19   13.80
   2  -9  -6   -0.40    3.60
   1  -9  -6    3.00    2.80
   1  -9  -6   -0.40    3.20
  -1   9   6    2.90    5.60
   0  -9  -6   17.50    3.20
   0  -9  -6   11.20    3.10
   0   9   6   16.90    5.50
  -1  -9  -6   -1.80    3.00
   1   9   6    1.40    4.60
  -2  -9  -6    6.20    3.20
   2   9   6    2.30    4.00
   3 -10  -6    1.70    4.60
  -3  10   6    3.70    8.10
   2 -10  -6   -0.90    3.70
  -2  10   6    0.60    7.00
   1 -10  -6    1.20    3.00
   1 -10  -6   -1.60    3.40
  -1  10   6   18.40    7.00
   0 -10  -6   -1.00    3.10
   0  10   6   -0.60    5.70
  -1 -10  -6   -0.70    3.10
   1  10   6   -1.70    4.90
   1 -11  -6    0.80    3.70
   0 -11  -6    0.90    3.10
   1  13  -7   13.40    5.10
   0  13  -7   46.20    8.90
   0  13  -7    1.80    5.30
  -1  13  -7    7.40    5.70
   2  12  -7    5.00    4.50
  -2 -12   7    2.90    2.90
  -2 -12   7    2.50    3.80
   1  12  -7    8.50    4.90
   1  12  -7    9.00    4.70
  -1 -12   7    0.40    2.80
  -1 -12   7    1.20    3.80
   0  12  -7    7.50    4.80
   0 -12   7    2.90    2.80
   0 -12   7   -0.40    3.70
  -1  12  -7   43.00    9.90
   1 -12   7    9.70    3.00
   1 -12   7    8.10    4.60
   1 -12   7   12.00    4.20
   2 -12   7   -1.90    3.80
   2 -12   7    2.60    4.30
   2 -12   7   -1.60    3.00
   3  11  -7   -2.20    4.60
  -3 -11   7    3.40    2.60
  -3 -11   7   -1.50    2.80
  -3 -11   7    0.20    3.50
   2  11  -7    0.80    3.90
  -2 -11   7   -1.20    2.60
  -2 -11   7   -1.30    3.40
   1  11  -7    2.20    4.30
  -1 -11   7   -2.50    2.40
  -1 -11   7    3.50    3.40
   0  11  -7    5.40    4.10
   0 -11   7    0.90    3.30
   0 -11   7    0.40    2.40
  -1  11  -7   11.60    6.00
   1 -11   7    5.10    4.00
   1 -11   7    1.00    2.60
   1 -11   7    0.10    3.50
  -2  11  -7    7.90    5.60
   2 -11   7    3.30    3.80
   2 -11   7    3.50    2.70
   2 -11   7    3.00    4.20
  -3  11  -7   11.40    6.00
   3 -11   7    2.00    3.10
   3 -11   7    1.50    4.40
   3 -11   7    4.30    3.90
   4  10  -7   -3.40    6.40
  -4 -10   7    4.90    3.60
  -4 -10   7    3.30    3.10
  -4 -10   7    2.70    2.90
   3  10  -7    4.70    4.30
  -3 -10   7    8.20    2.70
  -3 -10   7    8.70    2.70
  -3 -10   7    2.90    3.40
   2  10  -7    3.30    3.70
  -2 -10   7    4.20    2.30
  -2 -10   7    2.60    2.10
  -2 -10   7    0.00    3.00
   1  10  -7    0.60    3.60
  -1 -10   7    4.20    3.00
  -1 -10   7   -0.20    2.00
   0  10  -7   10.80    5.80
   0 -10   7    1.40    2.00
   0 -10   7    2.60    3.10
  -1  10  -7   11.30    5.90
   1 -10   7    8.30    2.30
   1 -10   7   10.30    3.70
   1 -10   7    7.80    3.20
  -2  10  -7    4.50    5.20
   2 -10   7   -2.00    3.50
   2 -10   7   -2.30    2.30
   2 -10   7   -1.10    3.30
  -3  10  -7    1.20    5.60
   3 -10   7    2.40    4.00
   3 -10   7    1.20    3.50
   3 -10   7    4.00    2.90
  -4  10  -7    4.20    6.30
   4 -10   7   -1.80    4.60
   4   9  -7   -2.40    4.50
  -4  -9   7    2.80    2.70
  -4  -9   7   -0.20    2.70
  -4  -9   7    2.00    3.40
   3   9  -7    1.80    3.60
  -3  -9   7    3.30    2.30
  -3  -9   7    3.10    2.30
  -3  -9   7    2.10    3.00
   2   9  -7    3.70    3.30
  -2  -9   7   11.10    3.00
  -2  -9   7    3.60    2.00
  -2  -9   7    8.20    2.10
   1   9  -7    9.80    3.70
   1   9  -7    4.90    3.10
  -1  -9   7    6.50    1.80
  -1  -9   7    3.50    2.60
  -1  -9   7    3.20    1.70
   0   9  -7   -0.50    4.90
   0  -9   7    2.10    1.60
   0  -9   7    1.20    2.60
   0  -9   7    0.70    2.80
  -1   9  -7   -1.30    4.70
   1  -9   7   -0.10    1.50
   1  -9   7    4.20    2.90
   1  -9   7   -2.50    2.70
  -2   9  -7    0.70    4.70
   2  -9   7    2.20    2.90
   2  -9   7    0.20    3.10
   2  -9   7    1.80    2.00
  -3   9  -7   -1.10    5.00
  -3   9  -7    5.80    4.20
   3  -9   7    4.10    3.30
   3  -9   7    5.60    3.90
  -4   9  -7    1.60    6.10
  -4   9  -7   -0.80    4.00
   4  -9   7    1.70    3.00
   4  -9   7    4.10    4.50
   5   8  -7   -4.40    3.20
   5   8  -7  -10.40    4.90
  -5  -8   7   -2.20    2.70
  -5  -8   7    0.90    3.30
   4   8  -7    6.90    4.20
  -4  -8   7   13.00    3.40
  -4  -8   7    8.10    2.80
  -4  -8   7   12.00    2.80
   3   8  -7    5.00    3.40
  -3  -8   7    4.90    2.30
  -3  -8   7    7.20    2.10
  -3  -8   7    6.10    3.00
   2   8  -7    3.80    2.80
  -2  -8   7    1.70    2.30
  -2  -8   7    0.80    1.50
  -2  -8   7    2.80    1.80
   1   8  -7   34.50    4.60
   1   8  -7   33.50    5.40
  -1  -8   7   32.50    2.40
  -1  -8   7   28.20    2.50
  -1  -8   7   32.10    3.50
   0   8  -7   12.70    4.10
   0  -8   7    9.90    2.50
   0  -8   7   12.60    2.80
   0  -8   7   10.80    1.50
  -1   8  -7    0.10    3.80
   1  -8   7   -1.30    1.20
   1  -8   7   -2.70    2.30
   1  -8   7    1.50    2.30
  -2   8  -7   23.80    3.70
  -2   8  -7   28.40    7.00
   2  -8   7   20.50    2.90
   2  -8   7   21.60    3.90
   2  -8   7   21.50    4.70
  -3   8  -7    3.60    3.20
  -3   8  -7   -2.10    4.80
   3  -8   7   -2.10    2.80
   3  -8   7    1.30    2.40
   3  -8   7    2.60    3.60
  -4   8  -7    4.30    4.00
  -4   8  -7   -6.10    5.40
   4  -8   7    0.00    2.80
   4  -8   7    0.10    4.00
  -5   8  -7    3.70    6.50
  -5   8  -7    6.00    4.70
   5  -8   7    3.20    3.30
   5   7  -7   -3.10    4.80
   5   7  -7    1.20    3.50
  -5  -7   7    0.70    2.50
  -5  -7   7    2.60    2.90
   4   7  -7    2.00    3.30
  -4  -7   7    9.40    2.40
  -4  -7   7    7.70    2.60
   3   7  -7   28.00    5.00
  -3  -7   7   27.30    2.90
  -3  -7   7   31.70    4.00
  -3  -7   7   27.20    3.30
   2   7  -7    3.90    2.00
   2   7  -7    2.40    2.40
  -2  -7   7    0.00    1.60
  -2  -7   7    0.60    1.30
  -2  -7   7    2.50    2.30
   1   7  -7    6.20    2.10
   1   7  -7    4.40    2.50
  -1  -7   7    7.20    2.10
  -1  -7   7    8.60    1.50
   0   7  -7    8.90    3.10
   0  -7   7    8.90    2.20
   0  -7   7   12.00    1.60
   0  -7   7   11.20    2.40
  -1   7  -7   23.70    5.60
  -1   7  -7   20.80    2.20
   1  -7   7   23.10    3.10
   1  -7   7   20.40    1.80
   1  -7   7   17.30    3.30
  -2   7  -7    6.70    4.00
  -2   7  -7   10.00    2.50
   2  -7   7   11.80    1.70
   2  -7   7   10.50    2.40
   2  -7   7    8.00    2.60
  -3   7  -7   -2.40    4.60
  -3   7  -7    0.20    3.10
   3  -7   7    4.20    2.40
   3  -7   7    2.20    3.10
   3  -7   7    0.80    2.00
  -4   7  -7    2.70    3.80
  -4   7  -7   -3.10    5.50
   4  -7   7    2.60    3.90
   4  -7   7    0.10    2.60
  -5   7  -7   13.70    6.60
  -5   7  -7   14.50    4.60
   5  -7   7   11.50    5.00
   5  -7   7   10.10    3.20
   5   6  -7   -2.80    4.10
   5   6  -7    1.70    3.60
  -5  -6   7    4.40    2.80
  -5  -6   7    5.10    2.50
   4   6  -7    4.30    3.20
  -4  -6   7    3.10    2.10
  -4  -6   7   -0.20    2.20
   3   6  -7    3.60    2.60
  -3  -6   7    3.30    2.30
  -3  -6   7   -0.70    1.80
  -3  -6   7    2.10    1.40
   2   6  -7  126.89    5.20
   2   6  -7  132.59    6.00
  -2  -6   7  133.49    5.00
  -2  -6   7  124.09    3.90
  -2  -6   7  127.19    4.50
   1   6  -7   64.39    4.20
   1   6  -7   68.89    4.10
  -1  -6   7   69.49    2.90
  -1  -6   7   71.39    3.50
   0   6  -7   72.29    5.10
   0   6  -7   74.19    2.70
   0  -6   7   69.89    2.60
   0  -6   7   72.39    3.60
   0  -6   7   68.89    4.10
  -1   6  -7   83.89    3.50
  -1   6  -7   84.99    5.80
   1  -6   7   78.49    2.70
   1  -6   7   87.39    3.80
   1  -6   7   72.19    3.00
   1  -6   7   79.99    4.30
  -2   6  -7   12.30    2.40
  -2   6  -7   12.20    3.70
   2  -6   7   11.40    1.50
   2  -6   7   10.10    2.50
   2  -6   7   13.80    2.20
  -3   6  -7    4.70    3.00
  -3   6  -7    5.60    4.40
   3  -6   7    7.10    3.00
   3  -6   7    6.30    2.00
  -4   6  -7   -3.60    3.40
  -4   6  -7    6.00    5.40
   4  -6   7   -3.70    3.40
   4  -6   7   -3.40    2.30
  -5   6  -7    4.10    6.30
  -5   6  -7    8.50    4.50
   5  -6   7   -0.20    4.40
   5  -6   7    1.20    2.90
   6   5  -7   -3.90    4.10
   6   5  -7   -6.80    4.00
  -6  -5   7   -0.80    2.60
   5   5  -7   10.80    3.80
   5   5  -7    0.60    3.90
  -5  -5   7    3.20    2.60
  -5  -5   7    9.20    2.50
   4   5  -7    2.10    2.80
   4   5  -7    0.60    2.80
  -4  -5   7    1.00    1.70
  -4  -5   7    1.80    2.10
   3   5  -7    2.80    2.30
  -3  -5   7    1.80    1.20
  -3  -5   7   -0.70    1.50
  -3  -5   7   -0.40    2.00
   2   5  -7    2.50    1.90
  -2  -5   7    4.00    1.40
  -2  -5   7    4.50    1.90
  -2  -5   7    1.60    1.10
   1   5  -7    0.80    1.60
  -1  -5   7    0.90    1.00
  -1  -5   7   -0.60    1.50
  -1  -5   7   -0.80    1.10
   0   5  -7   26.20    1.80
   0   5  -7   19.90    3.60
   0  -5   7   22.90    2.40
   0  -5   7   21.70    1.50
   0  -5   7   20.30    2.80
  -1   5  -7    1.80    1.50
  -1   5  -7    0.30    0.60
  -1   5  -7    2.00    2.40
   1  -5   7    1.40    0.90
   1  -5   7    0.90    1.60
   1  -5   7    2.50    1.70
  -2   5  -7   -0.90    2.00
   2  -5   7    3.80    1.70
   2  -5   7    0.80    1.90
   2  -5   7   -0.30    1.20
  -3   5  -7   12.50    4.20
  -3   5  -7   11.00    2.80
   3  -5   7    8.40    2.70
   3  -5   7   11.70    2.00
  -4   5  -7   12.70    5.20
  -4   5  -7   12.80    3.60
   4  -5   7   24.30    5.90
   4  -5   7   11.90    2.60
  -5   5  -7    8.80    4.20
  -5   5  -7   -4.30    5.60
   5  -5   7   -0.80    4.20
   5  -5   7    0.00    2.80
   6   4  -7   16.00    4.50
   6   4  -7    7.10    4.10
  -6  -4   7   12.40    3.20
  -6  -4   7   11.00    2.70
   5   4  -7   -7.20    3.30
   5   4  -7    3.90    3.60
  -5  -4   7   -4.10    2.30
  -5  -4   7   -0.10    2.10
   4   4  -7   41.60    4.50
   4   4  -7   38.40    5.00
  -4  -4   7   36.60    3.00
  -4  -4   7   37.80    3.20
  -4  -4   7   41.70    3.30
   3   4  -7   59.69    4.60
  -3  -4   7   56.89    3.00
  -3  -4   7   53.49    2.50
  -3  -4   7   50.89    2.60
   2   4  -7   33.40    3.30
  -2  -4   7   30.20    2.60
  -2  -4   7   31.30    1.90
  -2  -4   7   34.30    2.20
   1   4  -7  217.58    7.10
  -1  -4   7  229.38    6.20
  -1  -4   7  228.48    6.10
  -1  -4   7  218.58    6.60
   0   4  -7  203.98    5.80
   0  -4   7  207.68    6.60
   0  -4   7  212.38    7.30
   0  -4   7  216.88    6.10
   0  -4   7  206.98    5.60
  -1   4  -7  314.17    8.60
  -1   4  -7  300.67    7.90
   1  -4   7  325.47    8.50
   1  -4   7  328.77   10.10
   1  -4   7  321.57    9.40
  -2   4  -7   10.50    2.10
   2  -4   7    7.90    2.10
   2  -4   7   11.60    2.00
   2  -4   7    7.00    2.60
   2  -4   7   10.50    1.80
  -3   4  -7    8.80    2.30
   3  -4   7    5.80    2.50
   3  -4   7    8.30    1.80
   3  -4   7    6.80    3.20
  -4   4  -7    1.90    3.20
   4  -4   7   -1.00    2.20
   4  -4   7    2.30    3.20
  -5   4  -7   20.20    6.00
  -5   4  -7   16.20    4.10
   5  -4   7   17.50    3.00
   5  -4   7   18.80    4.70
   6   3  -7   -3.50    3.50
   6   3  -7    7.10    4.60
  -6  -3   7    2.00    3.10
  -6  -3   7   -0.70    2.40
   5   3  -7   -7.60    2.90
   5   3  -7   -1.90    3.60
  -5  -3   7    1.10    1.90
  -5  -3   7    3.60    2.20
  -5  -3   7   -3.20    2.40
   4   3  -7   18.30    3.30
   4   3  -7   11.80    3.10
  -4  -3   7   14.20    2.30
  -4  -3   7   15.20    2.40
  -4  -3   7   12.70    1.90
   3   3  -7   28.80    3.70
   3   3  -7   24.50    2.90
  -3  -3   7   21.80    2.40
  -3  -3   7   22.10    2.10
  -3  -3   7   23.50    1.80
   2   3  -7   74.79    3.80
  -2  -3   7   76.49    2.90
  -2  -3   7   79.99    3.10
  -1  -3   7  118.09    3.70
  -1  -3   7  116.89    3.70
  -1  -3   7  112.69    4.00
  -1  -3   7  114.79    4.50
   0  -3   7   18.90    2.50
   0  -3   7   12.40    1.40
   0  -3   7   15.30    1.90
   0  -3   7   14.10    1.80
   0  -3   7   13.80    2.90
  -1   3  -7  379.56    9.80
  -1   3  -7  380.76   10.30
   1  -3   7  411.66   10.00
   1  -3   7  400.56   11.70
   1  -3   7  391.96   10.90
  -2   3  -7    5.00    0.90
  -2   3  -7    4.60    1.70
   2  -3   7    3.50    1.70
   2  -3   7    6.40    1.30
   2  -3   7    4.40    2.30
  -3   3  -7   11.70    2.40
   3  -3   7   11.70    1.90
   3  -3   7    7.10    2.90
   3  -3   7    8.10    2.40
  -4   3  -7    6.10    2.80
   4  -3   7    2.10    2.10
   4  -3   7    3.30    3.00
   4  -3   7    2.30    3.20
  -5   3  -7    0.30    3.70
   5  -3   7    1.70    3.70
   5  -3   7    2.00    2.60
   6   2  -7    0.70    4.70
  -6  -2   7    1.80    3.00
  -6  -2   7    1.10    2.70
  -6  -2   7   -0.50    2.30
   5   2  -7    5.00    3.10
   5   2  -7   12.50    3.90
  -5  -2   7    8.40    2.70
  -5  -2   7    8.00    2.20
  -5  -2   7    8.70    2.50
   4   2  -7  138.39    5.80
   4   2  -7  122.19    6.00
  -4  -2   7  126.39    5.10
  -4  -2   7  125.29    4.50
  -4  -2   7  124.89    4.80
   3   2  -7   35.70    3.50
   3   2  -7   30.80    3.20
  -3  -2   7   32.40    2.50
  -3  -2   7   29.00    2.00
  -3  -2   7   31.60    2.40
   2   2  -7  102.49    4.00
   2   2  -7  110.19    4.30
   2   2  -7  110.39    4.30
  -2  -2   7  114.59    3.70
  -2  -2   7  119.89    3.80
  -1  -2   7   13.50    1.80
  -1  -2   7   14.70    1.60
  -1  -2   7   12.50    2.40
   0  -2   7  214.28    6.30
   0  -2   7  209.48    7.00
   0  -2   7  218.08    5.80
   0  -2   7  207.18    5.90
  -1   2  -7   79.49    3.20
  -1   2  -7   73.89    2.60
   1  -2   7   70.39    3.40
   1  -2   7   76.69    2.50
   1  -2   7   80.29    2.50
   1  -2   7   78.79    4.40
  -2   2  -7    0.30    1.50
  -2   2  -7    0.10    1.00
   2  -2   7   -1.10    1.10
   2  -2   7    0.10    1.60
   2  -2   7   -0.80    1.90
  -3   2  -7    6.30    1.40
  -3   2  -7    6.70    2.20
   3  -2   7    8.40    2.40
   3  -2   7    0.90    1.60
   3  -2   7    5.10    2.60
  -4   2  -7   68.19    4.90
   4  -2   7   71.69    6.40
   4  -2   7   69.79    4.20
   4  -2   7   66.49    5.90
  -5   2  -7   -0.80    3.20
   5  -2   7    3.30    3.60
   5  -2   7    1.80    2.50
   5  -2   7   -1.20    3.70
   6   1  -7    4.20    4.50
  -6  -1   7    0.10    2.80
  -6  -1   7   -2.10    2.80
  -6  -1   7   -1.20    2.40
   5   1  -7   -1.00    2.70
   5   1  -7    0.90    3.60
  -5  -1   7   -2.70    2.40
  -5  -1   7    2.10    2.40
  -5  -1   7   -0.70    2.00
   4   1  -7    3.00    2.60
   4   1  -7    2.40    2.20
  -4  -1   7    3.40    1.50
  -4  -1   7    5.80    2.00
  -4  -1   7    4.40    2.00
   3   1  -7    2.80    1.80
   3   1  -7    7.20    2.10
  -3  -1   7    7.50    1.50
  -3  -1   7    6.40    1.30
  -3  -1   7    5.50    1.50
   2   1  -7   98.99    3.80
   2   1  -7  106.79    4.10
  -2  -1   7  104.79    3.70
  -2  -1   7  108.89    3.20
  -2  -1   7  109.69    3.20
  -2  -1   7  108.29    3.70
   1   1  -7   18.30    2.00
  -1  -1   7   23.10    1.80
  -1  -1   7   22.40    2.60
  -1  -1   7   22.20    1.90
   0   1  -7   14.50    1.40
   0   1  -7   16.60    1.50
   0  -1   7   14.70    1.90
   0  -1   7   14.40    2.70
   0  -1   7   15.40    1.80
  -1   1  -7   11.50    1.50
  -1   1  -7   11.00    1.90
   1  -1   7   12.20    2.00
   1  -1   7   14.20    1.40
   1  -1   7   10.90    2.90
   1  -1   7   12.70    1.30
  -2   1  -7    0.60    1.50
  -2   1  -7    2.10    1.10
   2  -1   7    0.80    2.00
   2  -1   7    1.70    1.20
   2  -1   7    1.40    1.60
  -3   1  -7    2.10    1.40
  -3   1  -7    4.00    2.10
   3  -1   7    3.70    2.30
   3  -1   7    3.90    2.50
   3  -1   7    0.20    1.60
  -4   1  -7    0.00    2.50
   4  -1   7    2.30    3.00
   4  -1   7    5.40    2.20
   4  -1   7    1.10    2.90
  -5   1  -7    4.10    3.10
   5  -1   7    9.50    4.00
   5  -1   7   12.80    4.70
   5  -1   7    9.90    2.70
   6   0  -7   10.30    4.70
  -6   0   7    5.10    2.50
  -6   0   7    6.70    3.10
  -6   0   7    8.30    3.20
   5   0  -7    7.20    3.90
  -5   0   7    1.50    2.50
  -5   0   7    2.00    2.00
  -5   0   7    1.30    2.40
   4   0  -7    1.20    2.70
   4   0  -7    2.30    2.00
  -4   0   7    3.20    2.10
  -4   0   7    1.40    1.90
  -4   0   7    2.10    1.60
   3   0  -7   19.40    3.00
   3   0  -7   11.20    2.40
  -3   0   7   19.60    2.20
  -3   0   7   18.20    1.90
  -3   0   7   20.60    2.50
   2   0  -7    1.70    1.60
  -2   0   7    3.20    0.90
  -2   0   7    1.90    1.30
  -2   0   7    2.30    0.90
  -2   0   7    2.60    1.20
   1   0  -7   56.99    2.60
  -1   0   7   58.99    3.40
  -1   0   7   55.19    2.00
  -1   0   7   59.39    2.70
  -1   0   7   58.39    2.00
   0   0  -7  129.89    4.00
   0   0   7  137.99    3.70
   0   0   7  134.09    4.30
   0   0   7  134.29    4.00
   0   0   7  133.09    3.70
   0   0   7  130.69    5.30
  -1   0  -7  142.19    4.30
   1   0   7  138.39    4.10
   1   0   7  141.99    4.70
   1   0   7  146.99    5.90
   1   0   7  144.49    4.20
  -2   0  -7   43.30    2.70
  -2   0  -7   43.20    2.30
   2   0   7   37.60    4.00
   2   0   7   44.40    3.20
   2   0   7   37.70    2.50
  -3   0  -7   21.00    2.40
  -3   0  -7   20.00    3.30
   3   0   7   23.50    2.80
   3   0   7   18.10    4.40
   3   0   7   23.10    3.80
  -4   0  -7   -1.40    2.40
  -4   0  -7   -0.20    1.70
   4   0   7   -0.30    2.90
   4   0   7    2.40    2.80
   4   0   7    1.50    2.10
  -5   0  -7    4.40    3.00
   5   0   7    6.00    3.70
   5   0   7    4.30    2.70
   6  -1  -7   -3.00    4.50
  -6   1   7    0.40    3.10
  -6   1   7    1.30    2.90
  -6   1   7   -0.30    2.50
   5  -1  -7    3.90    3.90
  -5   1   7    1.30    2.50
  -5   1   7    2.30    2.10
  -5   1   7   -1.00    2.70
   4  -1  -7    0.20    2.90
  -4   1   7   -2.10    1.90
  -4   1   7   -0.80    2.00
  -4   1   7   -0.90    1.60
   3  -1  -7    5.60    2.10
  -3   1   7    1.60    1.50
  -3   1   7    2.20    1.60
  -3   1   7    2.50    1.40
   2  -1  -7  255.77    7.50
  -2   1   7  262.37    7.90
  -2   1   7  270.77    7.40
  -2   1   7  260.47    7.00
  -2   1   7  256.47    7.20
   1  -1  -7   71.39    3.00
   1  -1  -7   80.69    2.90
  -1   1   7   75.89    3.10
  -1   1   7   69.89    2.50
  -1   1   7   71.09    2.50
  -1   1   7   75.79    3.90
   0  -1  -7  179.98    5.20
   0   1   7  177.78    4.90
   0   1   7  182.18    6.50
   0   1   7  174.88    5.30
   0   1   7  172.98    4.90
   0   1   7  176.18    4.90
  -1  -1  -7   29.20    2.10
   1   1   7   28.30    3.50
   1   1   7   28.90    2.10
   1   1   7   29.70    2.20
  -2  -1  -7    9.90    1.80
  -2  -1  -7   10.00    1.60
   2   1   7    8.40    2.60
   2   1   7    9.40    2.00
   2   1   7    7.30    1.70
  -3  -1  -7   11.20    2.30
  -3  -1  -7    7.40    1.80
   3   1   7    7.50    2.50
   3   1   7    6.90    2.80
   3   1   7    8.20    2.00
  -4  -1  -7   29.90    3.20
  -4  -1  -7   34.60    4.20
   4   1   7   38.40    3.80
   4   1   7   28.70    5.50
   4   1   7   32.10    5.30
  -5  -1  -7    2.50    2.80
   5   1   7    0.60    3.60
   5   1   7   -0.20    2.80
   6  -2  -7    8.90    4.70
  -6   2   7    0.60    2.60
  -6   2   7    1.30    3.50
   5  -2  -7   -1.20    3.80
  -5   2   7    0.80    2.20
  -5   2   7    0.20    2.80
  -5   2   7    2.00    2.40
   4  -2  -7    7.40    3.20
  -4   2   7    6.40    2.30
  -4   2   7    8.70    2.20
  -4   2   7    2.90    1.80
   3  -2  -7    0.90    2.30
  -3   2   7    2.60    1.60
  -3   2   7    2.50    1.40
  -3   2   7    1.00    1.80
   2  -2  -7   48.90    3.30
   2  -2  -7   54.69    2.90
  -2   2   7   52.89    3.80
  -2   2   7   52.29    2.50
  -2   2   7   53.39    3.00
   1  -2  -7   44.20    2.40
   1  -2  -7   45.00    2.60
  -1   2   7   45.50    2.60
  -1   2   7   45.60    3.70
  -1   2   7   43.40    2.20
   0  -2  -7    9.20    1.40
   0   2   7    8.50    2.20
   0   2   7    6.60    1.20
   0   2   7    8.80    1.60
  -1  -2  -7   17.10    2.00
   1   2   7   12.80    2.10
   1   2   7   15.00    3.30
   1   2   7   15.40    2.10
   1   2   7   12.80    2.30
  -2  -2  -7  127.39    4.70
  -2  -2  -7  128.99    4.60
   2   2   7  135.19    4.70
   2   2   7  131.89    6.50
   2   2   7  129.79    5.30
  -3  -2  -7    7.50    2.10
  -3  -2  -7    6.10    1.90
   3   2   7    4.40    2.40
   3   2   7    7.20    3.00
   3   2   7    6.40    2.20
  -4  -2  -7    1.20    2.30
  -4  -2  -7    2.10    2.00
   4   2   7   -0.50    2.80
   4   2   7    0.90    3.00
   4   2   7   -1.90    2.30
  -5  -2  -7   -1.20    2.80
  -5  -2  -7    3.80    2.70
   5   2   7    0.30    3.60
   6  -3  -7    1.40    4.60
  -6   3   7   -0.60    3.70
  -6   3   7   -2.90    2.50
   5  -3  -7    6.40    4.10
  -5   3   7   -0.70    3.10
  -5   3   7    3.60    2.60
  -5   3   7    1.40    2.20
   4  -3  -7    2.00    3.20
  -4   3   7   -0.60    2.00
  -4   3   7   -0.20    1.90
  -4   3   7    2.00    2.40
   3  -3  -7   11.50    2.80
  -3   3   7   11.40    2.20
  -3   3   7    5.40    2.50
  -3   3   7    8.90    1.80
   2  -3  -7    2.70    2.10
   2  -3  -7    1.70    1.40
  -2   3   7    2.10    1.40
  -2   3   7    3.80    1.80
  -2   3   7    4.80    2.30
   1  -3  -7   65.09    3.10
   1  -3  -7   65.69    2.90
  -1   3   7   67.79    3.20
  -1   3   7   65.49    2.90
  -1   3   7   68.69    4.60
   0  -3  -7    8.80    1.60
   0  -3  -7   10.50    1.70
   0   3   7    9.00    1.50
   0   3   7    9.70    2.40
   0   3   7    7.10    1.50
  -1  -3  -7  182.88    5.60
   1   3   7  175.48    5.70
   1   3   7  178.78    5.70
   1   3   7  174.18    7.40
   1   3   7  188.28    5.60
  -2  -3  -7    0.50    1.60
  -2  -3  -7    0.70    1.60
   2   3   7    1.50    1.80
   2   3   7    1.20    1.80
   2   3   7   -1.80    2.30
  -3  -3  -7    0.80    1.90
  -3  -3  -7    1.80    1.90
   3   3   7   -1.70    2.20
   3   3   7    1.40    2.90
   3   3   7   -0.40    2.10
  -4  -3  -7   -0.90    2.10
  -4  -3  -7   -1.00    2.30
   4   3   7    1.40    3.20
   4   3   7   -2.60    2.40
   4   3   7   -0.10    2.80
  -5  -3  -7    1.40    2.40
  -5  -3  -7    2.10    2.70
   5   3   7   -0.90    3.50
   5  -4  -7   -0.90    3.90
  -5   4   7    3.00    3.40
  -5   4   7   -3.60    2.30
   4  -4  -7    0.30    2.40
   4  -4  -7   -0.40    3.30
  -4   4   7    0.90    2.70
  -4   4   7   -0.60    2.20
   3  -4  -7   13.40    2.40
   3  -4  -7   11.00    2.90
  -3   4   7   15.00    3.60
  -3   4   7   16.80    2.60
  -3   4   7   12.50    2.10
   2  -4  -7   80.89    4.30
   2  -4  -7   86.89    3.80
  -2   4   7   83.69    3.90
  -2   4   7   82.89    4.10
   1  -4  -7   37.10    2.90
   1  -4  -7   39.40    2.90
  -1   4   7   39.50    2.80
  -1   4   7   39.00    3.00
  -1   4   7   39.40    4.60
   0  -4  -7   44.90    2.70
   0  -4  -7   41.20    2.50
   0   4   7   43.00    3.00
   0   4   7   39.10    4.70
   0   4   7   43.70    2.90
  -1  -4  -7  239.08    7.00
   1   4   7  228.98    6.90
   1   4   7  222.48    7.00
   1   4   7  233.28    6.90
   1   4   7  222.48    8.90
  -2  -4  -7    2.80    1.80
  -2  -4  -7    2.00    1.70
   2   4   7    2.40    2.00
   2   4   7    3.70    2.00
   2   4   7    4.10    2.70
  -3  -4  -7   18.60    2.70
  -3  -4  -7   15.90    2.40
   3   4   7   21.00    4.30
   3   4   7   21.10    2.80
   3   4   7   20.30    5.30
  -4  -4  -7    0.00    2.40
  -4  -4  -7    4.40    2.40
   4   4   7    2.90    3.40
   4   4   7    1.20    3.00
  -5  -4  -7   14.40    3.00
   5   4   7   16.70    4.30
   5  -5  -7    5.30    4.40
  -5   5   7    0.10    3.40
  -5   5   7    1.70    2.70
   4  -5  -7   -2.20    2.50
   4  -5  -7    1.70    3.60
  -4   5   7    2.40    3.10
  -4   5   7   -1.30    2.30
   3  -5  -7    5.40    2.40
   3  -5  -7    3.20    3.10
  -3   5   7    4.10    4.00
  -3   5   7    3.60    2.70
  -3   5   7    6.30    2.30
   2  -5  -7    2.20    2.10
   2  -5  -7   -0.50    2.50
  -2   5   7   -0.10    2.20
  -2   5   7    0.90    2.00
   1  -5  -7   34.60    3.10
   1  -5  -7   38.40    3.30
  -1   5   7   33.50    5.40
  -1   5   7   35.40    3.30
  -1   5   7   39.00    3.30
   0  -5  -7   33.10    2.80
   0  -5  -7   37.20    3.10
   0   5   7   40.00    3.40
   0   5   7   36.30    3.00
   0   5   7   26.30    5.10
  -1  -5  -7   11.80    2.10
   1   5   7   12.90    2.20
   1   5   7    7.90    2.20
   1   5   7    6.80    3.00
  -2  -5  -7    1.90    2.20
  -2  -5  -7    3.00    1.80
   2   5   7    5.10    2.30
   2   5   7    6.20    2.40
   2   5   7    3.80    3.10
  -3  -5  -7    7.40    2.70
  -3  -5  -7    9.20    2.50
   3   5   7    7.50    3.40
   3   5   7    5.30    2.60
   3   5   7    6.40    2.70
  -4  -5  -7    4.30    2.80
   4   5   7    5.00    3.20
   4   5   7    0.60    3.50
   5  -6  -7   -0.70    4.60
  -5   6   7   -1.30    3.80
   4  -6  -7   11.40    4.10
  -4   6   7    7.10    2.70
  -4   6   7    7.00    3.30
   3  -6  -7    0.30    3.30
   3  -6  -7    0.20    2.50
  -3   6   7    2.90    2.50
  -3   6   7   15.00    5.10
  -3   6   7    1.80    2.80
   2  -6  -7    2.50    2.40
   2  -6  -7    1.10    2.80
  -2   6   7   -0.10    2.50
  -2   6   7    0.90    2.10
  -2   6   7    2.70    4.00
   1  -6  -7    8.50    2.30
   1  -6  -7    3.30    2.30
  -1   6   7    4.60    2.20
  -1   6   7    5.90    3.90
  -1   6   7    5.30    2.30
   0  -6  -7    1.30    2.10
   0  -6  -7    2.00    2.20
   0   6   7    8.20    3.60
   0   6   7    2.30    2.30
   0   6   7    6.50    2.10
  -1  -6  -7    7.90    2.40
   1   6   7    7.90    3.50
   1   6   7   11.40    2.40
  -2  -6  -7    0.10    2.40
   2   6   7    1.10    3.30
   2   6   7    0.70    2.40
  -3  -6  -7    4.60    2.70
   3   6   7    0.60    3.30
  -4  -6  -7   18.80    3.50
   4   6   7   15.40    4.30
   4   6   7   14.10    3.70
   4  -7  -7    2.50    4.20
  -4   7   7   14.60    3.80
   3  -7  -7   19.10    4.00
   3  -7  -7   13.80    2.90
  -3   7   7    9.50    2.90
  -3   7   7   17.30    3.40
  -3   7   7    9.70    5.40
   2  -7  -7    6.90    2.60
   2  -7  -7    6.40    3.10
  -2   7   7   -0.70    2.70
  -2   7   7    4.30    2.60
  -2   7   7   33.70    8.40
   1  -7  -7   25.50    3.90
   1  -7  -7   22.70    3.70
  -1   7   7   24.80    4.10
  -1   7   7    9.00    4.40
  -1   7   7   23.00    3.50
   0  -7  -7    2.20    2.50
   0  -7  -7    1.90    2.40
   0   7   7    0.00    2.60
   0   7   7    1.50    3.80
   0   7   7    1.60    2.10
  -1  -7  -7    0.40    2.60
   1   7   7    6.00    2.60
   1   7   7   -0.80    3.70
  -2  -7  -7    6.50    2.90
   2   7   7   -0.10    3.70
  -3  -7  -7    1.40    2.90
   3   7   7   -1.20    3.60
   4  -8  -7   -3.90    4.30
  -4   8   7   -0.80    3.50
   3  -8  -7    2.40    3.80
  -3   8   7   41.10   10.50
  -3   8   7   -3.90    3.20
   2  -8  -7   -0.40    2.70
   2  -8  -7    5.90    3.50
  -2   8   7   -1.30    5.10
  -2   8   7   -0.70    2.80
   1  -8  -7   25.30    4.20
   1  -8  -7   28.70    3.90
  -1   8   7   15.70    5.20
   0  -8  -7    7.70    2.90
   0   8   7   13.70    4.80
  -1  -8  -7    1.80    2.70
   1   8   7    2.20    4.20
  -2  -8  -7   -0.80    2.80
   2   8   7   -2.30    4.00
  -3  -8  -7    3.60    5.40
   3   8   7    7.50    4.10
   3  -9  -7    8.70    4.50
  -3   9   7    1.00    6.50
   2  -9  -7    1.60    3.70
  -2   9   7    1.10    5.70
   1  -9  -7    3.00    2.90
   1  -9  -7    2.60    3.30
  -1   9   7    1.70    5.60
   0  -9  -7    2.30    3.00
   0   9   7    1.30    4.90
  -1  -9  -7    3.20    3.10
   1   9   7   -2.60    4.60
  -2  -9  -7    2.70    3.20
   2   9   7   -2.50    4.20
   2 -10  -7   -0.30    3.80
  -2  10   7    1.10    6.40
   1 -10  -7    3.00    3.30
   1 -10  -7    5.90    3.70
  -1  10   7   -1.00    5.90
   0 -10  -7    3.40    3.30
   0  10   7   -3.60    5.40
  -1 -10  -7   -1.90    3.20
   0  13  -8   60.89   10.10
   2  12  -8    6.00    5.60
  -2 -12   8    2.60    2.90
  -2 -12   8    1.60    4.10
   1  12  -8   10.80    4.90
  -1 -12   8   -4.80    3.70
  -1 -12   8    0.00    2.50
   0  12  -8    1.90    5.00
   0 -12   8    2.60    3.90
   0 -12   8    1.90    2.50
  -1  12  -8   16.30    7.10
   1 -12   8    4.00    4.50
   1 -12   8    3.40    2.80
   1 -12   8    7.00    4.00
  -2  12  -8    8.50    5.90
   2 -12   8    0.70    3.90
   2 -12   8   -3.70    3.10
   2 -12   8    4.40    4.50
   3  11  -8   -5.70    4.50
  -3 -11   8    2.30    3.80
  -3 -11   8    4.20    2.80
  -3 -11   8   -0.70    2.70
   2  11  -8   12.00    4.40
  -2 -11   8   11.10    2.70
  -2 -11   8    6.70    3.80
   1  11  -8    3.00    4.40
  -1 -11   8    0.00    2.20
  -1 -11   8    4.60    3.40
   0  11  -8    2.70    4.40
   0  11  -8   43.10    9.10
   0 -11   8    4.00    3.50
   0 -11   8    3.70    2.40
  -1  11  -8    8.60    6.50
   1 -11   8   -0.30    2.40
   1 -11   8    0.60    3.60
   1 -11   8    1.90    4.00
  -2  11  -8    6.30    5.70
   2 -11   8    2.40    2.60
   2 -11   8   -1.50    3.60
   2 -11   8    3.30    4.20
  -3  11  -8    9.00    6.10
   3 -11   8   -0.30    3.90
   3 -11   8    2.00    3.00
   3 -11   8    6.90    4.60
  -4 -10   8   -1.50    2.80
  -4 -10   8    0.50    4.30
   3  10  -8    3.20    4.20
  -3 -10   8    6.80    2.70
  -3 -10   8    3.80    2.60
  -3 -10   8   10.90    3.80
   2  10  -8    7.40    3.80
  -2 -10   8    1.00    2.30
  -2 -10   8    1.00    3.30
  -2 -10   8    1.80    2.10
   1  10  -8   18.50    4.40
  -1 -10   8   10.50    2.10
  -1 -10   8   13.60    3.40
   0  10  -8   31.00    7.10
   0 -10   8   21.80    3.10
   0 -10   8   26.00    3.80
  -1  10  -8   10.10    6.20
   1 -10   8    3.30    2.10
   1 -10   8    5.30    3.70
   1 -10   8   -1.60    3.30
  -2  10  -8   10.00    5.80
   2 -10   8    7.50    3.90
   2 -10   8    9.30    3.70
   2 -10   8   12.50    2.60
  -3  10  -8   -3.10    5.50
   3 -10   8    1.30    2.80
   3 -10   8    1.70    4.20
   3 -10   8    5.20    3.80
   4   9  -8   -6.10    4.20
  -4  -9   8   -1.20    2.60
  -4  -9   8   -2.60    2.70
  -4  -9   8    2.10    3.50
   3   9  -8    3.80    3.70
  -3  -9   8    6.70    3.40
  -3  -9   8    5.70    2.50
  -3  -9   8    7.50    2.40
   2   9  -8    0.90    3.30
  -2  -9   8    5.10    2.00
  -2  -9   8    0.90    1.90
  -2  -9   8    3.60    3.10
   1   9  -8   25.00    6.40
   1   9  -8    5.80    3.20
  -1  -9   8    2.30    1.60
  -1  -9   8    5.30    2.70
   0   9  -8   23.20    5.70
   0  -9   8   17.90    3.60
   0  -9   8   22.00    3.30
   0  -9   8   25.10    2.60
  -1   9  -8    2.30    5.10
   1  -9   8    2.00    2.90
   1  -9   8    4.40    3.20
   1  -9   8    0.90    1.50
  -2   9  -8    1.80    5.00
   2  -9   8    0.50    3.20
   2  -9   8    2.00    2.00
   2  -9   8    1.70    3.00
  -3   9  -8    9.80    5.60
   3  -9   8    5.60    4.70
   3  -9   8   10.50    4.20
  -4   9  -8    0.00    4.00
  -4   9  -8    2.30    6.10
   4  -9   8   -2.10    2.90
   4  -9   8   -4.10    4.30
   5   8  -8   -8.20    5.60
   5   8  -8    3.80    3.90
   4   8  -8    6.80    4.10
  -4  -8   8   15.70    3.00
  -4  -8   8   18.00    3.80
  -4  -8   8   16.70    2.90
   3   8  -8   -0.20    3.20
  -3  -8   8    2.90    1.90
  -3  -8   8    1.30    2.10
  -3  -8   8    3.30    3.00
   2   8  -8   26.30    5.10
  -2  -8   8   17.00    2.30
  -2  -8   8   16.60    2.60
  -2  -8   8   17.90    3.10
   1   8  -8   16.00    3.50
   1   8  -8   15.70    3.10
  -1  -8   8   14.00    1.80
  -1  -8   8   19.30    2.90
   0   8  -8    6.60    4.20
   0  -8   8   10.90    2.60
   0  -8   8   12.30    2.80
  -1   8  -8    3.90    4.20
   1  -8   8    6.80    2.60
   1  -8   8    5.70    2.80
   1  -8   8    4.50    1.30
  -2   8  -8   -0.90    4.30
  -2   8  -8    2.00    2.50
   2  -8   8    2.40    1.70
   2  -8   8    2.40    2.70
   2  -8   8   -0.30    2.90
  -3   8  -8    7.40    5.30
  -3   8  -8    3.50    3.30
   3  -8   8    0.70    3.50
   3  -8   8    3.10    2.40
  -4   8  -8   -2.90    5.90
  -4   8  -8    6.70    4.20
   4  -8   8   -2.70    2.80
   4  -8   8   -1.70    4.20
   5   7  -8   -5.00    4.40
   5   7  -8    2.80    3.90
  -5  -7   8    4.50    2.90
  -5  -7   8    1.00    2.60
   4   7  -8    0.40    3.20
  -4  -7   8    1.40    2.20
  -4  -7   8    6.70    2.60
   3   7  -8   12.60    3.10
  -3  -7   8   15.10    3.20
  -3  -7   8   12.40    2.00
  -3  -7   8   13.10    2.30
   2   7  -8    2.40    2.00
   2   7  -8    4.30    2.70
  -2  -7   8    3.40    1.70
  -2  -7   8    1.20    2.30
   1   7  -8    0.10    2.30
   1   7  -8    3.10    2.20
  -1  -7   8    0.90    2.00
  -1  -7   8    1.60    1.40
   0   7  -8    0.00    3.00
   0  -7   8   -0.40    2.10
   0  -7   8    0.80    2.10
  -1   7  -8    1.90    1.80
  -1   7  -8    4.20    3.50
   1  -7   8    0.30    2.20
   1  -7   8    3.10    2.10
  -2   7  -8   42.00    7.10
  -2   7  -8   45.30    4.00
   2  -7   8   44.20    2.90
   2  -7   8   47.20    3.90
   2  -7   8   47.70    5.00
  -3   7  -8   -1.60    4.90
  -3   7  -8   -0.60    3.20
   3  -7   8    0.20    3.20
   3  -7   8    2.50    2.10
  -4   7  -8   10.40    4.20
  -4   7  -8    6.20    6.10
   4  -7   8    7.80    2.80
   4  -7   8   10.00    4.20
  -5   7  -8    4.20    6.60
  -5   7  -8    4.10    4.70
   5  -7   8    4.30    3.10
   5   6  -8   12.10    4.10
   5   6  -8   15.10    4.60
  -5  -6   8   15.50    2.80
  -5  -6   8   18.10    3.10
   4   6  -8    5.60    3.10
  -4  -6   8    5.90    2.00
  -4  -6   8    4.40    2.40
   3   6  -8    5.70    2.80
  -3  -6   8    1.60    2.40
  -3  -6   8    3.80    2.00
  -3  -6   8    3.70    1.50
   2   6  -8    1.70    2.40
  -2  -6   8    3.80    2.10
  -2  -6   8    3.10    1.60
   1   6  -8   12.00    2.40
  -1  -6   8   17.30    2.70
  -1  -6   8   11.80    2.00
   0   6  -8    9.70    1.70
   0   6  -8    0.70    2.50
   0  -6   8    1.70    1.10
   0  -6   8    2.60    1.90
   0  -6   8    2.10    1.90
  -1   6  -8    6.70    3.20
  -1   6  -8    7.30    1.80
   1  -6   8   11.40    2.20
   1  -6   8    6.40    2.00
  -2   6  -8   -1.00    3.40
  -2   6  -8    2.90    2.30
   2  -6   8    0.90    1.30
   2  -6   8    2.20    2.10
   2  -6   8    1.70    2.40
  -3   6  -8    3.50    2.90
  -3   6  -8    1.30    4.60
   3  -6   8    3.60    3.00
   3  -6   8    1.30    1.90
  -4   6  -8    4.80    3.80
  -4   6  -8   -2.10    5.50
   4  -6   8    1.10    2.50
   4  -6   8   -4.00    3.50
  -5   6  -8   26.10    5.00
  -5   6  -8   16.30    6.90
   5  -6   8   22.00    5.30
   5  -6   8   18.00    3.30
   6   5  -8   -5.20    4.00
   5   5  -8    5.30    4.10
   5   5  -8   -4.40    3.70
  -5  -5   8    3.50    2.60
  -5  -5   8    3.80    2.40
   4   5  -8   21.00    4.80
   4   5  -8   28.00    4.70
  -4  -5   8   28.40    3.40
  -4  -5   8   24.00    3.00
   3   5  -8    9.70    2.80
  -3  -5   8    8.20    2.40
  -3  -5   8    7.90    1.30
  -3  -5   8    8.00    1.90
   2   5  -8   12.60    2.40
  -2  -5   8   14.30    2.70
  -2  -5   8   13.10    2.20
  -2  -5   8   11.80    2.00
   1   5  -8    6.30    2.00
  -1  -5   8    7.50    1.30
  -1  -5   8    6.10    1.90
  -1  -5   8    5.10    1.40
   0   5  -8   13.60    1.80
   0   5  -8   13.90    3.70
   0  -5   8   17.00    2.40
   0  -5   8   17.70    1.60
   0  -5   8   14.50    2.90
  -1   5  -8   31.60    2.70
   1  -5   8   36.10    2.80
   1  -5   8   30.20    3.30
  -2   5  -8   24.80    3.40
   2  -5   8   26.50    3.80
   2  -5   8   28.90    2.20
   2  -5   8   28.50    2.70
  -3   5  -8   33.40    4.40
   3  -5   8   32.90    5.00
   3  -5   8   28.40    3.30
  -4   5  -8   71.49    9.10
   4  -5   8   71.49    7.00
   4  -5   8   68.89    4.70
  -5   5  -8   11.40    6.40
  -5   5  -8    3.90    4.10
   5  -5   8    6.10    4.70
   5  -5   8    4.40    3.00
   6   4  -8    5.20    4.10
   6   4  -8    6.40    4.60
  -6  -4   8   10.10    3.60
  -6  -4   8    6.00    2.70
   5   4  -8    0.90    4.00
   5   4  -8   -7.50    3.30
  -5  -4   8   -0.90    2.00
  -5  -4   8   -7.20    2.40
   4   4  -8   44.60    4.90
   4   4  -8   49.10    5.10
  -4  -4   8   44.10    3.00
  -4  -4   8   48.50    3.80
  -4  -4   8   50.09    3.60
   3   4  -8   55.89    4.20
   3   4  -8   64.09    4.60
  -3  -4   8   57.59    2.90
  -3  -4   8   58.89    2.50
  -3  -4   8   60.19    3.30
   2   4  -8  109.09    4.80
  -2  -4   8  107.29    3.90
  -2  -4   8  106.49    4.30
  -2  -4   8  112.09    3.80
  -1  -4   8   52.49    2.50
  -1  -4   8   53.29    2.50
  -1  -4   8   51.39    3.00
   0  -4   8   15.70    1.60
   0  -4   8   17.20    3.40
   0  -4   8   18.90    2.30
   0  -4   8   18.10    2.70
  -1   4  -8    0.30    1.40
  -1   4  -8    1.70    0.70
   1  -4   8   -0.90    1.40
   1  -4   8   -0.70    2.10
   1  -4   8   -0.30    1.60
  -2   4  -8   -1.80    2.00
   2  -4   8   -1.10    1.20
   2  -4   8   -1.40    1.90
   2  -4   8    0.00    2.40
  -3   4  -8    5.90    2.70
   3  -4   8    0.30    1.80
   3  -4   8    4.50    3.20
   3  -4   8    7.30    2.70
   4  -4   8   78.19    7.40
   4  -4   8   80.59    4.60
   4  -4   8   84.29    6.80
  -5   4  -8   12.20    6.10
  -5   4  -8   14.00    4.40
   5  -4   8    6.00    4.20
   5  -4   8    7.10    2.90
   6   3  -8   -2.10    4.70
  -6  -3   8   -3.80    3.00
  -6  -3   8    3.80    2.60
   5   3  -8    8.90    3.50
   5   3  -8   24.90    4.50
  -5  -3   8   27.70    3.40
  -5  -3   8   15.40    2.60
  -5  -3   8   20.90    3.50
   4   3  -8   -1.90    2.70
   4   3  -8   -1.80    2.90
  -4  -3   8    0.10    2.10
  -4  -3   8    2.00    1.50
  -4  -3   8    0.60    1.70
   3   3  -8   -1.80    1.90
   3   3  -8    2.00    2.50
  -3  -3   8    0.90    1.40
  -3  -3   8    0.80    1.10
  -3  -3   8    1.30    1.50
   2   3  -8    3.20    1.60
  -2  -3   8    3.00    1.20
  -2  -3   8    2.60    1.30
  -1  -3   8  121.19    4.80
  -1  -3   8  114.19    4.60
  -1  -3   8  120.29    4.00
  -1  -3   8  118.69    4.20
  -1  -3   8  118.39    3.90
   0  -3   8    8.40    1.50
   0  -3   8   10.20    2.20
   0  -3   8    9.30    1.60
   0  -3   8    7.10    1.60
  -1   3  -8  255.37    7.30
  -1   3  -8  252.97    6.70
   1  -3   8  257.27    7.90
   1  -3   8  259.07    8.80
  -2   3  -8   -1.40    1.70
  -2   3  -8    1.00    0.90
   2  -3   8    0.70    1.20
   2  -3   8    2.00    1.80
   2  -3   8    3.70    2.30
   3  -3   8  261.47   10.10
   3  -3   8  254.67    9.10
   3  -3   8  253.07    7.50
  -4   3  -8   20.10    3.50
   4  -3   8   18.80    3.80
   4  -3   8   16.80    4.10
   4  -3   8   21.70    2.70
  -5   3  -8    0.20    3.80
   5  -3   8    6.60    4.20
   5  -3   8    5.10    4.00
   5  -3   8   -1.60    2.60
   6   2  -8   -2.10    4.80
  -6  -2   8    6.00    3.30
  -6  -2   8    0.30    2.40
  -6  -2   8   -1.90    2.60
   5   2  -8    1.00    3.20
   5   2  -8    1.80    4.10
  -5  -2   8    2.90    2.80
  -5  -2   8    1.40    2.30
  -5  -2   8    2.90    2.10
   4   2  -8   -1.70    2.40
   4   2  -8   -0.50    2.80
  -4  -2   8   -1.40    2.00
  -4  -2   8    1.80    1.80
  -4  -2   8    2.20    1.60
   3   2  -8  149.09    5.70
   3   2  -8  147.69    5.60
  -3  -2   8  147.99    4.90
  -3  -2   8  138.09    4.90
  -3  -2   8  144.69    4.40
   2   2  -8   35.50    2.90
   2   2  -8   36.70    2.70
  -2  -2   8   34.00    2.40
  -2  -2   8   38.10    2.30
   1   2  -8  164.58    5.20
  -1  -2   8  166.08    5.00
  -1  -2   8  163.88    5.80
  -1  -2   8  160.58    4.90
   0   2  -8    2.30    1.00
   0  -2   8    1.50    1.30
   0  -2   8    2.00    1.80
   0  -2   8    1.30    1.20
  -1   2  -8   24.60    2.30
  -1   2  -8   25.10    1.70
   1  -2   8   26.10    1.60
   1  -2   8   23.40    1.40
   1  -2   8   25.90    3.50
   1  -2   8   25.20    2.60
  -2   2  -8    5.70    1.80
  -2   2  -8    8.80    1.30
   2  -2   8    7.30    2.50
   2  -2   8    7.10    1.40
   2  -2   8    4.40    1.90
   3  -2   8  155.68    6.80
   3  -2   8  162.98    5.40
   3  -2   8  156.98    7.80
  -4   2  -8   48.00    5.00
   4  -2   8   50.69    6.40
   4  -2   8   51.79    6.00
   4  -2   8   51.69    4.00
  -5   2  -8    3.60    3.50
   5  -2   8    0.10    2.50
   5  -2   8    2.60    3.70
   5  -2   8    0.70    3.80
   6   1  -8   -0.80    4.70
  -6  -1   8    1.10    2.40
  -6  -1   8    7.70    3.00
  -6  -1   8    3.20    3.10
   5   1  -8    5.30    4.10
  -5  -1   8    2.50    2.00
  -5  -1   8    3.70    2.40
  -5  -1   8    4.70    2.60
   4   1  -8    9.70    3.10
   4   1  -8    2.70    2.30
  -4  -1   8    9.00    2.10
  -4  -1   8    3.60    1.60
  -4  -1   8    5.10    2.10
   3   1  -8   84.29    4.20
   3   1  -8   78.59    4.20
  -3  -1   8   86.39    3.70
  -3  -1   8   82.39    3.60
  -3  -1   8   82.99    3.10
   2   1  -8   25.00    2.70
   2   1  -8   29.40    2.50
  -2  -1   8   29.80    2.20
  -2  -1   8   27.70    1.60
  -2  -1   8   30.10    1.60
  -2  -1   8   32.00    2.40
   1   1  -8   30.80    2.40
  -1  -1   8   32.70    2.30
  -1  -1   8   29.40    2.00
  -1  -1   8   32.60    3.00
   0   1  -8   -0.40    0.90
   0  -1   8   -0.40    1.70
   0  -1   8    0.60    1.10
   0  -1   8    0.20    1.30
  -1   1  -8    0.10    1.00
  -1   1  -8   -0.30    1.30
   1  -1   8    0.30    0.90
   1  -1   8   -0.80    1.30
   1  -1   8   -1.10    1.80
   1  -1   8    0.20    1.00
  -2   1  -8  252.77    7.40
  -2   1  -8  255.77    7.00
   2  -1   8  240.28    8.00
   2  -1   8  253.77    7.00
   2  -1   8  254.17    9.20
  -3   1  -8   17.30    2.70
  -3   1  -8   17.10    2.30
   3  -1   8   12.60    3.20
   3  -1   8   13.70    2.10
   3  -1   8   19.90    4.00
  -4   1  -8   19.60    3.30
   4  -1   8   22.00    3.80
   4  -1   8   17.70    4.00
   4  -1   8   19.30    2.70
  -5   1  -8   -0.40    3.20
   5  -1   8    0.00    2.60
   5  -1   8   -0.90    3.60
   5  -1   8    0.00    3.70
   6   0  -8    4.30    4.70
  -6   0   8   -0.30    3.00
  -6   0   8    7.50    3.20
  -6   0   8   -2.00    2.40
   5   0  -8   19.20    4.40
  -5   0   8   16.70    2.50
  -5   0   8   22.10    3.90
  -5   0   8   20.50    3.10
   4   0  -8   21.70    3.40
  -4   0   8   20.60    2.60
  -4   0   8   15.20    2.50
  -4   0   8   16.20    2.70
   3   0  -8  145.09    5.60
  -3   0   8  143.19    4.60
  -3   0   8  147.89    5.00
  -3   0   8  139.99    5.00
   2   0  -8    6.10    1.90
  -2   0   8    5.80    1.70
  -2   0   8    9.00    1.70
  -2   0   8    7.30    1.00
  -2   0   8    5.60    1.40
  -2   0   8    6.10    1.10
   1   0  -8   78.49    3.10
   1   0  -8   77.89    3.20
  -1   0   8   81.49    2.60
  -1   0   8   73.49    3.20
  -1   0   8   77.99    2.50
  -1   0   8   77.69    4.10
   0   0  -8   69.19    2.70
   0   0   8   73.79    2.50
   0   0   8   70.29    2.40
   0   0   8   71.29    4.20
   0   0   8   72.79    3.10
   0   0   8   72.19    2.80
  -1   0  -8    8.60    1.30
   1   0   8    7.10    1.40
   1   0   8    7.30    1.30
   1   0   8    6.00    2.20
  -2   0  -8   80.79    3.90
  -2   0  -8   86.59    3.50
   2   0   8   89.89    3.60
   2   0   8   84.89    5.50
   2   0   8   85.39    4.30
  -3   0  -8  206.08    7.00
  -3   0  -8  198.68    6.20
   3   0   8  195.68    8.80
   3   0   8  203.48    6.50
   3   0   8  194.98    7.70
  -4   0  -8   -4.00    2.70
   4   0   8   -0.20    2.30
   4   0   8    0.60    2.90
   4   0   8    0.80    3.20
  -5   0  -8   -3.40    2.90
   5   0   8    2.50    3.90
   5   0   8    3.50    5.00
   5   0   8    4.10    2.80
   6  -1  -8    3.70    4.70
  -6   1   8    2.50    2.50
  -6   1   8   -1.60    3.00
  -6   1   8    1.10    3.10
   5  -1  -8    2.90    3.90
  -5   1   8    3.60    2.70
  -5   1   8    3.00    2.30
  -5   1   8   -1.40    2.50
   4  -1  -8   13.90    3.50
  -4   1   8    8.70    2.50
  -4   1   8   16.70    2.50
  -4   1   8   10.90    2.00
   3  -1  -8    9.00    2.50
  -3   1   8    5.20    1.90
  -3   1   8    7.20    1.70
  -3   1   8    7.30    1.40
   2  -1  -8    3.70    1.80
  -2   1   8   -0.20    1.00
  -2   1   8    2.20    1.60
  -2   1   8    0.40    1.30
  -2   1   8    1.30    1.70
   1  -1  -8  101.29    3.60
   1  -1  -8   95.19    3.70
  -1   1   8  103.19    4.70
  -1   1   8   98.19    3.20
  -1   1   8   98.59    3.20
  -1   1   8  100.89    3.80
   0  -1  -8   18.10    2.10
   0  -1  -8   19.60    1.70
   0   1   8   17.90    1.70
   0   1   8   20.60    1.60
   0   1   8   13.30    2.20
   0   1   8   19.20    3.30
   0   1   8   16.00    1.50
  -1  -1  -8  254.87    7.10
   1   1   8  247.98    7.30
   1   1   8  251.97    8.90
   1   1   8  250.37    6.90
  -2  -1  -8   81.99    3.80
  -2  -1  -8   78.69    3.60
   2   1   8   75.39    4.20
   2   1   8   75.09    3.60
   2   1   8   78.89    5.60
  -3  -1  -8   51.19    3.40
  -3  -1  -8   50.19    3.90
   3   1   8   53.89    4.70
   3   1   8   63.69    3.80
   3   1   8   49.99    5.70
  -4  -1  -8    2.80    2.00
  -4  -1  -8    1.70    2.70
   4   1   8    0.60    3.30
   4   1   8    2.60    2.50
   4   1   8    4.20    3.00
  -5  -1  -8   12.10    3.40
   5   1   8   12.30    4.00
   5   1   8    9.40    3.10
   6  -2  -8    2.60    4.80
  -6   2   8    5.10    3.50
  -6   2   8   -1.10    2.50
   5  -2  -8   13.70    4.10
  -5   2   8   11.90    3.10
  -5   2   8    9.10    2.50
  -5   2   8   10.90    2.90
   4  -2  -8   53.59    5.10
  -4   2   8   49.10    4.30
  -4   2   8   43.90    3.40
  -4   2   8   47.30    4.00
   3  -2  -8    7.10    2.70
  -3   2   8    5.70    2.00
  -3   2   8    4.50    1.90
  -3   2   8    4.00    1.60
   2  -2  -8   76.79    3.50
   2  -2  -8   79.49    4.10
  -2   2   8   81.59    3.20
  -2   2   8   82.49    3.70
  -2   2   8   83.79    4.60
   1  -2  -8   -0.20    1.20
   1  -2  -8    2.50    1.60
  -1   2   8    0.10    2.00
  -1   2   8    0.40    1.10
  -1   2   8    1.40    1.40
   0  -2  -8    3.20    1.20
   0  -2  -8    1.10    1.40
   0   2   8    1.80    2.00
   0   2   8    5.10    1.30
   0   2   8    1.00    1.50
  -1  -2  -8   37.50    2.80
   1   2   8   41.30    2.80
   1   2   8   37.50    2.70
   1   2   8   41.50    2.90
   1   2   8   36.10    4.30
  -2  -2  -8  218.98    6.70
  -2  -2  -8  218.68    6.80
   2   2   8  210.68    8.80
   2   2   8  228.48    6.80
   2   2   8  213.78    7.40
  -3  -2  -8    3.20    2.20
  -3  -2  -8    4.40    2.00
   3   2   8    4.90    2.60
   3   2   8    4.80    3.10
   3   2   8    2.30    2.10
  -4  -2  -8    0.60    2.10
  -4  -2  -8    0.40    2.50
   4   2   8   -0.70    3.30
   4   2   8    0.30    2.50
   4   2   8    1.50    2.90
  -5  -2  -8   -0.80    2.70
   5   2   8    3.00    3.70
  -6   3   8   -1.20    2.60
   5  -3  -8    8.90    4.20
  -5   3   8   10.40    3.40
  -5   3   8    9.70    2.70
  -5   3   8    6.50    2.80
   4  -3  -8    0.20    3.30
  -4   3   8    3.90    2.10
  -4   3   8   -0.30    2.60
   3  -3  -8   13.80    3.00
   3  -3  -8   12.90    2.30
  -3   3   8    9.30    1.80
  -3   3   8   10.30    2.40
   2  -3  -8    2.40    2.30
   2  -3  -8   -0.20    1.50
  -2   3   8   -0.80    1.90
  -2   3   8    2.30    2.30
  -2   3   8   -0.20    1.50
   1  -3  -8    3.20    1.70
   1  -3  -8    5.20    1.60
  -1   3   8    4.00    1.50
  -1   3   8    3.70    1.80
  -1   3   8    3.20    2.30
   0  -3  -8  157.28    4.90
   0  -3  -8  162.58    5.20
   0   3   8  167.08    5.10
   0   3   8  154.38    5.30
   0   3   8  163.48    7.00
  -1  -3  -8   20.70    2.70
   1   3   8   17.10    2.60
   1   3   8   19.60    4.30
   1   3   8   22.60    2.80
   1   3   8   21.20    2.80
  -2  -3  -8    8.60    2.00
  -2  -3  -8    9.20    2.10
   2   3   8   11.40    2.30
   2   3   8    6.50    3.10
   2   3   8    6.80    2.10
  -3  -3  -8   11.00    2.30
  -3  -3  -8    9.00    2.30
   3   3   8   11.10    2.80
   3   3   8    9.60    2.50
   3   3   8    7.00    3.40
  -4  -3  -8   -1.80    2.50
  -4  -3  -8    0.90    2.30
   4   3   8    2.40    3.10
   4   3   8    2.40    3.50
   4   3   8    0.70    2.70
  -5  -3  -8    3.50    2.70
  -5  -3  -8    5.60    3.60
   5   3   8    6.90    3.80
   5  -4  -8    8.90    4.40
   5  -4  -8   11.00    3.50
  -5   4   8    4.50    2.70
  -5   4   8    7.10    3.70
   4  -4  -8    0.50    3.50
   4  -4  -8   -1.10    2.50
  -4   4   8    3.30    3.00
  -4   4   8    0.30    2.20
   3  -4  -8   15.40    3.30
   3  -4  -8   23.70    2.90
  -3   4   8   14.00    3.20
  -3   4   8   20.80    3.40
  -3   4   8   23.20    3.90
   2  -4  -8    6.10    1.90
   2  -4  -8   10.80    2.60
  -2   4   8   18.70    4.60
  -2   4   8    7.00    2.20
  -2   4   8    5.40    1.80
   1  -4  -8   47.30    3.20
   1  -4  -8   54.99    3.40
  -1   4   8   50.19    3.40
  -1   4   8   54.19    3.20
  -1   4   8   50.59    5.10
   0  -4  -8   12.70    2.00
   0  -4  -8   12.40    2.20
   0   4   8   20.30    2.90
   0   4   8   16.80    4.50
   0   4   8   14.50    2.30
  -1  -4  -8   18.50    3.00
   1   4   8   17.00    4.80
   1   4   8   21.90    2.50
   1   4   8   20.10    2.50
  -2  -4  -8    6.20    2.00
  -2  -4  -8    5.60    2.20
   2   4   8    7.00    2.40
   2   4   8    9.60    2.40
   2   4   8    6.60    3.20
  -3  -4  -8    9.60    2.30
  -3  -4  -8    8.90    2.50
   3   4   8    9.20    2.80
   3   4   8    7.00    3.60
   3   4   8    8.10    2.60
  -4  -4  -8    2.10    2.50
  -4  -4  -8   -3.00    3.20
   4   4   8    3.10    3.70
   4   4   8    0.60    3.10
   5  -5  -8   -2.30    4.20
  -5   5   8   -4.50    3.50
  -5   5   8   -0.80    2.60
   4  -5  -8    6.20    3.90
   4  -5  -8    3.90    2.80
  -4   5   8    7.30    2.60
  -4   5   8    3.40    3.30
   3  -5  -8   -1.80    2.40
   3  -5  -8    3.50    3.30
  -3   5   8   -2.80    2.20
  -3   5   8    0.30    2.80
  -3   5   8   -2.70    3.30
   2  -5  -8   43.50    4.30
   2  -5  -8   45.40    3.80
  -2   5   8   55.49    6.20
  -2   5   8   39.80    4.10
  -2   5   8   42.90    3.70
   1  -5  -8  101.59    4.60
   1  -5  -8   99.99    4.60
  -1   5   8  106.59    6.90
  -1   5   8  112.39    4.70
  -1   5   8  107.19    4.70
   0  -5  -8   11.70    2.20
   0  -5  -8   14.70    2.70
   0   5   8   10.60    2.30
   0   5   8    8.60    3.40
   0   5   8    8.10    2.40
  -1  -5  -8    4.80    2.30
   1   5   8    3.20    2.30
   1   5   8    6.60    2.40
   1   5   8    2.60    3.10
  -2  -5  -8   51.19    3.60
  -2  -5  -8   54.79    4.00
   2   5   8   51.99    4.30
   2   5   8   52.99    6.20
  -3  -5  -8    2.10    2.60
   3   5   8    2.70    2.60
   3   5   8    2.70    3.50
  -4  -5  -8    7.10    3.00
   4   5   8    6.30    4.10
   4   5   8    3.00    3.50
   5  -6  -8    1.10    5.20
  -5   6   8    2.50    3.90
   4  -6  -8    2.00    4.10
  -4   6   8    0.40    2.70
  -4   6   8   -1.90    3.40
   3  -6  -8    9.20    3.60
   3  -6  -8    3.60    2.80
  -3   6   8    5.20    3.10
  -3   6   8    4.10    2.60
  -3   6   8    0.10    4.30
   2  -6  -8    4.10    2.70
   2  -6  -8    6.00    3.00
  -2   6   8    5.80    3.90
  -2   6   8    7.20    2.80
  -2   6   8   11.20    2.80
   1  -6  -8   13.00    2.70
   1  -6  -8   11.30    2.60
  -1   6   8    6.50    3.80
  -1   6   8    7.20    2.50
  -1   6   8    8.80    2.60
   0  -6  -8   98.99    4.90
   0   6   8   96.89    7.50
   0   6   8   91.39    4.50
   0   6   8   97.89    5.10
  -1  -6  -8    5.80    2.60
   1   6   8   13.90    2.80
   1   6   8    8.80    3.80
  -2  -6  -8    1.10    2.60
   2   6   8    0.20    3.50
   2   6   8   -0.10    2.50
  -3  -6  -8    1.00    2.80
   3   6   8    0.30    3.60
   4  -7  -8    1.70    4.30
  -4   7   8    5.80    3.70
   3  -7  -8   -1.50    3.70
   3  -7  -8    0.50    2.80
  -3   7   8    4.10    5.00
  -3   7   8    0.40    3.20
  -3   7   8    3.20    2.70
   2  -7  -8    5.90    2.90
   2  -7  -8    2.80    3.20
  -2   7   8    0.10    2.90
  -2   7   8    4.50    2.70
  -2   7   8    1.60    4.50
   1  -7  -8    3.80    2.70
   1  -7  -8   11.60    3.00
  -1   7   8    4.60    4.20
  -1   7   8    7.00    2.80
  -1   7   8    8.20    3.00
   0  -7  -8    3.20    2.70
   0   7   8   -0.80    2.20
   0   7   8   -1.40    3.90
   0   7   8    0.20    2.70
  -1  -7  -8    9.70    3.00
   1   7   8   10.40    2.90
   1   7   8   10.80    4.20
  -2  -7  -8    1.80    3.00
   2   7   8   -0.20    4.00
  -3  -7  -8   -2.50    3.00
   3   7   8    4.10    4.10
   4  -8  -8   -2.50    4.90
  -4   8   8   -3.00    3.70
   3  -8  -8    4.60    4.00
  -3   8   8    3.80    3.40
  -3   8   8   12.60    6.00
   2  -8  -8   11.10    3.80
   2  -8  -8    7.40    3.00
  -2   8   8    2.80    3.20
  -2   8   8   10.70    5.40
   1  -8  -8   12.50    3.10
   1  -8  -8   19.70    3.50
  -1   8   8   17.30    5.20
  -1   8   8   16.70    4.40
   0  -8  -8    3.10    2.90
   0   8   8   -0.30    4.40
  -1  -8  -8   -1.50    3.00
   1   8   8    3.80    4.50
  -2  -8  -8    0.50    3.00
   2   8   8   -0.70    4.30
   3  -9  -8    7.60    4.50
  -3   9   8   -4.80    5.80
   2  -9  -8    8.30    3.50
   2  -9  -8    3.70    3.80
  -2   9   8    5.80    5.70
   1  -9  -8    0.90    3.00
  -1   9   8    2.00    5.40
   0  -9  -8    0.20    3.10
   0   9   8    3.00    5.20
  -1  -9  -8    1.20    3.40
   1   9   8   -0.30    4.90
   1 -10  -8    5.90    3.40
   0 -10  -8   -4.50    3.30
   1  12  -9   17.20    5.20
  -1 -12   9    4.70    3.90
   0  12  -9    1.70    4.80
   0 -12   9   -0.50    2.50
   0 -12   9   -0.90    3.60
  -1  12  -9   37.90   10.20
   1 -12   9    3.20    2.80
   1 -12   9   -1.40    3.70
   1 -12   9    1.90    4.60
   2 -12   9   -0.50    4.10
  -3 -11   9    6.40    2.80
  -3 -11   9    4.30    3.40
  -3 -11   9   11.00    5.70
   2  11  -9   39.00    7.90
  -2 -11   9   15.90    4.40
  -2 -11   9   12.70    2.70
   1  11  -9   10.50    4.80
  -1 -11   9    2.10    2.30
  -1 -11   9    1.50    3.40
   0  11  -9   39.80    9.60
   0 -11   9    8.80    2.30
   0 -11   9    6.70    3.50
  -1  11  -9   14.20    7.20
   1 -11   9    3.50    2.40
   1 -11   9   -0.90    3.40
   1 -11   9    0.80    4.00
  -2  11  -9   42.20   10.10
   2 -11   9   23.80    3.80
   2 -11   9   14.90    4.20
   2 -11   9   19.40    4.90
  -4 -10   9    9.00    3.30
   3  10  -9   -5.30    3.90
  -3 -10   9    8.70    4.00
  -3 -10   9    3.00    2.50
  -3 -10   9    1.80    2.50
   2  10  -9    8.20    3.90
  -2 -10   9    0.70    2.20
  -2 -10   9    2.20    3.50
   1  10  -9    6.00    4.10
  -1 -10   9    7.10    3.30
   0  10  -9    8.00    6.60
   0 -10   9   -0.60    3.60
   0 -10   9    4.70    3.10
  -1  10  -9   11.70    6.50
   1 -10   9    5.90    2.10
   1 -10   9   11.80    3.50
   1 -10   9   12.10    4.20
  -2  10  -9   -0.10    5.60
   2 -10   9    1.70    2.30
   2 -10   9    3.90    4.00
   2 -10   9    5.30    3.60
  -3  10  -9    2.20    5.90
   3 -10   9   -1.30    2.80
   3 -10   9    0.50    4.40
   4   9  -9    1.20    4.10
  -4  -9   9   12.60    2.90
  -4  -9   9    8.90    3.00
  -4  -9   9    9.90    3.90
   3   9  -9   12.40    4.00
  -3  -9   9   18.30    4.00
  -3  -9   9   13.60    2.40
  -3  -9   9   10.90    2.70
   2   9  -9   16.90    3.90
  -2  -9   9   16.50    3.60
  -2  -9   9   11.60    2.20
   1   9  -9   35.60    6.80
   1   9  -9   34.00    6.60
  -1  -9   9   23.20    3.40
   0   9  -9    2.80    5.20
   0  -9   9   -1.00    3.00
   0  -9   9    3.00    2.80
  -1   9  -9   57.19    9.00
   1  -9   9   38.40    4.60
   1  -9   9   43.00    5.80
  -2   9  -9   14.70    5.60
   2  -9   9   14.10    3.40
   2  -9   9    8.80    3.70
   2  -9   9   17.60    2.50
  -3   9  -9    8.90    5.80
   3  -9   9   15.60    4.60
  -4   9  -9    0.10    6.20
  -4   9  -9    4.60    4.30
   4  -9   9    1.80    5.10
   4  -9   9    5.00    3.20
   4   8  -9   -4.80    3.30
  -4  -8   9   -1.80    2.40
  -4  -8   9    3.30    2.60
   3   8  -9    0.70    3.00
  -3  -8   9    1.50    1.90
  -3  -8   9    0.70    2.20
  -3  -8   9   -3.80    3.10
   2   8  -9    3.40    3.20
  -2  -8   9   -0.20    2.70
  -2  -8   9    0.80    1.80
   1   8  -9    4.20    2.90
   1   8  -9    1.30    3.00
  -1  -8   9    6.50    2.60
  -1  -8   9    6.70    1.70
   0   8  -9    3.10    4.20
   0  -8   9    4.40    2.80
   0  -8   9    2.50    2.40
  -1   8  -9    4.00    4.60
   1  -8   9    3.40    2.70
   1  -8   9    3.60    2.80
  -2   8  -9    2.30    4.90
  -2   8  -9    4.30    2.70
   2  -8   9    4.40    1.80
   2  -8   9    4.50    2.80
   2  -8   9    4.70    3.20
  -3   8  -9    7.50    3.60
  -3   8  -9    7.00    5.40
   3  -8   9    6.00    2.50
   3  -8   9    8.10    3.90
  -4   8  -9    1.30    4.10
  -4   8  -9    1.90    6.30
   4  -8   9    3.80    4.40
   4  -8   9   -3.80    2.80
   5   7  -9   -3.70    4.20
   5   7  -9    0.40    4.20
  -5  -7   9    6.60    2.70
  -5  -7   9    5.30    3.00
   4   7  -9    6.30    3.50
  -4  -7   9   13.00    2.80
  -4  -7   9   15.70    2.50
   3   7  -9    2.10    2.70
  -3  -7   9    0.40    2.90
  -3  -7   9   -1.10    2.00
   2   7  -9   26.80    5.30
  -2  -7   9   20.20    2.70
  -2  -7   9   20.60    3.10
   1   7  -9   -0.70    2.20
   1   7  -9   -1.20    2.30
  -1  -7   9   -1.10    1.50
  -1  -7   9    0.30    2.20
   0   7  -9   22.00    5.90
   0  -7   9   30.10    3.40
   0  -7   9   29.00    4.30
  -1   7  -9    8.50    4.00
  -1   7  -9   11.00    2.10
   1  -7   9   13.70    2.60
   1  -7   9    9.60    2.60
  -2   7  -9   27.20    3.20
  -2   7  -9   19.60    4.90
   2  -7   9   22.10    3.70
   2  -7   9   28.30    4.90
   2  -7   9   22.40    2.70
  -3   7  -9    6.20    5.20
  -3   7  -9    4.40    3.40
   3  -7   9    1.80    3.60
   3  -7   9   -0.80    2.20
  -4   7  -9    8.60    4.20
  -4   7  -9    8.10    6.30
   4  -7   9    3.50    4.10
   4  -7   9    9.20    2.90
   5   6  -9    2.40    4.20
   5   6  -9   -4.00    4.00
  -5  -6   9    5.50    2.50
  -5  -6   9    6.40    3.00
   4   6  -9    2.60    3.70
   4   6  -9   -0.10    2.80
  -4  -6   9    1.40    1.90
  -4  -6   9    2.00    2.30
   3   6  -9    2.10    2.60
  -3  -6   9    3.60    2.60
  -3  -6   9    1.30    1.90
   2   6  -9   20.50    4.70
  -2  -6   9   18.10    2.60
  -2  -6   9   26.10    3.40
   1   6  -9    4.00    2.20
  -1  -6   9    5.70    2.20
  -1  -6   9    3.70    1.50
   0   6  -9   15.90    3.40
   0   6  -9   19.20    2.00
   0  -6   9   18.50    1.90
   0  -6   9   18.20    2.80
   0  -6   9   13.50    2.40
  -1   6  -9   -2.10    3.10
  -1   6  -9    2.00    1.80
   1  -6   9    2.10    2.20
   1  -6   9   -0.10    2.10
  -2   6  -9   50.89    4.10
  -2   6  -9   49.10    6.90
   2  -6   9   43.10    4.80
   2  -6   9   45.90    2.70
  -3   6  -9   -2.90    4.60
  -3   6  -9    2.50    3.30
   3  -6   9   -0.50    3.00
   3  -6   9    2.10    2.00
  -4   6  -9   -3.90    3.70
  -4   6  -9    1.50    5.90
   4  -6   9   -0.50    3.90
   4  -6   9   -4.60    2.40
  -5   6  -9   14.40    7.00
   5  -6   9   22.70    3.70
   5   5  -9   -0.10    3.90
   5   5  -9   18.20    4.80
  -5  -5   9   11.50    2.50
  -5  -5   9    9.20    3.00
   4   5  -9    5.20    3.50
   4   5  -9    0.80    2.80
  -4  -5   9    0.20    1.70
  -4  -5   9    1.80    2.30
   3   5  -9    8.40    2.70
  -3  -5   9   11.60    2.10
   2   5  -9   -3.70    2.20
  -2  -5   9    1.60    2.00
  -2  -5   9    4.40    1.60
  -2  -5   9    3.80    1.50
   1   5  -9   46.90    4.00
  -1  -5   9   40.90    2.60
  -1  -5   9   44.90    2.60
  -1  -5   9   36.40    3.30
   0   5  -9   43.90    2.50
   0  -5   9   40.70    3.60
   0  -5   9   36.90    2.20
   0  -5   9   43.80    3.00
  -1   5  -9   17.40    2.80
   1  -5   9   20.90    4.40
   1  -5   9   23.40    3.40
   1  -5   9   23.20    2.70
  -2   5  -9    8.70    2.50
   2  -5   9    9.80    2.60
   2  -5   9    7.90    1.40
   2  -5   9    9.40    3.30
  -3   5  -9   30.60    4.70
   3  -5   9   22.50    5.20
   3  -5   9   17.90    4.20
   3  -5   9   20.10    3.30
  -4   5  -9    4.60    3.80
   4  -5   9   -2.60    2.40
   4  -5   9    2.50    3.70
  -5   5  -9    5.30    6.50
  -5   5  -9   10.10    4.60
   5  -5   9    7.70    3.20
   5  -5   9    3.90    4.60
   5   4  -9   -5.90    3.40
   5   4  -9    0.90    4.30
  -5  -4   9    0.20    2.10
  -5  -4   9    0.60    2.70
   4   4  -9   14.90    3.70
   4   4  -9    7.10    2.90
  -4  -4   9    6.20    2.40
  -4  -4   9    8.20    2.40
  -4  -4   9    7.80    1.80
   3   4  -9    3.50    2.50
   3   4  -9    3.00    2.50
  -3  -4   9    3.20    1.60
  -3  -4   9    0.30    1.70
   2   4  -9   28.60    3.40
  -2  -4   9   26.80    3.00
  -2  -4   9   22.10    2.40
  -2  -4   9   24.90    2.60
  -1  -4   9    0.50    1.40
  -1  -4   9    0.80    2.00
  -1  -4   9    0.20    1.70
  -1  -4   9    2.10    1.80
  -1  -4   9   -0.80    1.30
   0  -4   9   21.50    1.80
   0  -4   9   17.80    3.00
   0  -4   9   22.60    3.70
   0  -4   9   18.50    2.50
  -1   4  -9   49.50    2.10
  -1   4  -9   54.19    3.10
   1  -4   9   52.49    4.70
   1  -4   9   53.99    3.80
   1  -4   9   57.59    2.80
  -2   4  -9   21.40    2.60
   2  -4   9   13.60    2.10
   2  -4   9   13.70    2.60
   2  -4   9   19.70    4.60
  -3   4  -9    2.40    2.90
   3  -4   9    2.00    3.20
   3  -4   9    3.20    2.80
   3  -4   9    3.00    1.90
  -4   4  -9   20.10    4.10
   4  -4   9   24.50    6.60
   4  -4   9   32.80    4.00
   4  -4   9   30.40    6.30
  -5   4  -9   -5.00    4.10
   5  -4   9    3.60    2.90
   5  -4   9    0.10    4.20
   6   3  -9    7.00    5.70
  -6  -3   9    4.30    2.70
  -6  -3   9    9.20    3.70
   5   3  -9   -4.90    4.10
  -5  -3   9   -0.20    2.20
  -5  -3   9    1.10    2.10
  -5  -3   9   -3.30    2.70
   4   3  -9   57.69    5.20
   4   3  -9   67.79    5.70
  -4  -3   9   64.89    3.40
  -4  -3   9   61.79    3.60
  -4  -3   9   67.99    4.40
   3   3  -9    3.20    2.20
   3   3  -9    5.20    2.50
  -3  -3   9    6.20    1.20
  -3  -3   9    2.10    1.70
  -3  -3   9    3.70    1.60
   2   3  -9   47.80    3.50
   2   3  -9   45.50    3.40
  -2  -3   9   40.00    2.70
  -2  -3   9   47.00    2.80
  -1  -3   9   49.10    2.60
  -1  -3   9   49.40    3.40
  -1  -3   9   53.79    3.80
  -1  -3   9   51.19    2.80
   0   3  -9  132.19    4.20
   0  -3   9  140.19    4.50
   0  -3   9  139.19    6.00
   0  -3   9  140.59    5.20
   0  -3   9  137.59    4.60
  -1   3  -9    9.50    1.80
  -1   3  -9    7.70    1.20
   1  -3   9    8.40    2.50
   1  -3   9    9.00    2.00
  -2   3  -9  132.09    4.90
  -2   3  -9  156.18    5.50
   2  -3   9  147.99    7.20
   2  -3   9  153.38    4.60
   2  -3   9  147.89    6.10
  -3   3  -9   17.10    3.00
   3  -3   9   20.00    5.30
   3  -3   9   15.40    3.00
   3  -3   9   16.10    2.20
  -4   3  -9    6.10    3.30
   4  -3   9    5.70    2.40
   4  -3   9    6.20    3.60
   4  -3   9    6.00    3.80
  -5   3  -9   13.10    4.20
   5  -3   9    1.60    4.10
   5  -3   9    4.40    4.30
   5  -3   9    0.60    2.80
   6   2  -9    4.80    5.40
  -6  -2   9   -0.50    2.30
  -6  -2   9    0.60    3.10
  -6  -2   9    1.10    2.90
   5   2  -9   -1.60    4.40
  -5  -2   9   -0.30    2.30
  -5  -2   9    1.10    2.00
  -5  -2   9    5.10    2.80
   4   2  -9    3.20    3.20
   4   2  -9   -3.10    3.10
  -4  -2   9    3.20    2.00
  -4  -2   9    4.40    2.20
  -4  -2   9    2.10    1.60
   3   2  -9   11.40    2.80
   3   2  -9    4.40    2.00
  -3  -2   9    3.60    1.70
  -3  -2   9    4.60    1.20
  -3  -2   9    5.00    1.70
   2   2  -9   14.20    2.30
   2   2  -9   20.50    2.50
  -2  -2   9   12.70    2.10
  -2  -2   9   14.40    1.80
   1   2  -9   13.90    1.90
  -1  -2   9   14.90    2.00
  -1  -2   9   10.90    3.00
  -1  -2   9   13.10    1.80
   0   2  -9   93.99    3.40
   0  -2   9  101.39    5.10
   0  -2   9   95.19    3.70
   0  -2   9   97.99    4.20
  -1   2  -9   68.09    2.70
  -1   2  -9   64.19    3.30
   1  -2   9   64.99    4.70
   1  -2   9   62.39    3.60
  -2   2  -9    2.30    1.90
  -2   2  -9    2.20    1.30
   2  -2   9    1.40    2.50
   2  -2   9    2.90    1.40
   2  -2   9    1.00    1.90
  -3   2  -9   41.60    4.40
   3  -2   9   44.90    3.30
   3  -2   9   42.50    5.80
   3  -2   9   43.20    4.90
  -4   2  -9    2.40    3.30
   4  -2   9    2.90    2.30
   4  -2   9    3.80    3.10
   4  -2   9   -1.60    3.30
  -5   2  -9   11.60    4.00
   5  -2   9    2.20    2.80
   5  -2   9    1.30    4.00
   5  -2   9    2.30    3.90
   6   1  -9    5.60    5.20
  -6  -1   9   -1.40    3.00
  -6  -1   9    0.00    2.90
  -6  -1   9    0.00    2.40
   5   1  -9    3.40    4.40
  -5  -1   9    6.70    2.20
  -5  -1   9    7.50    2.90
  -5  -1   9    6.30    2.60
   4   1  -9    7.80    3.50
  -4  -1   9    3.40    2.20
  -4  -1   9    5.70    2.20
  -4  -1   9    5.70    1.70
   3   1  -9   23.50    3.60
  -3  -1   9   22.30    2.80
  -3  -1   9   22.90    2.10
  -3  -1   9   19.00    2.80
   2   1  -9  116.49    4.20
   2   1  -9  116.59    4.60
  -2  -1   9  120.19    4.30
  -2  -1   9  114.99    4.10
  -2  -1   9  123.29    4.80
   1   1  -9    4.40    1.60
  -1  -1   9    1.40    1.90
  -1  -1   9    6.50    1.60
   0   1  -9   74.09    2.90
   0   1  -9   71.09    2.70
   0  -1   9   70.89    3.20
   0  -1   9   72.29    3.20
   0  -1   9   73.59    4.50
  -1   1  -9  242.08    7.30
  -1   1  -9  246.18    6.90
   1  -1   9  246.08    6.60
   1  -1   9  254.47    8.80
   1  -1   9  248.48    7.50
  -2   1  -9  165.48    5.70
  -2   1  -9  170.88    5.20
   2  -1   9  163.58    7.60
   2  -1   9  168.48    6.30
   2  -1   9  165.08    5.10
  -3   1  -9    9.70    2.70
  -3   1  -9    7.30    1.80
   3  -1   9    6.50    3.30
   3  -1   9    7.40    2.60
   3  -1   9    5.50    2.00
  -4   1  -9    1.90    3.00
   4  -1   9    0.80    2.40
   4  -1   9    0.30    3.00
   4  -1   9   -1.40    3.30
  -5   1  -9    1.40    3.70
   5  -1   9    2.50    3.80
   5  -1   9    0.00    2.70
   5  -1   9   -0.60    3.90
   6   0  -9    6.50    5.10
  -6   0   9   -3.30    2.40
  -6   0   9    3.40    3.30
  -6   0   9    3.70    3.10
   5   0  -9    2.10    4.30
  -5   0   9   -1.10    2.80
  -5   0   9    3.20    2.70
  -5   0   9    1.30    2.10
   4   0  -9   -1.10    3.30
  -4   0   9    6.40    2.30
  -4   0   9    2.20    2.30
  -4   0   9    1.20    1.70
   3   0  -9   -0.20    2.50
  -3   0   9    2.80    1.70
  -3   0   9    2.10    1.80
  -3   0   9    1.20    1.20
   2   0  -9  112.59    4.60
  -2   0   9  112.79    4.90
  -2   0   9  107.19    4.20
  -2   0   9  106.69    3.50
  -2   0   9  110.99    4.00
   1   0  -9   26.40    2.50
   1   0  -9   24.70    2.10
  -1   0   9   25.90    3.30
  -1   0   9   26.40    1.60
  -1   0   9   28.30    1.70
  -1   0   9   27.70    2.50
   0   0  -9    5.50    1.20
   0   0   9    5.60    1.70
   0   0   9    5.00    1.00
   0   0   9    6.50    1.20
   0   0   9    6.60    1.10
   0   0   9    7.30    2.30
  -1   0  -9    1.00    1.30
   1   0   9    0.50    1.20
   1   0   9    3.30    2.30
   1   0   9    0.90    1.40
  -2   0  -9  309.17    8.50
  -2   0  -9  302.97    8.90
   2   0   9  302.27   10.80
   2   0   9  295.27    9.40
   2   0   9  303.27    8.40
  -3   0  -9    3.40    2.40
  -3   0  -9    3.10    1.80
   3   0   9    2.00    3.20
   3   0   9   -0.40    2.00
   3   0   9    0.50    2.40
  -4   0  -9    2.40    2.90
   4   0   9    4.40    3.20
   4   0   9    2.60    2.40
   4   0   9    4.90    3.60
  -5   0  -9    5.90    3.40
   5   0   9    3.30    4.00
   5   0   9    6.30    3.00
   5   0   9   -0.40    3.60
  -6   1   9    3.60    2.70
  -6   1   9    9.00    3.40
  -6   1   9    8.10    3.50
   5  -1  -9    0.40    4.10
  -5   1   9   -2.00    2.80
  -5   1   9   -5.00    2.70
  -5   1   9    1.70    2.20
   4  -1  -9    7.70    3.60
  -4   1   9    4.90    2.60
  -4   1   9    5.60    1.90
  -4   1   9   10.20    2.60
   3  -1  -9   94.39    5.00
  -3   1   9   90.19    3.50
  -3   1   9   83.99    4.20
  -3   1   9   87.39    4.20
   2  -1  -9    2.40    2.10
  -2   1   9    1.10    1.60
  -2   1   9    3.10    2.00
  -2   1   9    0.70    1.10
   1  -1  -9  176.48    5.40
   1  -1  -9  165.08    5.30
  -1   1   9  168.88    5.50
  -1   1   9  165.78    4.80
  -1   1   9  180.98    6.70
   0  -1  -9    4.50    1.50
   0   1   9    1.30    1.60
   0   1   9    2.30    2.20
   0   1   9    4.50    1.20
  -1  -1  -9  157.08    5.30
   1   1   9  174.18    5.20
   1   1   9  169.48    7.20
   1   1   9  165.98    5.50
  -2  -1  -9    5.50    2.10
  -2  -1  -9    4.10    1.80
   2   1   9    4.50    1.80
   2   1   9    7.00    2.10
   2   1   9    3.90    2.80
  -3  -1  -9    2.80    2.00
  -3  -1  -9    1.40    2.20
   3   1   9    2.20    2.40
   3   1   9   -0.90    2.10
   3   1   9    1.70    3.10
  -4  -1  -9    2.80    2.80
  -4  -1  -9   -0.20    2.00
   4   1   9    2.10    3.60
   4   1   9   -1.20    2.50
   4   1   9    1.90    3.00
  -5  -1  -9   -0.60    3.20
   5   1   9    2.00    3.10
   5   1   9    5.10    4.00
  -6   2   9    1.40    2.60
  -6   2   9    0.40    3.50
   5  -2  -9    7.30    4.30
  -5   2   9   -0.60    3.10
  -5   2   9    1.50    2.30
  -5   2   9    3.40    2.80
   4  -2  -9    5.20    3.60
  -4   2   9    1.90    2.60
  -4   2   9    4.30    2.50
  -4   2   9    3.70    2.00
   3  -2  -9   19.60    3.20
  -3   2   9   18.30    2.60
  -3   2   9   21.80    3.40
   2  -2  -9    3.90    1.70
   2  -2  -9    8.50    2.40
  -2   2   9    5.10    1.40
  -2   2   9    5.60    2.30
  -2   2   9    5.00    1.90
   1  -2  -9    4.40    1.40
   1  -2  -9    7.40    1.80
  -1   2   9    3.80    2.30
  -1   2   9    3.00    1.70
  -1   2   9    3.80    1.30
   0  -2  -9    6.60    1.70
   0   2   9    9.10    1.90
   0   2   9    4.30    2.40
   0   2   9    7.60    1.50
  -1  -2  -9   97.89    4.10
   1   2   9  102.39    6.10
   1   2   9  101.49    5.00
   1   2   9  100.69    4.00
   1   2   9   98.99    4.30
  -2  -2  -9    6.50    2.00
  -2  -2  -9    6.90    2.00
   2   2   9    3.80    2.90
   2   2   9    3.50    2.00
   2   2   9    8.90    2.10
  -3  -2  -9   10.60    2.50
  -3  -2  -9   13.90    2.40
   3   2   9    6.00    3.50
   3   2   9   12.10    2.60
   3   2   9    8.40    2.80
  -4  -2  -9    5.30    2.80
  -4  -2  -9    2.80    2.20
   4   2   9    2.60    3.10
   4   2   9    2.40    3.70
   4   2   9    7.00    2.80
   5  -3  -9   -1.70    4.00
  -5   3   9   -3.10    3.40
  -5   3   9   -1.70    2.40
   4  -3  -9   11.00    3.70
   4  -3  -9   15.50    3.00
  -4   3   9   16.40    3.30
  -4   3   9    8.30    2.30
   3  -3  -9    3.80    3.10
   3  -3  -9    0.50    2.20
  -3   3   9    4.10    1.90
  -3   3   9    0.90    2.40
   2  -3  -9   -3.10    2.40
   2  -3  -9    1.90    1.90
  -2   3   9    3.20    2.50
  -2   3   9    0.00    2.00
  -2   3   9    2.40    1.60
   1  -3  -9   19.60    2.70
   1  -3  -9   24.50    2.80
  -1   3   9   18.60    2.50
  -1   3   9   19.00    4.30
  -1   3   9   21.10    2.90
   0  -3  -9  181.78    5.90
   0   3   9  180.18    7.90
   0   3   9  184.18    6.10
   0   3   9  189.88    5.80
  -1  -3  -9    3.80    1.80
   1   3   9    5.80    2.90
   1   3   9    3.70    1.90
   1   3   9    3.20    2.10
  -2  -3  -9   35.20    3.50
  -2  -3  -9   38.10    3.40
   2   3   9   36.90    5.70
   2   3   9   32.50    5.60
   2   3   9   40.80    3.90
  -3  -3  -9   -0.30    2.20
  -3  -3  -9    1.30    2.30
   3   3   9    0.20    2.40
   3   3   9   -0.70    2.50
   3   3   9    1.50    3.40
  -4  -3  -9    2.60    2.70
  -4  -3  -9    2.60    2.40
   4   3   9   -0.50    2.70
   4   3   9   -1.20    3.60
   4   3   9   -3.40    2.90
   5  -4  -9    0.00    3.00
   5  -4  -9    7.90    4.30
  -5   4   9    1.00    3.50
  -5   4   9   -0.40    2.60
   4  -4  -9   -1.30    3.50
   4  -4  -9   -1.00    2.70
  -4   4   9   -2.80    3.10
  -4   4   9   -0.90    2.20
   3  -4  -9    9.40    2.60
   3  -4  -9    7.40    3.30
  -3   4   9    7.70    2.90
  -3   4   9    5.60    2.20
   2  -4  -9   12.00    2.30
   2  -4  -9   11.50    2.90
  -2   4   9   14.10    2.70
  -2   4   9   11.30    2.20
  -2   4   9    8.20    3.00
   1  -4  -9   10.50    2.30
   1  -4  -9   11.90    2.40
  -1   4   9   11.70    3.10
  -1   4   9   12.60    2.10
  -1   4   9   16.60    2.50
   0  -4  -9   28.20    3.00
   0   4   9   35.20    3.40
   0   4   9   27.80    5.20
   0   4   9   30.60    3.40
  -1  -4  -9  131.99    5.20
   1   4   9  122.09    5.40
   1   4   9  127.29    7.40
   1   4   9  127.39    5.20
  -2  -4  -9   12.40    2.40
  -2  -4  -9   14.80    2.60
   2   4   9   17.50    2.80
   2   4   9   13.50    3.80
  -3  -4  -9    0.90    2.40
  -3  -4  -9    2.00    2.30
   3   4   9    0.20    2.50
   3   4   9    3.90    3.70
  -4  -4  -9    1.20    2.60
   4   4   9   -0.80    4.60
   4   4   9    0.60    3.80
   4   4   9    1.10    3.10
   5  -5  -9    5.80    4.80
  -5   5   9    0.10    2.70
  -5   5   9    3.60    3.80
   4  -5  -9   -0.60    3.90
   4  -5  -9   -1.90    2.90
  -4   5   9   -2.70    3.40
  -4   5   9   -0.50    2.60
   3  -5  -9   -1.90    3.40
   3  -5  -9    4.70    2.70
  -3   5   9   -1.50    2.30
  -3   5   9    5.80    3.00
  -3   5   9    1.20    5.30
   2  -5  -9   12.50    3.20
   2  -5  -9    7.40    2.60
  -2   5   9    7.50    3.50
  -2   5   9    9.20    2.60
  -2   5   9    9.10    2.80
   1  -5  -9   24.50    3.50
   1  -5  -9   25.70    3.50
  -1   5   9   32.80    3.80
  -1   5   9   30.80    3.90
  -1   5   9   32.70    5.80
   0  -5  -9    5.80    2.30
   0   5   9    2.60    2.30
   0   5   9    4.50    2.40
   0   5   9    5.10    3.30
  -1  -5  -9   44.10    4.10
   1   5   9   39.10    4.10
   1   5   9   44.50    6.40
  -2  -5  -9    0.50    2.10
  -2  -5  -9    3.90    2.40
   2   5   9    1.50    2.60
   2   5   9    0.90    3.40
  -3  -5  -9    1.70    2.60
   3   5   9    1.00    2.60
   3   5   9    6.10    3.90
  -4  -5  -9   -1.30    3.20
   4   5   9   -0.10    3.90
   4  -6  -9    5.90    3.30
   4  -6  -9    3.20    4.20
  -4   6   9    7.10    3.00
  -4   6   9   11.10    3.70
   3  -6  -9   -1.60    3.60
   3  -6  -9   -3.00    2.80
  -3   6   9   -2.60    3.80
  -3   6   9    0.40    3.20
  -3   6   9    2.10    2.60
   2  -6  -9   11.70    3.40
   2  -6  -9    3.50    2.70
  -2   6   9   -2.90    2.90
  -2   6   9    1.80    2.70
  -2   6   9    2.90    3.80
   1  -6  -9   -2.90    2.60
   1  -6  -9    1.30    2.50
  -1   6   9    4.80    2.80
  -1   6   9    2.10    2.70
  -1   6   9   -0.40    3.60
   0  -6  -9   38.60    3.90
   0   6   9   29.60    6.50
   0   6   9   30.20    3.70
   0   6   9   32.00    4.30
  -1  -6  -9    7.70    2.80
   1   6   9    5.00    4.00
   1   6   9   10.40    3.00
  -2  -6  -9    2.20    2.80
   2   6   9    2.00    2.80
   2   6   9   -2.00    3.60
  -3  -6  -9    2.20    3.00
   3   6   9   -3.60    3.70
   4  -7  -9   -1.60    4.50
  -4   7   9   -0.60    3.70
  -4   7   9    3.20    3.40
   3  -7  -9   -1.10    3.80
   3  -7  -9    0.00    3.00
  -3   7   9   -3.00    3.30
  -3   7   9    0.50    3.00
  -3   7   9   -4.40    4.10
   2  -7  -9   38.70    5.10
   2  -7  -9   49.10    4.60
  -2   7   9   50.49    7.70
  -2   7   9   49.90    5.00
  -2   7   9   46.20    5.10
   1  -7  -9    2.20    2.90
   1  -7  -9    3.70    3.60
  -1   7   9    3.70    3.10
  -1   7   9    5.60    2.90
  -1   7   9    1.40    4.10
   0  -7  -9   -1.70    2.80
   0   7   9    5.20    2.50
   0   7   9   -2.00    3.00
   0   7   9    1.70    4.20
  -1  -7  -9    1.30    3.00
   1   7   9    5.50    4.40
   1   7   9    5.30    3.20
  -2  -7  -9   -0.60    2.90
   2   7   9   -3.60    4.10
   3   7   9    0.10    4.70
   3  -8  -9    1.20    4.00
  -3   8   9    1.10    4.90
  -3   8   9    3.00    3.50
   2  -8  -9    2.40    3.20
   2  -8  -9    8.60    3.80
  -2   8   9    5.50    4.80
  -2   8   9    1.60    3.20
  -2   8   9    2.40    3.60
   1  -8  -9   19.90    3.50
  -1   8   9   13.10    5.00
  -1   8   9   16.30    3.70
   0  -8  -9    0.70    3.20
   0   8   9   -4.60    4.40
  -1  -8  -9   11.80    3.40
   1   8   9    3.30    4.80
   2   8   9    1.90    5.20
   2  -9  -9    3.80    4.00
   2  -9  -9    7.70    3.40
  -2   9   9   -2.10    4.90
   1  -9  -9    0.50    3.10
  -1   9   9   -1.90    5.00
   0  -9  -9   11.50    3.60
   0   9   9    6.00    5.50
   1  12 -10   15.80    5.80
  -1 -12  10    5.30    4.00
   0  12 -10    3.30    5.10
   0 -12  10    2.50    3.70
  -1  12 -10   22.40    7.90
   1 -12  10    5.60    5.30
   1 -12  10    1.90    3.70
   2  11 -10   34.70    7.80
  -2 -11  10   15.60    4.30
   0  11 -10   41.20    9.50
   0 -11  10    5.30    3.50
  -1  11 -10    9.80    7.60
   1 -11  10    4.10    4.30
   1 -11  10    2.50    3.60
  -2  11 -10   39.70   10.50
   2 -11  10   40.80    5.70
   2 -11  10   38.90    3.90
   2 -11  10   49.00    7.80
   3  10 -10    2.50    3.90
  -3 -10  10    1.00    2.50
  -3 -10  10    4.40    4.10
   2  10 -10   30.90    6.80
  -2 -10  10   12.30    3.90
   1  10 -10    5.20    4.40
   1  10 -10   36.90    7.70
  -1 -10  10    2.40    3.20
   0  10 -10    3.20    6.60
   0 -10  10   -2.30    3.60
   0 -10  10   -1.70    3.00
  -1  10 -10   30.30    7.40
   1 -10  10   26.60    5.00
   1 -10  10   22.60    4.60
  -2  10 -10    7.50    6.10
   2 -10  10   12.40    3.80
   2 -10  10   10.30    4.30
   2 -10  10   16.90    2.60
  -3  10 -10    8.00    6.10
   3 -10  10    7.90    2.90
   3 -10  10    4.70    4.50
   4   9 -10   22.80    4.80
  -4  -9  10   40.90    5.80
  -4  -9  10   35.40    4.00
  -4  -9  10   29.50    4.50
   3   9 -10   25.90    6.30
  -3  -9  10   21.30    3.00
  -3  -9  10   19.50    4.30
   2   9 -10    4.70    3.70
  -2  -9  10   -0.50    3.10
  -2  -9  10    3.60    2.00
   1   9 -10   50.79    7.60
   1   9 -10   53.49    7.30
  -1  -9  10   56.79    5.00
   0   9 -10    2.00    5.50
   0  -9  10    3.40    2.80
   0  -9  10    5.20    3.30
  -1   9 -10  109.99   10.10
   1  -9  10  102.39    5.80
   1  -9  10  108.39    7.30
  -2   9 -10   20.30    6.10
   2  -9  10   25.60    6.20
   2  -9  10   30.20    3.20
   2  -9  10   18.40    4.80
  -3   9 -10   -3.20    5.70
   3  -9  10    3.40    4.30
   4   8 -10   -4.00    3.30
  -4  -8  10    1.90    2.40
  -4  -8  10    0.00    2.60
   3   8 -10   10.70    3.30
  -3  -8  10   11.20    2.50
  -3  -8  10   12.10    3.70
   2   8 -10    4.30    3.60
  -2  -8  10   -0.60    2.90
  -2  -8  10    2.30    2.00
   1   8 -10    5.40    3.30
   1   8 -10   14.50    3.60
  -1  -8  10   11.70    2.90
  -1  -8  10    8.80    3.10
   0   8 -10   63.59    8.10
   0  -8  10   60.19    5.70
   0  -8  10   55.99    4.50
  -1   8 -10   19.60    5.70
   1  -8  10   26.20    4.10
   1  -8  10   26.00    5.20
  -2   8 -10    8.30    5.50
  -2   8 -10   14.80    3.20
   2  -8  10   10.10    3.50
  -3   8 -10    0.30    5.70
  -3   8 -10    6.80    3.70
   3  -8  10    5.10    2.40
   3  -8  10    6.30    4.10
  -4   8 -10    3.00    6.50
  -4   8 -10    2.80    4.30
   4  -8  10    3.50    4.60
   4  -8  10    2.20    2.90
   5   7 -10   23.30    5.00
  -5  -7  10   32.80    5.10
   4   7 -10    5.10    3.30
  -4  -7  10   10.50    2.80
  -4  -7  10   10.10    2.30
   3   7 -10    6.20    3.00
  -3  -7  10    4.50    2.30
  -3  -7  10    6.60    3.20
   2   7 -10   72.39    6.70
  -2  -7  10   64.89    4.90
  -2  -7  10   59.79    3.60
   1   7 -10    1.30    2.60
  -1  -7  10    0.90    1.60
  -1  -7  10    4.00    2.50
   0   7 -10  329.57   12.30
   0  -7  10  317.97   10.70
   0  -7  10  315.77    9.50
  -1   7 -10  165.38    9.40
  -1   7 -10  159.68    5.60
   1  -7  10  164.18    6.00
   1  -7  10  159.18    7.20
  -2   7 -10    6.80    4.90
  -2   7 -10    8.10    3.00
   2  -7  10   10.40    3.20
  -3   7 -10   -1.00    5.20
  -3   7 -10    0.40    3.50
   3  -7  10    2.70    3.70
   3  -7  10   -0.80    2.20
  -4   7 -10   -3.90    6.00
  -4   7 -10    5.60    4.30
   4  -7  10   -2.50    2.70
   4  -7  10   -0.90    4.00
   5   6 -10    1.10    4.90
   5   6 -10  -10.30    3.60
  -5  -6  10    2.40    2.40
  -5  -6  10   -5.10    2.70
   4   6 -10    3.20    3.00
   4   6 -10   13.50    4.40
  -4  -6  10    8.40    1.90
  -4  -6  10    6.00    2.60
   3   6 -10    4.90    2.60
  -3  -6  10    6.40    2.20
   2   6 -10    3.50    2.80
  -2  -6  10    1.90    1.80
  -2  -6  10    0.60    2.30
   1   6 -10   60.59    4.80
  -1  -6  10   60.69    4.00
  -1  -6  10   65.09    3.20
   0   6 -10  102.39    6.80
   0   6 -10  101.29    3.90
   0  -6  10  102.39    3.70
   0  -6  10  104.19    5.50
   0  -6  10   98.59    4.50
  -1   6 -10  104.09    4.40
   1  -6  10   96.59    4.40
   1  -6  10  101.49    5.70
  -2   6 -10    2.90    2.70
   2  -6  10   -1.30    2.70
   2  -6  10    4.30    1.50
  -3   6 -10    7.70    5.00
  -3   6 -10    1.50    3.40
   3  -6  10   -2.10    2.10
   3  -6  10   -0.70    3.20
  -4   6 -10   -3.80    5.60
  -4   6 -10    2.50    4.20
   4  -6  10    8.40    4.20
   4  -6  10   -0.50    2.60
   5   5 -10   -9.00    3.60
   5   5 -10   -4.50    4.70
  -5  -5  10    0.60    2.80
  -5  -5  10   -0.70    2.20
   4   5 -10    5.50    3.90
   4   5 -10   -1.90    2.70
  -4  -5  10   -0.20    2.40
  -4  -5  10    1.00    1.70
   3   5 -10   76.19    5.20
  -3  -5  10   76.39    4.20
   2   5 -10    5.40    2.40
  -2  -5  10    3.60    1.70
  -2  -5  10    6.90    1.70
  -2  -5  10    2.30    2.30
  -1  -5  10  252.37    7.80
  -1  -5  10  252.07    7.30
  -1  -5  10  257.47    7.30
   0   5 -10  229.78    7.00
   0  -5  10  240.08    7.30
   0  -5  10  241.48    6.70
   0  -5  10  242.08    8.20
   0  -5  10  254.17    9.10
  -1   5 -10   38.90    3.20
   1  -5  10   39.20    4.10
   1  -5  10   36.80    2.90
   1  -5  10   40.80    5.10
  -2   5 -10   -0.80    2.60
   2  -5  10   -0.70    3.00
   2  -5  10    1.20    1.40
   2  -5  10   -1.50    2.40
  -3   5 -10    0.80    3.20
   3  -5  10   -1.80    2.00
   3  -5  10    4.50    3.20
   3  -5  10    3.90    3.90
  -4   5 -10    1.10    4.10
   4  -5  10   -0.20    2.50
   4  -5  10   -0.60    3.80
  -5   5 -10    2.20    6.60
   5   4 -10    5.30    4.90
  -5  -4  10   -2.30    3.00
  -5  -4  10    1.60    2.20
   4   4 -10   -2.50    3.80
   4   4 -10    1.20    2.80
  -4  -4  10    3.40    1.60
  -4  -4  10    3.30    2.50
  -4  -4  10    0.40    2.50
   3   4 -10   14.10    3.00
   3   4 -10    9.90    2.70
  -3  -4  10   15.20    2.50
  -3  -4  10   12.80    2.30
   2   4 -10   53.99    4.00
  -2  -4  10   59.49    3.30
  -2  -4  10   57.49    3.30
  -1  -4  10   70.29    4.20
  -1  -4  10   62.99    3.30
  -1  -4  10   59.69    3.60
  -1  -4  10   60.89    4.60
  -1  -4  10   61.49    3.10
   0   4 -10   76.69    3.00
   0  -4  10   75.09    5.10
   0  -4  10   76.79    4.30
   0  -4  10   78.89    3.60
  -1   4 -10    6.20    1.20
  -1   4 -10    6.90    2.10
   1  -4  10    7.00    2.30
   1  -4  10    7.80    2.80
  -2   4 -10   23.40    3.00
   2  -4  10   22.00    5.00
   2  -4  10   18.80    3.00
   2  -4  10   19.70    2.30
  -3   4 -10   16.30    3.40
   3  -4  10   20.90    3.20
   3  -4  10   19.00    4.20
   3  -4  10   18.30    3.50
  -4   4 -10    3.20    3.80
   4  -4  10    8.10    2.70
   4  -4  10    5.40    4.10
   4  -4  10    7.40    3.80
   5  -4  10   -2.30    3.00
   5   3 -10   11.40    4.80
  -5  -3  10    4.40    2.50
  -5  -3  10    8.10    3.10
  -5  -3  10    3.70    2.10
   4   3 -10    9.30    3.90
  -4  -3  10    5.00    1.60
  -4  -3  10    8.00    2.50
  -4  -3  10    5.00    2.10
   3   3 -10    6.10    2.30
   3   3 -10    7.50    3.00
  -3  -3  10    8.90    1.90
  -3  -3  10    7.20    2.00
   2   3 -10  223.98    7.00
   2   3 -10  200.78    6.90
  -2  -3  10  203.78    6.40
  -2  -3  10  209.18    6.30
  -1  -3  10  365.36   10.00
  -1  -3  10  370.86   10.00
  -1  -3  10  372.46   11.30
  -1  -3  10  372.56   10.50
   0   3 -10    3.00    1.20
   0  -3  10    0.70    1.70
   0  -3  10    1.20    2.20
   0  -3  10    1.60    1.80
  -1   3 -10   17.60    2.30
  -1   3 -10   10.40    1.70
   1  -3  10   13.90    2.90
   1  -3  10   14.10    3.10
  -2   3 -10   12.00    2.50
   2  -3  10    9.10    3.10
   2  -3  10    5.60    2.40
   2  -3  10    7.30    1.50
  -3   3 -10   21.40    3.40
   3  -3  10   21.00    4.80
   3  -3  10   21.10    5.80
   3  -3  10   22.60    3.20
  -4   3 -10    5.70    3.70
   4  -3  10    5.00    2.50
   4  -3  10    1.40    3.40
   4  -3  10    4.80    4.00
   5  -3  10    3.60    4.40
   5  -3  10   -5.70    2.70
   5  -3  10   -0.10    4.50
  -6  -2  10    1.20    3.70
   5   2 -10    4.00    4.70
  -5  -2  10    0.10    2.90
  -5  -2  10    0.80    2.50
  -5  -2  10    0.00    2.00
   4   2 -10   31.60    4.40
  -4  -2  10   22.40    2.70
  -4  -2  10   20.20    3.30
  -4  -2  10   33.30    3.90
   3   2 -10   82.29    5.00
  -3  -2  10   82.79    3.10
  -3  -2  10   87.49    4.00
  -3  -2  10   84.79    4.10
   2   2 -10   39.40    3.60
   2   2 -10   38.00    3.10
  -2  -2  10   39.10    2.80
  -2  -2  10   38.20    3.50
  -2  -2  10   36.60    2.90
   1   2 -10   58.19    3.20
  -1  -2  10   53.69    2.90
  -1  -2  10   59.09    3.10
  -1  -2  10   57.39    4.30
   0   2 -10   86.59    3.40
   0   2 -10   89.19    3.30
   0  -2  10   86.79    5.10
   0  -2  10   88.99    4.10
   0  -2  10   90.49    3.80
  -1   2 -10    2.70    1.80
  -1   2 -10   -0.20    1.20
   1  -2  10   -0.60    2.30
   1  -2  10   -0.30    1.60
  -2   2 -10    9.60    1.60
  -2   2 -10   13.90    2.50
   2  -2  10   14.30    2.30
   2  -2  10   11.00    2.40
   2  -2  10   13.10    3.30
  -3   2 -10    1.10    2.80
   3  -2  10   -1.00    2.60
   3  -2  10    0.80    2.00
   3  -2  10   -0.40    3.20
  -4   2 -10    6.20    3.70
   4  -2  10    6.40    2.60
   4  -2  10    1.40    3.70
   4  -2  10    3.60    3.50
   5  -2  10    0.60    4.00
   5  -2  10   -0.60    4.10
   5  -2  10   -5.90    2.70
  -6  -1  10    1.10    3.00
  -6  -1  10    1.40    3.40
   5   1 -10   20.20    5.10
  -5  -1  10   12.30    3.00
  -5  -1  10   13.40    3.20
  -5  -1  10   12.20    2.30
   4   1 -10    1.90    3.80
  -4  -1  10   -1.30    2.10
  -4  -1  10   -2.80    2.30
  -4  -1  10    1.00    1.60
   3   1 -10  167.78    6.50
  -3  -1  10  167.48    5.80
  -3  -1  10  169.08    5.00
  -3  -1  10  158.78    5.90
   2   1 -10  241.58    7.40
  -2  -1  10  230.58    7.00
  -2  -1  10  231.68    7.10
  -2  -1  10  234.38    7.70
   1   1 -10   80.99    3.60
   1   1 -10   75.19    3.40
  -1  -1  10   83.89    4.70
  -1  -1  10   80.49    3.60
   0   1 -10   12.40    2.00
   0  -1  10   14.60    3.70
   0  -1  10   12.00    1.90
   0  -1  10   14.50    2.30
  -1   1 -10    0.40    1.30
  -1   1 -10    3.80    1.80
   1  -1  10    0.30    1.20
   1  -1  10   -0.30    2.30
   1  -1  10   -0.20    1.60
  -2   1 -10   39.50    2.70
  -2   1 -10   38.40    3.60
   2  -1  10   40.70    4.00
   2  -1  10   38.60    2.80
   2  -1  10   37.10    5.30
  -3   1 -10    7.20    2.80
   3  -1  10   10.40    2.90
   3  -1  10   12.60    2.30
   3  -1  10    5.80    3.60
  -4   1 -10    6.30    3.40
   4  -1  10    7.10    3.40
   4  -1  10    5.10    3.90
   4  -1  10    5.90    2.60
   5  -1  10    2.40    4.20
   5  -1  10    5.10    3.10
   5  -1  10    2.40    4.10
  -6   0  10   -1.80    3.10
  -6   0  10   -4.60    3.10
   5   0 -10    3.50    4.60
  -5   0  10    3.40    2.10
  -5   0  10    8.20    3.10
  -5   0  10    0.10    2.80
   4   0 -10   37.40    5.70
  -4   0  10   31.00    3.90
  -4   0  10   39.60    4.00
  -4   0  10   34.70    3.10
   3   0 -10   22.30    4.20
  -3   0  10   21.60    2.30
  -3   0  10   22.00    3.20
  -3   0  10   19.70    3.10
   2   0 -10    1.50    2.30
  -2   0  10   -2.90    1.90
  -2   0  10    3.70    1.80
  -2   0  10   -0.10    1.10
   1   0 -10   18.90    2.60
   1   0 -10   20.90    2.30
  -1   0  10   19.40    3.60
  -1   0  10   16.70    2.60
   0   0 -10    0.40    1.40
   0   0  10    2.10    2.30
   0   0  10    2.60    1.70
   0   0  10    2.00    1.20
  -1   0 -10   45.10    2.70
   1   0  10   42.70    2.50
   1   0  10   44.40    3.10
   1   0  10   41.20    4.70
  -2   0 -10   40.70    3.80
  -2   0 -10   43.40    3.00
   2   0  10   45.40    3.10
   2   0  10   45.20    5.50
   2   0  10   38.50    3.80
  -3   0 -10    3.60    2.70
  -3   0 -10    2.50    2.00
   3   0  10   -2.00    2.50
   3   0  10    1.90    2.10
   3   0  10    0.60    3.40
  -4   0 -10   14.40    3.50
   4   0  10    9.30    4.10
   4   0  10   13.40    3.60
   4   0  10   12.30    2.90
   5   0  10   12.90    5.30
   5  -1 -10   -0.80    4.20
  -5   1  10    1.10    3.00
  -5   1  10    3.60    2.30
  -5   1  10   -0.50    3.00
   4  -1 -10   69.79    5.80
  -4   1  10   66.39    4.80
  -4   1  10   68.29    4.70
  -4   1  10   64.39    3.80
   3  -1 -10   65.69    4.80
  -3   1  10   55.19    3.10
  -3   1  10   54.59    4.00
  -3   1  10   52.99    3.80
   2  -1 -10   67.59    3.60
   2  -1 -10   71.09    4.10
  -2   1  10   65.49    4.50
  -2   1  10   69.09    2.90
  -2   1  10   66.99    3.70
   1  -1 -10    1.10    1.80
   1  -1 -10    2.10    1.50
  -1   1  10    2.00    1.80
  -1   1  10    1.50    1.30
  -1   1  10    2.10    2.20
   0  -1 -10  164.08    5.40
   0   1  10  167.28    5.00
   0   1  10  168.38    5.60
   0   1  10  168.08    7.30
  -1  -1 -10   20.50    2.70
   1   1  10   25.40    2.60
   1   1  10   25.70    4.60
  -2  -1 -10    7.50    2.40
  -2  -1 -10    2.60    1.90
   2   1  10    3.20    3.10
   2   1  10    4.50    2.00
   2   1  10    2.00    2.10
  -3  -1 -10    6.40    2.50
  -3  -1 -10    1.40    2.10
   3   1  10    0.00    2.50
   3   1  10   -0.10    2.30
   3   1  10    0.70    3.30
  -4  -1 -10   13.50    3.30
   4   1  10   17.90    3.10
   4   1  10   30.70    5.80
   4   1  10   18.70    4.60
   5  -2 -10   22.60    4.70
  -5   2  10   15.40    3.80
  -5   2  10   26.20    4.50
  -5   2  10   17.30    2.80
   4  -2 -10   -0.50    3.70
  -4   2  10    6.00    3.00
  -4   2  10    1.70    2.10
   3  -2 -10    0.40    2.30
   3  -2 -10   -4.90    3.00
  -3   2  10   -0.50    1.70
  -3   2  10   -1.80    2.30
   2  -2 -10   15.00    2.80
   2  -2 -10    8.10    1.90
  -2   2  10    9.60    2.60
  -2   2  10    9.30    1.70
  -2   2  10   14.00    2.40
   1  -2 -10    2.40    1.50
   1  -2 -10    5.70    2.00
  -1   2  10    4.30    2.00
  -1   2  10    3.80    2.50
  -1   2  10    3.00    1.50
   0  -2 -10    1.40    1.80
   0   2  10    4.80    2.60
   0   2  10    4.70    1.60
   0   2  10    3.50    2.00
  -1  -2 -10   39.90    3.10
   1   2  10   42.80    5.40
   1   2  10   40.50    3.20
  -2  -2 -10   28.10    3.30
  -2  -2 -10   28.80    3.70
   2   2  10   23.00    3.40
   2   2  10   22.50    5.60
  -3  -2 -10   33.30    4.20
  -3  -2 -10   22.70    3.60
   3   2  10   22.80    4.60
   3   2  10   30.70    3.90
   3   2  10   27.40    6.50
  -4  -2 -10   10.30    2.50
  -4  -2 -10    5.00    3.00
   4   2  10    1.70    2.80
   4   2  10    6.20    3.40
   4   2  10    9.80    4.20
   5  -3 -10   15.30    4.60
  -5   3  10   26.40    4.30
  -5   3  10   18.20    4.20
   4  -3 -10   48.80    4.50
   4  -3 -10   57.89    5.70
  -4   3  10   58.79    5.20
  -4   3  10   44.10    4.10
   3  -3 -10    2.60    2.50
   3  -3 -10    3.50    3.20
  -3   3  10   -1.00    2.00
  -3   3  10    2.50    2.70
   2  -3 -10   31.80    3.40
   2  -3 -10   33.50    4.00
  -2   3  10   36.70    3.90
  -2   3  10   30.80    3.20
  -2   3  10   31.30    4.70
   1  -3 -10   -1.90    2.00
   1  -3 -10    1.20    2.00
  -1   3  10   -0.80    1.70
  -1   3  10   -0.10    2.20
  -1   3  10    1.40    2.70
   0  -3 -10    9.10    2.00
   0   3  10    7.00    2.90
   0   3  10   11.80    2.00
   0   3  10   13.20    2.50
  -1  -3 -10   16.90    2.40
   1   3  10   20.50    5.30
   1   3  10   21.00    2.50
  -2  -3 -10    8.80    2.40
  -2  -3 -10    9.30    2.40
   2   3  10   13.40    2.80
   2   3  10   12.50    3.80
  -3  -3 -10   22.70    4.10
  -3  -3 -10   18.80    3.00
   3   3  10   35.20    4.20
   3   3  10   23.60    6.70
  -4  -3 -10    3.00    2.90
  -4  -3 -10    6.00    2.60
   4   3  10    7.80    3.10
   4   3  10    5.20    4.00
   5  -4 -10    4.30    3.30
   5  -4 -10    8.30    4.50
  -5   4  10    4.40    3.90
  -5   4  10    4.80    2.70
   4  -4 -10    8.80    4.00
   4  -4 -10    8.00    3.20
  -4   4  10    5.10    2.60
  -4   4  10    7.20    3.70
   3  -4 -10    9.90    2.90
   3  -4 -10    1.90    3.30
  -3   4  10    5.70    2.40
  -3   4  10    9.20    3.00
   2  -4 -10   -0.60    2.40
   2  -4 -10    4.50    2.90
  -2   4  10    0.80    2.20
  -2   4  10    1.40    2.80
  -2   4  10   -0.50    2.70
   1  -4 -10   40.10    3.60
   1  -4 -10   32.70    3.80
  -1   4  10   43.80    4.20
  -1   4  10   39.90    5.60
  -1   4  10   48.70    3.90
   0  -4 -10   28.30    3.50
   0   4  10   23.40    3.60
   0   4  10   28.00    3.60
   0   4  10   23.50    5.50
  -1  -4 -10   13.60    2.60
   1   4  10   14.80    2.60
   1   4  10   10.20    3.70
  -2  -4 -10    5.40    2.30
  -2  -4 -10    6.40    2.60
   2   4  10    0.70    3.60
   2   4  10    4.70    2.70
  -3  -4 -10    9.60    2.70
  -3  -4 -10   10.60    2.80
   3   4  10    9.10    4.20
   3   4  10    4.90    2.80
  -4  -4 -10    4.30    2.80
   4   4  10    1.40    3.00
   4   4  10    2.30    4.00
  -5   5  10   16.80    3.30
   4  -5 -10    4.40    4.10
   4  -5 -10   -2.60    3.20
  -4   5  10   -0.30    3.60
  -4   5  10    1.20    2.80
   3  -5 -10    6.20    2.90
   3  -5 -10    7.20    3.70
  -3   5  10   15.10    3.50
  -3   5  10    4.60    2.50
   2  -5 -10    1.80    3.00
   2  -5 -10    4.10    2.80
  -2   5  10    3.50    3.40
  -2   5  10    5.40    2.50
  -2   5  10    6.70    3.10
   1  -5 -10   13.20    2.80
   1  -5 -10   23.50    3.90
  -1   5  10   23.90    4.10
  -1   5  10   23.50    5.80
  -1   5  10   20.00    3.10
   0  -5 -10    3.80    2.50
   0   5  10   -1.10    2.40
   0   5  10    1.00    3.40
   0   5  10    7.00    2.60
  -1  -5 -10    1.10    2.50
   1   5  10   -2.30    3.50
   1   5  10    2.40    2.50
  -2  -5 -10    3.30    2.30
  -2  -5 -10    3.70    2.70
   2   5  10    1.70    3.90
   2   5  10    8.00    2.90
  -3  -5 -10   11.50    3.20
   3   5  10    9.30    4.40
   3   5  10   15.30    3.10
   4  -6 -10    2.90    3.20
   4  -6 -10   -4.80    4.20
  -4   6  10   -0.90    3.80
  -4   6  10    0.50    2.90
   3  -6 -10    1.20    3.80
   3  -6 -10   -5.90    3.00
  -3   6  10    2.20    3.00
  -3   6  10   -0.80    3.30
   2  -6 -10    3.90    2.90
   2  -6 -10    1.30    3.20
  -2   6  10    6.90    2.90
  -2   6  10    3.20    3.20
  -2   6  10    4.20    3.90
   1  -6 -10   31.20    4.40
  -1   6  10   31.20    4.60
  -1   6  10   34.70    4.70
  -1   6  10   26.30    6.60
   0  -6 -10   -1.00    2.70
   0   6  10    2.40    2.60
   0   6  10    0.50    3.90
   0   6  10   -0.50    2.80
  -1  -6 -10    6.20    2.90
   1   6  10   16.70    3.30
   1   6  10    3.10    4.20
  -2  -6 -10   13.50    3.30
   2   6  10   22.40    3.60
   2   6  10   17.10    4.80
   3   6  10    5.90    4.60
  -4   7  10    4.20    3.00
   3  -7 -10   -1.90    3.10
   3  -7 -10    1.30    4.10
  -3   7  10    2.40    3.20
  -3   7  10   -2.90    3.40
   2  -7 -10    3.00    3.20
   2  -7 -10    4.40    3.40
  -2   7  10    4.50    3.30
  -2   7  10    2.30    4.20
  -2   7  10    6.70    3.20
   1  -7 -10   -1.30    3.00
  -1   7  10    2.90    3.40
  -1   7  10    0.40    4.10
  -1   7  10    3.50    3.10
   0  -7 -10    7.00    3.20
   0   7  10   10.40    3.40
   0   7  10    9.90    4.70
   0   7  10   10.10    3.40
  -1  -7 -10   13.80    3.50
   1   7  10   12.90    3.50
   1   7  10    9.40    5.00
  -2  -7 -10   -0.20    3.20
   2   7  10    4.70    4.70
   3  -8 -10    0.40    4.10
  -3   8  10    2.80    3.80
   2  -8 -10   -5.20    3.70
   2  -8 -10   -0.50    3.30
  -2   8  10    3.10    3.50
  -2   8  10    0.20    4.50
  -2   8  10    2.80    3.40
   1  -8 -10    2.80    3.30
  -1   8  10    1.70    4.60
  -1   8  10   -0.10    3.50
   0  -8 -10    3.80    3.30
   0   8  10   -1.70    4.70
   0   8  10    4.20    4.30
  -1  -8 -10   -3.00    4.20
   1   8  10    2.90    6.50
   0  12 -11   70.09   10.70
  -1  12 -11   21.50   10.50
   1 -12  11    5.50    3.80
   2  11 -11   11.60    4.50
  -2 -11  11    3.50    4.10
   1  11 -11    4.80    4.80
   1  11 -11   59.49   11.70
   0  11 -11   20.20    8.60
   0 -11  11   -0.50    3.30
  -1  11 -11    9.00    8.00
   1 -11  11   -3.10    3.30
   1 -11  11    3.70    4.30
  -2  11 -11    3.00    7.00
   3  10 -11    9.00    4.00
  -3 -10  11    9.80    4.40
  -3 -10  11    6.30    2.70
   2  10 -11   38.90    7.30
  -2 -10  11   14.40    4.00
   1  10 -11   11.10    5.90
   1  10 -11    4.50    4.60
  -1 -10  11   -0.70    3.30
   0  10 -11   20.00    7.50
   0 -10  11   13.30    4.20
   0 -10  11   18.40    3.60
  -1  10 -11   11.70    7.20
   1 -10  11    7.20    3.30
   1 -10  11    3.50    4.00
  -2  10 -11    7.40    6.30
   2 -10  11   -1.10    4.10
   4   9 -11   -0.80    3.60
  -4  -9  11    6.90    3.00
   3   9 -11    9.90    3.50
  -3  -9  11   10.70    4.20
  -3  -9  11   11.50    2.70
   2   9 -11    6.50    3.90
  -2  -9  11    3.30    3.40
  -2  -9  11   -1.70    2.10
   1   9 -11    2.70    4.40
   1   9 -11   -0.50    3.90
  -1  -9  11    2.80    3.10
   0   9 -11    2.70    5.80
   0  -9  11   -0.10    3.30
   0  -9  11    1.20    2.90
  -1   9 -11   17.80    6.70
   1  -9  11   14.90    3.20
   1  -9  11   13.50    3.90
  -2   9 -11   12.30    6.20
   2  -9  11   17.30    4.30
  -3   9 -11    2.10    6.00
   3  -9  11    6.20    4.50
   4   8 -11   -0.60    3.30
  -4  -8  11    1.70    2.70
   3   8 -11   27.20    5.40
  -3  -8  11   34.50    5.20
  -3  -8  11   28.00    3.80
   2   8 -11    9.90    4.00
  -2  -8  11    3.40    2.20
  -2  -8  11    1.50    3.10
   1   8 -11   29.90    6.00
   1   8 -11   48.60    6.70
  -1  -8  11   35.40    4.40
   0   8 -11    9.80    4.90
   0  -8  11    9.40    2.80
   0  -8  11    7.10    3.20
  -1   8 -11    2.70    5.50
   1  -8  11    4.30    2.70
   1  -8  11    7.80    3.30
  -2   8 -11   19.90    5.90
  -2   8 -11   29.80    4.60
   2  -8  11   20.80    4.10
  -3   8 -11   -0.80    3.80
  -3   8 -11   -2.40    5.80
   3  -8  11    5.40    2.50
   3  -8  11    8.90    4.30
  -4   8 -11    4.60    4.60
   5   7 -11   -3.30    3.70
   4   7 -11   19.60    5.10
   4   7 -11   12.10    3.50
  -4  -7  11   20.60    3.30
   3   7 -11    6.60    3.00
  -3  -7  11    7.80    2.40
  -3  -7  11    7.80    3.30
   2   7 -11   26.20    6.20
  -2  -7  11    7.40    3.10
  -2  -7  11   11.20    2.30
   1   7 -11   -0.20    2.70
  -1  -7  11    1.00    2.60
  -1  -7  11    1.30    1.70
   0   7 -11   31.20    6.50
   0  -7  11   40.30    3.90
   0  -7  11   38.30    5.00
  -1   7 -11   16.50    5.00
  -1   7 -11   18.60    2.70
   1  -7  11   13.60    3.20
   1  -7  11   22.00    3.40
  -2   7 -11   10.60    3.20
  -2   7 -11    0.10    4.90
   2  -7  11    6.50    3.30
  -3   7 -11    6.40    5.70
  -3   7 -11    7.90    3.90
   3  -7  11    4.80    2.40
   3  -7  11    5.80    3.80
  -4   7 -11    8.20    6.50
  -4   7 -11    8.60    4.60
   4  -7  11    3.40    2.90
   4  -7  11    6.40    4.50
   5   6 -11   -7.90    3.80
   5   6 -11   -3.70    5.80
  -5  -6  11    4.90    3.20
  -5  -6  11   -1.30    2.30
   4   6 -11   17.50    3.60
   4   6 -11   33.00    6.30
  -4  -6  11   25.50    4.20
   3   6 -11   -0.40    2.60
  -3  -6  11   -2.20    2.20
   2   6 -11   30.40    5.50
  -2  -6  11   29.50    3.20
  -2  -6  11   33.20    4.30
   1   6 -11   25.20    4.40
  -1  -6  11   23.90    2.70
  -1  -6  11   24.60    3.70
   0   6 -11   10.60    3.70
   0   6 -11   11.50    1.90
   0  -6  11   12.80    2.50
   0  -6  11   10.30    2.80
  -1   6 -11   -4.70    2.10
   1  -6  11   -1.20    2.40
  -2   6 -11    9.60    3.10
   2  -6  11    9.90    3.10
  -3   6 -11   11.30    3.80
   3  -6  11    5.90    3.60
   3  -6  11    1.80    2.30
  -4   6 -11    8.50    4.40
  -4   6 -11    1.00    6.10
   4  -6  11    2.60    4.10
   4  -6  11    1.90    2.70
   5   5 -11   27.40    5.90
  -5  -5  11   16.80    2.50
  -5  -5  11   16.10    3.80
   4   5 -11   -1.00    2.60
   4   5 -11    5.40    4.40
  -4  -5  11   -0.60    2.60
   3   5 -11   17.90    4.00
   3   5 -11   11.10    2.80
  -3  -5  11   12.70    2.50
   2   5 -11   18.80    4.10
  -2  -5  11   15.10    2.70
  -2  -5  11   20.90    2.90
  -1  -5  11  171.88    6.30
  -1  -5  11  171.58    5.70
  -1  -5  11  178.08    5.60
   0   5 -11   30.20    2.20
   0   5 -11   30.50    2.90
   0  -5  11   31.70    3.20
   0  -5  11   30.70    4.00
   0  -5  11   35.20    5.00
  -1   5 -11    5.60    2.20
   1  -5  11    3.30    3.10
   1  -5  11    6.70    2.50
  -2   5 -11   -2.90    2.70
   2  -5  11    4.10    3.60
   2  -5  11    1.00    2.70
  -3   5 -11    1.10    3.60
   3  -5  11   -2.30    3.10
   3  -5  11    0.00    2.20
   3  -5  11    3.60    4.10
  -4   5 -11    8.20    4.40
   4  -5  11    3.90    4.00
   4  -5  11    1.80    2.70
   5   4 -11    8.20    5.20
  -5  -4  11    7.60    2.30
  -5  -4  11   12.50    3.40
   4   4 -11    4.70    4.30
  -4  -4  11    1.40    1.60
  -4  -4  11    2.20    2.60
   3   4 -11   17.90    3.50
   3   4 -11   16.30    3.80
  -3  -4  11   18.90    2.90
  -3  -4  11   21.40    2.70
   2   4 -11   55.59    4.00
   2   4 -11   53.49    4.60
  -2  -4  11   53.19    3.40
  -2  -4  11   56.19    3.50
  -1  -4  11   14.60    3.40
  -1  -4  11   16.70    2.80
  -1  -4  11   19.60    2.60
  -1  -4  11   17.80    4.00
   0   4 -11   39.10    2.40
   0  -4  11   40.40    3.80
   0  -4  11   47.30    3.20
   0  -4  11   37.50    4.80
  -1   4 -11   14.90    2.60
   1  -4  11   11.70    2.50
   1  -4  11   12.40    3.20
  -2   4 -11   17.30    3.10
   2  -4  11   11.00    2.80
   2  -4  11   13.80    1.80
   2  -4  11   10.50    3.60
  -3   4 -11    0.00    3.20
   3  -4  11    3.60    3.70
   3  -4  11    1.30    3.00
   3  -4  11    4.30    2.20
  -4   4 -11   -3.80    3.90
   4  -4  11    1.30    2.50
   4  -4  11   -0.50    3.60
   4  -4  11   -0.50    4.10
   5   3 -11    1.20    4.90
  -5  -3  11   -0.50    3.40
  -5  -3  11    3.30    3.10
  -5  -3  11    2.60    2.10
   4   3 -11   34.30    5.80
  -4  -3  11   27.00    3.50
  -4  -3  11   28.80    2.80
  -4  -3  11   27.60    4.10
   3   3 -11   -1.90    3.10
  -3  -3  11    2.70    2.00
  -3  -3  11    1.40    2.00
   2   3 -11  100.49    5.20
   2   3 -11  106.49    4.80
  -2  -3  11  105.59    4.40
  -2  -3  11  104.39    4.40
   1   3 -11   62.49    3.60
  -1  -3  11   63.29    3.50
  -1  -3  11   62.49    4.70
  -1  -3  11   64.29    3.40
   0   3 -11   30.20    2.40
   0  -3  11   37.30    4.60
   0  -3  11   35.80    3.20
   0  -3  11   34.10    3.50
  -1   3 -11    1.10    2.10
  -1   3 -11   -1.80    1.20
   1  -3  11   -1.20    2.60
   1  -3  11    1.60    2.00
  -2   3 -11   12.10    2.90
   2  -3  11   11.20    1.70
   2  -3  11    8.00    2.60
   2  -3  11    9.10    3.40
  -3   3 -11    4.60    3.30
   3  -3  11    4.00    2.10
   3  -3  11    2.00    3.60
   3  -3  11    4.90    3.00
  -4   3 -11    2.50    3.80
   4  -3  11    3.90    3.60
   4  -3  11    2.20    2.50
   4  -3  11   -0.30    4.00
   5   2 -11   -6.70    4.70
  -5  -2  11   -0.70    2.50
  -5  -2  11    3.00    3.00
  -5  -2  11   -1.30    2.00
   4   2 -11    4.20    4.10
  -4  -2  11   -0.90    1.70
  -4  -2  11   -0.30    2.20
  -4  -2  11    1.80    2.60
   3   2 -11    9.60    3.20
  -3  -2  11    9.00    2.20
  -3  -2  11   11.10    2.20
   2   2 -11   27.60    3.70
  -2  -2  11   18.70    3.00
  -2  -2  11   24.70    2.90
   1   2 -11    8.00    1.70
   1   2 -11    8.80    2.10
  -1  -2  11    6.40    2.00
  -1  -2  11    7.30    2.50
   0   2 -11   28.30    2.40
   0  -2  11   24.90    3.10
   0  -2  11   22.60    2.90
   0  -2  11   26.00    4.30
  -1   2 -11    8.00    2.20
  -1   2 -11    6.00    1.50
   1  -2  11    5.00    2.80
   1  -2  11    5.30    2.00
  -2   2 -11    0.40    2.40
  -2   2 -11    0.50    1.50
   2  -2  11   -2.40    2.10
   2  -2  11    3.10    3.10
   2  -2  11    1.90    1.60
  -3   2 -11    5.50    3.20
   3  -2  11    8.30    3.90
   3  -2  11    7.00    2.20
   3  -2  11    9.00    3.10
  -4   2 -11    2.70    3.80
   4  -2  11    4.30    3.60
   4  -2  11   -0.60    3.80
   4  -2  11    3.50    2.60
   5   1 -11   18.10    5.30
  -5  -1  11   17.10    2.50
  -5  -1  11   12.50    3.30
  -5  -1  11   16.30    3.00
   4   1 -11    6.10    4.20
  -4  -1  11    1.30    1.60
  -4  -1  11    4.30    2.40
  -4  -1  11    0.70    2.50
   3   1 -11   28.50    4.70
  -3  -1  11   35.30    2.30
  -3  -1  11   29.30    3.40
  -3  -1  11   31.20    3.60
   2   1 -11   82.59    4.50
  -2  -1  11   72.59    4.70
  -2  -1  11   73.49    3.80
  -2  -1  11   77.99    4.00
   1   1 -11    2.30    1.50
   1   1 -11    0.60    1.90
  -1  -1  11   -2.10    1.60
  -1  -1  11    1.60    2.20
   0   1 -11   14.90    2.30
   0  -1  11    8.80    2.70
   0  -1  11   10.80    2.00
  -1   1 -11    0.00    1.50
  -1   1 -11    1.20    2.00
   1  -1  11    1.40    1.70
   1  -1  11    1.90    2.70
   1  -1  11    0.50    1.30
  -2   1 -11    1.40    2.50
  -2   1 -11    0.80    1.60
   2  -1  11    2.00    1.70
   2  -1  11    2.00    2.20
   2  -1  11    0.10    3.10
  -3   1 -11    3.30    2.90
   3  -1  11    3.50    2.90
   3  -1  11    5.60    3.90
   3  -1  11    5.30    2.30
  -4   1 -11    4.80    3.50
   4  -1  11   -2.00    3.90
   4  -1  11    3.40    2.70
   4  -1  11   -0.10    3.30
   5   0 -11   -1.10    4.70
  -5   0  11    4.80    2.30
  -5   0  11    3.10    3.10
  -5   0  11    7.30    2.90
   4   0 -11    6.20    4.20
  -4   0  11    7.80    2.70
  -4   0  11    9.70    2.90
  -4   0  11    8.10    2.00
   3   0 -11   19.10    3.70
  -3   0  11   15.90    2.50
  -3   0  11   14.10    2.40
  -3   0  11   14.00    2.60
   2   0 -11   26.10    2.90
   2   0 -11   20.50    3.70
  -2   0  11   21.40    2.10
  -2   0  11   21.90    3.80
  -2   0  11   24.90    3.20
   1   0 -11   61.99    3.50
   1   0 -11   58.99    3.20
  -1   0  11   57.19    4.70
  -1   0  11   57.09    3.60
   0   0 -11   25.10    2.90
   0   0  11   33.10    4.60
   0   0  11   30.00    2.20
   0   0  11   27.40    3.10
  -1   0 -11    3.10    1.70
   1   0  11    4.00    2.80
   1   0  11    1.90    1.50
  -2   0 -11   25.30    4.00
  -2   0 -11   34.40    3.10
   2   0  11   30.00    3.20
   2   0  11   32.90    3.90
   2   0  11   31.80    5.70
  -3   0 -11   18.20    3.20
  -3   0 -11   18.20    2.60
   3   0  11   15.90    2.70
   3   0  11   14.40    4.30
   3   0  11   14.20    3.10
  -4   0 -11    2.00    3.40
   4   0  11    3.20    4.10
   4   0  11    3.60    2.80
   4   0  11   -1.10    3.20
   5  -1 -11    3.80    4.60
  -5   1  11    1.70    3.10
  -5   1  11    0.00    3.10
  -5   1  11   -0.50    2.40
   4  -1 -11   11.10    4.00
  -4   1  11   24.80    4.40
  -4   1  11   21.30    3.20
  -4   1  11   20.20    3.20
   3  -1 -11   75.09    5.20
  -3   1  11   68.39    3.60
  -3   1  11   74.19    4.70
   2  -1 -11    2.10    1.80
   2  -1 -11   -3.20    2.40
  -2   1  11   -3.00    2.10
  -2   1  11    1.20    2.30
  -2   1  11    0.90    1.50
   1  -1 -11    1.10    1.60
   1  -1 -11    1.20    2.00
  -1   1  11    2.70    2.00
  -1   1  11    0.70    1.30
  -1   1  11   -0.10    2.30
   0  -1 -11   22.00    2.80
   0   1  11   22.90    3.10
   0   1  11   23.70    4.70
   0   1  11   22.00    2.40
  -1  -1 -11   11.00    2.10
   1   1  11   13.00    2.00
   1   1  11   10.40    3.20
  -2  -1 -11  102.19    5.20
  -2  -1 -11  101.19    4.60
   2   1  11  102.49    4.60
   2   1  11   98.59    7.60
  -3  -1 -11   -3.00    2.10
  -3  -1 -11   -0.50    2.70
   3   1  11    0.20    2.40
   3   1  11    2.40    3.80
   3   1  11    3.60    2.80
  -4  -1 -11    0.00    3.10
   4   1  11    4.40    2.80
   4   1  11    2.20    4.10
   4   1  11    3.60    3.30
   5  -2 -11   -0.10    4.40
  -5   2  11   -2.10    3.40
  -5   2  11    2.40    2.50
   4  -2 -11    5.30    3.80
  -4   2  11    6.10    2.30
  -4   2  11    5.40    3.10
   3  -2 -11   34.40    3.90
   3  -2 -11   39.00    4.80
  -3   2  11   37.50    4.50
  -3   2  11   34.70    3.40
   2  -2 -11   32.50    4.00
   2  -2 -11   34.30    3.60
  -2   2  11   27.50    4.60
  -2   2  11   26.00    2.90
  -2   2  11   31.40    3.80
   1  -2 -11   12.40    2.40
   1  -2 -11   11.40    2.20
  -1   2  11   12.30    1.90
  -1   2  11   12.70    2.50
  -1   2  11   11.60    2.90
   0  -2 -11   25.60    3.20
   0   2  11   25.50    2.80
   0   2  11   20.30    5.00
   0   2  11   25.00    3.50
  -1  -2 -11   -1.80    1.90
   1   2  11    0.80    3.10
   1   2  11    1.50    2.00
  -2  -2 -11    9.60    2.60
  -2  -2 -11    7.50    2.30
   2   2  11    4.90    3.60
   2   2  11    8.80    2.40
  -3  -2 -11    2.60    2.70
  -3  -2 -11    0.40    2.40
   3   2  11    0.60    3.90
   3   2  11    0.40    2.60
  -4  -2 -11    1.10    2.70
  -4  -2 -11    1.30    3.10
   4   2  11   -0.10    4.20
   4   2  11    4.80    2.90
   5  -3 -11    4.50    4.40
   5  -3 -11    7.80    3.40
  -5   3  11    2.30    2.50
  -5   3  11   -3.20    3.60
   4  -3 -11   42.80    4.70
   4  -3 -11   30.70    5.60
  -4   3  11   35.30    4.20
  -4   3  11   38.40    5.30
   3  -3 -11    4.10    3.40
   3  -3 -11    0.50    2.70
  -3   3  11    1.80    2.90
  -3   3  11    0.60    2.20
   2  -3 -11    6.70    2.40
   2  -3 -11    9.10    3.00
  -2   3  11    3.80    2.90
  -2   3  11    5.20    2.70
  -2   3  11    5.40    2.00
   1  -3 -11   13.50    2.60
  -1   3  11   11.70    2.80
  -1   3  11    8.50    3.20
  -1   3  11   12.80    2.30
   0  -3 -11    2.50    2.10
   0   3  11   -2.30    2.00
   0   3  11    2.00    3.10
   0   3  11    0.70    2.40
  -1  -3 -11   -4.00    2.00
   1   3  11    1.20    3.30
   1   3  11   -1.50    2.20
  -2  -3 -11   12.10    2.70
  -2  -3 -11    7.30    2.60
   2   3  11   12.90    4.20
   2   3  11   13.60    2.90
  -3  -3 -11   10.90    3.00
  -3  -3 -11    8.80    2.80
   3   3  11    5.60    4.20
   3   3  11    2.60    2.70
  -5   4  11    3.00    3.00
   4  -4 -11   -2.40    3.80
   4  -4 -11    2.80    3.20
  -4   4  11    3.70    3.60
  -4   4  11    1.90    2.70
   3  -4 -11    0.80    3.50
   3  -4 -11    2.20    2.90
  -3   4  11    2.20    3.10
  -3   4  11    1.10    2.30
   2  -4 -11    4.90    2.80
   2  -4 -11    2.00    3.00
  -2   4  11    5.10    2.40
  -2   4  11    1.90    3.20
  -2   4  11    6.10    3.00
   1  -4 -11   10.30    2.70
  -1   4  11   10.70    3.60
  -1   4  11   13.80    2.60
  -1   4  11   12.20    2.90
   0  -4 -11    2.60    2.40
   0   4  11    2.00    2.60
   0   4  11    9.40    2.50
   0   4  11    1.20    3.40
  -1  -4 -11   11.90    2.70
   1   4  11    9.40    2.70
   1   4  11    9.70    4.00
  -2  -4 -11   13.80    2.70
  -2  -4 -11    8.70    2.90
   2   4  11    7.40    4.20
   2   4  11    7.10    2.90
  -3  -4 -11    6.60    2.90
  -3  -4 -11    0.50    2.60
   3   4  11    4.70    2.80
   3   4  11    5.90    4.50
   4  -5 -11    2.30    3.30
   4  -5 -11    2.20    4.20
  -4   5  11   -0.40    3.80
  -4   5  11    4.40    2.90
   3  -5 -11    3.30    3.20
   3  -5 -11    1.60    3.80
  -3   5  11    5.90    2.90
  -3   5  11   -2.10    3.30
   2  -5 -11    0.10    2.90
   2  -5 -11   -2.60    3.20
  -2   5  11    3.50    3.20
  -2   5  11    1.20    3.50
  -2   5  11    0.90    2.60
   1  -5 -11    4.70    2.80
  -1   5  11    2.70    2.70
  -1   5  11    0.90    3.00
  -1   5  11    0.40    3.40
   0  -5 -11   11.10    2.80
   0   5  11    4.50    3.80
   0   5  11    9.70    2.90
   0   5  11   10.50    2.90
  -1  -5 -11   15.40    3.10
   1   5  11   18.70    3.20
   1   5  11   12.20    4.50
  -2  -5 -11   46.40    4.50
  -2  -5 -11   45.10    4.60
   2   5  11   55.29    8.10
   2   5  11   50.29    5.00
  -3  -5 -11    0.80    3.30
   3   5  11    0.80    2.90
   3   5  11    0.30    5.10
   4  -6 -11    6.60    3.60
   4  -6 -11   -1.50    4.50
  -4   6  11    4.50    3.10
   3  -6 -11   -0.80    3.90
   3  -6 -11   12.00    3.40
  -3   6  11   -0.90    3.00
  -3   6  11   -0.70    3.60
   2  -6 -11    2.60    3.40
   2  -6 -11    5.00    3.10
  -2   6  11    1.10    3.30
  -2   6  11    3.70    3.90
  -2   6  11    5.30    3.00
   1  -6 -11   -1.90    3.00
  -1   6  11   -8.00    2.90
  -1   6  11    0.90    3.90
  -1   6  11    4.20    3.20
   0  -6 -11   -1.30    2.90
   0   6  11    2.40    2.80
   0   6  11    4.00    3.10
   0   6  11    2.70    4.30
  -1  -6 -11    6.00    3.00
   1   6  11    5.80    3.00
   1   6  11    9.70    4.70
  -2  -6 -11    5.70    3.20
   2   6  11    2.60    3.10
   2   6  11    4.60    4.70
   3  -7 -11    4.10    3.50
   3  -7 -11    4.60    4.20
  -3   7  11   -0.40    3.80
  -3   7  11    1.30    3.30
   2  -7 -11    1.00    3.30
  -2   7  11   -4.40    4.00
  -2   7  11   -3.30    3.10
  -2   7  11   -3.90    3.60
   1  -7 -11   10.40    3.40
  -1   7  11    1.80    4.30
  -1   7  11    7.50    3.30
  -1   7  11   13.60    3.50
   0  -7 -11    3.00    3.20
   0   7  11    2.80    3.50
   0   7  11    3.20    4.70
  -1  -7 -11    0.20    3.40
   1   7  11    1.40    4.80
   1   7  11    1.10    3.10
  -2   8  11    4.90    3.80
  -2   8  11    2.90    4.60
  -2   8  11    6.50    4.10
   1  -8 -11   -4.20    3.40
  -1   8  11    2.40    4.80
  -1   8  11   -7.40    3.30
   0   8  11   -0.60    3.70
   0  12 -12   54.39   10.90
   1  11 -12   18.80    5.60
  -1 -11  12   15.80    4.10
   0  11 -12   17.70    8.20
   0 -11  12    3.70    3.50
  -1  11 -12    6.10    7.90
   1 -11  12   -1.20    3.30
   1 -11  12    0.20    4.30
   3  10 -12   10.30    4.10
  -3 -10  12    8.60    3.50
   2  10 -12   10.90    4.30
  -2 -10  12    2.10    3.90
   1  10 -12    5.10    9.50
   1  10 -12    6.30    4.90
  -1 -10  12   -1.40    3.40
   0 -10  12   10.50    3.50
   0 -10  12    6.30    4.10
  -1  10 -12   -3.00    7.20
   1 -10  12   -3.70    3.90
   1 -10  12    2.60    3.30
  -2  10 -12    9.50    6.80
   2 -10  12   -3.00    4.10
   3   9 -12   13.10    4.10
  -3  -9  12    9.10    2.80
  -3  -9  12   12.30    4.20
   2   9 -12   10.40    4.40
  -2  -9  12    2.90    3.50
   1   9 -12    4.20    4.70
   1   9 -12   14.60    4.70
  -1  -9  12   10.40    3.30
   0   9 -12    1.00    6.10
   0  -9  12    2.80    3.50
   0  -9  12    2.50    3.00
  -1   9 -12    0.40    6.50
   1  -9  12   -1.60    3.50
  -2   9 -12    6.50    6.50
   2  -9  12    2.90    4.00
  -3   9 -12    0.20    8.00
   4   8 -12    3.40    3.40
   4   8 -12    5.10    6.00
  -4  -8  12    8.90    3.10
   3   8 -12    4.30    3.20
  -3  -8  12    1.30    3.60
  -3  -8  12    1.50    2.60
   2   8 -12    8.90    4.40
  -2  -8  12    2.00    2.10
  -2  -8  12    2.50    3.30
   1   8 -12   10.30    4.20
   1   8 -12    4.00    3.60
  -1  -8  12    5.90    3.10
   0   8 -12    5.70    5.20
   0  -8  12   12.40    3.50
   0  -8  12   15.90    3.20
  -1   8 -12    7.30    5.30
   1  -8  12    5.70    3.30
  -2   8 -12    4.00    5.80
  -2   8 -12    7.10    3.40
   2  -8  12    1.90    3.60
  -3   8 -12    3.30    4.10
  -3   8 -12    4.60    6.10
   3  -8  12    4.80    4.40
   4   7 -12   10.60    3.60
   4   7 -12   31.70    5.50
  -4  -7  12   18.90    3.40
   3   7 -12   11.10    3.10
  -3  -7  12    4.70    2.50
   2   7 -12   -1.00    3.60
  -2  -7  12    1.20    2.00
  -2  -7  12    0.50    3.00
   1   7 -12   -0.60    2.90
  -1  -7  12   -1.00    2.80
  -1  -7  12    1.90    1.80
   0   7 -12    5.30    4.00
   0  -7  12   11.00    3.20
   0  -7  12   10.30    2.80
  -1   7 -12   -2.30    2.40
  -1   7 -12    5.20    4.80
   1  -7  12   -0.30    2.90
  -2   7 -12    6.50    5.40
  -2   7 -12    5.90    3.40
   2  -7  12    9.50    3.60
  -3   7 -12    9.50    4.10
  -3   7 -12   -5.20    5.50
   3  -7  12    3.50    2.40
   3  -7  12    5.20    4.00
  -4   7 -12   10.60    6.70
   4   6 -12    0.50    3.00
   4   6 -12    4.30    4.70
  -4  -6  12    1.10    2.90
   3   6 -12    0.20    4.10
   3   6 -12    2.70    2.60
  -3  -6  12    0.60    2.20
   2   6 -12   61.69    5.90
  -2  -6  12   51.39    4.80
  -2  -6  12   51.79    3.70
   1   6 -12    2.60    2.80
  -1  -6  12    5.00    2.60
  -1  -6  12    4.30    1.80
   0   6 -12    8.50    2.10
   0  -6  12    8.70    2.60
   0  -6  12    9.80    2.90
  -1   6 -12   23.00    3.90
   1  -6  12   31.20    4.70
  -2   6 -12   28.70    4.90
   2  -6  12   25.90    5.40
  -3   6 -12    3.00    3.90
   3  -6  12   -1.40    2.20
   3  -6  12    2.00    3.50
  -4   6 -12    2.10    6.30
  -4   6 -12    1.10    4.60
   4  -6  12   -2.00    4.10
  -5  -5  12   17.20    3.80
  -5  -5  12   16.90    2.50
   4   5 -12    5.00    4.80
  -4  -5  12    5.00    2.90
   3   5 -12    2.70    2.60
   3   5 -12    0.30    3.60
  -3  -5  12    2.00    2.30
   2   5 -12   19.20    3.00
  -2  -5  12   17.20    3.00
  -2  -5  12   18.30    2.50
  -1  -5  12   18.70    2.90
  -1  -5  12   17.70    2.80
  -1  -5  12   19.50    3.00
   0   5 -12   11.00    1.60
   0   5 -12   12.50    2.30
   0  -5  12    9.40    3.30
   0  -5  12    9.70    2.60
   0  -5  12   12.30    2.40
  -1   5 -12  103.99    5.00
   1  -5  12   93.89    5.60
   1  -5  12   94.59    7.10
  -2   5 -12   40.70    4.90
   2  -5  12   35.00    5.20
   2  -5  12   42.50    6.60
  -3   5 -12   -4.70    3.60
   3  -5  12    4.20    3.40
   3  -5  12    2.80    4.40
   3  -5  12    4.60    2.30
  -4   5 -12    0.20    4.40
   4  -5  12    1.10    3.90
   4  -5  12    4.60    2.90
   5   4 -12    5.50    5.40
  -5  -4  12   10.10    3.50
  -5  -4  12    4.80    2.20
   4   4 -12   -3.40    4.50
  -4  -4  12    5.90    2.90
   3   4 -12   22.30    4.10
  -3  -4  12   18.10    3.20
  -3  -4  12   25.00    3.70
   2   4 -12   19.00    3.30
   2   4 -12   29.60    3.60
  -2  -4  12   20.20    3.20
  -2  -4  12   23.30    3.10
  -1  -4  12  111.89    6.10
  -1  -4  12  107.99    4.50
  -1  -4  12  113.99    4.70
   0   4 -12    1.20    1.50
   0  -4  12    3.30    3.00
   0  -4  12    2.40    2.20
  -1   4 -12   87.99    5.00
   1  -4  12   81.89    5.10
   1  -4  12   80.09    6.60
  -2   4 -12   23.60    3.50
   2  -4  12   12.20    3.00
   2  -4  12   15.10    4.10
  -3   4 -12    5.60    3.60
   3  -4  12    5.70    3.30
   3  -4  12    4.40    2.30
   3  -4  12    6.30    4.20
  -4   4 -12    2.10    4.30
   4  -4  12    1.50    3.80
   4  -4  12   -1.50    2.60
   4  -4  12    0.10    4.40
   5   3 -12   -6.20    5.20
  -5  -3  12    6.30    3.30
  -5  -3  12    1.20    2.10
   4   3 -12    1.30    4.20
  -4  -3  12    0.60    2.30
  -4  -3  12    3.70    2.80
   3   3 -12    2.60    3.50
  -3  -3  12    2.10    2.20
  -3  -3  12    3.20    2.30
   2   3 -12    8.50    3.10
  -2  -3  12    7.40    2.20
  -2  -3  12    4.70    2.20
   1   3 -12    5.00    2.20
  -1  -3  12    3.70    2.60
  -1  -3  12    6.70    2.20
   0   3 -12   27.00    2.60
   0  -3  12   33.00    4.90
   0  -3  12   31.20    3.50
   0  -3  12   32.20    3.60
  -1   3 -12   62.79    4.50
  -1   3 -12   53.79    2.90
   1  -3  12   56.99    4.30
   1  -3  12   55.49    6.00
  -2   3 -12    1.80    2.90
   2  -3  12    2.10    2.50
   2  -3  12    1.00    1.70
   2  -3  12   -0.20    3.50
  -3   3 -12    0.60    3.70
   3  -3  12    5.20    4.00
   3  -3  12    6.80    2.30
   3  -3  12    4.50    3.10
  -4   3 -12    0.00    4.00
   4  -3  12    3.80    3.70
   4  -3  12    3.20    4.40
   4  -3  12    4.50    2.70
   5   2 -12   12.90    5.60
  -5  -2  12    1.40    2.70
  -5  -2  12   -2.10    3.10
  -5  -2  12    1.30    2.10
   4   2 -12    7.00    4.60
  -4  -2  12   13.30    2.00
  -4  -2  12   11.70    2.70
  -4  -2  12   13.60    3.10
   3   2 -12   -6.20    3.20
  -3  -2  12   -2.00    2.20
  -3  -2  12    4.10    2.30
   2   2 -12   46.00    4.20
  -2  -2  12   43.40    3.40
  -2  -2  12   42.10    3.80
   1   2 -12   33.50    3.00
   1   2 -12   31.40    3.20
  -1  -2  12   35.50    3.50
  -1  -2  12   33.40    4.50
   0   2 -12  208.48    6.40
   0  -2  12  203.08    6.90
   0  -2  12  208.78    8.70
  -1   2 -12   87.79    4.90
  -1   2 -12   80.19    3.70
   1  -2  12   81.59    6.50
   1  -2  12   83.79    4.70
  -2   2 -12   12.80    3.10
   2  -2  12   12.10    2.80
   2  -2  12   11.70    2.00
   2  -2  12    7.50    3.70
  -3   2 -12   -1.40    3.40
   3  -2  12    0.80    3.90
   3  -2  12   -0.40    2.90
   3  -2  12    5.20    2.30
  -4   2 -12    8.60    4.30
   4  -2  12   15.50    3.00
   4  -2  12    9.30    3.80
   4  -2  12   14.20    4.70
   5   1 -12    5.70    5.20
  -5  -1  12    1.40    3.20
  -5  -1  12   -1.00    2.80
  -5  -1  12    1.30    2.20
   4   1 -12    5.50    4.50
  -4  -1  12    2.60    2.60
  -4  -1  12    1.50    1.80
  -4  -1  12    3.20    2.90
   3   1 -12    0.70    3.50
  -3  -1  12   -2.50    2.30
  -3  -1  12   -2.10    2.20
   2   1 -12    6.80    2.90
  -2  -1  12    5.90    2.30
   1   1 -12   32.70    3.40
   1   1 -12   39.70    3.20
  -1  -1  12   42.20    3.70
  -1  -1  12   43.70    4.50
   0   1 -12  101.49    4.20
   0  -1  12   94.79    6.20
   0  -1  12   98.59    4.60
  -1   1 -12   35.80    2.90
  -1   1 -12   39.90    4.10
   1  -1  12   37.80    5.60
  -2   1 -12    0.40    1.80
  -2   1 -12    1.40    2.80
   2  -1  12    0.70    2.30
   2  -1  12   -1.10    3.40
   2  -1  12   -1.60    1.80
  -3   1 -12    6.40    3.30
   3  -1  12    1.10    2.90
   3  -1  12    5.30    4.20
   3  -1  12    4.60    2.40
  -4   1 -12    3.90    3.90
   4  -1  12    0.80    2.70
   4  -1  12    2.80    3.60
   4  -1  12    5.60    4.60
   5   0 -12   -0.10    4.70
  -5   0  12    1.00    3.00
  -5   0  12    1.90    3.40
  -5   0  12    0.70    2.30
   4   0 -12    1.60    4.20
  -4   0  12   -1.30    2.70
  -4   0  12    2.20    1.90
  -4   0  12    4.90    2.90
   3   0 -12    4.00    3.60
  -3   0  12    4.10    1.70
  -3   0  12    3.20    2.40
   2   0 -12   25.40    3.30
   2   0 -12   24.80    4.00
  -2   0  12   22.20    4.10
  -2   0  12   17.20    2.80
   1   0 -12    8.90    2.10
   1   0 -12    3.80    2.20
  -1   0  12    3.40    2.70
  -1   0  12    4.10    2.40
   0   0 -12   13.50    2.20
   0   0  12   14.10    2.50
   0   0  12    7.80    3.10
  -1   0 -12    0.50    2.40
  -1   0 -12   -0.30    1.80
   1   0  12    0.20    3.00
   1   0  12    5.10    1.70
  -2   0 -12    0.80    2.70
  -2   0 -12    1.50    1.90
   2   0  12    2.10    2.00
   2   0  12    2.20    3.70
  -3   0 -12    2.80    3.10
   3   0  12    6.20    3.40
   3   0  12    2.50    2.50
   3   0  12   -3.80    4.00
  -4   0 -12    3.50    3.70
   4   0  12    3.10    4.50
   4   0  12    4.60    2.90
   4   0  12    6.60    3.70
   5  -1 -12   12.20    4.70
  -5   1  12   10.70    3.50
  -5   1  12    6.30    2.50
  -5   1  12    3.60    3.30
   4  -1 -12    2.10    4.00
  -4   1  12    4.00    2.10
  -4   1  12    3.50    3.10
   3  -1 -12   32.30    4.00
   3  -1 -12   29.10    4.90
  -3   1  12   38.80    4.30
  -3   1  12   33.10    3.10
   2  -1 -12   21.70    3.20
   2  -1 -12   17.80    2.60
  -2   1  12   14.70    1.90
  -2   1  12   22.40    3.70
  -2   1  12   18.50    4.30
   1  -1 -12   18.00    2.90
  -1   1  12   17.30    2.50
  -1   1  12   19.60    2.80
  -1   1  12   21.40    4.70
   0  -1 -12   -0.60    1.90
   0   1  12    3.10    1.70
   0   1  12   -0.10    2.30
   0   1  12   -0.20    2.90
  -1  -1 -12    7.00    2.10
   1   1  12    4.60    3.30
   1   1  12    4.70    2.00
  -2  -1 -12    1.10    2.10
  -2  -1 -12    4.70    2.60
   2   1  12    5.40    3.90
   2   1  12   -0.40    2.20
  -3  -1 -12    3.80    2.50
  -3  -1 -12    5.90    3.10
   3   1  12    5.50    2.70
   3   1  12    7.60    4.50
  -4  -1 -12   -1.00    3.80
   4   1  12    2.90    3.10
   4   1  12   -0.10    4.40
   5  -2 -12   -0.60    3.50
   5  -2 -12   -3.70    4.80
  -5   2  12   -3.00    2.50
  -5   2  12    2.90    4.40
   4  -2 -12   15.30    4.30
   4  -2 -12    8.90    3.20
  -4   2  12   11.10    2.50
  -4   2  12   14.90    3.50
   3  -2 -12    1.30    2.70
   3  -2 -12    2.50    3.50
  -3   2  12    2.50    3.00
  -3   2  12    2.00    2.00
   2  -2 -12   17.10    2.80
   2  -2 -12   22.50    4.00
  -2   2  12   18.40    4.70
  -2   2  12   20.10    3.00
  -2   2  12   19.30    3.10
   1  -2 -12   80.79    4.40
  -1   2  12   77.59    6.20
  -1   2  12   78.89    3.80
  -1   2  12   79.29    4.70
   0  -2 -12    8.70    2.30
   0   2  12    8.60    2.70
   0   2  12    4.90    2.10
   0   2  12    6.60    3.40
  -1  -2 -12    5.60    2.20
   1   2  12    2.50    3.50
   1   2  12    3.60    2.20
  -2  -2 -12   -0.20    2.60
  -2  -2 -12    1.30    2.30
   2   2  12    0.40    3.80
   2   2  12   -3.50    2.30
  -3  -2 -12    8.30    2.70
  -3  -2 -12   15.30    3.30
   3   2  12   11.80    2.90
   3   2  12    9.90    4.60
   4  -3 -12    0.90    3.20
   4  -3 -12    3.30    4.10
  -4   3  12    5.20    2.70
  -4   3  12    5.10    3.60
   3  -3 -12   -0.10    3.50
   3  -3 -12   -2.00    2.80
  -3   3  12   -1.60    3.20
  -3   3  12   -0.80    2.30
   2  -3 -12   10.80    3.00
   2  -3 -12    8.20    2.70
  -2   3  12    6.10    2.90
  -2   3  12    9.00    2.30
  -2   3  12    6.10    3.20
   1  -3 -12    5.00    2.50
  -1   3  12    1.10    2.80
  -1   3  12    0.70    3.10
  -1   3  12    5.10    2.20
   0  -3 -12   17.10    2.70
   0   3  12   11.80    3.80
   0   3  12   15.10    2.90
   0   3  12   15.40    2.50
  -1  -3 -12   39.20    3.90
   1   3  12   35.30    3.90
   1   3  12   36.40    6.80
  -2  -3 -12    2.10    2.70
  -2  -3 -12    4.00    2.60
   2   3  12    0.10    4.00
   2   3  12    3.40    2.50
  -3  -3 -12    4.40    2.90
  -3  -3 -12    2.50    2.70
   3   3  12    1.10    4.30
   3   3  12    4.50    2.90
   4  -4 -12   12.70    4.30
   4  -4 -12    9.10    3.60
  -4   4  12    4.00    2.70
  -4   4  12    8.00    4.10
   3  -4 -12   22.90    3.60
   3  -4 -12   16.30    4.00
  -3   4  12   15.50    3.90
  -3   4  12   25.50    4.20
   2  -4 -12    5.90    3.10
   2  -4 -12    4.40    3.00
  -2   4  12    5.70    3.20
  -2   4  12    4.30    2.50
  -2   4  12    2.90    3.30
   1  -4 -12   12.00    3.00
  -1   4  12   14.60    3.30
  -1   4  12   10.00    3.70
  -1   4  12   11.60    2.60
   0  -4 -12   -0.10    2.50
   0   4  12   -0.50    3.60
   0   4  12   -1.20    2.50
   0   4  12    0.30    2.70
  -1  -4 -12   35.70    4.40
   1   4  12   39.30    4.30
   1   4  12   34.20    7.20
  -2  -4 -12    2.10    2.80
  -2  -4 -12    7.00    2.70
   2   4  12    3.50    3.00
   2   4  12    5.10    4.40
  -3  -4 -12    1.00    2.80
  -3  -4 -12    0.90    2.90
   3   4  12    1.70    3.00
   4  -5 -12   10.00    3.60
   4  -5 -12    4.70    4.40
  -4   5  12    4.10    2.90
   3  -5 -12   16.30    3.80
   3  -5 -12   17.90    4.30
  -3   5  12   16.20    3.20
  -3   5  12   20.90    4.20
   2  -5 -12    4.40    3.20
  -2   5  12   -8.40    3.30
  -2   5  12    1.20    3.60
  -2   5  12   -6.50    2.70
   1  -5 -12   -1.80    2.90
  -1   5  12    1.70    3.10
  -1   5  12    1.10    3.60
  -1   5  12   -0.80    2.70
   0  -5 -12    5.90    2.90
   0   5  12    4.90    3.00
   0   5  12    5.90    4.20
   0   5  12    7.70    3.00
  -1  -5 -12    3.00    3.00
   1   5  12    7.80    3.00
   1   5  12    2.40    4.50
  -2  -5 -12    5.60    3.00
  -2  -5 -12    2.50    2.60
   2   5  12    4.10    3.20
   2   5  12    6.80    4.70
   3  -6 -12    2.40    3.50
   3  -6 -12    6.00    4.20
  -3   6  12    3.70    3.20
  -3   6  12    1.80    3.90
   2  -6 -12    5.30    3.50
  -2   6  12    1.90    3.20
  -2   6  12    5.40    4.10
  -2   6  12    3.00    3.80
   1  -6 -12    7.00    3.40
  -1   6  12    3.90    4.20
  -1   6  12    8.20    3.20
  -1   6  12   12.70    3.50
   0  -6 -12   10.80    3.30
   0   6  12    6.60    3.00
   0   6  12    6.50    3.20
   0   6  12    6.50    4.50
  -1  -6 -12   13.00    2.90
  -1  -6 -12   14.30    3.60
   1   6  12   16.90    3.40
   1   6  12   12.90    5.00
   2  -7 -12    1.40    3.40
  -2   7  12   -0.90    3.60
  -2   7  12   -1.00    4.20
  -2   7  12    5.90    3.80
   1  -7 -12   10.30    3.60
  -1   7  12    2.30    4.50
  -1   7  12    6.40    3.40
  -1   7  12    3.40    3.40
   0   7  12   -0.60    5.40
   0   7  12    0.70    3.50
   1  11 -13   35.70   10.20
   0  11 -13   27.30    9.20
   0 -11  13    1.20    3.50
  -1  11 -13    4.90    9.60
  -2 -10  13    1.10    3.80
   1  10 -13   20.20    5.70
  -1 -10  13   12.40    3.80
   0  10 -13   -2.20    7.70
   0 -10  13    0.50    4.00
   0 -10  13    1.80    3.30
  -1  10 -13    8.50    8.00
   1 -10  13    1.90    4.10
   3   9 -13   56.79    6.80
  -3  -9  13   36.30    4.40
  -3  -9  13   32.60    6.00
   2   9 -13   62.09    8.70
  -2  -9  13   27.70    4.50
   1   9 -13    5.20    4.60
  -1  -9  13    1.60    3.20
   0   9 -13    7.10    6.30
   0  -9  13    3.60    3.60
   0  -9  13    7.10    3.20
  -1   9 -13   -0.60    7.00
   1  -9  13    1.10    3.60
  -2   9 -13   -2.90    6.60
   2  -9  13   -3.80    3.70
   4   8 -13   32.40    6.10
  -4  -8  13   43.20    5.30
   3   8 -13    8.20    3.40
  -3  -8  13    2.90    2.50
  -2  -8  13   23.10    3.60
  -2  -8  13   20.80    4.10
   1   8 -13    7.10    4.00
   1   8 -13   17.20    4.70
  -1  -8  13   10.00    3.40
   0   8 -13   -5.70    5.50
   0  -8  13   -1.00    3.10
   0  -8  13   -1.40    2.70
  -1   8 -13   -4.00    5.30
   1  -8  13    2.80    3.40
  -2   8 -13    2.90    6.10
  -2   8 -13   -8.10    5.40
   2  -8  13    1.20    3.50
  -3   8 -13    4.30    4.20
  -3   8 -13   -2.80    6.80
   3  -8  13    4.50    4.60
   4   7 -13   14.20    5.40
  -4  -7  13   13.20    3.20
   3   7 -13   49.10    5.50
  -3  -7  13   30.10    4.20
   2   7 -13    8.30    3.90
  -2  -7  13    3.30    3.20
  -2  -7  13   -0.50    2.20
   1   7 -13    1.60    3.20
  -1  -7  13   -2.30    2.70
   0   7 -13    1.80    4.10
   0  -7  13    9.20    3.20
   0  -7  13    9.40    2.80
  -1   7 -13   -3.50    2.70
  -1   7 -13    5.70    5.00
   1  -7  13    5.50    3.10
  -2   7 -13   -3.80    5.40
  -2   7 -13    0.20    3.40
   2  -7  13    2.10    3.40
  -3   7 -13   -2.50    5.70
  -3   7 -13   -1.80    4.10
   3  -7  13    2.70    3.80
   4   6 -13    1.60    5.00
  -4  -6  13    0.40    2.90
   3   6 -13    7.90    4.50
   3   6 -13    5.30    2.70
  -3  -6  13    5.80    2.50
   2   6 -13    4.10    2.90
  -2  -6  13    1.40    2.10
   1   6 -13   -0.40    2.80
  -1  -6  13   -1.40    1.90
  -1  -6  13   -1.60    2.60
   0   6 -13   -2.80    2.00
   0  -6  13   -1.50    2.70
  -1   6 -13    2.40    2.90
   1  -6  13    2.40    2.80
   1  -6  13    2.20    3.90
  -2   6 -13    2.10    3.60
   2  -6  13   -0.50    4.20
   2  -6  13   -0.20    3.00
  -3   6 -13    7.50    4.30
   3  -6  13    5.00    3.90
   4   5 -13   46.40    7.30
  -4  -5  13   46.30    4.70
   3   5 -13   -6.00    3.70
  -3  -5  13   -2.50    2.30
   2   5 -13    1.40    3.50
   2   5 -13    6.90    2.50
  -2  -5  13    4.10    2.30
  -2  -5  13    3.20    2.30
  -1  -5  13    1.20    2.20
  -1  -5  13    0.60    1.90
  -1  -5  13    0.90    2.90
   0   5 -13   -2.70    2.10
   0  -5  13    0.90    3.20
   0  -5  13   -0.40    2.40
  -1   5 -13   19.30    3.20
   1  -5  13    7.70    3.70
   1  -5  13    9.00    2.90
  -2   5 -13    4.10    3.50
   2  -5  13    3.30    4.10
   2  -5  13    3.50    3.00
  -3   5 -13    1.90    3.90
   3  -5  13    0.50    2.30
   3  -5  13    4.20    3.50
   3  -5  13    2.40    4.70
   4   4 -13    6.70    4.80
  -4  -4  13    4.80    3.10
   3   4 -13   18.70    4.40
  -3  -4  13   16.40    2.80
  -3  -4  13   17.10    2.80
   2   4 -13    5.70    3.30
  -2  -4  13    6.00    2.40
  -2  -4  13    4.50    2.30
   1   4 -13    8.60    2.50
  -1  -4  13   10.50    3.10
  -1  -4  13    9.30    2.50
   0   4 -13    0.90    2.40
   0   4 -13   -1.50    1.50
   0  -4  13    5.50    3.10
   0  -4  13   -1.10    2.10
  -1   4 -13   -3.80    2.80
   1  -4  13    0.50    2.30
   1  -4  13   -1.20    3.30
  -2   4 -13    2.40    3.30
   2  -4  13    3.20    3.90
   2  -4  13    1.90    2.80
  -3   4 -13    0.30    3.80
   3  -4  13    4.90    3.40
   3  -4  13    3.30    4.40
   3  -4  13    0.90    2.30
   4  -4  13   -3.50    3.80
   5   3 -13   56.29   11.10
  -5  -3  13   18.20    4.80
  -5  -3  13   19.30    2.80
   4   3 -13    1.80    4.60
  -4  -3  13   -1.60    2.80
  -4  -3  13    5.00    2.70
   3   3 -13    1.90    3.70
  -3  -3  13    3.20    2.40
  -3  -3  13    5.40    2.60
   2   3 -13    6.80    3.20
  -2  -3  13    5.80    2.40
  -2  -3  13    4.00    2.20
   1   3 -13   36.60    3.20
   1   3 -13   30.20    3.60
  -1  -3  13   39.40    3.90
  -1  -3  13   34.80    4.90
   0   3 -13   19.00    2.20
   0  -3  13   19.10    5.10
  -1   3 -13    1.40    1.60
  -1   3 -13    5.20    2.80
   1  -3  13    3.80    2.30
   1  -3  13    4.00    3.40
  -2   3 -13   -0.60    3.20
   2  -3  13   -0.70    2.60
   2  -3  13    0.60    3.70
  -3   3 -13   -4.60    3.70
   3  -3  13    2.30    4.30
   3  -3  13    2.10    2.40
   3  -3  13    2.10    3.20
   4  -3  13    0.60    3.70
   5   2 -13    0.70    6.00
  -5  -2  13   -0.90    2.30
  -5  -2  13    4.70    3.50
  -5  -2  13    2.80    2.90
   4   2 -13   12.60    5.00
  -4  -2  13   16.10    3.50
  -4  -2  13   16.40    3.10
   3   2 -13   -1.00    3.80
  -3  -2  13    2.50    2.50
  -3  -2  13   -2.70    2.40
   2   2 -13    5.20    2.90
  -2  -2  13    6.30    2.50
   1   2 -13    0.70    1.90
   1   2 -13   -3.70    2.20
  -1  -2  13    1.40    2.70
  -1  -2  13    4.20    2.50
   0   2 -13    5.00    1.80
   0  -2  13    8.70    2.60
   0  -2  13    7.90    3.20
  -1   2 -13    3.20    1.80
  -1   2 -13    2.30    2.70
   1  -2  13    3.80    3.40
  -2   2 -13   14.30    3.50
   2  -2  13   13.90    2.10
   2  -2  13   12.10    4.20
   2  -2  13    8.50    2.80
  -3   2 -13    9.40    3.90
   3  -2  13    0.30    3.10
   3  -2  13    3.60    2.40
   3  -2  13    2.10    4.30
   4  -2  13    2.10    3.70
   5   1 -13   -5.10    5.60
  -5  -1  13   -5.00    3.40
  -5  -1  13   -3.20    3.00
  -5  -1  13    3.50    2.70
   4   1 -13    5.90    4.70
  -4  -1  13    0.30    1.80
  -4  -1  13    8.20    3.20
  -4  -1  13    3.40    2.80
   3   1 -13    1.60    3.90
  -3  -1  13    0.20    2.60
  -3  -1  13    1.40    2.60
   2   1 -13    3.80    2.30
   2   1 -13    4.20    3.10
  -2  -1  13    2.30    2.60
   1   1 -13    1.40    2.00
  -1  -1  13    0.80    2.60
  -1  -1  13    5.00    2.50
   0   1 -13    2.90    2.00
   0  -1  13    4.50    3.00
   0  -1  13    0.30    2.40
  -1   1 -13   25.60    3.40
  -1   1 -13   24.20    2.90
   1  -1  13   22.60    5.90
  -2   1 -13    9.00    2.20
  -2   1 -13   15.20    3.50
   2  -1  13   11.60    2.20
   2  -1  13   13.80    4.50
  -3   1 -13    6.90    3.70
   3  -1  13    5.20    4.50
   3  -1  13    5.90    2.60
  -5   0  13    5.10    4.00
  -5   0  13    3.10    3.30
   4   0 -13   -0.70    4.30
  -4   0  13    1.00    2.00
  -4   0  13    0.20    3.00
  -4   0  13   -1.10    3.00
   3   0 -13   28.10    5.20
   3   0 -13   18.20    3.10
  -3   0  13   13.40    3.20
  -3   0  13   16.00    2.70
   2   0 -13    0.00    2.80
   2   0 -13    0.30    2.20
  -2   0  13   -1.10    2.60
   1   0 -13   32.50    3.30
  -1   0  13   33.00    5.20
  -1   0  13   41.70    4.20
   0   0 -13   11.20    2.30
   0   0  13    9.90    3.40
   0   0  13    4.80    2.60
  -1   0 -13   39.50    4.70
  -1   0 -13   32.40    3.40
   1   0  13   32.60    3.10
   1   0  13   32.60    6.10
  -2   0 -13    1.00    2.10
  -2   0 -13    1.90    3.10
   2   0  13   -0.50    2.10
   2   0  13    0.60    4.00
  -3   0 -13   28.80    4.00
   3   0  13   26.50    4.10
   3   0  13   20.50    5.30
   4  -1 -13   -1.30    4.20
   4  -1 -13   -0.70    3.10
  -4   1  13    2.20    3.10
  -4   1  13   -0.10    2.20
   3  -1 -13    6.20    2.90
   3  -1 -13   10.20    3.80
  -3   1  13    8.30    2.10
  -3   1  13   11.30    3.30
   2  -1 -13    3.50    3.00
   2  -1 -13    2.50    2.40
  -2   1  13    4.00    2.90
  -2   1  13    3.30    1.80
   1  -1 -13   40.90    3.80
  -1   1  13   37.90    5.50
  -1   1  13   52.69    4.50
  -1   1  13   46.10    3.10
   0  -1 -13    3.30    2.30
   0   1  13    9.30    2.80
   0   1  13    6.00    3.30
   0   1  13    6.00    1.90
  -1  -1 -13    7.10    2.30
  -1  -1 -13    5.10    2.90
   1   1  13    9.10    3.80
   1   1  13    6.20    2.10
  -2  -1 -13   12.30    3.20
  -2  -1 -13   12.20    2.60
   2   1  13    9.70    4.40
   2   1  13   12.10    2.60
  -3  -1 -13   14.80    3.60
  -3  -1 -13    9.80    2.80
   3   1  13   12.70    5.30
   3   1  13    8.30    2.90
   4  -2 -13    5.00    4.20
   4  -2 -13    6.30    3.40
  -4   2  13    6.30    2.50
  -4   2  13    1.20    3.50
   3  -2 -13   -2.80    2.80
   3  -2 -13    4.00    3.80
  -3   2  13   -2.40    3.10
  -3   2  13    1.10    2.20
   2  -2 -13    4.70    2.70
   2  -2 -13    9.30    3.10
  -2   2  13    5.10    2.20
  -2   2  13    7.70    3.20
  -2   2  13    5.80    3.10
   1  -2 -13    5.20    2.50
  -1   2  13    7.00    2.10
  -1   2  13    2.40    2.90
  -1   2  13    4.50    3.30
   0  -2 -13   16.90    2.70
   0   2  13   22.80    3.30
   0   2  13   21.10    3.30
   0   2  13   23.20    5.80
  -1  -2 -13    2.10    2.30
   1   2  13   -0.70    3.70
   1   2  13    2.30    2.30
  -2  -2 -13   51.49    4.40
  -2  -2 -13   47.30    5.00
   2   2  13   53.89    4.40
   2   2  13   42.40    7.80
  -3  -2 -13    1.30    3.20
  -3  -2 -13    2.30    2.60
   3   2  13   -1.70    2.80
   3   2  13   -2.00    4.60
   4  -3 -13   -3.10    3.40
   4  -3 -13   -0.60    4.10
  -4   3  13    1.30    3.70
  -4   3  13   -0.50    2.50
   3  -3 -13   17.30    4.00
   3  -3 -13   16.90    3.50
  -3   3  13   16.50    2.80
  -3   3  13   23.80    4.00
   2  -3 -13    7.10    3.00
  -2   3  13   13.70    3.70
  -2   3  13   10.10    3.50
  -2   3  13   12.00    2.60
   1  -3 -13    3.40    2.70
  -1   3  13    1.90    3.40
  -1   3  13    1.30    2.20
  -1   3  13    2.40    3.00
   0  -3 -13   18.90    3.00
   0   3  13   15.20    4.20
   0   3  13   21.80    3.30
   0   3  13   17.70    2.70
  -1  -3 -13    2.80    2.60
   1   3  13   -0.40    3.90
   1   3  13    4.00    2.60
  -2  -3 -13    0.90    2.80
  -2  -3 -13    2.30    2.70
   2   3  13    2.30    2.70
   2   3  13   -1.70    4.10
   4  -4 -13   -1.90    4.00
   4  -4 -13   -1.00    3.80
   3  -4 -13    4.00    3.80
   3  -4 -13   11.90    3.50
  -3   4  13    7.90    3.90
  -3   4  13    1.80    2.70
   2  -4 -13   20.00    3.60
  -2   4  13   15.50    4.10
  -2   4  13   23.20    4.10
  -2   4  13   19.20    3.10
   1  -4 -13   -0.70    2.90
  -1   4  13   -3.10    3.40
  -1   4  13   -1.70    2.50
  -1   4  13    3.30    3.30
   0  -4 -13   -1.80    2.70
   0   4  13    2.00    2.90
   0   4  13    1.40    2.70
   0   4  13   -0.40    3.90
  -1  -4 -13    2.10    2.80
   1   4  13    1.90    4.40
   1   4  13    4.30    2.80
  -2  -4 -13    9.70    3.00
  -2  -4 -13    8.70    3.10
   2   4  13    7.60    4.90
   2   4  13   11.00    3.00
   3  -5 -13    0.40    3.50
   3  -5 -13    5.60    4.10
  -3   5  13    4.90    3.10
  -3   5  13    4.80    4.00
   2  -5 -13    6.40    3.50
  -2   5  13    3.70    3.60
  -2   5  13   -0.20    3.70
  -2   5  13   -3.30    3.00
   1  -5 -13    2.50    3.20
  -1   5  13    4.80    2.90
  -1   5  13   -0.80    3.40
  -1   5  13    0.50    3.90
   0  -5 -13   -3.90    2.90
   0   5  13   -2.30    4.00
   0   5  13    5.20    3.00
   0   5  13   -0.30    3.00
  -1  -5 -13    3.00    2.70
  -1  -5 -13   -1.80    2.90
   1   5  13    2.70    4.60
   1   5  13    5.50    3.00
   2  -6 -13    1.10    3.80
  -2   6  13   -1.60    3.70
  -2   6  13    2.70    4.10
  -2   6  13    4.30    3.50
   1  -6 -13    3.60    3.50
  -1   6  13    4.10    3.40
  -1   6  13   -1.10    4.10
  -1   6  13   -5.20    3.10
   0   6  13    4.00    3.20
   0   6  13    2.00    3.30
   0   6  13    0.50    4.60
   2  10 -14   42.60    7.80
  -2 -10  14    6.00    4.60
   1  10 -14   28.00    6.10
  -1 -10  14    9.60    3.80
   0  10 -14   -0.10    7.80
   0 -10  14   -0.60    4.00
  -1  10 -14    9.80    8.20
   1 -10  14    3.30    4.70
   3   9 -14   54.89    6.80
  -3  -9  14   38.30    4.40
  -2  -9  14   32.40    5.90
   1   9 -14   18.70    5.50
  -1  -9  14   11.90    3.60
   0   9 -14   20.50    7.20
   0  -9  14   28.80    6.60
  -1   9 -14    0.20    7.30
   1  -9  14    1.80    3.70
  -2   9 -14   -3.30    9.10
   2  -9  14   12.20    5.50
   3   8 -14   27.00    5.80
  -2  -8  14   27.60    4.20
   1   8 -14    2.90    4.40
  -1  -8  14   -0.40    3.20
   0   8 -14    4.60    4.90
   0  -8  14    7.70    3.60
  -1   8 -14    9.30    6.00
   1  -8  14    7.70    3.60
  -2   8 -14    4.00    6.40
   2  -8  14   -1.00    3.50
   3   7 -14   39.20    8.00
   3   7 -14   44.50    7.10
  -3  -7  14   33.30    4.30
   2   7 -14   32.90    7.00
  -2  -7  14   12.40    2.70
   1   7 -14   35.40    6.50
   1   7 -14   27.40    6.60
  -1  -7  14   43.90    4.90
   0   7 -14   -2.10    3.90
   0  -7  14   -0.10    3.10
  -1   7 -14    5.30    3.20
  -1   7 -14    5.40    5.40
   1  -7  14   12.30    3.50
  -2   7 -14   -0.30    5.90
  -2   7 -14    7.30    3.80
   2  -7  14    2.80    3.50
  -3   7 -14    2.60    4.40
   3  -7  14   -1.30    4.50
   4   6 -14   10.10    5.70
  -4  -6  14    0.60    3.00
   3   6 -14   56.99    6.60
  -3  -6  14   56.99    4.60
   2   6 -14    2.90    3.90
   2   6 -14    5.00    3.30
  -2  -6  14    0.20    2.30
   1   6 -14    7.60    3.50
   0   6 -14    0.40    2.30
   0  -6  14    1.00    3.00
  -1   6 -14    2.10    3.30
   1  -6  14    3.00    4.10
   1  -6  14    2.50    3.00
  -2   6 -14   -0.80    3.70
   2  -6  14    0.30    4.50
   2  -6  14    0.20    3.30
  -3   6 -14    7.80    4.40
   3  -6  14   -2.90    3.60
   4   5 -14   41.20    7.60
  -4  -5  14   43.50    5.00
   3   5 -14   14.10    4.50
  -3  -5  14   19.50    3.00
   2   5 -14   11.50    3.70
  -2  -5  14    5.60    2.50
  -2  -5  14    9.40    2.70
   1   5 -14   -1.10    2.70
  -1  -5  14    4.50    3.20
  -1  -5  14    5.80    2.60
   0   5 -14    4.70    2.70
   0  -5  14    5.80    3.60
   0  -5  14    5.70    2.70
  -1   5 -14    1.50    3.00
   1  -5  14   -2.20    2.60
   1  -5  14   -1.90    3.60
  -2   5 -14    3.50    3.70
   2  -5  14    0.30    4.10
   2  -5  14    3.10    3.10
  -3   5 -14    1.00    4.20
   3  -5  14   -1.90    4.80
   3  -5  14    0.70    3.50
   4   4 -14   23.50    5.50
  -4  -4  14   27.80    4.70
   3   4 -14    5.00    4.30
  -3  -4  14   -5.30    2.50
  -3  -4  14   -1.50    2.50
   2   4 -14    2.40    3.50
  -2  -4  14    2.90    2.50
  -2  -4  14    2.10    2.30
   1   4 -14    3.00    3.40
   1   4 -14    3.20    2.10
  -1  -4  14    5.60    2.60
  -1  -4  14    0.40    3.00
   0   4 -14   -1.60    2.70
   0   4 -14    0.30    1.70
   0  -4  14   -2.30    3.10
  -1   4 -14    2.20    3.10
   1  -4  14    1.70    2.50
   1  -4  14   -1.50    3.50
  -2   4 -14    1.60    3.80
   2  -4  14    2.30    3.00
   2  -4  14    0.90    4.10
  -3   4 -14    1.40    4.10
   3  -4  14    6.80    4.80
   3  -4  14   -1.60    2.40
   3  -4  14   -0.20    3.30
   4   3 -14   -1.80    4.90
  -4  -3  14    2.90    3.30
  -4  -3  14    1.20    2.80
   3   3 -14   13.90    4.30
  -3  -3  14    5.80    2.90
  -3  -3  14    5.70    3.00
   2   3 -14   -3.20    3.00
  -2  -3  14   -2.10    2.40
   1   3 -14    4.50    2.20
  -1  -3  14    1.40    2.80
  -1  -3  14    2.80    2.60
   0   3 -14   25.20    3.00
   0  -3  14   23.70    5.60
  -1   3 -14    3.10    3.10
   1  -3  14   -0.80    3.40
  -2   3 -14   10.70    3.80
   2  -3  14    6.30    4.30
  -3   3 -14   19.10    4.50
   3  -3  14   14.90    3.80
   3  -3  14   14.90    5.30
   3  -3  14   13.10    2.70
   4   2 -14    4.20    5.00
  -4  -2  14   -0.60    2.90
  -4  -2  14   -4.80    3.10
   3   2 -14   -0.20    4.10
  -3  -2  14   -0.80    2.60
  -3  -2  14    1.00    2.80
   2   2 -14   10.80    3.50
   2   2 -14    5.40    2.50
  -2  -2  14    6.70    2.70
   1   2 -14   -2.40    2.00
  -1  -2  14    4.70    3.00
  -1  -2  14    0.10    2.60
   0   2 -14   19.60    3.30
   0  -2  14   23.00    3.30
   0  -2  14   20.40    5.60
  -1   2 -14    3.20    1.90
  -1   2 -14    7.10    3.20
   1  -2  14   -0.80    3.50
  -2   2 -14    3.40    3.50
   2  -2  14    1.40    2.10
   2  -2  14    3.10    4.10
  -3   2 -14   -3.50    3.80
   3  -2  14    4.60    4.90
   3  -2  14    1.70    2.50
   4   1 -14   12.10    4.90
  -4  -1  14    9.00    3.30
  -4  -1  14    4.10    3.50
   3   1 -14    4.10    4.20
  -3  -1  14   -1.70    2.80
   2   1 -14    6.70    2.50
   2   1 -14    9.30    3.40
  -2  -1  14   10.70    3.00
   1   1 -14    2.50    2.30
  -1  -1  14    2.00    2.80
  -1  -1  14    8.10    3.10
   0   1 -14   -2.70    2.00
   0  -1  14   -0.70    3.00
   0  -1  14   -1.00    2.60
  -1   1 -14   13.30    2.40
  -1   1 -14   24.60    3.80
   1  -1  14   20.50    4.30
  -2   1 -14    2.40    3.40
   2  -1  14    5.70    4.40
   2  -1  14    2.10    2.20
  -3   1 -14    2.50    3.90
   3  -1  14   -0.80    4.70
   3  -1  14    0.90    2.60
   4   0 -14    1.90    4.20
  -4   0  14    2.20    2.10
  -4   0  14   -2.70    3.10
   3   0 -14    3.20    3.90
   3   0 -14    8.10    3.00
  -3   0  14    3.40    3.00
   2   0 -14   -7.30    2.30
   2   0 -14    2.80    3.30
  -2   0  14   -0.30    2.90
   1   0 -14    6.00    2.30
  -1   0  14    3.90    3.10
  -1   0  14    0.30    2.70
   0   0 -14   -3.10    2.10
   0   0  14   -1.50    2.70
   0   0  14    2.80    3.20
  -1   0 -14    0.90    3.10
  -1   0 -14    5.50    2.20
   1   0  14    0.80    3.60
   1   0  14    1.70    1.90
  -2   0 -14    5.30    3.40
  -2   0 -14    0.70    2.30
   2   0  14    2.50    2.30
   2   0  14   -1.30    4.20
  -3   0 -14   -0.40    3.70
   3   0  14    1.40    2.90
   3   0  14    0.90    5.10
   4  -1 -14    5.60    3.40
   4  -1 -14   10.80    4.60
  -4   1  14    1.50    3.50
  -4   1  14    1.10    2.20
   3  -1 -14   27.10    4.40
   3  -1 -14   23.40    3.60
  -3   1  14   26.00    3.30
  -3   1  14   23.80    3.70
   2  -1 -14    0.60    2.70
  -2   1  14   -0.90    3.10
  -2   1  14    0.80    1.90
   1  -1 -14    5.50    2.60
  -1   1  14    2.60    1.90
  -1   1  14    3.80    3.40
  -1   1  14    8.50    3.20
   0  -1 -14   -1.40    2.20
   0   1  14   -3.40    2.90
   0   1  14   -1.20    3.30
   0   1  14    1.80    1.90
  -1  -1 -14    4.40    3.10
  -1  -1 -14    5.10    2.40
   1   1  14    1.20    3.90
   1   1  14    3.20    2.10
  -2  -1 -14    2.20    3.20
  -2  -1 -14    5.90    2.50
   2   1  14    5.20    4.50
   2   1  14    5.70    2.50
   4  -2 -14    3.30    3.80
   4  -2 -14    3.70    4.30
  -4   2  14    4.80    4.40
  -4   2  14    4.00    3.10
   3  -2 -14    7.00    3.80
   3  -2 -14    5.40    3.30
  -3   2  14    5.60    3.40
  -3   2  14    2.50    2.30
   2  -2 -14   -1.00    2.60
  -2   2  14    1.10    2.20
  -2   2  14    1.80    3.30
   1  -2 -14   -0.40    2.60
  -1   2  14   -1.10    3.30
  -1   2  14    1.30    3.00
  -1   2  14    1.90    2.10
   0  -2 -14    6.30    2.60
   0   2  14    3.50    3.70
   0   2  14    5.50    3.20
   0   2  14    7.70    2.30
  -1  -2 -14    6.50    3.10
  -1  -2 -14    5.40    2.60
   1   2  14    4.70    2.50
   1   2  14    8.10    4.30
  -2  -2 -14    6.60    2.70
  -2  -2 -14    0.30    3.10
   2   2  14    2.50    2.60
   2   2  14   -1.20    4.60
   4  -3 -14    1.20    4.10
   3  -3 -14    3.10    3.70
   3  -3 -14   -6.50    3.10
  -3   3  14    5.90    3.60
  -3   3  14   -3.70    2.40
   2  -3 -14    1.60    3.10
  -2   3  14   -2.00    3.40
  -2   3  14   -1.60    2.40
   1  -3 -14   -0.90    2.80
  -1   3  14    7.90    3.60
  -1   3  14    0.00    3.60
  -1   3  14    6.00    2.40
   0  -3 -14   14.20    3.00
   0   3  14    6.50    2.60
   0   3  14   10.10    3.30
   0   3  14    8.60    4.20
  -1  -3 -14    4.00    3.10
  -1  -3 -14    6.70    2.90
   1   3  14    7.20    2.80
   1   3  14    6.40    4.50
  -2  -3 -14    4.10    2.70
  -2  -3 -14    4.20    3.10
   2   3  14    2.40    3.10
   3  -4 -14    1.10    3.80
  -3   4  14    2.80    3.00
  -3   4  14   -1.80    4.10
   2  -4 -14   -0.70    3.30
  -2   4  14   -1.00    2.80
  -2   4  14   -5.30    3.60
   1  -4 -14    9.30    3.20
  -1   4  14    4.40    4.10
  -1   4  14    2.20    3.40
  -1   4  14    2.60    2.70
   0  -4 -14    6.30    3.10
   0   4  14    1.60    2.70
   0   4  14    5.90    3.30
   0   4  14    3.10    4.20
  -1  -4 -14    6.10    3.00
  -1  -4 -14   12.00    3.20
   1   4  14    8.40    4.80
   1   4  14    2.40    2.90
  -2   5  14    0.90    3.80
  -2   5  14   -3.80    3.70
   1  -5 -14   16.60    3.80
  -1   5  14   15.80    3.30
  -1   5  14   17.20    3.90
  -1   5  14    9.80    4.50
   0   5  14   -2.30    4.40
   0   5  14    0.70    3.00
   0   5  14    0.00    3.30
   0  10 -15    3.00    8.60
  -2  -9  15    1.20    3.70
   1   9 -15    4.30    5.00
  -1  -9  15   -3.20    3.30
   0   9 -15   -0.80    6.70
   0  -9  15    0.10    3.80
  -1   9 -15    2.70    7.70
   1  -9  15    4.50    3.80
  -3  -8  15    2.50    2.60
   1   8 -15    2.10    4.30
  -1  -8  15    0.80    3.20
   0   8 -15    0.10    4.80
   0  -8  15    6.30    3.60
  -1   8 -15   11.60    6.20
   1  -8  15    7.50    3.70
   2  -8  15    3.80    3.80
   3   7 -15    1.90    4.80
  -3  -7  15    1.20    2.50
   2   7 -15    2.80    4.30
  -2  -7  15    4.90    2.60
   1   7 -15   -0.10    3.70
   0   7 -15   -1.70    4.20
   0  -7  15   -1.60    3.10
  -1   7 -15   13.80    3.80
  -1   7 -15   10.70    6.00
   1  -7  15   12.20    3.60
  -2   7 -15    3.80    6.30
  -2   7 -15    3.20    4.00
   2  -7  15    4.20    3.50
   3   6 -15   11.50    4.90
  -3  -6  15   -6.50    2.50
   2   6 -15   -2.40    3.80
  -2  -6  15    2.10    2.60
   0   6 -15   34.30    3.60
   0  -6  15   27.00    5.60
  -1   6 -15   16.40    3.90
   1  -6  15   11.10    4.60
   1  -6  15   12.10    3.40
  -2   6 -15    1.60    4.20
   2  -6  15    2.20    3.30
   2  -6  15    2.90    4.90
   3   5 -15   15.20    4.90
  -3  -5  15   -0.10    2.80
   2   5 -15   24.00    4.30
  -2  -5  15   23.60    3.20
  -2  -5  15   26.40    4.20
   1   5 -15   -3.40    1.90
  -1  -5  15    1.70    2.70
   0   5 -15   40.80    4.80
   0  -5  15   40.60    6.70
  -1   5 -15   -1.40    3.40
   1  -5  15    0.00    3.80
  -2   5 -15   -2.10    4.00
   2  -5  15   -2.90    3.10
   2  -5  15    3.20    4.60
   4   4 -15   -4.80    5.10
  -4  -4  15    7.90    3.60
   3   4 -15    2.30    4.30
  -3  -4  15    0.90    2.70
  -3  -4  15    1.20    2.80
   2   4 -15   28.10    5.20
  -2  -4  15   27.00    4.40
   1   4 -15   21.60    3.60
  -1  -4  15   24.00    3.40
  -1  -4  15   19.70    5.40
   0   4 -15   25.40    3.50
   0   4 -15   29.20    4.80
   0  -4  15   22.10    6.10
  -1   4 -15   -2.50    3.40
   1  -4  15    1.70    3.90
  -2   4 -15    6.60    4.30
   2  -4  15    8.10    4.70
   3  -4  15   -3.10    4.50
   4   3 -15    9.60    5.40
  -4  -3  15   12.70    3.20
  -4  -3  15    7.30    3.50
   3   3 -15   13.80    4.60
  -3  -3  15    9.10    3.20
  -3  -3  15   20.60    3.30
   2   3 -15    1.50    2.60
   2   3 -15    2.50    3.40
  -2  -3  15    4.30    2.90
   1   3 -15   28.10    3.70
  -1  -3  15   26.50    3.40
  -1  -3  15   19.40    3.80
   0   3 -15    1.60    2.10
   0  -3  15   -0.70    3.40
  -1   3 -15   12.70    3.80
   1  -3  15    5.10    4.00
  -2   3 -15   -2.10    3.90
   2  -3  15    0.10    4.30
   4   2 -15    7.30    5.20
  -4  -2  15    2.60    3.00
  -4  -2  15   -2.80    3.30
   3   2 -15    9.90    4.60
  -3  -2  15    7.10    3.20
   2   2 -15   17.50    3.00
  -2  -2  15   16.50    3.30
   1   2 -15   23.80    3.60
  -1  -2  15   25.70    5.60
  -1  -2  15   28.40    4.50
   0   2 -15   -1.00    2.10
   0  -2  15    1.40    3.50
  -1   2 -15   -2.50    2.00
  -1   2 -15    4.60    3.50
   1  -2  15    4.90    4.00
  -2   2 -15    4.40    4.00
   2  -2  15   -1.40    4.30
   4   1 -15    1.10    4.70
  -4  -1  15    1.10    3.20
   3   1 -15    0.30    2.90
   3   1 -15    5.70    4.20
  -3  -1  15    0.50    3.20
   2   1 -15   23.70    3.30
  -2  -1  15   28.70    4.70
   1   1 -15    3.70    2.40
  -1  -1  15   -1.30    3.10
  -1  -1  15    2.00    2.90
   0   1 -15    5.70    2.40
   0  -1  15    3.40    3.00
   0  -1  15    4.50    3.60
  -1   1 -15    1.90    2.30
  -1   1 -15    7.50    3.60
   1  -1  15    3.20    4.00
  -2   1 -15   27.40    4.50
   2  -1  15   19.40    5.40
   2  -1  15   25.60    3.50
   4   0 -15    4.60    4.50
  -4   0  15   -2.30    3.40
   3   0 -15   13.80    3.40
   3   0 -15   13.10    4.10
  -3   0  15   14.40    3.70
   2   0 -15    7.60    3.00
  -2   0  15   10.60    3.40
   1   0 -15    1.20    2.50
  -1   0  15    0.90    3.20
  -1   0  15    4.30    3.10
   0   0 -15    0.00    2.40
   0   0  15    3.90    3.20
   0   0  15    1.30    3.40
  -1   0 -15   -1.20    3.40
  -1   0 -15    1.00    2.40
   1   0  15    4.00    2.10
   1   0  15    1.10    4.10
  -2   0 -15    9.50    2.80
  -2   0 -15   11.30    4.00
   2   0  15   14.00    5.30
   2   0  15    8.00    2.60
   4  -1 -15    6.00    4.30
   3  -1 -15    6.80    3.30
   3  -1 -15    6.10    4.00
  -3   1  15    6.50    3.60
  -3   1  15    5.00    2.20
   2  -1 -15    5.60    2.90
  -2   1  15    2.00    3.40
   1  -1 -15    1.20    2.70
  -1   1  15    4.10    3.40
  -1   1  15    0.00    3.40
   0  -1 -15    1.40    2.50
   0   1  15    6.30    3.40
   0   1  15    0.00    3.60
   0   1  15   -2.00    2.00
  -1  -1 -15   16.10    2.90
  -1  -1 -15   19.80    4.00
   1   1  15   13.20    2.60
   1   1  15   15.30    4.80
  -2  -1 -15    4.00    3.60
  -2  -1 -15   -0.70    2.50
   2   1  15   -1.20    3.00
   2   1  15   -1.30    5.60
   3  -2 -15   -0.80    3.40
  -3   2  15    0.40    2.40
  -3   2  15   -2.80    3.70
   2  -2 -15    2.20    3.00
  -2   2  15   -0.90    2.20
  -2   2  15    6.20    3.80
   1  -2 -15   -4.50    2.70
  -1   2  15   -2.50    3.40
  -1   2  15    3.50    3.80
  -1   2  15    0.90    2.20
   0  -2 -15   -4.60    2.40
   0   2  15    3.90    2.30
   0   2  15    5.20    3.50
   0   2  15    3.10    3.80
  -1  -2 -15    1.10    3.30
  -1  -2 -15   -0.70    2.60
   1   2  15    3.00    2.50
   1   2  15   -0.40    4.30
   2  -3 -15    0.80    3.20
  -2   3  15    0.00    3.80
  -2   3  15    0.20    2.40
   1  -3 -15   -0.80    3.10
  -1   3  15    3.40    2.50
  -1   3  15    1.60    3.80
  -1   3  15   -3.10    3.40
   0  -3 -15    2.30    3.00
   0   3  15    6.60    3.60
   0   3  15    5.00    2.60
   0   3  15    3.40    4.20
  -1  -3 -15    1.60    3.30
  -1  -3 -15   -2.40    2.80
   1   3  15   -3.60    7.70
  -1   4  15   -1.50    3.60
  -1   4  15    2.50    4.20
  -1   4  15    2.40    3.90
   0   4  15    3.20    5.20
   0   4  15   -1.00    3.50
   0   9 -16   11.40    7.60
   2   8 -16   -0.50    4.60
   1   8 -16    1.70    4.50
   0   8 -16   -3.40    4.70
   0  -8  16   -1.30    3.50
  -1   8 -16    0.80    6.20
   1  -8  16    4.10    3.60
   2   7 -16    1.40    4.20
   0   7 -16    2.60    4.40
   1  -7  16    2.00    3.30
   3   6 -16   10.20    5.20
  -3  -6  16    3.00    3.00
   2   6 -16    7.00    4.30
  -2  -6  16    2.80    2.80
   0   6 -16   -6.40    2.90
   0  -6  16    8.10    4.30
  -1   6 -16    0.20    4.00
   1  -6  16    2.00    4.50
  -2   6 -16    3.20    4.50
   2  -6  16    1.80    3.90
   3   5 -16   -3.80    4.60
  -3  -5  16   -0.70    2.80
  -2  -5  16   28.60    4.50
   1   5 -16    5.40    2.60
   0   5 -16    8.50    3.40
   0  -5  16    5.50    4.00
  -1   5 -16   17.00    4.20
   1  -5  16    9.30    4.60
  -2   5 -16   27.60    5.10
   3   4 -16   13.20    4.70
  -3  -4  16   14.40    3.40
  -3  -4  16   14.10    3.30
   2   4 -16    3.60    2.70
  -2  -4  16    0.60    3.00
   1   4 -16   -0.30    2.40
  -1  -4  16    4.80    3.00
   0   4 -16    8.50    3.50
   0  -4  16    4.90    4.00
  -1   4 -16    8.70    4.10
   1  -4  16    0.00    4.00
  -2   4 -16   33.40    5.00
   2  -4  16   17.40    6.40
   3   3 -16   21.10    5.00
  -3  -3  16    8.90    3.20
   2   3 -16   -2.30    2.60
  -2  -3  16   -3.20    2.90
   1   3 -16    4.80    2.60
  -1  -3  16    1.90    3.00
   0   3 -16   15.60    3.80
   0   3 -16   15.10    2.70
   0  -3  16   12.80    4.20
  -1   3 -16    7.50    3.90
   1  -3  16    7.50    4.30
  -2   3 -16    3.80    4.70
   2  -3  16   -1.60    5.40
   3   2 -16    5.40    4.60
   3   2 -16    5.30    3.10
  -3  -2  16    6.80    3.30
   2   2 -16    0.10    2.70
  -2  -2  16   -1.40    3.10
   1   2 -16    6.90    2.60
  -1  -2  16    0.00    3.00
  -1  -2  16    1.80    3.50
   0   2 -16    2.20    2.40
   0  -2  16    6.30    4.00
  -1   2 -16   -0.30    3.70
   1  -2  16    0.50    4.10
  -2   2 -16   -2.90    7.10
   3   1 -16   17.20    7.00
   3   1 -16   10.80    3.40
  -3  -1  16    6.20    3.60
   2   1 -16    7.90    3.10
  -2  -1  16    6.40    3.50
   1   1 -16   13.60    3.00
  -1  -1  16   11.00    3.80
  -1  -1  16   17.90    3.70
   0   1 -16    7.50    2.70
   0  -1  16    7.20    3.80
  -1   1 -16   -2.50    3.70
  -1   1 -16    4.00    2.40
   1  -1  16   -1.90    4.10
   3   0 -16    2.80    3.70
  -3   0  16    5.10    3.60
   2   0 -16    1.30    3.00
  -2   0  16    4.60    3.60
   1   0 -16    0.80    2.80
  -1   0  16   -0.40    3.50
  -1   0  16   -0.60    3.40
   0   0 -16    3.30    2.60
   0   0  16    0.80    3.70
   0   0  16    2.00    3.50
  -1   0 -16   -2.00    2.40
  -1   0 -16    3.20    3.90
   1   0  16    0.10    4.20
   2  -1 -16    0.70    3.00
  -2   1  16   -0.70    3.70
   1  -1 -16   12.90    3.20
  -1   1  16    8.10    4.00
  -1   1  16   16.60    4.00
   0  -1 -16    1.30    2.60
   0   1  16    1.50    3.80
   0   1  16    6.70    3.80
  -1  -1 -16   -0.30    4.10
  -1  -1 -16    1.60    2.50
   1   1  16    2.10    3.00
   1   1  16   -1.50    4.40
  -2   2  16    1.00    2.80
  -2   2  16   -0.60    5.10
   1  -2 -16    1.30    3.20
  -1   2  16    1.50    2.30
  -1   2  16    2.30    3.80
  -1   2  16    1.50    3.80
   0  -2 -16   -1.40    2.90
   0   2  16    2.60    3.60
   0   2  16    1.70    2.50
   0   2  16    1.20    4.00
  -1   3  16    0.20    4.10
   0   7 -17   -0.60    4.50
   2   6 -17   -2.30    3.10
   0   6 -17    8.40    3.70
   0  -6  17    6.90    4.50
  -1   6 -17    3.70    4.30
   2   5 -17    4.30    2.80
   0   5 -17    6.50    3.80
   0  -5  17   12.40    4.50
  -1   5 -17    6.10    4.30
   1  -5  17    4.60    4.60
  -3  -4  17   -6.50    4.00
   2   4 -17   -2.60    2.70
  -2  -4  17    2.50    3.10
   1   4 -17   15.40    3.10
  -1  -4  17   18.00    3.70
   0   4 -17    3.00    3.70
   0  -4  17    3.90    4.10
  -1   4 -17   11.40    4.30
   1  -4  17    3.90    4.40
  -3  -3  17    3.10    3.20
   2   3 -17   24.80    3.60
  -2  -3  17   25.90    3.90
   1   3 -17    7.30    2.80
  -1  -3  17   11.40    3.50
   0   3 -17    4.40    3.70
   0  -3  17    1.40    4.00
  -1   3 -17   16.20    4.50
   1  -3  17   13.70    4.90
  -3  -2  17    5.30    3.60
   2   2 -17   22.70    3.60
  -2  -2  17   35.00    4.30
   1   2 -17    4.50    2.90
  -1  -2  17    4.90    3.40
   0   2 -17    2.50    2.70
   0   2 -17    7.40    3.90
   0  -2  17    0.30    3.90
  -1   2 -17   73.99   10.50
   1  -2  17   57.89    8.10
   2   1 -17    6.20    3.20
  -2  -1  17    9.20    3.60
   1   1 -17   19.60    3.40
  -1  -1  17   22.20    4.00
   0   1 -17   11.10    2.80
   0  -1  17   10.00    4.40
   1   0 -17   -0.10    2.90
  -1   0  17    5.80    3.90
  -1   0  17   -2.10    4.70
   0   0 -17   46.80    4.50
   0   0  17   37.30    7.40
  -1   1  17   14.30    4.30
   1   3 -18    1.50    2.80
  -1  -3  18    1.20    4.10
   0   0   0    0.00    0.00

_computing_structure_solution     'SHELXT 2014/5 (Sheldrick, 2014)'
;
_shelx_hkl_checksum              50414
loop_
_space_group_symop_operation_xyz
'x, y, z'
'-x, -y, -z'
loop_
_atom_site_type_symbol
_atom_site_label
_atom_site_fract_x
_atom_site_fract_y
_atom_site_fract_z
_atom_site_U_iso_or_equiv
_atom_site_adp_type
_atom_site_calc_flag
_atom_site_refinement_flags_adp
_atom_site_refinement_flags_occupancy
_atom_site_refinement_flags_posn
_atom_site_occupancy
_atom_site_disorder_assembly
_atom_site_disorder_group
C C1 0.631(2) 0.5755(12) 0.3613(7) 0.0206(17) Uani d . P . 0.5 A -1
C C2 0.6040(12) 0.5622(7) 0.2485(5) 0.0268(11) Uani d . P . 0.5 A -1
C C3 0.7742(12) 0.6557(7) 0.2085(5) 0.0317(12) Uani d . P . 0.5 A -1
H H3 0.754031 0.649643 0.132151 0.038 Uiso calc U P R 0.5 A -1
C C4 0.9740(15) 0.7579(9) 0.2809(7) 0.0272(14) Uani d . P . 0.5 A -1
C C5 1.0068(17) 0.7671(9) 0.3938(7) 0.0217(15) Uani d . P . 0.5 A -1
C C6 0.8353(11) 0.6777(6) 0.4346(5) 0.0200(10) Uani d . P . 0.5 A -1
H H6 0.854508 0.684841 0.511043 0.024 Uiso calc U P R 0.5 A -1
C C7 0.4108(15) 0.4508(9) 0.1648(6) 0.0318(14) Uani d . P . 0.5 A -1
C C8 0.4825(17) 0.2863(8) 0.1430(5) 0.0396(15) Uani d . P . 0.5 A -1
C C9 1.101(2) 0.8643(12) 0.1367(7) 0.062(3) Uani d . P . 0.5 A -1
H H9A 1.098763 0.765716 0.087457 0.093 Uiso calc U P R 0.5 A -1
H H9B 1.255171 0.927028 0.123886 0.093 Uiso calc U P R 0.5 A -1
H H9C 0.919891 0.906923 0.122508 0.093 Uiso calc U P R 0.5 A -1
C C10 1.254(2) 0.8816(15) 0.5709(9) 0.029(2) Uani d . P . 0.5 A -1
H H10A 1.293871 0.784987 0.583268 0.044 Uiso calc U P R 0.5 A -1
H H10B 1.081889 0.914797 0.601661 0.044 Uiso calc U P R 0.5 A -1
H H10C 1.413902 0.952492 0.606599 0.044 Uiso calc U P R 0.5 A -1
C C11 0.3199(10) 0.4172(5) 0.5568(4) 0.0196(9) Uani d . P . 0.5 A -1
C C12 0.388(2) 0.4498(13) 0.6742(7) 0.0237(18) Uani d . P . 0.5 A -1
C C13 0.2514(13) 0.3678(7) 0.7307(5) 0.0284(11) Uani d . P . 0.5 A -1
H H13 0.29875 0.386826 0.807926 0.034 Uiso calc U P R 0.5 A -1
C C14 0.0431(15) 0.2564(8) 0.6758(8) 0.0264(14) Uani d . P . 0.5 A -1
C C15 -0.0316(19) 0.2300(10) 0.5633(6) 0.0236(16) Uani d . P . 0.5 A -1
C C16 0.1054(11) 0.3090(6) 0.5043(5) 0.0223(10) Uani d . P . 0.5 A -1
H H16 0.053227 0.289576 0.427219 0.027 Uiso calc U P R 0.5 A -1
C C17 0.6060(12) 0.5691(6) 0.7336(4) 0.0285(11) Uani d . P . 0.5 A -1
C C18 0.6062(19) 0.6271(14) 0.8580(6) 0.049(2) Uani d . P . 0.5 A -1
C C19 -0.003(2) 0.1757(10) 0.8409(6) 0.054(2) Uani d . P . 0.5 A -1
H H19A 0.182279 0.133615 0.847485 0.081 Uiso calc U P R 0.5 A -1
H H19B -0.140351 0.11957 0.868653 0.081 Uiso calc U P R 0.5 A -1
H H19C 0.014031 0.278513 0.883689 0.081 Uiso calc U P R 0.5 A -1
C C20 -0.328(2) 0.0918(15) 0.4017(9) 0.031(2) Uani d . P . 0.5 A -1
H H20A -0.16678 0.061518 0.362546 0.046 Uiso calc U P R 0.5 A -1
H H20B -0.400473 0.180192 0.38305 0.046 Uiso calc U P R 0.5 A -1
H H20C -0.478314 0.012293 0.380422 0.046 Uiso calc U P R 0.5 A -1
F F1 0.6695(10) 0.2553(4) 0.2187(3) 0.0543(11) Uani d . P . 0.5 A -1
F F2 0.2466(19) 0.1989(7) 0.1288(6) 0.0559(17) Uani d . P . 0.5 A -1
F F3 0.5954(10) 0.2519(5) 0.0479(3) 0.0583(12) Uani d . P . 0.5 A -1
F F4 0.707(3) 0.5297(17) 0.9121(12) 0.089(4) Uani d U P . 0.5 A -1
F F5 0.7743(19) 0.7517(10) 0.8982(6) 0.085(3) Uani d U P . 0.5 A -1
F F6 0.3550(10) 0.6560(6) 0.8880(4) 0.0742(16) Uani d U P . 0.5 A -1
N N1 0.4428(8) 0.4866(5) 0.4014(3) 0.0204(8) Uani d . P . 0.5 A -1
N N2 0.520(6) 0.491(4) 0.493(2) 0.018(3) Uani d . P . 0.5 A -1
O O1 0.236(3) 0.4788(12) 0.0967(12) 0.0395(18) Uani d . P . 0.5 A -1
O O2 1.146(2) 0.8544(11) 0.2491(7) 0.0383(17) Uani d . P . 0.5 A -1
O O3 1.214(4) 0.871(2) 0.4550(10) 0.029(2) Uani d . P . 0.5 A -1
O O4 0.247(2) 0.4059(11) 0.3287(7) 0.0342(16) Uani d . P . 0.5 A -1
O O5 0.775(3) 0.6320(14) 0.6967(9) 0.061(3) Uani d . P . 0.5 A -1
O O6 -0.0968(18) 0.1686(10) 0.7269(7) 0.0357(16) Uani d . P . 0.5 A -1
O O7 -0.238(4) 0.124(3) 0.5189(10) 0.027(2) Uani d . P . 0.5 A -1
loop_
_atom_site_aniso_label
_atom_site_aniso_U_11
_atom_site_aniso_U_22
_atom_site_aniso_U_33
_atom_site_aniso_U_12
_atom_site_aniso_U_13
_atom_site_aniso_U_23
C1 0.020(3) 0.026(4) 0.019(4) 0.002(2) 0.010(3) 0.009(3)
C2 0.025(3) 0.036(3) 0.023(3) -0.004(2) 0.007(2) 0.014(2)
C3 0.033(3) 0.040(3) 0.025(3) -0.005(2) 0.003(2) 0.015(2)
C4 0.026(3) 0.035(4) 0.026(4) -0.002(2) 0.008(3) 0.015(3)
C5 0.021(3) 0.022(3) 0.023(4) -0.003(2) 0.003(3) 0.009(4)
C6 0.021(2) 0.022(3) 0.019(3) 0.0021(19) 0.004(2) 0.009(2)
C7 0.027(3) 0.042(4) 0.027(3) -0.001(3) 0.002(2) 0.010(3)
C8 0.052(4) 0.036(3) 0.026(3) 0.001(3) -0.007(3) 0.005(3)
C9 0.087(7) 0.078(6) 0.027(4) -0.018(5) 0.015(4) 0.022(4)
C10 0.027(5) 0.030(5) 0.031(5) -0.001(4) 0.003(3) 0.008(4)
C11 0.021(2) 0.022(2) 0.018(2) 0.0041(18) 0.0061(17) 0.0069(18)
C12 0.027(3) 0.029(4) 0.015(3) 0.001(3) 0.007(3) 0.006(3)
C13 0.034(3) 0.034(3) 0.022(3) 0.003(2) 0.011(2) 0.012(2)
C14 0.032(3) 0.030(3) 0.023(4) 0.003(2) 0.014(3) 0.013(3)
C15 0.021(3) 0.029(3) 0.023(3) 0.006(2) 0.006(3) 0.009(3)
C16 0.021(2) 0.028(3) 0.019(3) 0.0009(19) 0.000(2) 0.008(2)
C17 0.032(3) 0.035(3) 0.019(2) 0.000(2) -0.0006(19) 0.008(2)
C18 0.040(4) 0.074(6) 0.024(3) -0.018(4) -0.001(3) -0.002(4)
C19 0.083(6) 0.059(5) 0.024(4) -0.010(4) 0.015(4) 0.016(3)
C20 0.029(5) 0.038(6) 0.027(5) -0.005(4) 0.004(3) 0.011(4)
F1 0.075(3) 0.045(2) 0.0358(19) 0.013(2) -0.0126(18) 0.0060(16)
F2 0.072(3) 0.049(3) 0.042(4) -0.017(2) 0.000(3) 0.008(2)
F3 0.069(3) 0.069(3) 0.0268(18) 0.008(2) 0.0028(18) -0.0033(19)
F4 0.082(8) 0.154(8) 0.040(4) -0.019(5) -0.012(5) 0.051(5)
F5 0.077(4) 0.122(7) 0.033(3) -0.064(5) 0.006(3) -0.013(3)
F6 0.060(3) 0.077(3) 0.065(3) -0.024(2) 0.033(2) -0.029(3)
N1 0.0176(19) 0.026(2) 0.0174(19) -0.0028(16) 0.0019(14) 0.0060(16)
N2 0.018(7) 0.022(7) 0.016(5) 0.005(5) 0.009(3) 0.001(5)
O1 0.027(3) 0.054(4) 0.038(4) -0.003(2) -0.010(3) 0.019(3)
O2 0.044(4) 0.045(4) 0.031(4) -0.012(3) 0.013(3) 0.017(3)
O3 0.033(4) 0.029(3) 0.028(5) -0.008(3) 0.004(4) 0.013(5)
O4 0.040(3) 0.037(4) 0.024(4) -0.010(3) 0.004(2) 0.008(3)
O5 0.086(5) 0.059(7) 0.030(5) -0.037(4) 0.007(4) 0.001(4)
O6 0.043(4) 0.042(4) 0.029(3) -0.003(3) 0.016(3) 0.016(3)
O7 0.025(4) 0.035(4) 0.026(5) -0.003(3) 0.009(4) 0.017(4)
loop_
_atom_type_symbol
_atom_type_description
_atom_type_scat_dispersion_real
_atom_type_scat_dispersion_imag
_atom_type_scat_source
C C 0.0033 0.0016 'International Tables Vol C Tables 4.2.6.8 and 6.1.1.4'
H H 0.0000 0.0000 'International Tables Vol C Tables 4.2.6.8 and 6.1.1.4'
F F 0.0171 0.0103 'International Tables Vol C Tables 4.2.6.8 and 6.1.1.4'
N N 0.0061 0.0033 'International Tables Vol C Tables 4.2.6.8 and 6.1.1.4'
O O 0.0106 0.0060 'International Tables Vol C Tables 4.2.6.8 and 6.1.1.4'
loop_
_geom_angle_atom_site_label_1
_geom_angle_atom_site_label_2
_geom_angle_atom_site_label_3
_geom_angle
C2 C1 C6 120.7(8)
C2 C1 N1 118.6(7)
C6 C1 N1 120.7(6)
C1 C2 C3 119.2(7)
C1 C2 C7 124.5(6)
C3 C2 C7 116.2(5)
C4 C3 C2 120.1(6)
C4 C3 H3 120.0
C2 C3 H3 120.0
O2 C4 C3 123.9(8)
O2 C4 C5 115.7(7)
C3 C4 C5 120.4(7)
O3 C5 C6 125.9(10)
O3 C5 C4 114.1(9)
C6 C5 C4 120.0(7)
C5 C6 C1 119.5(7)
C5 C6 H6 120.3
C1 C6 H6 120.3
O1 C7 C2 124.8(8)
O1 C7 C8 115.2(8)
C2 C7 C8 118.3(5)
F1 C8 F2 109.4(6)
F1 C8 F3 106.8(7)
F2 C8 F3 107.2(6)
F1 C8 C7 115.1(5)
F2 C8 C7 110.5(7)
F3 C8 C7 107.5(6)
O2 C9 H9A 109.5
O2 C9 H9B 109.5
H9A C9 H9B 109.5
O2 C9 H9C 109.5
H9A C9 H9C 109.5
H9B C9 H9C 109.5
O3 C10 H10A 109.5
O3 C10 H10B 109.5
H10A C10 H10B 109.5
O3 C10 H10C 109.5
H10A C10 H10C 109.5
H10B C10 H10C 109.5
C16 C11 C12 119.0(6)
C16 C11 N2 122.9(12)
C12 C11 N2 117.5(13)
C13 C12 C11 119.0(7)
C13 C12 C17 120.4(7)
C11 C12 C17 120.6(8)
C12 C13 C14 120.9(7)
C12 C13 H13 119.6
C14 C13 H13 119.6
O6 C14 C15 116.3(7)
O6 C14 C13 123.8(8)
C15 C14 C13 119.9(7)
O7 C15 C16 124.3(9)
O7 C15 C14 115.3(9)
C16 C15 C14 120.4(7)
C15 C16 C11 120.6(6)
C15 C16 H16 119.7
C11 C16 H16 119.7
O5 C17 C12 128.4(7)
O5 C17 C18 114.4(7)
C12 C17 C18 117.1(6)
F6 C18 F4 105.8(9)
F6 C18 F5 106.8(10)
F4 C18 F5 106.5(9)
F6 C18 C17 114.7(6)
F4 C18 C17 111.3(11)
F5 C18 C17 111.2(7)
O6 C19 H19A 109.5
O6 C19 H19B 109.5
H19A C19 H19B 109.5
O6 C19 H19C 109.5
H19A C19 H19C 109.5
H19B C19 H19C 109.5
O7 C20 H20A 109.5
O7 C20 H20B 109.5
H20A C20 H20B 109.5
O7 C20 H20C 109.5
H20A C20 H20C 109.5
H20B C20 H20C 109.5
N2 N1 O4 133.0(18)
N2 N1 C1 110.5(17)
O4 N1 C1 115.9(6)
N1 N2 C11 118.(3)
C4 O2 C9 118.9(8)
C5 O3 C10 115.3(14)
C14 O6 C19 119.2(8)
C15 O7 C20 118.0(13)
loop_
_geom_bond_atom_site_label_1
_geom_bond_atom_site_label_2
_geom_bond_distance
C1 C2 1.397(9)
C1 C6 1.418(10)
C1 N1 1.427(10)
C2 C3 1.402(8)
C2 C7 1.490(10)
C3 C4 1.400(9)
C3 H3 0.95
C4 O2 1.368(8)
C4 C5 1.405(10)
C5 O3 1.380(16)
C5 C6 1.385(9)
C6 H6 0.95
C7 O1 1.209(14)
C7 C8 1.559(10)
C8 F1 1.323(8)
C8 F2 1.336(10)
C8 F3 1.354(8)
C9 O2 1.444(10)
C9 H9A 0.98
C9 H9B 0.98
C9 H9C 0.98
C10 O3 1.439(12)
C10 H10A 0.98
C10 H10B 0.98
C10 H10C 0.98
C11 C16 1.397(7)
C11 C12 1.439(8)
C11 N2 1.57(3)
C12 C13 1.375(12)
C12 C17 1.489(11)
C13 C14 1.402(10)
C13 H13 0.95
C14 O6 1.373(8)
C14 C15 1.387(9)
C15 O7 1.344(18)
C15 C16 1.380(10)
C16 H16 0.95
C17 O5 1.193(15)
C17 C18 1.539(9)
C18 F6 1.317(11)
C18 F4 1.342(19)
C18 F5 1.347(12)
C19 O6 1.447(10)
C19 H19A 0.98
C19 H19B 0.98
C19 H19C 0.98
C20 O7 1.450(12)
C20 H20A 0.98
C20 H20B 0.98
C20 H20C 0.98
N1 N2 1.16(3)
N1 O4 1.301(9)
loop_
_geom_torsion_atom_site_label_1
_geom_torsion_atom_site_label_2
_geom_torsion_atom_site_label_3
_geom_torsion_atom_site_label_4
_geom_torsion
C6 C1 C2 C3 -2.6(13)
N1 C1 C2 C3 175.8(7)
C6 C1 C2 C7 175.3(7)
N1 C1 C2 C7 -6.3(13)
C1 C2 C3 C4 1.9(10)
C7 C2 C3 C4 -176.2(6)
C2 C3 C4 O2 -179.1(8)
C2 C3 C4 C5 0.4(10)
O2 C4 C5 O3 -1.5(16)
C3 C4 C5 O3 179.0(13)
O2 C4 C5 C6 177.6(8)
C3 C4 C5 C6 -1.9(11)
O3 C5 C6 C1 -179.9(15)
C4 C5 C6 C1 1.1(11)
C2 C1 C6 C5 1.2(13)
N1 C1 C6 C5 -177.3(8)
C1 C2 C7 O1 125.9(12)
C3 C2 C7 O1 -56.1(12)
C1 C2 C7 C8 -69.9(10)
C3 C2 C7 C8 108.1(7)
O1 C7 C8 F1 -178.7(10)
C2 C7 C8 F1 15.6(10)
O1 C7 C8 F2 -54.2(11)
C2 C7 C8 F2 140.1(6)
O1 C7 C8 F3 62.6(11)
C2 C7 C8 F3 -103.1(6)
C16 C11 C12 C13 3.7(13)
N2 C11 C12 C13 -168.3(15)
C16 C11 C12 C17 -177.2(7)
N2 C11 C12 C17 10.8(18)
C11 C12 C13 C14 -1.7(14)
C17 C12 C13 C14 179.2(8)
C12 C13 C14 O6 178.6(9)
C12 C13 C14 C15 -1.4(11)
O6 C14 C15 O7 1.7(16)
C13 C14 C15 O7 -178.3(13)
O6 C14 C15 C16 -177.5(7)
C13 C14 C15 C16 2.5(12)
O7 C15 C16 C11 -179.5(14)
C14 C15 C16 C11 -0.4(11)
C12 C11 C16 C15 -2.7(10)
N2 C11 C16 C15 168.9(15)
C13 C12 C17 O5 165.8(12)
C11 C12 C17 O5 -13.2(18)
C13 C12 C17 C18 -18.2(14)
C11 C12 C17 C18 162.8(9)
O5 C17 C18 F6 129.7(12)
C12 C17 C18 F6 -46.9(14)
O5 C17 C18 F4 -110.2(13)
C12 C17 C18 F4 73.2(11)
O5 C17 C18 F5 8.3(15)
C12 C17 C18 F5 -168.2(10)
C2 C1 N1 N2 168.0(17)
C6 C1 N1 N2 -13.5(19)
C2 C1 N1 O4 -4.3(13)
C6 C1 N1 O4 174.2(9)
O4 N1 N2 C11 -17.(4)
C1 N1 N2 C11 172.0(17)
C16 C11 N2 N1 21.(3)
C12 C11 N2 N1 -167.1(19)
C3 C4 O2 C9 7.0(14)
C5 C4 O2 C9 -172.5(9)
C6 C5 O3 C10 1.(3)
C4 C5 O3 C10 -179.5(13)
C15 C14 O6 C19 171.3(8)
C13 C14 O6 C19 -8.6(12)
C16 C15 O7 C20 -1.(3)
C14 C15 O7 C20 179.3(13)
