#------------------------------------------------------------------------------
#$Date: 2019-11-03 15:56:45 +0200 (Sun, 03 Nov 2019) $
#$Revision: 221815 $
#$URL: file:///home/coder/svn-repositories/cod/cif/4/12/87/4128745.cif $
#------------------------------------------------------------------------------
#
# This file is available in the Crystallography Open Database (COD),
# http://www.crystallography.net/
#
# All data on this site have been placed in the public domain by the
# contributors.
#
data_4128745
loop_
_publ_author_name
'Chandgude, Ajay L.'
'Ren, Xinkun'
'Fasan, Rudi'
_publ_section_title
;
 Stereodivergent Intramolecular Cyclopropanation Enabled by Engineered
 Carbene Transferases.
;
_journal_issue                   23
_journal_name_full               'Journal of the American Chemical Society'
_journal_page_first              9145
_journal_page_last               9150
_journal_paper_doi               10.1021/jacs.9b02700
_journal_volume                  141
_journal_year                    2019
_chemical_absolute_configuration ad
_chemical_formula_moiety         'C11 H9 Br O2'
_chemical_formula_sum            'C11 H9 Br O2'
_chemical_formula_weight         253.09
_space_group_crystal_system      monoclinic
_space_group_IT_number           4
_space_group_name_Hall           'P 2yb'
_space_group_name_H-M_alt        'P 1 21 1'
_atom_sites_solution_hydrogens   geom
_atom_sites_solution_primary     dual
_atom_sites_solution_secondary   difmap
_audit_creation_date             2018-12-09
_audit_creation_method
;
Olex2 1.2-ac3
(compiled 2017.08.10 svn.r3458 for OlexSys, GUI svn.r5381)
;
_cell_angle_alpha                90
_cell_angle_beta                 97.545(2)
_cell_angle_gamma                90
_cell_formula_units_Z            2
_cell_length_a                   5.61190(10)
_cell_length_b                   9.6719(2)
_cell_length_c                   8.9813(2)
_cell_measurement_reflns_used    9494
_cell_measurement_temperature    100.00(10)
_cell_measurement_theta_max      76.0800
_cell_measurement_theta_min      4.9790
_cell_volume                     483.264(17)
_computing_cell_refinement       'CrysAlisPro 1.171.39.46 (Rigaku OD, 2018)'
_computing_data_collection       'CrysAlisPro 1.171.39.46 (Rigaku OD, 2018)'
_computing_data_reduction        'CrysAlisPro 1.171.39.46 (Rigaku OD, 2018)'
_computing_molecular_graphics    'Olex2 (Dolomanov et al., 2009)'
_computing_publication_material  'Olex2 (Dolomanov et al., 2009)'
_computing_structure_refinement  'ShelXL (Sheldrick, 2015b)'
_computing_structure_solution    'ShelXT (Sheldrick, 2015a)'
_diffrn_ambient_environment      N~2~
_diffrn_ambient_temperature      100.00(10)
_diffrn_detector                 'CCD plate'
_diffrn_detector_type            HyPix
_diffrn_measured_fraction_theta_full 1.000
_diffrn_measured_fraction_theta_max 0.997
_diffrn_measurement_details
;
List of Runs (angles in degrees, time in seconds):

  # Type    Start    End  Width  t~exp~   \w     \q     \k     \f   Frames
--------------------------------------------------------------------------
  1  \w     42.00 121.00   0.50    0.05    --   49.12  38.00 -30.00  158
  2  \w     98.00 178.00   0.50    0.06    --  105.75  89.00 -31.00  160
  3  \w    134.00 160.00   0.50    0.06    --  105.75  61.00 -90.00   52
  4  \w    114.00 140.00   0.50    0.06    --  105.75  77.00   0.00   52
  5  \w    137.00 166.00   0.50    0.06    --  105.75  77.00  30.00   58
  6  \w    127.00 152.00   0.50    0.06    --  105.75  61.00  30.00   50
  7  \w     95.00 135.00   0.50    0.06    --  105.75  61.00  90.00   80
  8  \w    130.00 177.00   0.50    0.06    --  105.75  61.00 120.00   94
  9  \w    141.00 177.00   0.50    0.06    --  105.75  61.00 150.00   72
 10  \w     98.00 171.00   0.50    0.06    --  105.75  61.00  60.00  146
 11  \w     88.00 128.00   0.50    0.06    --  105.75  77.00 150.00   80
 12  \w     85.00 119.00   0.50    0.06    --  105.75  77.00 120.00   68
 13  \w     93.00 134.00   0.50    0.06    --  105.75  61.00 150.00   82
 14  \w     92.00 123.00   0.50    0.06    --  105.75  61.00 120.00   62
 15  \w     86.00 115.00   0.50    0.06    --  105.75  77.00  60.00   58
 16  \w     97.00 124.00   0.50    0.06    --  105.75  61.00  30.00   54
 17  \w     93.00 142.00   0.50    0.06    --  105.75  61.00   0.00   98
 18  \w     86.00 177.00   0.50    0.06    --  105.75  77.00 -60.00  182
 19  \w     96.00 121.00   0.50    0.06    --  105.75  61.00 -90.00   50
 20  \w     93.00 152.00   0.50    0.06    --  105.75  61.00 -60.00  118
 21  \w     97.00 164.00   0.50    0.06    --  105.75  61.00-150.00  134
 22  \w     94.00 122.00   0.50    0.06    --  105.75  61.00-180.00   56
 23  \w     85.00 171.00   0.50    0.06    --  105.75  77.00-120.00  172
 24  \w     89.00 128.00   0.50    0.06    --  105.75  77.00 -90.00   78
 25  \w     89.00 147.00   0.50    0.06    --  105.75  77.00-150.00  116
 26  \w     86.00 125.00   0.50    0.06    --  105.75  77.00-180.00   78
 27  \w     42.00 121.00   0.50    0.05    --   49.12  38.00 -60.00  158
 28  \w     85.00 112.00   0.50    0.06    --  105.75  77.00   0.00   54
 29  \w     87.00 122.00   0.50    0.06    --  105.75  77.00  30.00   70
 30  \w     29.00 120.00   0.50    0.05    --   49.12  77.00  30.00  182
 31  \w     37.00 120.00   0.50    0.05    --   49.12  57.00  90.00  166
 32  \w     37.00 120.00   0.50    0.05    --   49.12  57.00   0.00  166
 33  \w     37.00 120.00   0.50    0.05    --   49.12  57.00 120.00  166
 34  \w     37.00 120.00   0.50    0.05    --   49.12  57.00  30.00  166
 35  \w     37.00  82.00   0.50    0.06    --  105.75 -15.00-120.00   90
 36  \w     83.00 125.00   0.50    0.06    --  105.75 -77.00-120.00   84
 37  \w     80.00 116.00   0.50    0.06    --  105.75-125.00-120.00   72
 38  \w     58.00 116.00   0.50    0.06    --  105.75-125.00-180.00  116
 39  \w     34.00 132.00   0.50    0.06    --  105.75 -89.00-146.00  196
 40  \w     58.00 119.00   0.50    0.06    --  105.75 -61.00   0.00  122
 41  \w     79.00 105.00   0.50    0.06    --  105.75-125.00  30.00   52
 42  \w     87.00 116.00   0.50    0.06    --  105.75-125.00  90.00   58
 43  \w     59.00  88.00   0.50    0.06    --  105.75 -94.00 120.00   58
 44  \w     57.00  88.00   0.50    0.06    --  105.75 -45.00 120.00   62
 45  \w     35.00  71.00   0.50    0.06    --  105.75 -30.00  30.00   72
 46  \w     35.00  89.00   0.50    0.06    --  105.75 -45.00  90.00  108
 47  \w     37.00 112.00   0.50    0.06    --  105.75-125.00  60.00  150
 48  \w     36.00  68.00   0.50    0.06    --  105.75 -45.00 -60.00   64
 49  \w     36.00  71.00   0.50    0.06    --  105.75 -77.00-120.00   70
 50  \w     35.00  84.00   0.50    0.06    --  105.75 -45.00-180.00   98
 51  \w     31.00  95.00   0.50    0.05    --   49.12-125.00-150.00  128
 52  \w     36.00  85.00   0.50    0.06    --  105.75 -45.00-120.00   98
 53  \w     42.00 122.00   0.50    0.05    --   49.12  19.00-150.00  160
 54  \w     29.00 120.00   0.50    0.05    --   49.12  77.00-120.00  182
 55  \w     37.00 120.00   0.50    0.05    --   49.12  57.00-150.00  166
 56  \w     29.00 120.00   0.50    0.05    --   49.12  77.00 -90.00  182
 57  \w     29.00 120.00   0.50    0.05    --   49.12  77.00  90.00  182
 58  \w     29.00 120.00   0.50    0.05    --   49.12  77.00 120.00  182
 59  \w     29.00 120.00   0.50    0.05    --   49.12  77.00 -30.00  182
 60  \w    -22.00  75.00   0.50    0.05    --   49.12 -89.00-146.00  194
 61  \w     38.00  82.00   0.50    0.06    --  105.75-125.00  90.00   88
 62  \w    -75.00  23.00   0.50    0.05    --  -49.12  89.00 -31.00  196
 63  \w    -98.00 -63.00   0.50    0.06    --  -84.25 -77.00  -1.58   70
 64  \w    -93.00 -63.00   0.50    0.06    --  -84.25 -81.00 -45.36   60
 65  \w    -91.00 -65.00   0.50    0.06    --  -84.25 -79.00 -29.60   52
 66  \w   -101.00 -68.00   0.50    0.06    --  -84.25 -65.00 -29.16   66
 67  \w   -120.00 -28.00   0.50    0.05    --  -49.12 -77.00-120.00  184
 68  \w    -91.00 -65.00   0.50    0.06    --  -84.25 -77.00-180.00   52
 69  \w    -99.00 -66.00   0.50    0.06    --  -84.25 -73.00-141.91   66
 70  \w   -120.00 -36.00   0.50    0.05    --  -49.12 -57.00-120.00  168
 71  \w   -110.00 -12.00   0.50    0.06    --  -84.25  89.00 -31.00  196
 72  \w   -103.00 -73.00   0.50    0.06    --  -84.25 -59.00 174.60   60
 73  \w   -121.00 -42.00   0.50    0.05    --  -49.12 -19.00 150.00  158
 74  \w   -120.00 -28.00   0.50    0.05    --  -49.12 -77.00 120.00  184
 75  \w   -156.00 -76.00   0.50    0.06    --  -84.25 -89.00-146.00  160
 76  \w   -156.00 -63.00   0.50    0.06    --  -84.25 -77.00-120.00  186
 77  \w   -156.00 -63.00   0.50    0.06    --  -84.25 -77.00-150.00  186
 78  \w   -156.00 -61.00   0.50    0.06    --  -84.25 -83.00 -99.80  190
 79  \w   -156.00 -63.00   0.50    0.06    --  -84.25 -77.00  30.00  186
 80  \w   -156.00 -63.00   0.50    0.06    --  -84.25 -77.00 150.00  186
 81  \w   -156.00 -68.00   0.50    0.06    --  -84.25 -65.00 114.21  176
 82  \w   -156.00 -61.00   0.50    0.06    --  -84.25 -83.00  56.45  190
 83  \w   -156.00 -63.00   0.50    0.06    --  -84.25 -77.00  90.00  186
 84  \w   -156.00 -63.00   0.50    0.06    --  -84.25 -77.00 -60.00  186
 85  \w   -156.00 -63.00   0.50    0.06    --  -84.25 -79.00 -80.22  186
 86  \w   -156.00 -64.00   0.50    0.06    --  -84.25 -75.00  96.55  184
 87  \w   -156.00 -65.00   0.50    0.06    --  -84.25 -74.00  48.98  182
;
_diffrn_measurement_device       'four-circle diffractometer'
_diffrn_measurement_device_type  'XtaLAB Synergy, Dualflex, HyPix'
_diffrn_measurement_method       '\w scans'
_diffrn_orient_matrix_type
'CrysAlisPro convention (1999,Acta A55,543-557)'
_diffrn_orient_matrix_UB_11      -0.0481129000
_diffrn_orient_matrix_UB_12      -0.0041427000
_diffrn_orient_matrix_UB_13      -0.1728551000
_diffrn_orient_matrix_UB_21      -0.1145651000
_diffrn_orient_matrix_UB_22      0.1448170000
_diffrn_orient_matrix_UB_23      -0.0009528000
_diffrn_orient_matrix_UB_31      0.2474581000
_diffrn_orient_matrix_UB_32      0.0661148000
_diffrn_orient_matrix_UB_33      -0.0086234000
_diffrn_radiation_monochromator  mirror
_diffrn_radiation_probe          x-ray
_diffrn_radiation_type           CuK\a
_diffrn_radiation_wavelength     1.54184
_diffrn_reflns_av_R_equivalents  0.0941
_diffrn_reflns_av_unetI/netI     0.0362
_diffrn_reflns_Laue_measured_fraction_full 1.000
_diffrn_reflns_Laue_measured_fraction_max 0.997
_diffrn_reflns_limit_h_max       7
_diffrn_reflns_limit_h_min       -6
_diffrn_reflns_limit_k_max       12
_diffrn_reflns_limit_k_min       -12
_diffrn_reflns_limit_l_max       11
_diffrn_reflns_limit_l_min       -11
_diffrn_reflns_number            19153
_diffrn_reflns_point_group_measured_fraction_full 0.998
_diffrn_reflns_point_group_measured_fraction_max 0.987
_diffrn_reflns_theta_full        74.504
_diffrn_reflns_theta_max         77.000
_diffrn_reflns_theta_min         4.967
_diffrn_source                   'micro-focus sealed X-ray tube'
_diffrn_source_type              'PhotonJet (Cu) X-ray Source'
_exptl_absorpt_coefficient_mu    5.547
_exptl_absorpt_correction_T_max  1.00000
_exptl_absorpt_correction_T_min  0.46972
_exptl_absorpt_correction_type   multi-scan
_exptl_absorpt_process_details
;
CrysAlisPro 1.171.39.46 (Rigaku Oxford Diffraction, 2018)
Empirical absorption correction using spherical harmonics,
 implemented in SCALE3 ABSPACK scaling algorithm.
;
_exptl_crystal_colour            colourless
_exptl_crystal_colour_primary    colourless
_exptl_crystal_density_diffrn    1.739
_exptl_crystal_description       plate
_exptl_crystal_F_000             252
_exptl_crystal_size_max          0.334
_exptl_crystal_size_mid          0.194
_exptl_crystal_size_min          0.026
_refine_diff_density_max         1.194
_refine_diff_density_min         -0.917
_refine_diff_density_rms         0.113
_refine_ls_abs_structure_details
;
 Flack x determined using 889 quotients [(I+)-(I-)]/[(I+)+(I-)]
 (Parsons, Flack and Wagner, Acta Cryst. B69 (2013) 249-259).
;
_refine_ls_abs_structure_Flack   -0.06(2)
_refine_ls_extinction_method     none
_refine_ls_goodness_of_fit_ref   1.126
_refine_ls_hydrogen_treatment    constr
_refine_ls_matrix_type           full
_refine_ls_number_parameters     127
_refine_ls_number_reflns         2023
_refine_ls_number_restraints     1
_refine_ls_restrained_S_all      1.126
_refine_ls_R_factor_all          0.0412
_refine_ls_R_factor_gt           0.0405
_refine_ls_shift/su_max          0.000
_refine_ls_shift/su_mean         0.000
_refine_ls_structure_factor_coef Fsqd
_refine_ls_weighting_details
'w=1/[\s^2^(Fo^2^)+(0.0693P)^2^+0.4286P] where P=(Fo^2^+2Fc^2^)/3'
_refine_ls_weighting_scheme      calc
_refine_ls_wR_factor_gt          0.1097
_refine_ls_wR_factor_ref         0.1105
_reflns_Friedel_coverage         0.865
_reflns_Friedel_fraction_full    0.997
_reflns_Friedel_fraction_max     0.975
_reflns_number_gt                1978
_reflns_number_total             2023
_reflns_threshold_expression     'I > 2\s(I)'
_cod_data_source_file            ja9b02700_si_004.cif
_cod_data_source_block           fasac09
_cod_database_code               4128745
_shelx_shelxl_version_number     2018/3
_shelx_space_group_comment
;
The symmetry employed for this shelxl refinement is uniquely defined
by the following loop, which should always be used as a source of
symmetry information in preference to the above space-group names.
They are only intended as comments.
;
_shelx_estimated_absorpt_t_max   0.869
_shelx_estimated_absorpt_t_min   0.259
_reflns_odcompleteness_completeness 100.00
_reflns_odcompleteness_iscentric 1
_reflns_odcompleteness_theta     74.33
_olex2_refinement_description
;
1. Fixed Uiso
 At 1.2 times of:
  All C(H) groups, All C(H,H) groups
2.a Ternary CH refined with riding coordinates:
 C1(H1), C2(H2), C3(H3)
2.b Secondary CH2 refined with riding coordinates:
 C4(H4A,H4B)
2.c Aromatic/amide H refined with riding coordinates:
 C7(H7), C8(H8), C10(H10), C11(H11)
;
_shelx_res_file
;
TITL fasac09_a.res in P2(1)
    fasac09.res
    created by SHELXL-2018/3 at 10:31:09 on 09-Dec-2018
REM Old TITL
REM SHELXT solution in P2(1): R1 0.060, Rweak 0.037, Alpha 0.021
REM <I/s> 1.253 for 6 systematic absences, Orientation as input
REM Flack x = -0.046 ( 0.023 ) from 887 Parsons' quotients
REM Formula found by SHELXT: C12 O3 Br
CELL 1.54184 5.6119 9.6719 8.9813 90 97.545 90
ZERR 2 0.0001 0.0002 0.0002 0 0.002 0
LATT -1
SYMM -X,0.5+Y,-Z
SFAC C H Br O
UNIT 22 18 2 4

L.S. 12
PLAN  12
SIZE 0.334 0.194 0.026
TEMP -173.15(10)
BOND $H
LIST 4
CONF
fmap 2
acta 149.008
OMIT 6 6 1
REM <olex2.extras>
REM <HklSrc "%.\\FASAC09.hkl">
REM </olex2.extras>

WGHT    0.069300    0.428600
FVAR       1.15990
BR1   3    0.860299    0.353340   -0.136247    11.00000    0.02707    0.02998 =
         0.02759   -0.00206    0.00620    0.00460
O1    4    0.140804    0.630696    0.653257    11.00000    0.02417    0.03006 =
         0.03142    0.00189    0.00792    0.00240
O2    4    0.021629    0.800368    0.491785    11.00000    0.02599    0.02747 =
         0.03821   -0.00234    0.00194    0.00739
C1    1    0.371065    0.521570    0.411839    11.00000    0.01731    0.02022 =
         0.03155    0.00204    0.00472    0.00037
AFIX  13
H1    2    0.211510    0.475949    0.413423    11.00000   -1.20000
AFIX   0
C2    1    0.383698    0.671528    0.467517    11.00000    0.02352    0.01676 =
         0.03011    0.00164    0.00478    0.00217
AFIX  13
H2    2    0.482523    0.741931    0.421758    11.00000   -1.20000
AFIX   0
C3    1    0.500284    0.557772    0.564047    11.00000    0.01928    0.02440 =
         0.02749    0.00215    0.00183    0.00142
AFIX  13
H3    2    0.679491    0.551338    0.583924    11.00000   -1.20000
AFIX   0
C4    1    0.350458    0.541526    0.692125    11.00000    0.02403    0.02300 =
         0.03301    0.00411    0.00517    0.00101
AFIX  23
H4A   2    0.300390    0.444080    0.701302    11.00000   -1.20000
H4B   2    0.443006    0.570825    0.788422    11.00000   -1.20000
AFIX   0
C5    1    0.166243    0.712426    0.534027    11.00000    0.02410    0.02323 =
         0.02648   -0.00604    0.00175   -0.00118
C6    1    0.497641    0.481166    0.283681    11.00000    0.02062    0.01792 =
         0.02419    0.00276    0.00572    0.00160
C7    1    0.705501    0.549123    0.250009    11.00000    0.02553    0.02430 =
         0.03327   -0.00015    0.00651   -0.00622
AFIX  43
H7    2    0.771446    0.622914    0.312034    11.00000   -1.20000
AFIX   0
C8    1    0.814769    0.509561    0.127508    11.00000    0.02003    0.02469 =
         0.02688   -0.00089    0.00369   -0.00176
AFIX  43
H8    2    0.955609    0.555375    0.105249    11.00000   -1.20000
AFIX   0
C9    1    0.715441    0.401429    0.036974    11.00000    0.02460    0.02031 =
         0.02754    0.00194    0.00374    0.00484
C10   1    0.513322    0.333973    0.066704    11.00000    0.02553    0.02336 =
         0.02957   -0.00250   -0.00227   -0.00396
AFIX  43
H10   2    0.448819    0.260282    0.004015    11.00000   -1.20000
AFIX   0
C11   1    0.402367    0.374179    0.189889    11.00000    0.01961    0.02237 =
         0.02872    0.00150    0.00032   -0.00207
AFIX  43
H11   2    0.260473    0.328284    0.210190    11.00000   -1.20000
AFIX   0
HKLF 4




REM  fasac09_a.res in P2(1)
REM wR2 = 0.1105, GooF = S = 1.126, Restrained GooF = 1.126 for all data
REM R1 = 0.0405 for 1978 Fo > 4sig(Fo) and 0.0412 for all 2023 data
REM 127 parameters refined using 1 restraints

END

WGHT      0.0693      0.4285

REM Highest difference peak  1.194,  deepest hole -0.917,  1-sigma level  0.113
Q1    1   0.8779  0.3547 -0.0208  11.00000  0.05    1.19
Q2    1   0.8366  0.3512 -0.2590  11.00000  0.05    1.06
Q3    1   0.7075  0.3601 -0.0516  11.00000  0.05    0.59
Q4    1   1.0430  0.3540 -0.2060  11.00000  0.05    0.50
Q5    1   0.6633  0.3710 -0.2245  11.00000  0.05    0.48
Q6    1   1.0540  0.3181 -0.0529  11.00000  0.05    0.43
Q7    1   1.0604  0.3854 -0.0508  11.00000  0.05    0.41
Q8    1   0.7825  0.2432 -0.2193  11.00000  0.05    0.39
Q9    1   0.8732  0.7188  0.0331  11.00000  0.05    0.35
Q10   1   1.0944  0.6796  0.2723  11.00000  0.05    0.33
Q11   1   0.1780  0.4124  0.7662  11.00000  0.05    0.33
Q12   1   0.8069  0.2813  0.0680  11.00000  0.05    0.32
;
_shelx_res_checksum              13658
_shelx_hkl_file
;
   0 -12   0   65.49   10.07
   0 -12   0   45.86    7.68
   0 -12  -1  107.64   12.48
   0 -12   1   93.76   12.57
   0 -12  -1   88.07   10.56
   0 -11   0    7.04    6.69
   0 -11   0    3.76    6.07
   0 -11   0   -0.96    6.22
   0 -11   0    5.42    3.57
   0 -11   1  244.60   27.66
   0 -11   1  287.03   31.38
   0 -11  -1  268.09   28.92
   0 -11   1  286.49   31.24
   0 -11  -1  256.96   29.20
   0 -11  -1  275.74   30.97
   0 -11  -1  295.91   29.14
   0 -11   1  250.22   25.61
   0 -11  -2  147.75   15.68
   0 -11   2  137.66   19.54
   0 -11  -2  151.35   21.66
   0 -11  -2  166.67   20.71
   0 -11  -2  128.18   21.34
   0 -11   2  141.36   21.00
   0 -11   2  137.91   20.50
   0 -11   2  168.19   23.43
   0 -11   3  138.00   19.26
   0 -11   3  122.54   17.93
   0 -11  -3  169.44   18.84
   0 -11   3  148.80   21.39
   0 -11  -3  164.94   16.18
   0 -11  -3   96.76   18.80
   0 -11   4    0.61    3.67
   0 -11  -4   -1.54    4.38
   0 -10   0  379.75   37.58
   0 -10   0  402.81   42.14
   0 -10   0  375.47   41.02
   0 -10   0  489.36   46.69
   0 -10   1  200.65   30.23
   0 -10   1  177.54   26.35
   0 -10  -1  189.69   29.97
   0 -10  -1  172.13   25.72
   0 -10   1  177.13   28.63
   0 -10  -1  188.98   27.15
   0 -10  -1  203.84   30.10
   0 -10  -1  225.63   30.60
   0 -10   1  157.42   24.56
   0 -10  -2  128.09   21.02
   0 -10  -2  100.63   21.43
   0 -10   2   93.73   20.77
   0 -10   2  134.84   23.40
   0 -10   2  102.19   21.05
   0 -10  -2  120.67   21.51
   0 -10  -2  116.95   24.49
   0 -10   2  120.69   20.53
   0 -10   2  120.29   24.49
   0 -10   3  145.65   26.80
   0 -10   3  182.14   25.07
   0 -10   3  165.16   22.97
   0 -10  -3  183.38   29.12
   0 -10  -3  183.69   25.06
   0 -10   3  184.63   25.71
   0 -10  -3  154.60   25.09
   0 -10   3  206.02   27.52
   0 -10   3  167.98   26.52
   0 -10  -3  177.98   26.58
   0 -10   3  201.14   24.25
   0 -10   4  266.70   32.83
   0 -10  -4  356.89   29.69
   0 -10   4  278.64   30.83
   0 -10  -4  359.23   32.50
   0 -10   4  360.38   31.35
   0 -10   4  279.81   30.32
   0 -10  -4  360.23   33.33
   0 -10   4  276.35   30.83
   0 -10  -4  218.92   31.52
   0 -10   4  399.00   33.27
   0 -10   5   25.09    9.52
   0 -10  -5   35.38   10.09
   0 -10   5   28.52   10.16
   0 -10  -5   30.88    9.60
   0 -10   5   16.77    8.42
   0 -10  -5   25.46    8.25
   0 -10  -5   30.34    9.35
   0 -10  -6   14.43    6.00
   0 -10   6    3.89    4.83
   0 -10   6    3.31    3.75
   0 -10  -6   10.02    6.16
   0  -9   0    1.96    6.33
   0  -9   0   -3.73    6.72
   0  -9   0   16.22    9.25
   0  -9   0    5.64    8.02
   0  -9   0    9.84    6.00
   0  -9   0   -1.40    7.84
   0  -9   0    3.16    8.46
   0  -9   0    1.56    5.63
   0  -9   0   -3.25    9.46
   0  -9   1  341.85   42.17
   0  -9  -1  320.38   46.53
   0  -9  -1  321.41   43.27
   0  -9  -1  330.84   40.80
   0  -9   1  311.33   35.64
   0  -9   1  371.88   45.99
   0  -9   1  343.89   40.04
   0  -9   1  361.55   42.30
   0  -9   1  334.11   43.82
   0  -9   1  337.05   45.53
   0  -9  -1  378.68   44.41
   0  -9  -1  310.06   35.74
   0  -9  -1  302.81   41.54
   0  -9  -1  336.80   37.70
   0  -9   1  295.70   36.84
   0  -9  -1  314.03   41.55
   0  -9   1  301.58   40.27
   0  -9  -1  311.73   37.22
   0  -9  -1  332.97   42.79
   0  -9   2  802.83   69.98
   0  -9   2  798.71   63.86
   0  -9  -2  741.47   58.85
   0  -9  -2  810.68   69.76
   0  -9   2  785.93   68.80
   0  -9   2  862.03   65.21
   0  -9  -2  842.02   64.68
   0  -9  -2  796.02   69.00
   0  -9   2  718.77   57.39
   0  -9  -2  801.38   69.65
   0  -9  -2  716.85   62.27
   0  -9  -2  693.85   60.95
   0  -9  -2  780.56   75.98
   0  -9   2  823.97   59.52
   0  -9  -2  761.01   59.74
   0  -9   2  729.00   58.66
   0  -9  -2  769.15   65.64
   0  -9  -3  333.92   43.52
   0  -9   3  363.42   40.61
   0  -9  -3  382.35   46.00
   0  -9  -3  360.96   42.25
   0  -9  -3  343.39   37.39
   0  -9  -3  332.32   37.66
   0  -9   3  316.73   35.36
   0  -9   3  360.35   46.57
   0  -9   3  357.37   40.42
   0  -9  -3  305.47   38.78
   0  -9  -3  300.72   42.39
   0  -9   3  292.52   37.70
   0  -9   3  358.23   39.32
   0  -9   4   85.57   18.66
   0  -9   4  111.95   23.24
   0  -9   4   90.91   20.37
   0  -9  -4  114.97   21.12
   0  -9  -4   63.41   20.34
   0  -9  -4   92.09   19.70
   0  -9   4   95.68   19.97
   0  -9   4  120.48   21.54
   0  -9   4   94.65   20.07
   0  -9  -5  289.27   29.60
   0  -9   5  306.67   32.35
   0  -9  -5  227.95   28.91
   0  -9   5  261.51   30.83
   0  -9  -5  292.64   36.90
   0  -9   5  238.92   29.11
   0  -9   5  311.92   37.85
   0  -9  -5  288.98   38.79
   0  -9   5  410.59   37.41
   0  -9  -5  300.83   32.94
   0  -9   5  232.04   31.58
   0  -9   6  253.00   27.64
   0  -9   6  277.39   28.23
   0  -9   6  265.29   31.65
   0  -9  -6  161.96   25.10
   0  -9  -6  300.48   30.16
   0  -9   6  247.33   29.48
   0  -9   6  219.21   26.01
   0  -9  -6  219.45   30.66
   0  -9   7   53.05   12.69
   0  -9  -7   51.51    9.36
   0  -9   7   45.09   11.34
   0  -8   0  492.05   54.11
   0  -8   0  546.26   50.73
   0  -8   0  471.11   52.02
   0  -8   0  495.44   52.39
   0  -8   0  443.67   44.74
   0  -8   0  497.27   49.57
   0  -8   0  475.01   46.30
   0  -8   1  847.37   66.31
   0  -8   1  880.08   74.97
   0  -8   1  787.13   63.02
   0  -8   1  895.95   72.07
   0  -8  -1  880.19   71.00
   0  -8  -1  973.05   73.25
   0  -8  -1  797.19   63.23
   0  -8   1  816.43   64.46
   0  -8  -1  966.85   71.82
   0  -8   1  940.86   74.31
   0  -8  -1  772.76   69.05
   0  -8  -1  813.80   60.92
   0  -8   1  882.23   74.07
   0  -8  -1  859.41   64.12
   0  -8  -1  988.68   80.64
   0  -8  -1  862.93   65.07
   0  -8  -2  215.75   33.21
   0  -8   2  164.58   29.47
   0  -8  -2  255.19   40.48
   0  -8   2  205.61   33.44
   0  -8   2  193.83   29.51
   0  -8  -2  229.76   30.00
   0  -8   2  181.38   27.57
   0  -8  -2  172.69   28.50
   0  -8   2  153.07   25.96
   0  -8   2  201.05   29.57
   0  -8   2  186.11   29.63
   0  -8  -2  197.23   32.56
   0  -8  -2  221.28   34.42
   0  -8   2  228.77   36.90
   0  -8  -2  219.63   35.64
   0  -8   2  166.96   29.71
   0  -8  -2  215.34   33.49
   0  -8   3  502.34   50.42
   0  -8   3  490.60   58.54
   0  -8  -3  504.48   53.26
   0  -8  -3  466.24   48.67
   0  -8   3  322.79   44.35
   0  -8   3  512.90   57.62
   0  -8  -3  502.43   54.36
   0  -8   3  509.23   49.27
   0  -8  -3  477.33   45.94
   0  -8   3  582.87   51.63
   0  -8   3  503.94   54.93
   0  -8  -3  562.10   56.15
   0  -8   3  615.71   51.05
   0  -8  -3  459.92   53.05
   0  -8   3  510.57   51.63
   0  -8   4 1051.80   77.70
   0  -8   4  859.57   66.46
   0  -8   4  723.06   71.97
   0  -8   4  715.07   74.96
   0  -8  -4 1042.06   79.75
   0  -8  -4  936.30   82.31
   0  -8   4  879.32   71.90
   0  -8   4  985.95   69.38
   0  -8  -4 1050.75   81.86
   0  -8  -4 1034.27   79.87
   0  -8   4  635.26   65.18
   0  -8  -4  980.04   78.83
   0  -8  -4  833.16   70.08
   0  -8  -4 1049.64   69.56
   0  -8   4  796.88   75.89
   0  -8   4  940.51   81.14
   0  -8   4  921.99   68.84
   0  -8  -4  966.73   79.71
   0  -8  -4  833.08   65.55
   0  -8   4  845.29   63.53
   0  -8   5  150.29   25.52
   0  -8  -5  152.14   30.99
   0  -8   5  116.41   22.20
   0  -8  -5  107.34   21.62
   0  -8  -5  133.39   23.59
   0  -8   5  102.18   20.17
   0  -8  -5   86.86   23.14
   0  -8   5  115.18   25.77
   0  -8   5  102.48   24.32
   0  -8   5  104.63   21.07
   0  -8   5  146.00   24.77
   0  -8   6  114.87   24.06
   0  -8   6   78.27   20.65
   0  -8   6   78.74   16.61
   0  -8  -6   75.80   20.89
   0  -8   6  105.96   20.51
   0  -8   6   97.50   20.54
   0  -8   6   70.04   16.19
   0  -8  -6   82.91   19.39
   0  -8  -6  104.38   21.12
   0  -8  -7  319.41   32.82
   0  -8   7  260.68   30.37
   0  -8   7  250.33   31.36
   0  -8  -7  270.46   28.25
   0  -8  -7  247.12   25.59
   0  -8   7  234.88   28.69
   0  -8   7  171.56   21.28
   0  -8   7  297.01   35.14
   0  -8  -8  130.58   15.01
   0  -8   8   88.46   13.20
   0  -8   8  111.86   18.40
   0  -7   0   -3.22    7.35
   0  -7   0   -1.61    7.36
   0  -7   0    1.08    4.26
   0  -7   0    1.36    6.21
   0  -7   0   -1.65    7.03
   0  -7   0    5.07    7.37
   0  -7   0    5.35    4.88
   0  -7  -1  463.71   46.23
   0  -7  -1  350.14   37.17
   0  -7   1  456.64   45.97
   0  -7   1  479.42   48.12
   0  -7  -1  416.51   45.30
   0  -7  -1  435.08   42.16
   0  -7   1  425.43   42.16
   0  -7  -1  419.80   41.66
   0  -7   1  464.38   43.18
   0  -7   1  418.69   47.52
   0  -7   1  447.86   42.16
   0  -7  -1  513.93   48.15
   0  -7   1  483.12   43.89
   0  -7  -1  441.82   48.81
   0  -7   1  404.31   37.94
   0  -7   1  413.09   46.63
   0  -7   1  385.04   40.94
   0  -7  -1  445.60   40.05
   0  -7   2 1129.59   75.40
   0  -7   2 1234.90   83.97
   0  -7   2 1041.58   74.94
   0  -7  -2 1138.09   75.59
   0  -7   2 1115.03   77.57
   0  -7   2 1104.36   85.28
   0  -7  -2 1160.22   79.70
   0  -7   2 1181.02   79.96
   0  -7   2 1078.67   72.06
   0  -7   2 1161.60   76.15
   0  -7   2 1156.28   80.40
   0  -7   2 1298.35   79.11
   0  -7  -2 1193.02   81.32
   0  -7  -2 1292.52   90.07
   0  -7   2 1229.82   76.83
   0  -7  -2 1103.33   71.26
   0  -7  -2 1272.05   84.10
   0  -7  -2 1250.21   83.08
   0  -7  -2 1287.07   83.45
   0  -7  -3  172.97   29.13
   0  -7   3  131.33   23.83
   0  -7  -3  137.29   28.92
   0  -7   3  149.72   29.39
   0  -7  -3  139.95   27.80
   0  -7   3  162.14   27.64
   0  -7   3  127.86   23.08
   0  -7  -3  130.79   24.88
   0  -7   3  150.66   31.54
   0  -7  -3  180.56   29.39
   0  -7   3  131.56   21.72
   0  -7   3  140.70   27.66
   0  -7  -3  178.32   25.66
   0  -7   3  120.27   22.94
   0  -7   3  116.49   25.83
   0  -7  -3  155.24   28.12
   0  -7  -4   97.93   22.72
   0  -7  -4  102.36   23.10
   0  -7   4   67.62   17.80
   0  -7  -4   80.15   18.09
   0  -7  -4   58.79   20.33
   0  -7   4   89.17   22.44
   0  -7  -4   72.39   20.81
   0  -7   4   76.90   19.15
   0  -7   4   62.77   23.02
   0  -7   4   71.34   19.84
   0  -7   4   85.55   23.95
   0  -7   4   91.47   21.17
   0  -7   4   91.29   20.05
   0  -7  -4   88.35   23.64
   0  -7  -4   79.13   21.87
   0  -7   4   71.67   21.13
   0  -7   5  886.37   68.54
   0  -7  -5  946.61   78.35
   0  -7  -5  992.16   69.68
   0  -7   5  879.85   76.48
   0  -7  -5 1148.33   90.43
   0  -7   5  923.79   79.80
   0  -7   5  887.23   63.84
   0  -7   5  775.72   77.84
   0  -7  -5 1099.20   84.07
   0  -7  -5  891.65   75.75
   0  -7   5  785.82   78.88
   0  -7  -5 1004.60   65.98
   0  -7  -5 1032.93   70.32
   0  -7  -5  984.77   77.39
   0  -7   5  910.92   67.55
   0  -7   5  879.33   67.66
   0  -7   5 1095.42   73.07
   0  -7  -5  964.33   78.98
   0  -7  -6  105.01   24.25
   0  -7  -6  154.23   29.82
   0  -7   6  143.80   28.80
   0  -7   6  158.64   24.30
   0  -7  -6  116.35   23.91
   0  -7  -6  148.02   23.58
   0  -7   6  153.65   31.03
   0  -7  -6  168.65   30.46
   0  -7   6  115.26   22.59
   0  -7  -6  141.12   24.01
   0  -7   6  137.57   27.32
   0  -7  -6  195.01   33.99
   0  -7  -7   62.22   14.05
   0  -7   7   73.69   21.46
   0  -7  -7   82.03   17.05
   0  -7   7   83.67   17.79
   0  -7  -7  103.40   23.04
   0  -7  -7   94.60   20.33
   0  -7  -7   84.07   18.67
   0  -7  -7   87.99   15.50
   0  -7   7   71.21   18.31
   0  -7   8   40.49   12.73
   0  -7   8   65.21   15.59
   0  -7   8   67.66   12.88
   0  -7  -8   56.55   15.24
   0  -7   8   89.74   19.26
   0  -7  -8   68.06   12.89
   0  -7  -8   73.04   15.08
   0  -7  -8   95.09   16.12
   0  -7   8   93.93   18.86
   0  -7  -9  378.79   25.50
   0  -7   9  279.10   25.55
   0  -7   9  321.16   30.54
   0  -6   0 4428.64  188.21
   0  -6   0 4441.26  179.80
   0  -6   0 4203.15  177.67
   0  -6   0 4724.71  188.07
   0  -6   0 4015.20  169.49
   0  -6   0 3859.67  168.71
   0  -6  -1  698.37   52.29
   0  -6   1  747.64   52.48
   0  -6   1  817.29   59.73
   0  -6   1  697.13   53.61
   0  -6   1  771.67   60.83
   0  -6  -1  775.01   54.00
   0  -6  -1  773.93   58.47
   0  -6   1  733.94   52.17
   0  -6   1  736.79   54.18
   0  -6   1  750.68   59.84
   0  -6  -1  773.88   59.72
   0  -6   1  866.57   55.99
   0  -6  -1  783.73   56.57
   0  -6  -1  827.95   58.12
   0  -6   1  790.97   56.83
   0  -6   2   38.62   13.66
   0  -6  -2   30.50   11.94
   0  -6   2   30.22   12.20
   0  -6   2   38.89   10.79
   0  -6   2   23.78   11.09
   0  -6  -2   17.67   10.01
   0  -6   2   30.42   10.84
   0  -6   2   22.60   10.19
   0  -6   2   28.44   10.91
   0  -6  -2   19.94   10.32
   0  -6  -2   26.80   11.14
   0  -6  -2   25.53   11.47
   0  -6   2   17.59    8.55
   0  -6   3 1778.46   92.30
   0  -6   3 1524.74   88.59
   0  -6  -3 1589.09   96.18
   0  -6   3 1544.21   97.29
   0  -6   3 1810.16  103.62
   0  -6   3 1608.93   90.14
   0  -6  -3 1763.96   99.36
   0  -6   3 1695.26   98.97
   0  -6  -3 1582.56   87.12
   0  -6   3 1732.13  109.01
   0  -6  -3 1477.83   98.84
   0  -6   3 1618.05   86.52
   0  -6  -3 1676.54   97.44
   0  -6  -3 1794.87   98.76
   0  -6  -4 1223.91   82.12
   0  -6  -4 1258.49   85.57
   0  -6   4 1017.99   70.02
   0  -6   4 1156.76   83.42
   0  -6   4 1201.06   88.31
   0  -6   4 1056.00   67.55
   0  -6   4 1225.77   75.25
   0  -6  -4 1288.99   85.25
   0  -6  -4 1250.46   84.19
   0  -6   4 1375.13   78.91
   0  -6  -4 1242.59   87.03
   0  -6   4  883.42   73.19
   0  -6  -4 1230.95   74.45
   0  -6   4 1121.59   89.10
   0  -6   5  315.54   42.90
   0  -6  -5  335.38   42.46
   0  -6  -5  295.73   41.98
   0  -6  -5  305.33   36.16
   0  -6   5  302.68   34.86
   0  -6   5  300.62   44.74
   0  -6  -5  289.44   39.37
   0  -6   5  309.26   35.84
   0  -6  -5  373.29   45.33
   0  -6   5  327.58   35.73
   0  -6   5  290.06   34.68
   0  -6   5  222.91   34.23
   0  -6  -5  323.08   42.31
   0  -6  -5  420.17   51.24
   0  -6  -5  332.88   37.34
   0  -6  -5  322.54   35.40
   0  -6   5  349.97   47.44
   0  -6   6   70.01   17.86
   0  -6  -6   75.65   17.76
   0  -6  -6   59.99   17.44
   0  -6  -6   55.60   21.06
   0  -6   6   45.72   15.73
   0  -6  -6   60.35   15.90
   0  -6   6   43.03   15.60
   0  -6   6   51.98   16.87
   0  -6   6   40.14   13.94
   0  -6  -6   37.13   16.74
   0  -6   6   79.32   24.32
   0  -6  -6   53.62   16.07
   0  -6  -6   63.24   18.59
   0  -6  -6   70.03   21.82
   0  -6  -7  867.99   60.95
   0  -6  -7  902.17   59.66
   0  -6   7  852.86   70.62
   0  -6   7  917.21   68.31
   0  -6   7  759.97   63.82
   0  -6   7  934.70   64.76
   0  -6   7  838.12   63.73
   0  -6  -7  946.09   68.37
   0  -6   7  740.25   58.20
   0  -6   7  874.75   65.96
   0  -6  -7  706.21   64.49
   0  -6   8  254.50   34.88
   0  -6   8  236.44   31.77
   0  -6  -8  242.43   29.04
   0  -6   8  246.98   32.52
   0  -6  -8  231.54   25.53
   0  -6   8  234.63   30.49
   0  -6  -8  246.21   30.07
   0  -6   8  199.79   28.32
   0  -6   8  181.39   26.52
   0  -6  -8  235.20   27.19
   0  -6  -8  211.30   30.45
   0  -6   9    9.29    7.46
   0  -6  -9   12.13    8.78
   0  -6  -9   15.65    8.84
   0  -6   9   15.53    9.01
   0  -6  -9   13.77    7.01
   0  -6   9    7.44    7.95
   0  -6   9   11.17    6.70
   0  -6   9   22.43    7.43
   0  -5   0   -1.34    5.29
   0  -5   0    1.64    5.63
   0  -5   0    2.00    4.69
   0  -5   0    3.82    7.06
   0  -5   0    3.19    5.42
   0  -5   0    1.74    6.56
   0  -5   1  949.83   57.48
   0  -5  -1  949.97   54.94
   0  -5  -1  867.67   54.39
   0  -5  -1  881.62   48.22
   0  -5   1  939.69   56.37
   0  -5  -1 1009.28   62.17
   0  -5   1 1016.33   62.08
   0  -5   1  858.45   59.62
   0  -5  -1  896.36   58.47
   0  -5  -1  844.44   57.53
   0  -5   1  939.51   54.63
   0  -5   1  897.47   53.72
   0  -5  -1  972.38   58.49
   0  -5  -2 1294.97   73.28
   0  -5   2 1182.68   66.52
   0  -5  -2 1295.24   74.42
   0  -5   2 1257.99   70.68
   0  -5  -2 1273.74   74.85
   0  -5  -2 1369.07   75.11
   0  -5   2 1503.70   81.29
   0  -5   2 1310.41   70.16
   0  -5   2 1224.47   68.73
   0  -5   2 1362.50   74.61
   0  -5   2 1377.34   75.66
   0  -5   3  583.23   43.12
   0  -5   3  556.18   41.93
   0  -5   3  577.03   49.82
   0  -5  -3  624.14   48.09
   0  -5  -3  533.89   47.70
   0  -5   3  565.90   42.09
   0  -5   3  520.54   46.45
   0  -5   3  655.11   51.75
   0  -5   3  511.63   38.35
   0  -5  -3  598.21   47.98
   0  -5  -3  439.04   42.71
   0  -5  -3  598.19   47.22
   0  -5   3  631.20   54.50
   0  -5   4  163.70   22.10
   0  -5  -4  225.31   29.51
   0  -5  -4  204.58   25.16
   0  -5  -4  209.73   29.86
   0  -5   4  113.22   23.48
   0  -5  -4  233.15   31.75
   0  -5   4  225.97   31.20
   0  -5   4  190.75   30.48
   0  -5   4  157.10   30.39
   0  -5   4  198.36   24.58
   0  -5  -4  215.82   29.50
   0  -5   4  234.03   30.89
   0  -5  -4  216.85   30.28
   0  -5   4  234.08   26.74
   0  -5   4  219.28   26.44
   0  -5  -4  226.43   29.98
   0  -5  -5  665.71   50.77
   0  -5  -5  772.41   65.46
   0  -5   5  579.56   49.48
   0  -5  -5  611.58   55.68
   0  -5   5  439.00   47.12
   0  -5  -5  624.17   49.94
   0  -5  -5  733.88   68.79
   0  -5   5  676.95   50.08
   0  -5   5  692.93   63.34
   0  -5   5  510.02   58.10
   0  -5   5  548.02   54.09
   0  -5  -5  608.54   53.58
   0  -5   5  539.30   45.86
   0  -5   5  538.18   46.05
   0  -5  -5  683.20   60.33
   0  -5  -5  519.32   52.63
   0  -5  -5  574.65   47.16
   0  -5   6 1753.52  100.37
   0  -5   6 1358.16  103.09
   0  -5  -6 1598.39  107.14
   0  -5  -6 1546.31   88.91
   0  -5   6 1422.65   87.94
   0  -5   6 1968.47  103.62
   0  -5  -6 1845.94   96.40
   0  -5  -6 1432.06  101.58
   0  -5  -6 1505.86  107.49
   0  -5  -6 1401.73   92.22
   0  -5   6 1723.29  110.48
   0  -5   6 1535.11  102.36
   0  -5  -6 1702.93   97.92
   0  -5  -6 1749.47  104.52
   0  -5   6 1975.12  104.95
   0  -5   6 1780.76  116.01
   0  -5   6 1780.55   96.08
   0  -5  -6 1396.40   90.06
   0  -5   6 1892.35   98.81
   0  -5   7   65.37   19.87
   0  -5  -7   69.03   17.50
   0  -5  -7   89.27   21.10
   0  -5   7  104.12   26.50
   0  -5  -7   62.45   18.30
   0  -5   7   88.41   20.98
   0  -5   7   80.67   19.72
   0  -5   7   66.28   18.39
   0  -5   7   31.11   12.35
   0  -5   7   72.73   19.61
   0  -5   7   59.47   18.84
   0  -5  -7   46.59   14.57
   0  -5  -7   74.26   17.82
   0  -5  -7   73.57   22.59
   0  -5   8  217.50   29.97
   0  -5   8  162.51   26.60
   0  -5  -8  180.68   27.02
   0  -5  -8  170.05   25.77
   0  -5  -8  169.39   24.60
   0  -5   8  180.80   29.92
   0  -5   8  167.56   28.17
   0  -5  -8  125.66   24.61
   0  -5   8  146.32   25.29
   0  -5   8  167.81   29.68
   0  -5   9  320.20   34.96
   0  -5   9  312.05   36.31
   0  -5   9  293.04   36.32
   0  -5   9  349.12   36.33
   0  -5   9  281.81   30.40
   0  -5  -9  371.34   33.83
   0  -5  -9  452.10   37.14
   0  -5   9  237.85   33.17
   0  -5 -10  117.32   14.17
   0  -5  10  105.14   15.66
   0  -5  10   74.92   15.84
   0  -5  10   96.29   15.24
   0  -4   0 4998.23  184.88
   0  -4   0 4589.86  187.37
   0  -4   0 5117.31  196.22
   0  -4   1 2393.63  104.74
   0  -4  -1 2468.48  106.54
   0  -4   1 2238.62  102.16
   0  -4   1 2303.02  101.29
   0  -4  -1 2280.93  103.13
   0  -4  -1 2454.39  107.55
   0  -4  -1 2636.97  104.03
   0  -4  -1 2797.52  111.25
   0  -4  -1 2280.16   95.57
   0  -4   1 2635.04  104.23
   0  -4   1 2510.32  111.02
   0  -4   1 2651.47  110.83
   0  -4  -1 2382.01  108.12
   0  -4   2   90.86    9.22
   0  -4  -2   97.56   15.56
   0  -4  -2   94.54   15.97
   0  -4   2  105.93   15.15
   0  -4   2  102.14   14.81
   0  -4  -2   89.30   10.69
   0  -4   2   93.88   13.44
   0  -4   2  100.85   16.37
   0  -4   2  105.88   17.49
   0  -4  -2   90.62   14.99
   0  -4   2  116.07   15.47
   0  -4   2  113.35   17.13
   0  -4   2   94.34   14.06
   0  -4  -2   93.01   15.49
   0  -4   3 1119.61   60.90
   0  -4  -3 1171.92   62.09
   0  -4  -3 1355.82   69.26
   0  -4  -3 1286.49   69.32
   0  -4   3 1164.84   58.52
   0  -4  -3 1151.73   60.61
   0  -4  -3 1362.33   69.22
   0  -4   3 1232.54   63.46
   0  -4   3 1350.20   73.14
   0  -4   3 1028.37   64.91
   0  -4  -3 1048.39   65.83
   0  -4   3 1078.16   55.39
   0  -4   3 1334.56   68.81
   0  -4  -3 1264.92   66.53
   0  -4  -3 1268.43   75.24
   0  -4  -3  992.99   57.13
   0  -4  -3 1133.01   65.87
   0  -4   3 1102.53   59.57
   0  -4  -4 2048.42   96.67
   0  -4   4 1817.51   85.69
   0  -4  -4 2003.59   97.66
   0  -4   4 1969.91   97.30
   0  -4  -4 1676.03   88.33
   0  -4  -4 2025.56   96.97
   0  -4  -4 1487.29   85.14
   0  -4  -4 2083.05   96.45
   0  -4  -4 1573.87   81.41
   0  -4   4 1773.42   85.98
   0  -4   4 1462.11   79.77
   0  -4  -4 2047.68  107.81
   0  -4   4 1634.02   81.38
   0  -4  -4 1873.84   95.24
   0  -4  -4 1611.56   81.70
   0  -4   4 1535.60   94.01
   0  -4  -4 1815.97   86.29
   0  -4  -5  116.25   23.46
   0  -4   5  118.57   19.53
   0  -4   5  132.21   21.91
   0  -4  -5  131.35   21.07
   0  -4  -5  128.11   22.54
   0  -4   5  164.50   28.53
   0  -4  -5  143.80   20.29
   0  -4   5  131.62   20.17
   0  -4  -5  141.10   22.42
   0  -4  -5  135.38   20.81
   0  -4  -5  141.25   20.85
   0  -4  -5  136.49   22.27
   0  -4   5  144.95   21.09
   0  -4   5  169.31   26.55
   0  -4   5  131.40   24.54
   0  -4  -5  145.57   21.49
   0  -4   5  135.51   20.07
   0  -4   5  163.04   24.14
   0  -4  -5  124.44   22.86
   0  -4   5  141.00   22.63
   0  -4  -5  127.95   27.34
   0  -4   5  112.46   18.36
   0  -4  -5  129.28   22.89
   0  -4  -5  107.75   21.98
   0  -4  -5  137.17   24.10
   0  -4  -6  396.26   40.46
   0  -4  -6  321.58   43.00
   0  -4   6  333.58   34.27
   0  -4   6  369.84   42.25
   0  -4  -6  250.45   31.99
   0  -4  -6  315.24   35.69
   0  -4   6  412.16   47.12
   0  -4  -6  458.51   55.20
   0  -4   6  394.15   41.03
   0  -4   6  333.77   35.16
   0  -4   6  308.79   36.58
   0  -4  -6  361.08   38.76
   0  -4  -6  389.70   38.33
   0  -4  -6  377.47   39.08
   0  -4   6  424.40   39.85
   0  -4   6  396.34   39.97
   0  -4   6  460.23   43.62
   0  -4  -6  388.98   37.17
   0  -4   6  324.92   37.02
   0  -4   6  438.15   43.59
   0  -4  -6  359.41   44.81
   0  -4  -6  380.02   41.16
   0  -4  -6  345.05   42.74
   0  -4   7  299.03   35.12
   0  -4   7  321.90   45.41
   0  -4   7  352.78   40.89
   0  -4  -7  366.74   52.53
   0  -4  -7  264.75   35.67
   0  -4  -7  294.43   37.33
   0  -4  -7  293.70   42.32
   0  -4  -7  340.32   37.53
   0  -4   7  178.59   32.65
   0  -4   7  302.18   31.38
   0  -4  -7  363.13   38.38
   0  -4   7  315.60   39.21
   0  -4   7  291.46   35.91
   0  -4  -7  415.58   43.63
   0  -4   7  389.01   43.43
   0  -4   7  313.27   38.43
   0  -4  -7  311.55   45.84
   0  -4   7  276.70   38.62
   0  -4   7  317.85   36.88
   0  -4  -7  318.98   38.62
   0  -4  -8  259.05   33.54
   0  -4  -8  224.79   33.19
   0  -4  -8  247.28   34.33
   0  -4   8  280.98   36.42
   0  -4   8  245.34   36.15
   0  -4  -8  187.77   29.54
   0  -4   8  296.27   35.80
   0  -4   8  287.24   33.97
   0  -4  -8  348.94   45.85
   0  -4  -8  290.39   33.45
   0  -4   8  242.64   34.22
   0  -4   8  241.39   35.75
   0  -4   8  218.58   35.84
   0  -4  -8  307.15   35.46
   0  -4  -9   12.67   11.46
   0  -4   9   27.39   12.46
   0  -4  -9    6.12    7.73
   0  -4   9   11.58   10.71
   0  -4  -9   21.35   12.31
   0  -4   9   15.20   11.01
   0  -4   9   19.12   11.87
   0  -4   9    9.93    7.19
   0  -4   9   15.86   10.46
   0  -4  -9   39.53   10.95
   0  -4   9   17.68   10.08
   0  -4   9   12.18    9.53
   0  -4 -10  189.81   22.98
   0  -4  10  156.32   24.35
   0  -4  10  220.47   26.88
   0  -4  10  154.93   21.29
   0  -3   0   -0.57    3.90
   0  -3   0    1.05    3.61
   0  -3   0    1.96    3.95
   0  -3   0    2.00    4.13
   0  -3   1 3221.93  121.37
   0  -3  -1 3284.47  129.28
   0  -3   1 3901.12  128.35
   0  -3   1 3440.42  125.93
   0  -3   1 3581.09  127.14
   0  -3  -1 3306.74  119.05
   0  -3  -1 2948.87  113.48
   0  -3   1 2877.16  111.76
   0  -3  -1 3562.58  130.04
   0  -3   1 3823.76  133.12
   0  -3  -1 4056.21  133.27
   0  -3  -1 3875.03  130.79
   0  -3  -2 2237.15  102.14
   0  -3   2 2410.24   95.92
   0  -3  -2 2281.71   98.58
   0  -3  -2 2505.47   98.88
   0  -3   2 2423.11  100.08
   0  -3  -2 2370.16   97.15
   0  -3   2 2473.78   99.90
   0  -3   2 2058.81   86.81
   0  -3  -2 2509.50  101.62
   0  -3   2 2273.18   94.19
   0  -3  -2 2360.64   98.45
   0  -3  -3  654.05   42.40
   0  -3  -3  572.81   37.55
   0  -3   3  708.53   43.14
   0  -3   3  617.27   35.45
   0  -3   3  708.90   46.29
   0  -3   3  670.82   44.01
   0  -3  -3  742.10   43.25
   0  -3  -3  664.07   42.78
   0  -3  -3  719.80   43.05
   0  -3  -3  743.10   49.15
   0  -3   3  685.53   39.42
   0  -3  -3  701.56   43.18
   0  -3   3  581.59   36.68
   0  -3   3  543.50   34.13
   0  -3  -3  588.04   36.32
   0  -3   4  194.84   20.64
   0  -3  -4  226.95   22.86
   0  -3  -4  238.74   26.87
   0  -3  -4  248.15   30.92
   0  -3   4  231.80   25.07
   0  -3  -4  240.58   25.69
   0  -3   4  188.74   24.48
   0  -3  -4  215.50   22.60
   0  -3  -4  201.43   23.65
   0  -3   4  236.37   28.80
   0  -3   4  244.80   25.29
   0  -3  -4  201.44   21.71
   0  -3  -4  223.14   23.89
   0  -3   4  185.04   19.53
   0  -3   4  222.01   22.12
   0  -3  -4  233.36   25.97
   0  -3  -4  200.25   24.54
   0  -3   5 1856.51   97.54
   0  -3  -5 1857.68   88.96
   0  -3  -5 1950.07   90.71
   0  -3   5 1733.64   89.03
   0  -3  -5 1292.16   86.50
   0  -3  -5 1470.09   79.77
   0  -3  -5 1869.40   91.18
   0  -3  -5 1705.87   94.20
   0  -3  -5 1780.97   86.15
   0  -3  -5 1707.87   85.52
   0  -3  -5 1656.29   85.51
   0  -3  -5 1753.85   90.05
   0  -3   5 1846.61   91.32
   0  -3   5 1914.84   95.09
   0  -3  -5 1909.41  106.58
   0  -3   5 1811.84   87.76
   0  -3   5 1226.45   75.78
   0  -3   5 1990.56   92.80
   0  -3   5 1883.53   90.33
   0  -3  -5 1891.70   97.64
   0  -3  -5 1366.00   81.62
   0  -3  -5 1474.36   91.73
   0  -3   6 1695.68  100.35
   0  -3  -6 1613.92   91.23
   0  -3  -6 1671.01  100.94
   0  -3  -6 1576.95   89.58
   0  -3  -6 1637.35   88.37
   0  -3   6 1756.04   92.96
   0  -3  -6 1478.80   82.96
   0  -3  -6 1597.96   90.32
   0  -3  -6 1201.62   76.66
   0  -3   6 1557.01   89.32
   0  -3  -6 1468.75   85.04
   0  -3  -6 1639.68   90.36
   0  -3  -6 1662.46   91.31
   0  -3  -6 1680.68   88.17
   0  -3   6 1726.78   93.94
   0  -3  -6 1892.80  114.22
   0  -3   6 1550.01   91.92
   0  -3   6 1754.45   93.74
   0  -3  -6 1547.64   99.66
   0  -3   6 1502.17   87.99
   0  -3  -6 1613.54   99.45
   0  -3  -7  458.95   54.10
   0  -3  -7  457.31   44.23
   0  -3  -7  423.11   41.92
   0  -3   7  431.36   39.82
   0  -3  -7  496.58   48.36
   0  -3   7  415.17   46.00
   0  -3   7  563.28   50.49
   0  -3   7  532.20   46.12
   0  -3  -7  500.78   59.98
   0  -3  -7  534.98   58.62
   0  -3  -7  470.31   45.46
   0  -3   7  458.97   52.03
   0  -3   7  559.22   52.18
   0  -3  -7  513.18   49.50
   0  -3  -7  549.40   46.93
   0  -3   7  437.10   42.78
   0  -3   7  532.52   50.26
   0  -3   7  553.28   50.79
   0  -3  -7  563.91   51.80
   0  -3   7  438.60   46.25
   0  -3   7  476.14   48.21
   0  -3  -7  521.61   46.04
   0  -3   7  522.82   55.38
   0  -3  -8  251.09   33.30
   0  -3   8  265.33   35.31
   0  -3   8  209.02   30.01
   0  -3   8  246.86   35.15
   0  -3   8  222.30   37.72
   0  -3   8  199.92   31.91
   0  -3  -8  235.51   34.17
   0  -3  -8  226.40   38.34
   0  -3   8  262.90   37.15
   0  -3  -8  285.76   41.56
   0  -3   8  198.75   26.24
   0  -3  -8  145.61   22.39
   0  -3  -8  247.31   31.76
   0  -3  -8  326.87   47.10
   0  -3   8  197.89   29.48
   0  -3  -8  203.35   34.74
   0  -3  -8  216.49   31.57
   0  -3   8  259.11   36.44
   0  -3  -8  141.69   25.79
   0  -3   8  201.16   35.38
   0  -3  -8  264.63   35.97
   0  -3  -8  311.13   36.49
   0  -3   9  727.55   62.98
   0  -3   9  838.75   60.88
   0  -3  -9  718.53   61.51
   0  -3  -9  727.12   51.91
   0  -3   9  926.60   65.91
   0  -3   9  769.26   65.24
   0  -3   9  650.18   49.76
   0  -3   9  762.32   65.18
   0  -3  -9  750.30   61.05
   0  -3  -9  846.41   62.74
   0  -3  10  218.73   26.87
   0  -3  10  165.81   27.08
   0  -3 -10  201.25   26.55
   0  -3 -10  313.73   24.39
   0  -3  10  194.94   28.88
   0  -3 -10  261.18   29.02
   0  -3  10  196.93   24.05
   0  -3  10  250.85   30.21
   0  -2   0 3848.39  123.16
   0  -2   0 3454.55  123.69
   0  -2   0 3198.59  123.16
   0  -2   0 2922.88  118.22
   0  -2   0 3382.95  118.28
   0  -2   1 7188.95  267.90
   0  -2  -1 7811.78  279.36
   0  -2   1 8220.16  276.17
   0  -2  -1 7800.52  270.40
   0  -2   1 9092.18  278.53
   0  -2  -1 8556.71  279.00
   0  -2   1 7887.08  273.23
   0  -2   1 8624.00  277.36
   0  -2  -1 8821.11  278.70
   0  -2  -2 1278.87   57.34
   0  -2  -2 1365.61   58.04
   0  -2   2 1106.50   52.33
   0  -2  -2 1412.66   58.66
   0  -2   2 1260.11   52.44
   0  -2  -2 1365.31   59.20
   0  -2   2 1172.68   57.74
   0  -2   2 1425.23   60.97
   0  -2   2 1336.46   57.83
   0  -2  -2 1310.71   61.28
   0  -2  -2 1324.00   58.62
   0  -2   3 4404.99  151.17
   0  -2  -3 3537.76  144.43
   0  -2  -3 4385.20  150.86
   0  -2  -3 3714.52  147.31
   0  -2   3 3352.97  149.68
   0  -2  -3 4379.99  159.05
   0  -2  -3 3703.77  143.17
   0  -2   3 3183.59  146.12
   0  -2   3 3824.45  143.85
   0  -2  -3 4466.56  152.27
   0  -2  -3 4087.18  151.33
   0  -2   4  874.08   53.31
   0  -2   4  748.40   46.87
   0  -2  -4 1070.68   55.17
   0  -2  -4  966.80   57.91
   0  -2  -4 1038.52   54.85
   0  -2  -4 1026.44   53.46
   0  -2  -4 1000.17   63.04
   0  -2  -4 1027.25   52.58
   0  -2   4 1201.33   61.78
   0  -2  -4  910.70   56.38
   0  -2   4 1143.67   55.26
   0  -2   4  976.72   55.10
   0  -2   4 1185.45   59.72
   0  -2  -4  963.86   55.80
   0  -2  -4 1084.53   55.62
   0  -2  -5  251.81   31.01
   0  -2   5  323.72   33.50
   0  -2  -5  274.64   28.43
   0  -2   5  330.12   30.78
   0  -2  -5  282.04   27.50
   0  -2   5  292.12   28.63
   0  -2  -5  243.20   24.18
   0  -2   5  239.88   23.08
   0  -2  -5  290.14   28.80
   0  -2  -5  325.09   34.18
   0  -2   5  347.07   31.94
   0  -2  -5  302.16   29.40
   0  -2   5  308.40   32.89
   0  -2   5  296.25   29.82
   0  -2  -5  341.77   38.00
   0  -2  -5  260.85   27.48
   0  -2  -6  550.03   46.56
   0  -2  -6  489.95   50.84
   0  -2  -6  463.56   40.47
   0  -2  -6  470.29   40.87
   0  -2  -6  526.75   43.26
   0  -2   6  516.70   44.92
   0  -2  -6  538.75   45.24
   0  -2  -6  571.98   53.15
   0  -2   6  465.24   42.87
   0  -2  -6  529.51   45.43
   0  -2  -6  555.64   43.45
   0  -2  -6  495.68   40.67
   0  -2   6  590.90   47.14
   0  -2  -6  585.43   55.88
   0  -2   6  542.81   42.63
   0  -2   6  592.16   51.51
   0  -2   6  589.77   47.88
   0  -2   6  557.16   50.06
   0  -2  -7  527.26   46.99
   0  -2  -7  539.84   60.23
   0  -2  -7  713.99   63.38
   0  -2   7  612.51   57.83
   0  -2   7  490.17   46.48
   0  -2   7  746.81   58.19
   0  -2  -7  598.29   49.89
   0  -2  -7  623.52   53.97
   0  -2   7  546.51   49.14
   0  -2   7  536.78   51.42
   0  -2  -7  520.05   58.09
   0  -2   7  561.62   54.23
   0  -2  -7  600.48   49.63
   0  -2   7  543.62   50.61
   0  -2   7  635.47   55.10
   0  -2   7  551.00   46.20
   0  -2  -7  572.86   48.14
   0  -2  -7  414.03   41.70
   0  -2  -7  595.41   53.61
   0  -2   8  470.56   46.61
   0  -2   8  429.53   48.08
   0  -2  -8  517.69   48.48
   0  -2   8  407.62   48.40
   0  -2  -8  518.92   51.15
   0  -2  -8  559.76   48.72
   0  -2   8  418.31   51.24
   0  -2   8  441.11   45.08
   0  -2  -8  492.80   50.86
   0  -2   8  455.77   42.43
   0  -2   8  451.12   49.90
   0  -2   8  426.77   47.87
   0  -2  -8  306.14   35.24
   0  -2  -8  487.54   45.31
   0  -2   8  495.48   45.07
   0  -2  -8  405.54   54.00
   0  -2   8  357.34   45.31
   0  -2  -8  461.54   54.73
   0  -2  -9   35.15   16.55
   0  -2   9   44.31   16.19
   0  -2  -9   41.23   16.34
   0  -2  -9   43.17   10.20
   0  -2   9   15.07   12.17
   0  -2   9   34.37   15.22
   0  -2  -9   35.93   13.43
   0  -2  -9   44.23   16.73
   0  -2   9   39.22   14.72
   0  -2  -9   52.84   15.33
   0  -2 -10   80.40   18.20
   0  -2 -10  109.40   15.30
   0  -2 -10   66.92   13.58
   0  -2 -10   95.05   19.13
   0  -2 -10   46.68   17.00
   0  -2  10   55.60   15.72
   0  -2  10   86.83   18.42
   0  -2  10   72.32   15.37
   0  -2 -11  184.89   22.78
   0  -1   0    0.77    1.47
   0  -1   0    0.46    1.51
   0  -1   0   -0.46    1.44
   0  -1   1  506.07   23.42
   0  -1  -1  455.29   22.04
   0  -1   1  411.10   20.33
   0  -1  -1  482.85   22.92
   0  -1   1  462.37   19.85
   0  -1  -1  472.98   22.28
   0  -1   1  501.42   22.18
   0  -1  -1  456.16   23.41
   0  -1  -2 2679.72   97.52
   0  -1  -2 2695.07   93.68
   0  -1  -2 2674.25   93.97
   0  -1  -2 2647.71   92.33
   0  -1   3  604.66   34.34
   0  -1  -3  472.34   30.55
   0  -1  -3  479.50   32.38
   0  -1  -3  544.45   36.62
   0  -1  -3  485.40   32.17
   0  -1   3  567.79   31.19
   0  -1  -3  514.34   31.48
   0  -1   3  608.48   33.55
   0  -1  -4  417.88   28.92
   0  -1  -4  428.37   31.83
   0  -1   4  508.49   33.74
   0  -1   4  520.32   36.36
   0  -1  -4  466.83   31.45
   0  -1   4  478.60   32.55
   0  -1   4  461.55   31.73
   0  -1  -4  358.85   26.35
   0  -1  -4  469.79   35.51
   0  -1  -4  413.75   31.05
   0  -1   4  482.61   34.89
   0  -1   4  461.39   32.16
   0  -1  -4  392.84   31.60
   0  -1  -4  436.98   35.01
   0  -1  -5 2199.35  100.12
   0  -1   5 2335.50  100.96
   0  -1   5 2188.26   99.52
   0  -1  -5 2242.57   98.05
   0  -1  -5 2238.25   98.18
   0  -1  -5 2273.37  107.98
   0  -1  -5 2178.90  100.36
   0  -1   5 2272.53  104.58
   0  -1   5 2267.40  104.76
   0  -1   5 2227.52  101.08
   0  -1  -5 2152.36   94.64
   0  -1   5 2167.22   97.86
   0  -1  -6 2038.26  101.54
   0  -1  -6 1734.39   92.39
   0  -1  -6 2072.43  101.07
   0  -1  -6 1609.01   87.10
   0  -1  -6 1836.05   93.49
   0  -1   6 1707.53   91.30
   0  -1  -6 1707.01   90.39
   0  -1   6 2013.99  100.93
   0  -1   6 1942.71   98.36
   0  -1  -6 1948.39   95.33
   0  -1  -6 1802.35   91.49
   0  -1  -6 1977.41   96.03
   0  -1   6 1941.83   99.48
   0  -1   6 1907.38   98.19
   0  -1   6 1972.74   95.66
   0  -1   6 1907.93  100.59
   0  -1  -6 1744.00  104.77
   0  -1  -6 1946.63   96.14
   0  -1  -7  264.05   32.46
   0  -1  -7  202.82   29.00
   0  -1  -7  231.71   30.72
   0  -1   7  225.84   31.95
   0  -1   7  263.67   31.36
   0  -1  -7  230.20   29.78
   0  -1   7  189.01   26.09
   0  -1  -7  245.76   31.37
   0  -1   7  229.03   32.19
   0  -1  -7  263.82   31.32
   0  -1  -7  255.96   37.22
   0  -1  -7  230.79   33.61
   0  -1   7  221.08   31.33
   0  -1  -7  232.63   37.84
   0  -1   7  201.84   27.01
   0  -1  -7  227.32   31.91
   0  -1   7  212.86   31.72
   0  -1   7  229.61   33.05
   0  -1   8  121.46   26.45
   0  -1   8  180.34   28.39
   0  -1   8  177.30   26.36
   0  -1  -8  169.79   25.36
   0  -1  -8  184.91   29.04
   0  -1  -8  155.33   34.20
   0  -1  -8  138.83   24.47
   0  -1   8  166.96   27.01
   0  -1  -8  178.77   30.04
   0  -1   8  153.86   27.19
   0  -1  -8  141.64   31.24
   0  -1   8  189.86   31.88
   0  -1  -8  165.20   33.26
   0  -1  -8  185.03   28.22
   0  -1  -8  205.59   33.15
   0  -1  -8  168.11   26.94
   0  -1   8  160.35   29.13
   0  -1  -8  152.70   24.47
   0  -1   8  149.54   28.63
   0  -1  -8  181.32   29.45
   0  -1   8  158.20   29.61
   0  -1  -9  608.11   56.77
   0  -1   9  583.53   48.65
   0  -1  -9  620.70   54.47
   0  -1   9  603.89   53.09
   0  -1  -9  470.71   42.66
   0  -1  -9  588.77   49.10
   0  -1   9  476.08   51.11
   0  -1   9  589.70   53.06
   0  -1   9  590.33   58.64
   0  -1  -9  731.26   52.67
   0  -1  -9  583.90   57.33
   0  -1   9  524.31   54.37
   0  -1  10  285.64   33.58
   0  -1  10  133.04   26.55
   0  -1  10  239.58   30.05
   0  -1 -10  239.19   32.76
   0  -1 -10  210.22   24.72
   0  -1 -10  246.87   33.94
   0  -1  10  268.54   35.92
   0  -1  11   10.32    6.66
   0  -1  11   21.39    8.07
   0  -1 -11   18.41    9.08
   0   0  -1    7.22    2.71
   0   0  -1    7.40    2.48
   0   0   1    5.52    2.01
   0   0  -1    9.32    2.72
   0   0   1    7.96    2.10
   0   0  -1    6.34    2.34
   0   0   1   11.59    2.63
   0   0   2  150.21   13.50
   0   0   2  144.19   11.44
   0   0  -2  124.42   12.50
   0   0   2  139.79   12.66
   0   0  -2  124.06   12.59
   0   0  -2  115.74   10.95
   0   0  -2  118.79   11.88
   0   0  -2  141.36   12.81
   0   0   3 3273.04  120.23
   0   0   3 3244.05  121.86
   0   0   3 3382.27  124.37
   0   0   3 3600.33  128.73
   0   0  -3 3033.63  120.67
   0   0  -3 2983.18  124.56
   0   0  -3 2974.21  123.25
   0   0  -4 1137.79   55.98
   0   0   4 1146.33   53.85
   0   0  -4  939.74   54.99
   0   0   4 1155.15   58.27
   0   0  -4 1022.20   55.44
   0   0   4 1086.10   55.89
   0   0   4 1133.42   56.56
   0   0  -4 1065.56   54.38
   0   0  -4  982.79   50.48
   0   0   4 1244.89   59.49
   0   0   4 1094.54   56.65
   0   0  -4 1093.11   60.62
   0   0  -4  932.93   56.56
   0   0   4 1089.71   55.57
   0   0   4 1341.06   64.93
   0   0  -4 1071.01   54.83
   0   0  -4 1105.72   53.61
   0   0  -5  622.92   38.48
   0   0  -5 1040.75   57.00
   0   0   5 1049.23   57.62
   0   0  -5  955.11   50.79
   0   0   5 1007.22   57.41
   0   0  -5  938.60   61.40
   0   0   5 1033.44   59.02
   0   0  -5  988.78   56.89
   0   0  -5 1027.40   58.81
   0   0  -5  746.11   41.05
   0   0   5 1032.69   58.26
   0   0   5 1083.29   64.41
   0   0  -5  978.99   53.34
   0   0  -5  858.90   57.67
   0   0   5 1069.39   57.95
   0   0  -5 1058.50   57.11
   0   0  -5 1032.29   54.00
   0   0   5 1018.87   56.90
   0   0   5  969.42   51.64
   0   0   6  379.13   36.41
   0   0   6  368.29   36.49
   0   0  -6  347.50   32.38
   0   0  -6  316.05   35.36
   0   0  -6  355.52   33.98
   0   0   6  300.60   28.99
   0   0  -6  338.29   33.90
   0   0  -6  431.68   44.13
   0   0  -6  346.97   34.75
   0   0   6  364.95   36.39
   0   0  -6  320.85   30.60
   0   0   6  367.41   31.96
   0   0  -6  358.49   35.94
   0   0   6  392.84   38.18
   0   0  -6  388.29   37.24
   0   0  -6  370.21   34.31
   0   0   6  381.92   38.39
   0   0  -6  372.54   34.10
   0   0   6  366.41   35.82
   0   0  -6  408.95   41.93
   0   0  -6  417.12   37.28
   0   0   6  356.38   37.06
   0   0   6  350.48   30.48
   0   0  -7 1105.48   67.62
   0   0  -7 1013.32   70.57
   0   0  -7 1030.61   66.25
   0   0  -7  975.10   64.48
   0   0  -7  959.11   67.62
   0   0   7 1035.81   63.37
   0   0  -7  973.98   67.54
   0   0   7  926.14   63.42
   0   0   7  851.65   58.64
   0   0   7  879.66   59.26
   0   0  -7  887.97   63.16
   0   0  -7  878.69   63.26
   0   0   7  954.08   67.61
   0   0  -7 1039.45   78.04
   0   0  -7  892.69   63.70
   0   0   7  905.12   67.43
   0   0   7  839.00   63.99
   0   0   7  959.71   71.11
   0   0   7  950.98   71.19
   0   0  -7 1034.48   71.11
   0   0   7 1029.14   74.22
   0   0  -7  875.32   65.01
   0   0  -7  918.32   78.52
   0   0  -7 1024.69   72.76
   0   0  -7 1070.52   79.96
   0   0   7  963.06   69.49
   0   0   8  363.07   37.18
   0   0  -8  338.11   44.19
   0   0   8  384.80   45.10
   0   0   8  379.03   37.82
   0   0   8  382.29   44.11
   0   0  -8  387.14   40.35
   0   0   8  376.04   46.66
   0   0   8  290.00   34.52
   0   0   8  337.69   34.71
   0   0   8  365.30   40.19
   0   0  -8  347.83   48.04
   0   0   8  406.91   43.27
   0   0  -8  409.95   39.66
   0   0  -8  404.93   40.65
   0   0   8  360.70   41.44
   0   0  -8  355.23   39.79
   0   0  -8  377.72   52.00
   0   0  -8  384.05   45.09
   0   0  -8  416.15   44.09
   0   0  -8  405.97   51.50
   0   0   8  359.11   45.16
   0   0   8  385.98   45.74
   0   0   8  344.86   43.79
   0   0  -8  433.26   46.72
   0   0  -8  385.38   40.57
   0   0  -8  399.65   43.42
   0   0   8  291.48   37.77
   0   0   9    4.40    8.85
   0   0  -9    3.24    8.18
   0   0   9   18.12   11.16
   0   0  -9   10.48   12.61
   0   0  -9   -1.18    8.28
   0   0  -9    1.44   11.36
   0   0  -9   35.08   11.10
   0   0  -9   15.92   12.32
   0   0  -9    1.28   11.29
   0   0  -9   14.73   12.10
   0   0   9    3.27    9.13
   0   0   9    1.13    8.16
   0   0   9   10.56    9.03
   0   0   9    1.85   10.74
   0   0  10  193.56   31.83
   0   0 -10  210.88   31.27
   0   0  10  134.75   24.30
   0   0  10  234.14   30.47
   0   0 -10  218.99   31.31
   0   0  10  240.47   28.73
   0   0  11  276.75   27.09
   0   0 -11  299.62   27.62
   0   1   0   -0.28    1.19
   0   1   0    1.89    1.51
   0   1   0    0.54    1.02
   0   1   1  414.51   20.05
   0   1  -1  375.15   16.32
   0   1   1  413.48   19.95
   0   1  -1  395.03   19.10
   0   1   1  409.65   18.09
   0   1  -2 2034.81   72.05
   0   1  -2 2225.18   77.75
   0   1   2 1752.04   72.55
   0   1  -2 1713.19   75.61
   0   1  -2 2124.71   77.29
   0   1   2 1622.30   72.89
   0   1   3  653.99   34.31
   0   1  -3  582.06   36.65
   0   1   3  652.56   29.20
   0   1   3  588.24   34.02
   0   1  -3  439.63   26.94
   0   1  -3  609.76   36.43
   0   1   3  652.01   33.56
   0   1  -3  591.51   36.52
   0   1  -3  445.33   31.64
   0   1   3  658.84   37.26
   0   1  -4  316.97   22.41
   0   1  -4  436.93   31.40
   0   1   4  393.14   30.16
   0   1   4  481.89   31.40
   0   1  -4  447.20   31.04
   0   1  -4  414.56   31.67
   0   1  -4  427.69   32.47
   0   1  -4  434.66   31.18
   0   1  -4  465.94   35.93
   0   1  -4  401.47   26.06
   0   1   4  499.79   36.24
   0   1   4  412.64   32.25
   0   1   4  388.33   24.90
   0   1   4  407.15   31.63
   0   1  -4  492.99   36.71
   0   1   4  444.58   32.34
   0   1   4  464.67   32.28
   0   1  -4  432.37   34.51
   0   1   5 1909.85   91.45
   0   1   5 2461.09  111.28
   0   1   5 2282.65  107.19
   0   1  -5 2117.37  109.58
   0   1   5 2372.20  108.44
   0   1  -5 2257.53   98.61
   0   1  -5 2520.50  110.09
   0   1   5 2266.65  105.24
   0   1  -5 2547.46  115.42
   0   1  -5 2356.64  103.97
   0   1   5 2611.85  115.47
   0   1   5 1900.53   97.79
   0   1  -5 2515.74  109.44
   0   1   5 2476.82  107.74
   0   1   5 2300.52  102.64
   0   1  -5 2449.29  114.11
   0   1  -5 2136.15   95.62
   0   1   5 2342.69  106.35
   0   1  -5 2436.56  106.77
   0   1  -5 2224.71  103.14
   0   1  -6 1906.61   99.65
   0   1  -6 2045.02   99.69
   0   1  -6 1803.70   94.30
   0   1   6 1671.23   90.00
   0   1   6 1854.69   97.93
   0   1  -6 1960.13  100.41
   0   1   6 1406.67   84.07
   0   1  -6 1684.18   85.82
   0   1   6 1732.00   94.65
   0   1  -6 1611.40   99.38
   0   1  -6 1875.79   89.94
   0   1   6 1776.88   90.13
   0   1  -6 2065.84   97.67
   0   1  -6 1908.66   93.91
   0   1   6 1951.08  101.14
   0   1   6 1699.58   88.90
   0   1   6 1903.30   98.59
   0   1   6 1767.16   89.20
   0   1   6 1972.44  104.10
   0   1   6 1973.63  105.54
   0   1  -6 1756.48   94.15
   0   1   6 1878.66   99.16
   0   1  -6 1730.58   92.12
   0   1  -6 1875.18   94.18
   0   1  -6 2077.75  107.81
   0   1  -6 1969.86  107.29
   0   1  -6 1907.52   98.00
   0   1  -7  181.90   34.79
   0   1  -7  207.30   29.92
   0   1   7  176.32   29.07
   0   1   7  241.42   33.59
   0   1  -7  235.26   36.55
   0   1  -7  224.33   28.96
   0   1   7  208.10   31.37
   0   1  -7  223.20   32.82
   0   1  -7  197.56   27.85
   0   1  -7  225.98   30.82
   0   1   7  169.82   26.54
   0   1   7  208.93   26.95
   0   1  -7  248.58   30.35
   0   1   7  204.86   31.04
   0   1  -7  216.28   30.31
   0   1   7  190.72   25.14
   0   1  -7  199.48   30.18
   0   1   7  241.15   35.46
   0   1  -7  199.80   32.64
   0   1   7  173.94   26.13
   0   1   7  193.39   25.85
   0   1  -7  207.63   31.34
   0   1  -7  218.62   27.70
   0   1  -8  155.55   24.59
   0   1   8  152.69   24.12
   0   1  -8  191.06   37.06
   0   1  -8  142.58   32.14
   0   1  -8  166.39   27.95
   0   1  -8  144.78   24.18
   0   1   8   88.19   19.37
   0   1  -8  141.91   27.32
   0   1  -8  126.94   26.13
   0   1   8  125.18   26.85
   0   1   8  149.77   27.20
   0   1   8  142.86   23.43
   0   1  -8  140.98   26.87
   0   1  -8  121.16   23.04
   0   1   8  144.62   27.98
   0   1  -8  142.69   27.81
   0   1   8  157.80   23.45
   0   1  -8  167.13   31.34
   0   1   8  171.79   29.84
   0   1   8  169.20   31.97
   0   1   8  167.79   25.90
   0   1   8  112.71   25.53
   0   1   9  574.26   47.85
   0   1  -9  610.22   51.71
   0   1  -9  576.53   45.10
   0   1   9  507.97   41.99
   0   1   9  489.86   45.72
   0   1  -9  562.58   54.40
   0   1   9  586.18   60.76
   0   1  -9  463.33   50.11
   0   1   9  413.58   47.90
   0   1  -9  536.16   48.04
   0   1  10  237.50   34.44
   0   1 -10  235.42   27.21
   0   1  10  218.75   26.49
   0   1 -10  307.27   35.43
   0   1 -11   14.20    8.07
   0   1  11    9.75    6.84
   0   1 -11    7.63    7.37
   0   2   0 3349.80  122.19
   0   2   0 3445.51  120.32
   0   2   0 3205.27  124.51
   0   2   1 7794.13  267.42
   0   2  -1 8570.14  274.39
   0   2   1 7660.49  270.98
   0   2   1 8311.48  274.04
   0   2  -1 8318.38  273.17
   0   2  -1 8398.17  268.77
   0   2   2 1288.19   51.68
   0   2   2 1448.01   54.12
   0   2   2 1268.36   56.70
   0   2   2 1323.03   56.32
   0   2  -2 1359.91   54.73
   0   2   3 3393.60  104.11
   0   2   3 3754.98  109.39
   0   2  -3 3718.87  103.39
   0   2  -3 4048.50  113.21
   0   2   3 3933.23  100.35
   0   2   3 3790.65   83.81
   0   2   3 3844.63  109.48
   0   2   3 4197.73  104.09
   0   2  -3 3142.67  105.35
   0   2  -4 1236.81   64.06
   0   2   4 1037.28   59.64
   0   2   4 1233.40   58.65
   0   2  -4 1085.65   59.32
   0   2   4 1336.82   56.47
   0   2  -4 1104.37   63.61
   0   2   4 1057.68   58.63
   0   2  -4  971.43   59.93
   0   2   4 1286.21   60.59
   0   2   4  868.72   57.90
   0   2   4 1002.75   57.66
   0   2  -4 1122.59   63.62
   0   2   4  779.88   54.74
   0   2   4  914.56   43.01
   0   2  -4 1162.36   59.57
   0   2  -4 1207.01   57.99
   0   2  -4 1225.27   59.08
   0   2  -4 1221.29   60.16
   0   2  -4  960.80   61.10
   0   2  -4 1187.57   60.16
   0   2  -4  895.17   46.68
   0   2  -5  327.56   33.46
   0   2  -5  259.16   28.75
   0   2  -5  208.06   29.67
   0   2   5  267.20   30.10
   0   2  -5  246.79   22.97
   0   2  -5  262.41   28.39
   0   2  -5  258.44   28.08
   0   2  -5  266.10   32.35
   0   2  -5  274.98   28.96
   0   2   5  307.96   29.86
   0   2  -5  288.48   32.20
   0   2   5  250.90   27.44
   0   2   5  262.75   27.08
   0   2  -5  251.83   27.37
   0   2   5  257.87   29.59
   0   2   5  295.39   32.58
   0   2   5  260.38   30.41
   0   2   5  258.95   28.77
   0   2   5  243.85   24.10
   0   2  -6  537.34   48.53
   0   2  -6  536.95   45.68
   0   2   6  418.89   42.28
   0   2  -6  437.27   40.59
   0   2  -6  424.05   47.63
   0   2   6  504.62   40.34
   0   2  -6  490.81   51.86
   0   2   6  541.35   50.32
   0   2  -6  511.74   43.83
   0   2  -6  529.27   47.05
   0   2   6  438.97   35.54
   0   2  -6  539.27   52.23
   0   2   6  396.60   38.49
   0   2  -6  498.72   42.02
   0   2   6  493.53   44.97
   0   2  -6  500.40   47.75
   0   2  -6  471.83   43.40
   0   2  -6  544.98   47.63
   0   2   6  488.58   42.06
   0   2  -6  516.22   43.49
   0   2  -6  476.58   43.00
   0   2   6  450.54   37.27
   0   2   6  529.20   45.73
   0   2   6  494.35   43.25
   0   2  -6  501.59   45.15
   0   2   6  506.85   41.43
   0   2   6  522.27   47.47
   0   2   6  529.62   49.61
   0   2  -6  434.98   35.83
   0   2  -6  465.95   44.96
   0   2  -7  677.92   50.09
   0   2  -7  740.33   62.07
   0   2   7  706.28   60.25
   0   2   7  630.50   56.12
   0   2   7  614.86   46.73
   0   2   7  795.78   64.57
   0   2  -7  774.65   62.27
   0   2  -7  706.10   61.31
   0   2  -7  739.40   68.44
   0   2   7  793.31   68.33
   0   2  -7  747.03   55.47
   0   2  -7  828.55   63.57
   0   2  -7  757.45   57.29
   0   2   7  719.37   53.63
   0   2   7  745.06   55.93
   0   2  -7  711.25   62.41
   0   2  -7  820.41   63.62
   0   2   7  658.23   57.40
   0   2  -7  648.54   67.05
   0   2  -7  720.71   58.98
   0   2   7  674.16   54.27
   0   2  -7  728.49   62.62
   0   2  -7  738.92   58.13
   0   2   7  722.40   60.31
   0   2  -7  625.81   55.85
   0   2   7  755.82   63.24
   0   2  -8  457.14   47.60
   0   2  -8  503.57   44.02
   0   2   8  430.46   48.43
   0   2  -8  407.07   43.52
   0   2   8  442.13   46.21
   0   2  -8  469.45   50.34
   0   2  -8  458.00   48.92
   0   2   8  484.05   45.23
   0   2   8  416.09   41.56
   0   2   8  425.49   48.31
   0   2  -8  493.16   58.47
   0   2   8  376.57   35.13
   0   2  -8  430.12   42.62
   0   2  -8  378.18   48.79
   0   2   8  360.78   38.43
   0   2  -8  508.61   53.55
   0   2   8  359.69   41.29
   0   2  -8  421.50   47.84
   0   2  -8  390.81   53.91
   0   2  -8  344.10   38.19
   0   2   8  380.62   43.67
   0   2   8  420.27   45.21
   0   2  -8  485.59   49.00
   0   2   8  501.28   56.49
   0   2   8  414.97   49.68
   0   2   9   36.01   17.60
   0   2  -9   29.18   13.24
   0   2   9   29.76   11.85
   0   2   9   44.99   14.45
   0   2  -9   27.40   14.92
   0   2   9   31.52   12.37
   0   2   9   31.44   13.29
   0   2  -9   63.44   19.35
   0   2   9   31.69   14.18
   0   2  -9   37.42   16.15
   0   2  -9   57.46   19.32
   0   2  10   80.00   17.78
   0   2 -10   60.91   17.71
   0   2 -10   77.96   18.52
   0   2  10   69.62   15.01
   0   2 -10   82.50   19.04
   0   2 -10   45.74   16.12
   0   2  10   46.99   16.86
   0   2 -11  199.97   20.49
   0   2 -11  246.55   26.75
   0   3   0    0.32    3.47
   0   3   0    2.43    3.93
   0   3   0    0.38    2.97
   0   3   0    1.96    3.28
   0   3   0    0.21    2.95
   0   3   1 3042.11  110.66
   0   3  -1 2915.84  106.83
   0   3  -1 3334.92  117.78
   0   3  -1 2836.67  116.68
   0   3  -1 3566.24  121.76
   0   3   1 3344.10  120.74
   0   3   1 2960.38  114.33
   0   3   1 3182.44  117.63
   0   3  -1 2572.14  113.52
   0   3  -1 3571.46  115.26
   0   3   1 3169.14  108.08
   0   3   1 2967.58  106.15
   0   3  -2 2201.22   95.19
   0   3   2 1866.80   96.09
   0   3  -2 2169.90   82.60
   0   3  -2 2422.16   94.50
   0   3   2 2375.78   88.63
   0   3   2 2393.03   93.72
   0   3   2 2377.42   86.69
   0   3  -2 2268.01   96.27
   0   3   2 2400.95   95.90
   0   3  -2 2035.22   92.46
   0   3   2 2401.71   98.11
   0   3  -2 2328.01   96.30
   0   3   3  507.42   39.55
   0   3  -3  590.98   39.06
   0   3   3  641.08   43.88
   0   3   3  716.98   36.02
   0   3  -3  631.93   41.95
   0   3   3  612.19   39.22
   0   3  -3  595.31   35.18
   0   3   3  679.84   37.57
   0   3  -3  441.32   32.16
   0   3   3  614.66   43.35
   0   3   3  433.05   34.77
   0   3   3  540.20   39.71
   0   3  -3  615.68   42.14
   0   3  -3  671.98   40.12
   0   3   3  700.92   43.75
   0   3  -3  710.88   46.94
   0   3  -3  683.58   45.41
   0   3  -3  544.67   39.27
   0   3   4  269.00   20.86
   0   3   4  260.20   28.34
   0   3   4  230.26   21.96
   0   3  -4  202.10   18.63
   0   3  -4  241.44   26.15
   0   3   4  193.64   25.81
   0   3   4  213.37   25.11
   0   3  -4  218.30   28.49
   0   3  -4  204.94   25.24
   0   3   4  243.83   24.45
   0   3  -4  232.73   23.27
   0   3  -4  213.29   27.94
   0   3  -4  254.63   24.10
   0   3   4  238.41   27.96
   0   3  -4  218.66   24.35
   0   3   4  275.23   30.32
   0   3  -4  225.49   25.00
   0   3   4  268.96   27.44
   0   3  -4  223.86   25.39
   0   3   4  146.87   19.29
   0   3   4  126.97   20.87
   0   3   5 1436.01   88.90
   0   3  -5 1843.64   92.46
   0   3  -5 1273.70   83.83
   0   3   5 1812.94   87.25
   0   3   5 1649.40   94.13
   0   3   5 1680.59   83.81
   0   3  -5 1779.19   98.16
   0   3  -5 1372.02   92.39
   0   3   5 1350.29   90.18
   0   3   5 1427.50   85.97
   0   3   5 1647.02   90.63
   0   3  -5 1739.50   90.05
   0   3   5 1747.61   85.35
   0   3   5 1916.55   96.72
   0   3  -5 1563.32   87.03
   0   3   5 1657.36   81.28
   0   3   5 1593.46   84.39
   0   3  -5 2000.47   96.82
   0   3   5 1589.40   88.55
   0   3  -5 2065.10  103.89
   0   3   5 1823.52   90.23
   0   3  -5 1672.26   90.65
   0   3  -5 1833.34   88.75
   0   3   5 1576.34   75.28
   0   3  -6 1544.15   87.32
   0   3  -6 1612.30  103.03
   0   3  -6 1530.12   94.53
   0   3   6 1752.68  105.67
   0   3  -6 1694.61   95.34
   0   3   6 1439.01   94.47
   0   3  -6 1512.76   86.04
   0   3   6 1687.00   95.23
   0   3  -6 1420.40   98.74
   0   3  -6 1649.23  106.29
   0   3  -6 1685.48   96.51
   0   3   6 1704.10   90.75
   0   3  -6 1721.99   96.49
   0   3   6 1827.52  101.83
   0   3  -6 1573.00   93.68
   0   3  -6 1758.34  102.96
   0   3  -6 1596.13   92.13
   0   3  -6 1527.02   90.44
   0   3   6 1495.66   85.53
   0   3   6 1594.82   93.78
   0   3   6 1596.83   84.13
   0   3  -6 1718.42   97.86
   0   3   6 1841.25   96.81
   0   3  -6 1555.09   94.45
   0   3   6 1622.75   98.60
   0   3   6 1538.93   88.05
   0   3  -6 1691.52   98.83
   0   3  -7  559.64   47.27
   0   3  -7  506.52   49.81
   0   3   7  473.13   46.99
   0   3   7  500.00   49.00
   0   3  -7  525.25   51.02
   0   3  -7  551.05   53.38
   0   3  -7  518.86   52.38
   0   3   7  630.16   52.31
   0   3   7  505.72   45.50
   0   3   7  439.06   40.28
   0   3   7  539.85   58.21
   0   3   7  468.23   50.14
   0   3  -7  456.61   47.74
   0   3   7  494.85   50.47
   0   3   7  515.11   48.20
   0   3  -7  527.62   52.92
   0   3   7  571.67   50.07
   0   3  -7  548.73   60.68
   0   3   7  546.62   53.60
   0   3  -7  469.19   56.49
   0   3   7  494.95   51.76
   0   3  -7  533.64   48.82
   0   3  -7  504.13   50.35
   0   3  -7  526.02   53.36
   0   3  -7  506.88   54.09
   0   3  -8  255.36   37.04
   0   3  -8  234.34   38.68
   0   3   8  235.04   31.48
   0   3   8  258.98   32.82
   0   3   8  244.95   34.91
   0   3   8  226.72   32.41
   0   3   8  266.04   33.90
   0   3   8  228.90   39.15
   0   3  -8  270.63   41.29
   0   3   8  177.64   25.09
   0   3  -8  199.05   32.74
   0   3  -8  182.09   33.31
   0   3   8  242.43   37.44
   0   3  -8  239.38   33.60
   0   3  -8  257.96   38.42
   0   3  -8  282.13   37.29
   0   3  -8  199.61   28.81
   0   3  -8  204.91   31.90
   0   3   8  223.85   33.77
   0   3  -9  825.61   67.16
   0   3  -9  646.63   62.20
   0   3   9  772.66   69.82
   0   3   9  964.64   64.06
   0   3  -9  980.31   71.40
   0   3   9  770.61   56.97
   0   3  -9  844.20   65.32
   0   3  -9  651.17   56.50
   0   3   9  838.07   62.10
   0   3  -9  851.06   62.95
   0   3  10  200.09   24.59
   0   3 -10  230.66   26.05
   0   3  10  158.07   26.94
   0   3 -10  307.06   31.64
   0   3  10  257.94   27.28
   0   3 -10  113.93   25.25
   0   4   0 4421.99  164.71
   0   4   0 4757.95  161.44
   0   4   0 5083.27  170.51
   0   4   0 4384.52  160.99
   0   4   0 4079.31  155.77
   0   4   0 3847.66  159.37
   0   4   0 4876.08  173.20
   0   4  -1 2025.15   91.33
   0   4  -1 2525.61  101.59
   0   4  -1 2698.50  101.39
   0   4   1 2583.29  100.38
   0   4   1 2404.79   94.37
   0   4   1 2358.27   90.44
   0   4  -1 2511.29   94.16
   0   4   1 2555.61   99.46
   0   4  -1 2090.42   91.10
   0   4  -1 2613.47   99.64
   0   4   1 2475.26   84.89
   0   4   1 1787.06   75.98
   0   4   1 2807.68  102.55
   0   4  -1 1973.88   88.03
   0   4  -1 1848.37   87.99
   0   4  -2   95.25   15.55
   0   4  -2   97.84   15.43
   0   4   2   98.45   11.16
   0   4  -2   98.29   10.50
   0   4   2  104.08   15.34
   0   4  -2   86.66   15.98
   0   4   2   98.60   10.05
   0   4   2   79.45    8.98
   0   4  -2  107.91   15.89
   0   4  -2   86.55   14.66
   0   4   2   87.03    9.48
   0   4   2   92.89   14.76
   0   4  -2   93.86   13.37
   0   4   2   93.94   17.02
   0   4  -2   93.86   14.07
   0   4   2   93.33   13.22
   0   4  -2   83.31   10.37
   0   4   3 1121.57   55.04
   0   4  -3 1111.44   58.71
   0   4   3 1251.41   65.62
   0   4   3 1001.83   64.17
   0   4  -3 1198.19   61.72
   0   4  -3 1126.05   65.52
   0   4  -3 1199.25   70.39
   0   4   3 1173.79   51.68
   0   4  -3  839.59   59.24
   0   4  -3 1077.58   64.61
   0   4   3 1199.23   69.43
   0   4   3 1114.26   60.55
   0   4  -3 1049.30   57.17
   0   4   3  694.23   50.83
   0   4  -3 1071.54   63.19
   0   4  -3 1040.64   53.53
   0   4   3  866.44   58.43
   0   4  -4 1711.62   93.86
   0   4   4 1638.05   99.87
   0   4  -4 1782.23   98.62
   0   4  -4 2101.01   98.34
   0   4  -4 1948.92  100.24
   0   4   4 2368.89  110.83
   0   4  -4 2011.29   98.74
   0   4   4 1865.48   89.54
   0   4   4 1869.70   84.54
   0   4   4 2009.12   91.81
   0   4  -4 1882.25   88.69
   0   4   4 1979.68  100.71
   0   4   4 2122.72  107.86
   0   4  -4 1700.17   89.11
   0   4  -4 1591.67   97.49
   0   4   4 2000.18  103.68
   0   4  -4 1794.06   84.15
   0   4  -4 1967.91  105.71
   0   4   4 1904.81   99.50
   0   4  -4 1678.98   99.55
   0   4   4 1909.49   96.90
   0   4  -4 1650.01   95.08
   0   4  -5  104.03   19.47
   0   4  -5  104.97   24.17
   0   4   5  131.31   21.21
   0   4   5  113.88   21.97
   0   4  -5  135.04   22.26
   0   4  -5  103.91   21.64
   0   4   5  117.50   20.67
   0   4  -5  122.81   22.55
   0   4  -5  108.25   22.70
   0   4   5   95.22   17.41
   0   4  -5  104.98   22.44
   0   4   5  110.02   20.84
   0   4  -5  103.90   22.03
   0   4  -5  112.47   21.37
   0   4  -5   91.01   20.79
   0   4   5  120.30   22.76
   0   4  -5  103.44   24.60
   0   4   5  102.94   22.78
   0   4   5  126.60   21.07
   0   4  -5  119.13   20.15
   0   4  -5  152.05   24.84
   0   4   5  129.51   25.82
   0   4   5  112.71   17.75
   0   4  -6  423.20   42.25
   0   4  -6  412.29   45.09
   0   4   6  337.10   35.54
   0   4   6  443.32   44.22
   0   4  -6  438.91   45.38
   0   4  -6  446.09   49.65
   0   4  -6  455.26   46.69
   0   4  -6  359.48   42.48
   0   4   6  468.38   52.73
   0   4   6  450.72   41.29
   0   4  -6  431.48   49.39
   0   4   6  421.07   43.82
   0   4   6  417.21   45.42
   0   4  -6  389.67   40.01
   0   4  -6  376.50   44.31
   0   4   6  382.63   45.48
   0   4  -6  418.90   43.50
   0   4   6  405.52   38.01
   0   4   6  497.14   48.05
   0   4   6  368.41   38.56
   0   4   7  354.08   40.62
   0   4   7  287.77   36.00
   0   4  -7  256.42   36.87
   0   4   7  285.34   34.16
   0   4   7  288.59   43.38
   0   4  -7  235.46   35.75
   0   4  -7  295.58   40.43
   0   4   7  246.92   38.82
   0   4  -7  261.77   35.31
   0   4  -7  240.07   37.75
   0   4  -7  249.89   38.47
   0   4   7  283.34   37.32
   0   4  -7  261.37   35.07
   0   4  -7  268.34   38.52
   0   4   7  264.30   33.87
   0   4   7  280.65   37.59
   0   4  -7  227.36   29.13
   0   4  -7  263.28   35.55
   0   4  -7  281.46   40.41
   0   4  -7  282.84   39.31
   0   4   7  252.19   30.77
   0   4  -8  266.58   38.33
   0   4   8  281.38   42.44
   0   4  -8  182.73   27.65
   0   4  -8  228.43   37.00
   0   4   8  211.21   29.99
   0   4  -8  219.02   32.39
   0   4  -8  240.43   34.61
   0   4   8  257.35   33.23
   0   4   8  294.98   35.92
   0   4  -8  267.54   36.89
   0   4   8  254.43   33.49
   0   4  -8  274.14   37.91
   0   4  -9    6.71   10.83
   0   4   9   17.24    9.85
   0   4   9   19.15   11.27
   0   4  -9   12.05   11.92
   0   4  -9   27.41    9.24
   0   4   9    6.33   10.54
   0   4   9   11.70    9.25
   0   4  -9   27.13    9.35
   0   4 -10  225.94   29.69
   0   4  10  224.17   24.78
   0   4 -10  247.14   25.51
   0   5   0   -1.04    3.35
   0   5   0   15.25    3.79
   0   5   0    2.53    7.07
   0   5   0    0.46    3.49
   0   5   0   -0.68    4.13
   0   5   0   -3.91    7.22
   0   5   0   -0.81    4.91
   0   5   0   -0.53    4.13
   0   5   1  915.28   54.15
   0   5   1 1147.44   63.86
   0   5   1 1021.01   52.49
   0   5   1 1017.65   56.75
   0   5   1 1073.37   46.74
   0   5  -1  934.74   55.15
   0   5  -1 1028.47   55.29
   0   5   1  947.83   54.36
   0   5  -1  919.09   52.48
   0   5  -1 1133.59   63.10
   0   5  -1  826.04   50.98
   0   5   1 1040.72   62.21
   0   5  -1 1088.31   62.90
   0   5  -1  981.74   55.67
   0   5   1 1041.94   62.66
   0   5  -2 1044.64   58.66
   0   5  -2  941.25   63.01
   0   5  -2 1187.40   67.81
   0   5  -2  960.64   62.67
   0   5  -2 1095.49   53.60
   0   5   2 1221.86   68.12
   0   5  -2 1039.81   59.47
   0   5   2 1245.98   62.83
   0   5   2 1291.39   67.88
   0   5  -2 1181.39   71.87
   0   5  -2 1264.17   68.16
   0   5   3  621.44   47.75
   0   5   3  682.69   53.30
   0   5   3  334.99   34.95
   0   5   3  493.56   34.03
   0   5   3  749.51   55.37
   0   5  -3  629.72   48.78
   0   5  -3  631.22   50.48
   0   5   3  618.40   52.38
   0   5  -3  587.14   43.22
   0   5  -3  633.12   45.31
   0   5  -3  468.42   44.83
   0   5   3  605.09   47.91
   0   5  -3  494.93   45.76
   0   5   3  577.48   43.80
   0   5  -3  593.09   48.74
   0   5  -3  663.13   49.07
   0   5  -3  447.06   37.06
   0   5  -3  568.93   49.34
   0   5   4  282.80   36.44
   0   5   4  259.49   35.09
   0   5  -4  201.78   28.00
   0   5   4  168.72   21.68
   0   5  -4  180.02   28.37
   0   5   4  190.51   27.67
   0   5  -4  196.74   30.83
   0   5   4  178.21   21.29
   0   5  -4  174.76   26.45
   0   5   4  175.51   22.17
   0   5  -4  142.14   24.44
   0   5   4  232.09   28.81
   0   5  -4  168.54   27.63
   0   5  -4  174.66   30.61
   0   5  -4  187.27   30.39
   0   5  -4  194.86   23.02
   0   5   4  203.77   26.04
   0   5   4  212.42   25.52
   0   5   4  200.83   25.79
   0   5   4  223.40   30.50
   0   5  -4  167.89   29.37
   0   5  -4  138.97   20.24
   0   5   4  249.65   34.59
   0   5  -4  196.22   28.49
   0   5  -5  738.32   60.69
   0   5  -5  794.75   60.75
   0   5  -5  629.92   56.01
   0   5   5  680.79   58.75
   0   5  -5  781.30   58.65
   0   5  -5  613.32   56.25
   0   5   5  620.19   49.94
   0   5   5  744.67   57.98
   0   5  -5  581.36   59.69
   0   5   5  773.75   56.34
   0   5  -5  691.09   55.92
   0   5   5  747.05   65.71
   0   5  -5  682.64   60.33
   0   5  -5  462.98   50.28
   0   5  -5  465.64   52.98
   0   5   5  663.85   51.54
   0   5   5  571.02   49.52
   0   5   5  465.00   43.97
   0   5   5  629.63   48.97
   0   5  -5  623.48   61.62
   0   5   6 1760.11   94.55
   0   5   6 1634.00  112.23
   0   5  -6 1535.76  101.33
   0   5  -6 1840.90  108.58
   0   5  -6 1683.68  104.30
   0   5  -6 1539.26   91.62
   0   5  -6 1623.59  109.49
   0   5  -6 1698.08  104.20
   0   5   6 2094.32  111.88
   0   5  -6 1294.26  104.50
   0   5   6 1912.89  102.54
   0   5  -6 1719.76  100.92
   0   5  -6 1668.03  106.56
   0   5  -6 1837.84   99.77
   0   5  -6 1458.58   91.79
   0   5   6 1606.03  104.30
   0   5   6 1513.11   96.70
   0   5   7   99.66   21.79
   0   5   7   93.45   19.22
   0   5   7   86.90   16.68
   0   5  -7  102.47   19.45
   0   5  -7  110.06   19.60
   0   5  -7   78.81   19.79
   0   5   7  114.14   24.65
   0   5  -7   80.55   21.90
   0   5   7   81.42   24.70
   0   5  -7   82.78   22.39
   0   5  -7   76.90   22.73
   0   5  -7   83.99   18.35
   0   5   8  186.37   32.99
   0   5   8  191.36   28.45
   0   5  -8  176.56   30.66
   0   5  -8  186.80   30.33
   0   5   8  187.51   29.18
   0   5  -8  154.55   23.93
   0   5   8  188.22   27.25
   0   5  -9  350.72   41.40
   0   5   9  291.13   31.49
   0   5  -9  385.04   36.66
   0   5  -9  324.41   36.76
   0   5  -9  185.05   33.75
   0   5   9  231.88   32.21
   0   5   9  348.11   34.68
   0   5 -10   99.27   14.97
   0   5  10  125.69   16.90
   0   6   0 4018.16  157.11
   0   6   0 4805.07  174.74
   0   6   0 3476.22  151.67
   0   6   0 4059.93  167.95
   0   6   0 3868.83  166.99
   0   6   0 4558.76  164.94
   0   6   0 4470.50  173.73
   0   6   0 4260.32  154.42
   0   6   0 4685.47  182.68
   0   6  -1  519.65   44.68
   0   6  -1  861.67   60.18
   0   6   1  625.58   53.47
   0   6  -1  662.63   51.96
   0   6   1  683.87   49.58
   0   6  -1  559.84   41.37
   0   6   1  891.17   56.68
   0   6   1  809.61   57.15
   0   6   1  699.71   51.34
   0   6   1  578.93   46.24
   0   6  -1  774.20   47.29
   0   6  -1  759.95   54.06
   0   6  -1  649.49   47.34
   0   6   1  562.36   42.16
   0   6   1  800.13   52.00
   0   6  -1  637.07   46.42
   0   6  -1  801.19   58.30
   0   6  -1  791.69   55.40
   0   6   1  847.33   47.29
   0   6  -1  832.06   54.57
   0   6   1  895.16   61.01
   0   6  -1  678.16   39.90
   0   6  -2   27.56    8.39
   0   6   2   27.08   11.41
   0   6  -2   44.73   10.15
   0   6  -2   26.36    8.90
   0   6   2   33.82   12.05
   0   6   2   21.92   10.45
   0   6  -2   34.91   13.74
   0   6  -2   15.26   10.00
   0   6   2   39.70   10.68
   0   6  -2   20.08   10.66
   0   6  -2   28.20   11.74
   0   6   2   30.06   13.32
   0   6   2   26.69   10.78
   0   6   2   33.34   12.16
   0   6   2   35.90   12.00
   0   6   2   43.02   14.02
   0   6  -2   40.15   14.82
   0   6   2   37.12   12.17
   0   6  -2   30.13   12.15
   0   6   3 1618.20   85.44
   0   6  -3 1456.86   92.36
   0   6   3 1870.28   94.89
   0   6  -3 1783.54   97.76
   0   6  -3 1651.36   85.83
   0   6  -3 1645.66   95.33
   0   6   3 1606.69   94.08
   0   6   3 1485.95   88.31
   0   6  -3 1781.00   93.51
   0   6  -3 1238.48   88.72
   0   6  -3 1449.39   85.28
   0   6   3 1274.72   82.67
   0   6  -3 1660.67   97.28
   0   6   3 1635.18   85.10
   0   6   3 1688.60   95.43
   0   6  -3 1652.42  102.55
   0   6   3 2080.83  108.69
   0   6  -3 1471.55   87.86
   0   6  -4 1117.03   83.91
   0   6  -4  884.28   77.80
   0   6   4 1325.12   85.45
   0   6   4 1302.91   82.73
   0   6  -4 1128.60   71.70
   0   6   4 1161.97   84.03
   0   6  -4 1045.94   74.48
   0   6  -4 1003.86   79.56
   0   6  -4 1132.22   76.48
   0   6   4 1223.86   73.32
   0   6   4 1184.42   72.43
   0   6   4 1243.31   77.95
   0   6  -4 1105.03   85.38
   0   6  -4  915.34   72.87
   0   6   4 1547.09   95.81
   0   6   4 1188.57   74.69
   0   6  -4 1278.58   85.12
   0   6  -4 1178.57   82.07
   0   6   4 1178.07   77.11
   0   6   5  277.33   35.80
   0   6  -5  185.08   36.46
   0   6  -5  300.12   39.90
   0   6   5  329.12   36.05
   0   6  -5  319.55   39.91
   0   6  -5  250.73   41.63
   0   6   5  351.76   37.50
   0   6  -5  324.49   39.02
   0   6  -5  305.27   35.17
   0   6   5  310.01   40.34
   0   6   5  303.36   42.25
   0   6  -5  290.28   41.93
   0   6  -5  287.31   39.49
   0   6   5  305.22   39.53
   0   6   5  295.08   36.46
   0   6  -6   52.74   18.27
   0   6  -6   43.05   17.15
   0   6   6   55.07   17.13
   0   6  -6   44.20   18.55
   0   6   6   33.27   12.41
   0   6  -6   56.89   20.07
   0   6  -6   41.11   15.43
   0   6   6   54.51   17.68
   0   6   6   42.72   14.85
   0   6   6   36.02   17.45
   0   6   6   53.19   18.22
   0   6  -6   57.40   17.92
   0   6   6   58.43   16.56
   0   6  -7  832.70   63.60
   0   6  -7  702.40   67.53
   0   6  -7  791.13   70.82
   0   6  -7  820.98   71.72
   0   6   7  867.00   73.20
   0   6   7  878.97   61.47
   0   6  -7  881.04   60.37
   0   6   7  853.46   65.65
   0   6  -7  879.98   69.23
   0   6  -7  825.19   71.67
   0   6   7 1032.57   73.35
   0   6  -8  105.09   25.39
   0   6  -8  209.63   29.25
   0   6  -8  156.59   21.42
   0   6   8  205.13   26.93
   0   6  -8  186.66   29.49
   0   6  -8  135.69   27.86
   0   6  -9   30.84    9.42
   0   6  -9   27.51    7.62
   0   6  -9   11.84   11.32
   0   6   9   14.22    7.76
   0   7   0   -1.73    9.24
   0   7   0    9.17    5.23
   0   7   0    1.31    6.00
   0   7   0    1.43    6.93
   0   7   0   -2.81    6.41
   0   7   0   -1.38    7.41
   0   7   0   -1.34    7.19
   0   7   0    4.30    3.47
   0   7   0    6.37    4.19
   0   7   0   -4.34    7.00
   0   7  -1  424.98   47.32
   0   7   1  458.25   45.04
   0   7  -1  412.98   42.30
   0   7   1  401.41   45.34
   0   7  -1  407.45   42.13
   0   7  -1  413.03   35.38
   0   7  -1  302.63   30.09
   0   7   1  431.29   41.33
   0   7  -1  434.68   40.44
   0   7  -1  339.36   36.86
   0   7   1  387.95   40.90
   0   7   1  433.74   42.60
   0   7   1  473.83   48.82
   0   7  -1  386.33   44.39
   0   7   1  302.88   35.94
   0   7   1  444.37   40.76
   0   7   1  436.61   40.48
   0   7  -1  416.19   42.64
   0   7  -1  406.51   41.83
   0   7   1  390.32   39.40
   0   7  -2 1010.43   72.99
   0   7  -2 1168.77   79.04
   0   7   2 1292.23   80.24
   0   7   2 1285.28   82.80
   0   7  -2  818.95   72.10
   0   7   2 1295.64   89.21
   0   7   2 1051.81   73.03
   0   7  -2 1169.13   87.33
   0   7  -2  842.83   66.19
   0   7   2 1204.71   77.09
   0   7  -2  872.38   69.52
   0   7  -2  913.11   76.45
   0   7   2 1261.04   80.93
   0   7  -2 1088.35   75.51
   0   7   2 1055.00   78.07
   0   7  -3  173.47   27.92
   0   7  -3  130.92   26.70
   0   7   3   94.53   21.78
   0   7   3  130.71   24.49
   0   7   3  108.84   23.33
   0   7   3  145.91   22.48
   0   7   3  119.93   22.26
   0   7   3  126.18   21.68
   0   7   3   89.72   17.21
   0   7  -3  146.09   22.91
   0   7   3  126.06   25.19
   0   7   3  173.70   30.44
   0   7   3  159.46   28.67
   0   7  -3  109.42   24.81
   0   7  -3   98.02   26.52
   0   7  -3   96.60   17.87
   0   7   4   67.84   16.09
   0   7  -4   51.24   19.39
   0   7   4   52.77   16.62
   0   7   4   70.34   20.06
   0   7   4   51.70   16.18
   0   7  -4   75.76   20.32
   0   7  -4   70.73   18.67
   0   7   4   69.48   16.93
   0   7  -4   61.41   20.29
   0   7  -4   57.10   18.76
   0   7   4   53.77   16.38
   0   7  -4   38.03   20.26
   0   7   4   87.63   23.29
   0   7   5  702.78   66.02
   0   7  -5  685.79   72.18
   0   7  -5  911.08   72.13
   0   7  -5 1079.63   78.83
   0   7   5 1026.03   69.73
   0   7   5  872.22   69.74
   0   7   5 1009.49   70.80
   0   7  -5 1042.89   75.71
   0   7  -5  996.38   83.33
   0   7   5 1063.00   70.99
   0   7  -5 1023.54   81.12
   0   7  -6  185.50   34.26
   0   7   6  149.01   25.31
   0   7   6  151.19   25.57
   0   7   6  197.80   32.53
   0   7  -6  122.57   26.99
   0   7   6  167.47   27.94
   0   7   6  175.70   27.11
   0   7  -6  179.88   28.15
   0   7  -6  161.00   28.52
   0   7  -7   85.82   16.96
   0   7   7   83.30   18.73
   0   7  -7   34.34   16.36
   0   7  -7   85.42   18.24
   0   7  -7  102.77   23.68
   0   7  -7   77.98   21.76
   0   7   7   93.70   20.36
   0   7   7   76.73   17.62
   0   7   7   83.44   17.19
   0   7   8   67.20   14.62
   0   7  -8   60.92   18.30
   0   7  -8   25.17   13.54
   0   7   8   68.77   14.98
   0   7  -8   32.15    9.65
   0   7   8   82.84   14.99
   0   7  -9  189.76   24.89
   0   7   9  200.22   20.58
   0   8   0  551.66   51.62
   0   8   0  530.18   50.49
   0   8   0  568.31   61.32
   0   8   0  554.98   53.85
   0   8   0  447.28   46.98
   0   8   0  483.67   45.37
   0   8   0  339.68   44.43
   0   8   1  798.43   63.70
   0   8  -1  844.81   68.30
   0   8  -1  900.88   68.75
   0   8  -1  895.61   69.44
   0   8   1  979.75   80.48
   0   8  -1  689.96   68.21
   0   8   1  735.86   62.47
   0   8   1  825.68   63.56
   0   8   1 1097.63   74.89
   0   8  -1 1053.61   74.14
   0   8   1  914.07   68.39
   0   8   1  589.31   57.78
   0   8   2  207.33   33.48
   0   8  -2  193.77   34.73
   0   8   2  225.19   34.39
   0   8  -2  236.31   40.72
   0   8  -2  107.74   26.47
   0   8   2  293.24   38.34
   0   8  -2  209.32   33.26
   0   8  -2  236.37   33.18
   0   8  -2  195.89   32.65
   0   8   2  207.16   31.26
   0   8  -2  214.43   37.15
   0   8   2  149.96   30.49
   0   8  -2  192.83   31.02
   0   8   2  183.31   28.43
   0   8   3  516.46   54.29
   0   8  -3  511.38   47.06
   0   8   3  411.05   39.16
   0   8  -3  481.97   57.46
   0   8   3  512.61   52.37
   0   8   3  485.98   50.11
   0   8   3  570.20   57.27
   0   8  -3  437.32   58.00
   0   8   3  607.68   58.27
   0   8  -3  465.46   51.41
   0   8  -3  403.30   47.42
   0   8  -4  894.98   83.18
   0   8  -4 1057.61   78.88
   0   8   4 1138.85   78.30
   0   8  -4  850.99   71.01
   0   8   4  734.58   58.87
   0   8  -4  992.57   76.53
   0   8   4  934.63   65.12
   0   8  -4 1074.79   81.66
   0   8   4 1300.72   88.98
   0   8   4 1057.10   78.70
   0   8  -5   92.32   24.30
   0   8   5  106.26   19.97
   0   8  -5   67.94   18.75
   0   8  -5  124.22   24.68
   0   8   5   95.44   19.33
   0   8  -5  111.10   29.11
   0   8   5  110.43   21.77
   0   8  -5  116.15   24.26
   0   8   5   87.25   20.56
   0   8   6   98.30   18.72
   0   8  -6  117.77   22.35
   0   8  -6   68.18   17.74
   0   8   6   98.03   18.91
   0   8  -6  115.11   26.56
   0   8  -6  102.48   24.86
   0   8  -6  148.18   32.68
   0   8   6  117.19   21.09
   0   8   6  116.94   23.32
   0   8  -6  118.23   21.67
   0   8  -7  261.32   27.58
   0   8   7  235.75   26.32
   0   8  -7  334.76   42.40
   0   8  -7  310.10   27.55
   0   8   7  321.96   32.06
   0   8  -7  135.12   21.73
   0   8   7  219.20   24.79
   0   8   8   71.82   12.35
   0   8  -8  131.10   21.60
   0   9   0   -3.24   11.97
   0   9   0   -1.80    9.62
   0   9   0   15.89    8.54
   0   9   0   -2.30   10.50
   0   9   0   -1.60    8.95
   0   9  -1  321.33   41.11
   0   9   1  386.76   43.38
   0   9  -1  259.85   41.05
   0   9  -1  340.50   42.71
   0   9   1  345.83   49.13
   0   9  -1  345.95   40.85
   0   9  -1  340.19   42.32
   0   9   1  291.26   37.08
   0   9   2 1029.79   74.86
   0   9   2  840.59   75.37
   0   9   2  823.42   66.05
   0   9   2 1046.10   77.72
   0   9   2  848.79   63.56
   0   9  -2  833.97   70.31
   0   9  -2  844.07   77.33
   0   9  -2  752.17   64.95
   0   9  -2  918.42   70.69
   0   9  -2  997.39   86.75
   0   9  -2  851.16   69.64
   0   9   3  420.87   46.58
   0   9   3  360.14   41.17
   0   9  -3  323.22   50.17
   0   9  -3  331.11   40.15
   0   9  -3  368.06   50.47
   0   9   3  459.49   47.97
   0   9   3  451.20   45.19
   0   9  -3  356.39   45.93
   0   9   3  385.11   40.39
   0   9  -3  400.32   40.32
   0   9  -4   73.71   19.16
   0   9  -4   86.44   20.99
   0   9  -4  105.20   23.01
   0   9  -4  117.07   27.26
   0   9   4  108.55   23.32
   0   9  -4   86.81   25.80
   0   9   4  132.10   22.81
   0   9  -4   68.01   21.68
   0   9  -5  287.66   39.61
   0   9  -5  287.73   34.12
   0   9  -5  280.53   34.48
   0   9  -5  194.26   27.78
   0   9  -5  232.40   33.88
   0   9  -5  264.76   39.71
   0   9   5  190.90   23.03
   0   9   5  221.65   29.53
   0   9  -6  156.74   27.67
   0   9   6  143.22   18.30
   0   9   6  316.76   31.23
   0   9   6  218.01   25.19
   0   9  -6  283.16   28.73
   0   9  -6  293.13   37.16
   0   9  -6  213.83   32.19
   0   9  -6  266.91   28.23
   0   9   7   57.35   10.46
   0   9  -7   74.06   16.30
   0  10   0  509.67   51.71
   0  10   0  414.68   53.27
   0  10   0  510.40   47.58
   0  10  -1  125.85   24.46
   0  10   1  136.58   29.17
   0  10   1  245.55   32.02
   0  10  -1  209.17   29.50
   0  10  -1  196.79   36.25
   0  10  -1  154.74   27.33
   0  10   1  120.15   19.69
   0  10   1  206.24   28.93
   0  10   2  147.10   26.98
   0  10  -2  104.50   24.83
   0  10   2  142.82   24.74
   0  10  -2  121.51   22.78
   0  10   2  107.32   19.56
   0  10  -2  114.12   21.65
   0  10   2  108.34   21.45
   0  10  -2  143.09   26.13
   0  10   2  167.41   28.86
   0  10  -3  199.84   27.34
   0  10   3  269.65   33.81
   0  10   3  206.07   29.10
   0  10   3  220.83   27.35
   0  10  -3  253.44   37.49
   0  10  -3  204.11   35.39
   0  10  -4  331.46   35.04
   0  10   4  217.55   29.33
   0  10  -4  245.12   30.18
   0  10  -4  267.72   37.51
   0  10   4  356.25   32.54
   0  10  -4  192.23   25.27
   0  10   5   19.22    8.08
   0  10   5   22.09    7.84
   0  10  -5   29.12   10.18
   0  10   5   22.57    9.53
   0  10  -5   27.07    9.27
   0  10   6   17.19    5.91
   0  11   0   -3.45    7.64
   0  11   0   -0.92    6.13
   0  11   1  407.53   35.31
   0  11  -1  361.38   32.21
   0  11   1  324.15   36.31
   0  11  -1  301.10   32.86
   0  11  -1  317.41   40.52
   0  11  -2  137.79   19.15
   0  11   2  171.31   21.82
   0  11   2  177.82   24.78
   0  11  -2  137.20   18.22
   0  11   3  126.93   20.23
   0  11   3  133.92   15.61
   0  11  -3  165.23   20.27
   0  11   4   -1.16    4.28
   0  11  -4   -3.65    4.90
   0  11   4    4.50    5.19
   0  12   0   44.59    9.50
   0  12   1   99.24   14.34
   0  12   2    6.00    4.29
   0  12  -2    8.81    4.15
   1 -12  -1  262.17   20.34
   1 -12   1   -0.36    2.08
  -1 -11   4   38.40    9.94
   1 -11  -4   44.75    8.67
  -1 -11   4   14.22    5.71
   1 -11  -3  499.57   34.48
   1 -11  -3  494.53   31.08
  -1 -11   2  171.60   22.50
   1 -11  -2  209.84   26.25
   1 -11  -2  246.43   25.48
   1 -11  -2  210.93   20.77
  -1 -11   2  187.03   23.23
  -1 -11   2  183.76   23.12
   1 -11  -1   35.88    9.05
   1 -11  -1   35.06   10.04
   1 -11  -1   25.62    9.73
   1 -11  -1   41.20    8.57
   1 -11  -1   40.99   11.09
  -1 -11   1   18.95    8.27
  -1 -11   1   30.38    9.98
  -1 -11   1   39.91   11.42
  -1 -11   0   42.66   11.23
   1 -11   0   45.47   11.77
  -1 -11   0   59.31   14.24
   1 -11   0   68.91   13.61
   1 -11   0   59.32   14.28
   1 -11   0   59.53   12.67
  -1 -11   0   46.86    9.51
   1 -11   1  217.43   25.83
   1 -11   1  257.79   30.36
  -1 -11  -1  237.81   23.69
  -1 -11  -1  177.57   23.30
  -1 -11  -1  231.75   27.09
   1 -11   1  264.07   27.15
   1 -11   1  216.41   23.89
   1 -11   2   39.85   12.42
  -1 -11  -2   34.23   11.14
   1 -11   2   37.85    9.98
  -1 -11  -2   47.55   10.76
   1 -11   2   52.32   12.06
   1 -11   2   35.81   11.08
  -1 -11  -2   42.61    9.16
   1 -11   2   33.48   10.37
  -1 -11  -3   58.15   10.00
   1 -11   3   39.87   10.96
  -1 -11  -3   49.78   10.45
   1 -11   3   39.90    8.94
  -1 -11  -4  177.96   15.16
   1 -11   4  129.44   16.76
  -1 -11  -4  141.68   15.37
  -1 -10   6   41.24   10.02
  -1 -10   6   36.90    9.65
   1 -10  -5  170.10   17.10
   1 -10  -5  172.86   20.06
  -1 -10   5  107.25   18.26
  -1 -10   5   96.25   15.43
  -1 -10   5  125.15   18.69
  -1 -10   5  149.39   19.90
   1 -10  -5  110.79   21.44
  -1 -10   4  238.85   29.73
  -1 -10   4  318.11   33.33
  -1 -10   4  309.82   31.85
   1 -10  -4  391.02   28.54
   1 -10  -4  333.45   31.01
   1 -10  -4  299.50   35.28
   1 -10  -4  443.38   37.00
   1 -10  -4  305.36   36.08
  -1 -10   4  341.52   33.75
   1 -10  -4  384.97   28.70
   1 -10  -3   84.97   16.19
  -1 -10   3   73.05   15.98
  -1 -10   3   79.27   18.29
   1 -10  -3   56.93   11.65
  -1 -10   3   47.99   13.80
   1 -10  -3   81.30   17.32
  -1 -10   3   68.75   15.84
   1 -10  -3   65.85   17.38
  -1 -10   3   58.81   15.49
  -1 -10   2  116.55   20.73
   1 -10  -2  151.63   24.19
   1 -10  -2  210.84   24.86
   1 -10  -2  119.58   19.97
  -1 -10   2  111.40   23.12
   1 -10  -2  156.71   23.93
   1 -10  -2  166.93   28.11
   1 -10  -2  140.91   17.29
  -1 -10   2  185.80   27.17
  -1 -10   2  169.24   26.18
  -1 -10   1  576.50   50.13
  -1 -10   1  482.10   41.91
   1 -10  -1  717.06   52.46
   1 -10  -1  620.76   54.97
   1 -10  -1  482.91   45.68
  -1 -10   1  646.08   54.07
   1 -10  -1  576.42   51.41
   1 -10  -1  648.89   54.17
  -1 -10   1  717.75   56.95
   1 -10  -1  686.29   52.43
  -1 -10   0   24.73   12.69
   1 -10   0   24.62   11.52
  -1 -10   0   30.73   11.65
   1 -10   0   41.36   14.11
   1 -10   0   46.97   15.92
   1 -10   0   46.27   14.41
   1 -10   0   36.58   12.76
  -1 -10   0   29.63   11.32
  -1 -10  -1   20.86   10.53
   1 -10   1   12.67    8.68
  -1 -10  -1   15.75    9.08
   1 -10   1   19.61   11.16
   1 -10   1   12.27    8.17
   1 -10   1   10.82    9.27
  -1 -10  -1    9.52    9.32
   1 -10   2  667.76   52.75
   1 -10   2  736.55   56.66
   1 -10   2  703.51   57.49
  -1 -10  -2  637.27   46.96
  -1 -10  -2  486.48   47.76
  -1 -10  -2  566.25   52.28
   1 -10   2  546.13   45.06
  -1 -10  -2  560.53   52.11
  -1 -10  -3  260.82   34.47
   1 -10   3  352.91   38.10
   1 -10   3  306.84   33.09
   1 -10   3  276.71   31.83
  -1 -10  -3  268.28   33.32
  -1 -10  -3  241.80   31.15
  -1 -10  -3  362.53   30.56
   1 -10   4   58.88   13.37
   1 -10   4   34.13    9.54
  -1 -10  -4   63.56   14.08
  -1 -10  -4   55.55   16.07
   1 -10   4   81.27   17.08
  -1 -10  -4   68.89   13.33
  -1 -10  -4   88.68   16.26
   1 -10   4   48.18   13.51
   1 -10   4   69.62   16.29
  -1 -10  -5   93.26   13.50
   1 -10   5   69.09   12.95
  -1 -10  -5   77.14   13.64
   1 -10   5   43.58    9.74
  -1 -10  -6  148.99   14.38
  -1  -9   7   88.74   13.81
  -1  -9   7  146.64   19.15
  -1  -9   6  260.86   30.08
   1  -9  -6  280.86   26.39
   1  -9  -6  333.39   26.05
  -1  -9   6  210.29   24.35
   1  -9  -6  279.24   34.19
   1  -9  -6  204.19   25.01
  -1  -9   6  156.51   23.84
   1  -9  -5   32.53   11.95
   1  -9  -5   25.05   11.07
  -1  -9   5   25.02   11.70
  -1  -9   5   35.42   12.68
   1  -9  -5   38.51   14.91
  -1  -9   5   41.32   10.45
   1  -9  -5   34.82   10.83
   1  -9  -5   25.93   10.90
  -1  -9   5   37.23   11.12
  -1  -9   5   28.00   11.83
   1  -9  -5   31.61   12.78
  -1  -9   4  308.64   34.86
   1  -9  -4  281.07   38.79
   1  -9  -4  367.64   38.64
   1  -9  -4  286.67   40.54
   1  -9  -4  274.29   28.66
  -1  -9   4  326.62   39.02
  -1  -9   4  293.19   34.99
  -1  -9   4  401.57   43.71
  -1  -9   4  278.76   34.07
   1  -9  -4  321.92   34.09
   1  -9  -3  256.87   32.59
  -1  -9   3  286.00   35.26
   1  -9  -3  355.35   35.57
   1  -9  -3  212.49   25.21
   1  -9  -3  263.39   38.10
  -1  -9   3  251.36   31.46
  -1  -9   3  325.62   37.63
   1  -9  -3  298.53   35.35
  -1  -9   2  799.46   73.10
  -1  -9   2  953.62   69.95
   1  -9  -2  900.83   69.09
   1  -9  -2  847.44   71.41
   1  -9  -2  905.35   72.97
  -1  -9   2  613.30   61.99
   1  -9  -2  997.76   66.75
   1  -9  -2  726.69   58.09
   1  -9  -2  863.75   64.02
  -1  -9   2  766.00   70.43
   1  -9  -2  700.74   60.81
  -1  -9   2  878.66   66.79
   1  -9  -2  969.35   68.81
   1  -9  -2  773.85   65.09
  -1  -9   1   57.90   17.73
   1  -9  -1   55.24   18.14
   1  -9  -1   61.04   16.82
  -1  -9   1   53.39   17.39
  -1  -9   1   41.46   13.84
   1  -9  -1   62.67   16.27
  -1  -9   1   39.03   13.52
   1  -9  -1   59.23   17.23
   1  -9  -1   45.49   14.67
   1  -9  -1   58.10   17.98
   1  -9  -1   72.87   17.93
  -1  -9   1   70.52   19.30
   1  -9  -1   46.31   15.23
   1  -9  -1   50.92   16.85
   1  -9  -1   49.46   17.04
   1  -9  -1   46.42   14.19
  -1  -9   1   51.55   15.02
  -1  -9   1   23.67   11.54
  -1  -9   1   39.12   15.64
  -1  -9   0  322.68   42.60
   1  -9   0  310.07   39.73
   1  -9   0  374.89   41.13
   1  -9   0  310.40   43.60
   1  -9   0  320.96   39.53
  -1  -9   0  331.80   42.45
   1  -9   0  337.68   43.06
  -1  -9   0  284.67   35.85
  -1  -9   0  294.40   41.64
   1  -9   0  374.31   43.35
  -1  -9   0  299.88   38.32
  -1  -9   0  335.25   43.78
  -1  -9   0  334.74   44.66
   1  -9   0  340.90   39.91
  -1  -9   0  342.76   42.34
   1  -9   0  346.92   39.41
   1  -9   1  435.66   44.83
  -1  -9  -1  426.85   52.02
   1  -9   1  440.30   46.51
   1  -9   1  491.26   51.15
   1  -9   1  412.52   49.60
   1  -9   1  404.25   43.36
  -1  -9  -1  436.48   49.83
   1  -9   1  301.45   42.78
  -1  -9  -1  413.15   47.15
   1  -9   1  402.15   46.74
  -1  -9  -1  406.43   46.75
  -1  -9  -1  386.11   45.38
   1  -9   1  372.80   41.38
  -1  -9  -1  445.48   50.85
  -1  -9  -1  337.40   37.79
  -1  -9  -2  311.19   40.48
  -1  -9  -2  253.61   37.58
   1  -9   2  229.14   35.12
   1  -9   2  229.35   34.42
   1  -9   2  254.45   36.41
  -1  -9  -2  272.54   35.82
   1  -9   2  179.44   27.57
   1  -9   2  243.70   34.01
  -1  -9  -2  186.70   30.30
   1  -9   2  213.67   31.01
   1  -9   2  227.07   30.48
  -1  -9  -2  242.67   35.37
  -1  -9  -2  242.85   39.36
  -1  -9  -2  201.56   28.15
   1  -9   3   26.67   12.04
   1  -9   3   32.43   10.70
   1  -9   3   34.09   14.39
  -1  -9  -3   31.49   14.98
  -1  -9  -3   39.95   12.13
   1  -9   3   45.27   16.12
   1  -9   3   24.40   11.63
   1  -9   3   48.93   13.34
   1  -9   3   52.62   17.43
  -1  -9  -3   26.48   12.86
   1  -9   3   31.52   12.56
   1  -9   4  367.99   39.00
   1  -9   4  334.54   37.12
  -1  -9  -4  408.91   45.23
   1  -9   4  435.38   37.23
  -1  -9  -4  357.63   44.41
   1  -9   4  393.94   44.22
   1  -9   4  461.46   45.40
   1  -9   4  390.12   42.57
   1  -9   5  214.86   24.53
   1  -9   5  227.42   31.77
   1  -9   5  209.02   24.16
   1  -9   5  195.76   26.41
   1  -9   5  165.75   24.51
   1  -9   5  225.58   30.21
  -1  -9  -5  260.87   27.34
  -1  -9  -5  180.19   29.02
   1  -9   5  195.97   26.16
  -1  -9  -5  233.54   27.95
  -1  -9  -5  195.78   30.09
   1  -9   6   62.38   15.56
   1  -9   6   49.29   12.46
  -1  -9  -6   61.38   12.88
  -1  -9  -6   53.74   14.90
   1  -9   6   40.10   12.15
  -1  -9  -6   40.94   12.97
  -1  -9  -6   63.25   13.30
  -1  -9  -7   85.40   11.92
  -1  -9  -7   77.79   11.63
  -1  -8   8  237.98   26.67
  -1  -8   8  224.34   25.46
  -1  -8   7   60.91   15.85
   1  -8  -7   67.23   12.50
   1  -8  -7   78.44   18.37
  -1  -8   7   87.88   19.17
  -1  -8   7  107.58   20.13
   1  -8  -7  114.60   17.50
  -1  -8   7   77.97   17.14
   1  -8  -7  112.93   19.23
   1  -8  -7   84.72   15.74
  -1  -8   7  147.19   23.07
   1  -8  -6   59.88   12.93
   1  -8  -6   54.60   14.29
  -1  -8   6   72.00   18.65
   1  -8  -6   72.43   16.78
  -1  -8   6   49.28   15.38
  -1  -8   6   42.44   15.42
  -1  -8   6   61.73   18.06
   1  -8  -6   51.31   14.83
   1  -8  -6   56.12   19.10
   1  -8  -5  457.50   43.14
   1  -8  -5  348.40   33.81
   1  -8  -5  387.11   49.49
  -1  -8   5  344.70   37.98
  -1  -8   5  291.21   37.20
   1  -8  -5  338.68   39.97
   1  -8  -5  379.72   42.72
  -1  -8   4  407.95   42.26
   1  -8  -4  386.59   47.55
   1  -8  -4  364.67   34.41
   1  -8  -4  388.71   45.97
  -1  -8   4  279.61   39.27
   1  -8  -4  321.61   41.41
   1  -8  -4  410.67   42.46
  -1  -8   4  263.88   44.59
  -1  -8   4  372.97   41.28
   1  -8  -4  308.29   34.15
   1  -8  -4  402.40   49.50
   1  -8  -4  407.20   39.75
   1  -8  -4  416.44   48.77
   1  -8  -4  357.50   48.10
  -1  -8   4  477.92   46.10
  -1  -8   3   69.27   23.05
   1  -8  -3   67.25   16.13
   1  -8  -3   63.53   18.99
  -1  -8   3   71.00   23.46
  -1  -8   3   37.49   17.25
  -1  -8   3   61.74   18.07
  -1  -8   3   78.66   19.01
   1  -8  -3   84.88   19.18
   1  -8  -3   70.67   20.88
   1  -8  -3   47.89   19.34
   1  -8  -3   45.72   17.82
   1  -8  -3   74.82   21.33
   1  -8  -3   40.71   14.66
  -1  -8   3   64.97   19.51
   1  -8  -3   73.32   21.21
   1  -8  -3   67.37   15.61
  -1  -8   3   61.44   16.42
   1  -8  -3   63.72   16.99
   1  -8  -2  752.43   64.40
  -1  -8   2  693.53   68.53
   1  -8  -2  510.98   48.56
   1  -8  -2  621.50   55.47
  -1  -8   2  567.04   61.33
   1  -8  -2  658.57   54.34
   1  -8  -2  670.45   58.32
   1  -8  -2  644.67   59.66
  -1  -8   2  522.35   57.90
   1  -8  -2  618.20   52.24
  -1  -8   2  577.81   49.99
   1  -8  -2  687.58   57.33
  -1  -8   2  730.36   60.66
  -1  -8   2  725.57   59.83
   1  -8  -2  599.26   52.19
  -1  -8   1  885.09   73.49
   1  -8  -1  856.66   76.75
  -1  -8   1  850.47   71.53
   1  -8  -1 1003.85   77.23
  -1  -8   1  896.76   79.81
   1  -8  -1  936.25   75.21
  -1  -8   1  879.24   66.84
   1  -8  -1  886.35   69.09
   1  -8  -1  895.23   68.11
   1  -8  -1  946.35   73.34
   1  -8  -1 1075.33   73.61
   1  -8  -1  952.11   64.26
   1  -8  -1 1013.53   69.43
  -1  -8   1 1029.38   74.53
   1  -8  -1  943.67   68.25
   1  -8  -1  952.05   70.01
  -1  -8   1  797.59   75.47
   1  -8   0  416.54   45.33
   1  -8   0  415.76   43.94
   1  -8   0  371.67   41.76
   1  -8   0  369.60   35.41
   1  -8   0  354.55   45.43
  -1  -8   0  407.12   50.33
  -1  -8   0  358.10   46.37
  -1  -8   0  369.92   45.41
   1  -8   0  415.98   46.11
   1  -8   0  392.00   43.82
   1  -8   0  340.99   37.12
   1  -8   0  434.81   43.73
  -1  -8   0  367.02   42.80
   1  -8   0  414.28   44.05
  -1  -8   0  352.07   45.07
  -1  -8   0  381.32   46.93
   1  -8   1  212.29   29.22
  -1  -8  -1  247.49   37.09
  -1  -8  -1  222.08   29.37
   1  -8   1  233.48   33.40
   1  -8   1  223.75   24.97
   1  -8   1  224.80   33.31
  -1  -8  -1  229.05   36.82
  -1  -8  -1  233.83   35.44
   1  -8   1  228.96   36.32
   1  -8   1  225.60   33.02
   1  -8   1  235.56   33.16
   1  -8   1  246.88   33.29
   1  -8   1  237.21   32.50
   1  -8   1  235.32   35.88
   1  -8   1  231.08   32.26
  -1  -8  -1  193.84   29.31
  -1  -8  -1  248.62   39.11
   1  -8   1  272.33   36.65
  -1  -8  -1  246.17   35.75
  -1  -8  -1  212.62   34.01
  -1  -8  -2  679.12   61.41
   1  -8   2  691.44   65.72
   1  -8   2  690.28   62.33
  -1  -8  -2  695.17   69.36
  -1  -8  -2  670.16   62.91
  -1  -8  -2  778.04   68.36
   1  -8   2  608.98   59.07
   1  -8   2  667.33   59.94
  -1  -8  -2  674.87   63.69
   1  -8   2  717.03   52.59
   1  -8   2  754.17   62.81
   1  -8   2  699.87   50.22
   1  -8   2  678.68   56.52
   1  -8   2  612.77   62.50
  -1  -8  -2  655.53   59.18
   1  -8   2  606.20   56.71
   1  -8   2  682.50   57.89
   1  -8   3  409.96   38.59
   1  -8   3  296.40   40.63
   1  -8   3  334.17   45.98
   1  -8   3  337.23   40.66
   1  -8   3  416.09   41.90
   1  -8   3  486.48   51.44
   1  -8   3  361.47   36.86
   1  -8   3  385.96   42.58
  -1  -8  -3  398.37   46.73
   1  -8   3  340.85   49.19
  -1  -8  -3  333.10   43.44
   1  -8   3  478.81   51.01
   1  -8   3  372.26   40.84
  -1  -8  -3  323.90   45.15
  -1  -8  -3  407.87   40.20
  -1  -8  -3  449.91   50.70
   1  -8   4  288.93   36.50
  -1  -8  -4  345.12   48.55
   1  -8   4  321.11   40.14
  -1  -8  -4  314.07   41.46
  -1  -8  -4  415.67   48.31
  -1  -8  -4  296.01   42.68
   1  -8   4  367.43   36.57
  -1  -8  -4  383.14   46.50
  -1  -8  -4  328.00   40.96
   1  -8   4  292.43   42.63
   1  -8   4  254.97   34.67
   1  -8   4  275.98   38.65
   1  -8   4  261.10   39.84
   1  -8   4  349.55   45.41
   1  -8   4  334.71   35.40
  -1  -8  -5  220.54   35.55
   1  -8   5  132.04   24.40
   1  -8   5  158.51   26.72
   1  -8   5  218.19   28.15
  -1  -8  -5  175.61   31.98
   1  -8   5  195.71   28.47
   1  -8   5  236.10   36.78
  -1  -8  -5  217.47   30.03
   1  -8   5  220.11   34.44
   1  -8   5  206.18   27.39
   1  -8   6  144.69   21.46
   1  -8   6  187.74   25.52
   1  -8   6  207.47   31.25
  -1  -8  -6  256.04   30.17
  -1  -8  -6  279.79   29.41
   1  -8   6  279.35   37.29
  -1  -8  -6  176.64   28.31
   1  -8   6  178.27   26.02
   1  -8   6  230.66   27.64
   1  -8   6  192.51   27.28
   1  -8   6  150.86   24.42
  -1  -8  -6  201.84   31.88
  -1  -8  -7  326.11   27.66
   1  -8   7  227.50   26.07
   1  -8   7  254.50   27.45
   1  -8   7  244.16   25.73
   1  -8   8    9.64    4.85
   1  -7  -9    6.31    6.35
  -1  -7   9    7.82    5.96
  -1  -7   9    5.76    4.62
  -1  -7   8   12.16    9.70
   1  -7  -8   18.08    9.58
  -1  -7   8   29.08   11.57
  -1  -7   8   26.33   10.63
   1  -7  -8   17.43    8.31
  -1  -7   8   18.82   11.09
   1  -7  -8   31.74   10.18
   1  -7  -7  414.37   46.26
  -1  -7   7  495.25   49.83
   1  -7  -7  643.87   49.52
  -1  -7   7  472.71   45.21
  -1  -7   7  428.43   38.60
  -1  -7   7  622.05   52.22
  -1  -7   7  595.34   52.00
   1  -7  -7  513.79   46.36
   1  -7  -7  414.52   35.77
   1  -7  -6  493.17   42.73
   1  -7  -6  385.97   49.06
  -1  -7   6  613.98   54.85
  -1  -7   6  304.21   47.12
  -1  -7   6  584.80   54.82
   1  -7  -6  619.12   52.59
   1  -7  -6  460.57   55.03
  -1  -7   6  446.29   40.20
   1  -7  -6  411.32   43.03
  -1  -7   6  491.06   49.02
   1  -7  -6  513.66   54.93
  -1  -7   5   15.61    8.91
  -1  -7   5   15.93   13.36
   1  -7  -5   13.98    8.53
   1  -7  -5   12.61    7.69
  -1  -7   5   19.25    9.82
   1  -7  -5   -2.04   10.43
   1  -7  -5   -3.22    7.35
   1  -7  -5   22.60   11.22
   1  -7  -5    3.18    7.84
  -1  -7   5   -2.39    8.62
  -1  -7   5    6.86    7.34
   1  -7  -5    1.47    6.72
  -1  -7   5   11.42   10.19
  -1  -7   5    6.79   10.95
  -1  -7   4  417.48   48.90
   1  -7  -4  527.69   56.88
   1  -7  -4  435.59   54.10
   1  -7  -4  521.93   52.83
   1  -7  -4  520.01   54.82
  -1  -7   4  571.53   50.47
  -1  -7   4  311.27   47.34
  -1  -7   4  465.69   51.66
   1  -7  -4  514.16   54.42
   1  -7  -4  345.03   42.89
   1  -7  -4  490.91   51.51
  -1  -7   4  527.95   47.29
   1  -7  -4  564.46   49.32
   1  -7  -4  463.23   41.81
   1  -7  -3 1408.95  103.94
  -1  -7   3 1859.10  100.09
  -1  -7   3 1548.66  112.33
   1  -7  -3 1719.49  105.18
   1  -7  -3 1531.24   91.96
  -1  -7   3 1638.11  110.46
   1  -7  -3 1738.67  102.31
  -1  -7   3 1512.37   97.79
   1  -7  -3 1631.09  103.78
   1  -7  -3 1796.99  106.98
  -1  -7   3 1448.18   94.68
   1  -7  -3 1496.52   85.99
   1  -7  -3 1650.63   96.28
   1  -7  -3 1791.26  108.87
   1  -7  -3 1644.79   93.75
   1  -7  -3 1927.41  100.11
  -1  -7   3 1863.36  101.78
  -1  -7   2  286.02   41.73
  -1  -7   2  240.71   31.82
   1  -7  -2  289.77   33.83
  -1  -7   2  278.90   34.48
   1  -7  -2  256.43   36.03
   1  -7  -2  277.60   31.98
   1  -7  -2  286.17   33.87
   1  -7  -2  296.96   33.05
   1  -7  -2  258.19   34.44
  -1  -7   2  310.70   36.20
  -1  -7   2  256.20   31.05
   1  -7  -2  250.66   31.78
   1  -7  -2  276.02   36.77
   1  -7  -2  294.47   34.92
   1  -7  -1  221.38   30.13
   1  -7  -1  201.12   30.16
  -1  -7   1  197.31   29.96
  -1  -7   1  177.67   24.16
  -1  -7   1  159.63   31.30
  -1  -7   1  198.08   33.76
   1  -7  -1  183.98   27.00
   1  -7  -1  175.19   28.91
   1  -7  -1  198.50   28.41
   1  -7  -1  203.49   26.04
  -1  -7   1  165.42   30.61
   1  -7  -1  226.45   32.10
  -1  -7   1  199.15   32.20
  -1  -7   1  190.38   27.34
   1  -7  -1  210.37   33.02
   1  -7  -1  201.46   28.62
   1  -7  -1  215.85   28.31
   1  -7  -1  156.74   25.79
   1  -7   0  455.34   43.00
  -1  -7   0  552.49   56.63
   1  -7   0  543.07   48.58
   1  -7   0  484.46   46.68
  -1  -7   0  524.15   53.00
   1  -7   0  609.62   49.40
   1  -7   0  523.64   48.37
  -1  -7   0  506.90   47.73
   1  -7   0  557.70   42.98
  -1  -7   0  589.25   55.22
   1  -7   0  622.48   53.25
   1  -7   0  597.88   50.07
  -1  -7   0  568.28   54.31
   1  -7   0  593.61   50.80
  -1  -7   0  521.29   52.27
   1  -7   0  562.49   49.57
   1  -7   0  538.49   45.88
   1  -7   0  546.07   53.73
  -1  -7  -1 2165.11  122.75
   1  -7   1 1816.34  105.36
  -1  -7  -1 2136.50  118.52
   1  -7   1 2163.81  116.68
   1  -7   1 2228.97  115.08
   1  -7   1 2157.77  109.28
  -1  -7  -1 2167.84  123.51
   1  -7   1 2170.58   99.64
   1  -7   1 1863.56   95.51
   1  -7   1 2021.10  118.65
  -1  -7  -1 2053.41  116.79
   1  -7   1 2168.42  112.18
   1  -7   1 2102.24  113.30
   1  -7   1 1896.94  113.04
  -1  -7  -1 1880.69  105.36
   1  -7   2  266.44   37.48
   1  -7   2  226.12   27.23
   1  -7   2  265.85   34.73
  -1  -7  -2  243.17   34.76
   1  -7   2  248.66   32.32
  -1  -7  -2  240.58   33.92
   1  -7   2  276.31   38.45
  -1  -7  -2  284.76   38.78
   1  -7   2  325.72   39.57
   1  -7   2  286.34   36.25
  -1  -7  -2  239.62   34.01
  -1  -7  -2  257.23   39.48
   1  -7   2  226.26   32.83
   1  -7   2  261.16   32.76
   1  -7   2  215.15   30.73
   1  -7   2  250.92   31.89
   1  -7   3  191.20   28.49
   1  -7   3  146.31   25.80
   1  -7   3  168.37   28.51
   1  -7   3  228.70   36.47
   1  -7   3  167.69   26.62
   1  -7   3  155.24   29.93
  -1  -7  -3  201.11   30.20
   1  -7   3  174.71   30.35
  -1  -7  -3  187.48   32.58
  -1  -7  -3  151.76   28.85
   1  -7   3  155.75   24.21
  -1  -7  -3  216.26   32.50
   1  -7   3  146.03   25.06
  -1  -7  -3  167.92   25.26
   1  -7   3  198.05   28.28
   1  -7   3  217.22   34.63
   1  -7   3  234.74   39.14
  -1  -7  -3  219.84   32.61
   1  -7   3  202.72   26.66
   1  -7   4  521.36   41.15
   1  -7   4  517.26   55.41
  -1  -7  -4  664.97   59.92
  -1  -7  -4  631.23   59.98
  -1  -7  -4  602.46   57.46
  -1  -7  -4  662.67   63.13
   1  -7   4  550.63   50.69
   1  -7   4  436.42   48.75
   1  -7   4  439.31   54.82
   1  -7   4  585.53   49.47
   1  -7   4  696.19   53.05
   1  -7   4  704.36   66.85
  -1  -7  -4  577.67   62.24
   1  -7   4  380.22   50.22
   1  -7   4  673.89   51.67
   1  -7   4  682.49   70.46
   1  -7   4  599.83   52.19
   1  -7   4  563.36   52.67
  -1  -7  -4  709.06   66.09
   1  -7   5  635.04   56.24
   1  -7   5  683.54   67.60
   1  -7   5  656.12   56.45
   1  -7   5  538.43   56.69
  -1  -7  -5  694.60   67.95
  -1  -7  -5  713.64   66.74
   1  -7   5  785.99   58.94
   1  -7   5  814.45   73.85
   1  -7   5  849.54   70.31
   1  -7   5  802.38   59.38
  -1  -7  -5  789.97   72.37
  -1  -7  -5  871.89   63.33
   1  -7   5  598.34   46.20
  -1  -7  -5  857.31   70.50
   1  -7   5  558.97   55.65
  -1  -7  -5  719.30   69.34
   1  -7   5  659.88   73.23
   1  -7   6   29.47   13.02
  -1  -7  -6   25.77   13.87
  -1  -7  -6   25.29   12.46
   1  -7   6   11.71    9.41
   1  -7   6   22.19    9.82
  -1  -7  -6   25.50   14.05
   1  -7   6   17.17   13.78
   1  -7   6   20.37   11.08
  -1  -7  -6   32.51   14.58
   1  -7   6   27.06   13.00
   1  -7   6   18.77   10.62
  -1  -7  -7  313.18   33.44
   1  -7   7  215.64   28.33
   1  -7   7  216.84   27.62
  -1  -7  -7  274.24   31.14
   1  -7   7  268.64   33.91
  -1  -7  -7  151.61   26.44
   1  -7   7  224.83   34.94
   1  -7   7  222.23   30.51
  -1  -7  -7  288.13   30.88
   1  -7   7  251.24   30.92
   1  -7   8  242.42   29.38
  -1  -7  -8  512.63   30.74
   1  -7   8  307.92   31.38
  -1  -7  -8  388.65   31.55
  -1  -7  -8  415.10   33.06
  -1  -7  -8  410.81   34.15
   1  -7   8  337.12   32.12
  -1  -6   9  279.07   29.84
   1  -6  -9  286.93   25.36
   1  -6  -9  328.64   28.70
  -1  -6   9  259.83   30.93
  -1  -6   9  258.02   31.26
   1  -6  -9  400.59   32.84
  -1  -6   9  339.59   35.37
  -1  -6   9  371.21   34.80
   1  -6  -8  622.97   47.86
   1  -6  -8  564.61   42.89
   1  -6  -8  403.15   44.15
  -1  -6   8  671.97   55.83
  -1  -6   8  670.31   55.47
  -1  -6   8  514.23   43.04
  -1  -6   8  591.49   46.82
   1  -6  -8  740.55   52.93
  -1  -6   8  585.71   51.77
  -1  -6   7  308.50   39.05
   1  -6  -7  217.09   32.45
   1  -6  -7  236.70   28.00
   1  -6  -7  183.70   24.27
  -1  -6   7  286.01   37.39
  -1  -6   7  247.79   30.87
   1  -6  -7  215.89   33.84
   1  -6  -7  273.66   35.43
  -1  -6   7  243.05   29.97
  -1  -6   7  232.77   33.68
   1  -6  -6   29.05   13.80
   1  -6  -6   42.00   18.78
  -1  -6   6   27.45   11.51
   1  -6  -6   55.07   17.50
   1  -6  -6   37.34   11.55
  -1  -6   6   40.33   13.21
  -1  -6   6   25.74   15.16
   1  -6  -6   43.90   14.62
  -1  -6   6   37.84   16.20
   1  -6  -6   47.68   16.77
  -1  -6   6   43.48   17.33
   1  -6  -6   38.14   17.49
  -1  -6   6   69.35   19.51
   1  -6  -6   53.36   17.97
   1  -6  -6   42.54   15.74
  -1  -6   6   41.49   16.93
   1  -6  -6   51.15   18.00
  -1  -6   5 1249.39   80.15
  -1  -6   5  988.15   77.04
   1  -6  -5  851.77   67.63
  -1  -6   5  917.08   75.79
   1  -6  -5  842.02   74.89
  -1  -6   5  681.14   75.36
   1  -6  -5  973.46   69.90
   1  -6  -5  790.14   57.23
   1  -6  -5  859.78   71.88
  -1  -6   5  918.47   60.03
   1  -6  -5  916.07   71.51
  -1  -6   5  928.72   65.22
  -1  -6   5  807.23   75.25
  -1  -6   5 1181.41   80.56
   1  -6  -4  978.71   74.32
  -1  -6   4 1033.45   76.35
   1  -6  -4  826.74   67.94
   1  -6  -4 1165.77   82.02
  -1  -6   4  706.83   72.49
  -1  -6   4 1107.71   78.31
   1  -6  -4 1157.62   81.33
  -1  -6   4 1208.92   73.67
   1  -6  -4 1165.24   81.08
  -1  -6   4 1090.58   68.61
   1  -6  -4  977.96   63.39
   1  -6  -4 1057.29   80.14
   1  -6  -4 1125.67   71.61
  -1  -6   3   23.32   10.86
  -1  -6   3   13.61   10.41
  -1  -6   3   14.94   12.43
   1  -6  -3   23.54   11.40
  -1  -6   3   22.17   11.63
  -1  -6   3   17.86    9.81
   1  -6  -3   11.81    8.14
   1  -6  -3   12.79   10.27
  -1  -6   3   20.02   11.00
   1  -6  -3   27.04   12.73
   1  -6  -3   19.11   10.88
   1  -6  -3   11.86    9.19
   1  -6  -3   16.58   10.71
   1  -6  -3    7.37    6.33
   1  -6  -3   19.23    8.47
   1  -6  -3   29.83    9.64
   1  -6  -3   23.63    9.79
   1  -6  -3   23.46   12.37
  -1  -6   2  287.23   32.60
   1  -6  -2  317.44   37.45
   1  -6  -2  365.22   36.19
   1  -6  -2  321.34   33.68
   1  -6  -2  317.08   32.14
   1  -6  -2  345.07   35.97
   1  -6  -2  359.43   35.22
   1  -6  -2  296.22   30.98
  -1  -6   2  297.79   32.78
  -1  -6   2  289.70   31.45
  -1  -6   2  362.78   43.24
  -1  -6   2  342.33   32.71
   1  -6  -2  379.68   39.95
   1  -6  -1 2623.38  125.04
  -1  -6   1 2591.75  126.17
   1  -6  -1 2567.10  122.11
  -1  -6   1 2654.07  135.44
   1  -6  -1 2584.09  128.98
  -1  -6   1 2340.89  115.04
   1  -6  -1 2709.27  124.39
   1  -6  -1 2766.61  129.29
   1  -6  -1 2701.60  127.73
  -1  -6   1 2506.24  133.97
   1  -6  -1 2785.45  122.87
   1  -6  -1 2809.16  136.46
   1  -6  -1 2647.96  117.44
   1  -6  -1 2497.71  123.66
  -1  -6   1 2420.00  119.51
   1  -6  -1 2785.06  126.11
   1  -6   0  243.11   29.02
   1  -6   0  208.95   27.33
   1  -6   0  255.63   25.37
   1  -6   0  239.80   31.62
  -1  -6   0  192.87   20.96
   1  -6   0  204.80   26.02
   1  -6   0  255.73   29.63
  -1  -6   0  282.46   33.39
   1  -6   0  260.60   29.27
  -1  -6   0  228.16   32.88
  -1  -6   0  218.82   30.67
   1  -6   0  267.68   30.97
   1  -6   0  259.14   28.48
   1  -6   0  276.27   30.06
  -1  -6   0  228.92   31.23
  -1  -6   0  232.96   24.79
   1  -6   0  243.43   29.38
   1  -6   1  163.49   25.41
  -1  -6  -1  192.69   28.82
  -1  -6  -1  155.71   25.28
  -1  -6  -1  186.18   29.12
   1  -6   1  163.26   23.18
  -1  -6  -1  141.07   21.71
   1  -6   1  217.53   27.48
   1  -6   1  193.63   25.50
   1  -6   1  155.36   23.29
  -1  -6  -1  161.40   25.72
   1  -6   1  142.39   18.70
   1  -6   1  156.82   25.62
   1  -6   1  174.62   25.16
   1  -6   1  142.40   19.49
   1  -6   1  154.59   24.99
   1  -6   2  906.26   61.42
   1  -6   2  938.79   61.82
  -1  -6  -2  942.98   66.59
   1  -6   2  793.21   50.88
   1  -6   2  973.46   69.98
   1  -6   2  942.91   67.78
  -1  -6  -2  985.05   72.57
  -1  -6  -2 1035.99   67.88
   1  -6   2  988.67   72.87
   1  -6   2  948.16   66.27
   1  -6   2  875.81   64.19
  -1  -6  -2  961.51   66.60
   1  -6   2  984.08   71.35
   1  -6   2  828.32   60.46
   1  -6   2  862.74   63.79
  -1  -6  -2  866.77   63.31
   1  -6   2  944.71   56.89
  -1  -6  -2  971.25   70.19
   1  -6   2  827.13   59.41
   1  -6   3 1591.92   98.27
   1  -6   3 1343.04   86.48
  -1  -6  -3 1329.23   75.37
   1  -6   3 1431.68   81.36
   1  -6   3 1711.93  104.45
   1  -6   3 1257.95   79.26
   1  -6   3 1460.73   89.47
  -1  -6  -3 1554.72   89.25
   1  -6   3 1345.93   90.70
  -1  -6  -3 1454.78   86.88
  -1  -6  -3 1374.08   85.48
   1  -6   3 1363.59   77.15
   1  -6   3 1167.47   80.77
   1  -6   3 1437.73   80.07
   1  -6   3 1305.89   79.30
  -1  -6  -3 1490.86   91.34
   1  -6   3 1229.88   73.79
   1  -6   3 1458.84   92.40
  -1  -6  -3 1398.83   83.79
   1  -6   3 1036.31   72.44
  -1  -6  -3 1017.10   66.27
  -1  -6  -4  118.18   21.34
  -1  -6  -4  157.29   26.80
  -1  -6  -4  136.88   28.41
   1  -6   4  120.94   24.97
   1  -6   4  163.51   24.55
   1  -6   4  164.65   33.76
  -1  -6  -4  171.87   28.65
   1  -6   4  165.10   31.19
  -1  -6  -4  149.48   28.00
  -1  -6  -4  182.30   30.12
   1  -6   4  149.36   20.46
   1  -6   4  149.59   24.25
   1  -6   4  140.90   24.40
   1  -6   4  153.06   26.19
   1  -6   4  118.52   25.67
   1  -6   4  160.65   25.35
   1  -6   4  129.62   27.76
   1  -6   4  145.73   24.02
   1  -6   4  161.53   26.38
   1  -6   5  154.23   26.57
  -1  -6  -5  154.31   31.13
  -1  -6  -5  222.33   35.11
   1  -6   5  197.43   32.40
  -1  -6  -5  229.30   30.89
  -1  -6  -5  218.09   34.62
  -1  -6  -5  262.05   37.92
   1  -6   5  155.05   26.57
  -1  -6  -5  224.90   36.92
   1  -6   5  162.16   29.26
   1  -6   5  232.81   41.31
   1  -6   5  234.57   31.04
   1  -6   5  190.19   25.25
   1  -6   5  210.53   36.89
   1  -6   5  228.05   30.92
  -1  -6  -6  283.39   42.04
   1  -6   6  403.89   42.83
   1  -6   6  403.92   42.56
   1  -6   6  263.15   31.76
  -1  -6  -6  536.37   58.13
  -1  -6  -6  415.46   40.79
  -1  -6  -6  489.37   52.65
   1  -6   6  383.06   42.51
  -1  -6  -6  380.51   49.90
   1  -6   6  456.34   48.80
  -1  -6  -6  359.33   46.39
   1  -6   6  495.42   50.81
   1  -6   6  458.77   59.39
   1  -6   6  350.20   47.11
   1  -6   6  480.32   53.93
   1  -6   6  335.70   39.98
   1  -6   6  330.22   34.67
   1  -6   6  434.94   48.83
  -1  -6  -6  423.38   43.64
  -1  -6  -7  347.13   42.67
   1  -6   7  341.99   38.32
  -1  -6  -7  467.67   41.96
   1  -6   7  352.52   39.98
   1  -6   7  364.01   43.49
   1  -6   7  285.24   38.47
   1  -6   7  400.90   42.97
   1  -6   7  324.91   34.03
  -1  -6  -7  455.64   43.88
   1  -6   7  450.14   46.39
  -1  -6  -8   32.90   12.73
  -1  -6  -8   45.58   12.64
  -1  -6  -8   46.31   14.10
   1  -6   8   27.80   12.77
   1  -6   8   25.75   10.58
   1  -6   8   39.53   13.05
  -1  -6  -8   33.02   12.52
   1  -6   8   18.86   10.29
  -1  -6  -8   25.19   12.14
   1  -6   8   40.95   14.17
  -1  -6  -9   64.09   13.37
  -1  -6  -9   49.07   11.55
   1  -6   9   24.44    9.64
   1  -5 -10  489.56   31.61
  -1  -5  10  322.94   33.11
  -1  -5   9   64.28   17.60
  -1  -5   9   72.43   16.66
   1  -5  -9   72.11   15.60
   1  -5  -9   69.83   16.59
  -1  -5   9   39.23   13.49
  -1  -5   9   64.45   15.01
   1  -5  -9   48.15   11.57
  -1  -5   9   36.88   14.19
   1  -5  -9   73.95   15.40
   1  -5  -8  144.14   24.51
  -1  -5   8  141.58   22.66
   1  -5  -8  130.59   21.25
  -1  -5   8  167.67   26.14
  -1  -5   8  144.33   27.27
   1  -5  -8  159.41   24.15
  -1  -5   8  161.75   25.73
   1  -5  -8  167.89   27.16
   1  -5  -8  183.33   28.36
  -1  -5   8  187.80   29.96
  -1  -5   7  341.79   54.30
   1  -5  -7  567.95   64.06
   1  -5  -7  684.52   58.26
  -1  -5   7  784.08   62.92
   1  -5  -7  802.81   62.47
  -1  -5   7  546.06   62.01
  -1  -5   7  676.91   54.59
  -1  -5   7  783.68   63.97
   1  -5  -7  647.44   64.43
  -1  -5   7  546.87   57.51
   1  -5  -7  659.48   50.49
   1  -5  -7  538.27   45.58
  -1  -5   7  709.86   54.33
   1  -5  -7  654.24   53.30
  -1  -5   7  563.17   55.99
   1  -5  -7  651.02   59.79
   1  -5  -6  408.08   42.48
  -1  -5   6  450.08   46.96
   1  -5  -6  369.25   45.01
  -1  -5   6  418.41   50.30
   1  -5  -6  401.47   43.68
  -1  -5   6  348.75   37.50
   1  -5  -6  380.06   47.03
  -1  -5   6  429.16   45.46
  -1  -5   6  363.51   42.87
   1  -5  -6  331.09   45.88
   1  -5  -6  271.48   33.75
   1  -5  -5  225.29   27.03
   1  -5  -5  218.66   30.11
  -1  -5   5  244.11   35.00
   1  -5  -5  260.81   33.17
   1  -5  -5  201.47   33.66
  -1  -5   5  263.50   28.37
  -1  -5   5  267.54   37.63
  -1  -5   5  223.63   27.55
   1  -5  -5  280.73   37.93
  -1  -5   5  317.89   37.68
   1  -5  -5  244.93   31.60
  -1  -5   5  311.88   36.37
  -1  -5   5  227.61   31.16
   1  -5  -5  229.95   36.13
   1  -5  -5  228.54   34.35
   1  -5  -4  399.35   43.41
   1  -5  -4  548.81   43.57
  -1  -5   4  356.50   34.78
   1  -5  -4  460.96   45.23
   1  -5  -4  311.62   37.04
  -1  -5   4  515.27   46.83
   1  -5  -4  341.04   37.98
  -1  -5   4  435.74   37.90
  -1  -5   4  427.23   36.42
   1  -5  -4  425.50   44.31
   1  -5  -4  429.19   39.18
  -1  -5   4  350.72   39.54
  -1  -5   3 1671.73   90.05
  -1  -5   3 1552.36   79.69
  -1  -5   3 1826.04   89.27
   1  -5  -3 1804.82   95.19
  -1  -5   3 1465.82   77.00
   1  -5  -3 1518.48   92.25
   1  -5  -3 1721.66   95.50
   1  -5  -3 1657.45   85.16
  -1  -5   3 1849.04   87.68
   1  -5  -3 1819.58   97.53
   1  -5  -3 1622.60   86.95
  -1  -5   3 1546.09   89.12
   1  -5  -3 1585.99   89.86
   1  -5  -2 2590.74  121.70
  -1  -5   2 2251.30  106.47
  -1  -5   2 2524.57  109.88
  -1  -5   2 2473.60  112.09
   1  -5  -2 2390.98  112.10
   1  -5  -2 2534.88  116.89
  -1  -5   2 2216.10  121.34
   1  -5  -2 2363.35  115.59
   1  -5  -2 2622.42  117.49
   1  -5  -2 2463.95  115.09
   1  -5  -2 2382.81  107.36
  -1  -5   2 2003.99  101.54
   1  -5  -1   67.27   14.10
   1  -5  -1   69.74   15.21
   1  -5  -1   61.75   13.41
   1  -5  -1   58.89   15.35
  -1  -5   1   57.50   15.72
   1  -5  -1   43.36   10.78
  -1  -5   1   52.89   11.28
  -1  -5   1   35.10    8.92
  -1  -5   1   48.63   14.70
  -1  -5   1   56.22   13.04
   1  -5  -1   58.81   12.01
   1  -5  -1   67.32   13.65
   1  -5  -1   47.39   12.26
   1  -5   0 2150.47   94.46
  -1  -5   0 1635.48   81.07
  -1  -5   0 1921.65   99.97
   1  -5   0 2072.78   88.20
   1  -5   0 2249.38   99.04
  -1  -5   0 1871.21  104.34
  -1  -5   0 2006.72  102.54
  -1  -5   0 2148.54  100.10
   1  -5   0 2018.88   96.26
   1  -5   0 1959.38   94.66
   1  -5   0 1834.79   93.40
   1  -5   0 2125.59  101.97
  -1  -5   0 1814.20   85.65
   1  -5   0 2176.39   96.27
   1  -5   0 1789.67   90.78
   1  -5   1 1642.79   89.36
   1  -5   1 1623.07   86.82
   1  -5   1 1546.68   82.40
  -1  -5  -1 1641.02   87.03
  -1  -5  -1 1543.47   86.88
   1  -5   1 1483.74   80.08
   1  -5   1 1691.81   86.70
   1  -5   1 1537.03   73.26
  -1  -5  -1 1559.89   85.39
   1  -5   1 1674.60   88.85
   1  -5   1 1720.66   84.11
  -1  -5  -1 1838.34   91.83
   1  -5   1 1391.17   75.46
   1  -5   1 1671.72   82.95
  -1  -5  -1 1520.15   89.22
   1  -5   2 1833.51   84.28
  -1  -5  -2 1738.80   91.18
  -1  -5  -2 1764.46   95.48
   1  -5   2 1911.39  101.02
   1  -5   2 1782.90   95.12
   1  -5   2 1774.07   88.45
   1  -5   2 1648.35   90.26
   1  -5   2 1573.87   84.63
  -1  -5  -2 1794.25   93.27
   1  -5   2 1731.75   87.39
  -1  -5  -2 1797.15   90.48
   1  -5   2 1467.28   76.19
  -1  -5  -2 1795.44   98.79
   1  -5   2 1729.86   87.48
   1  -5   2 1781.85   96.22
   1  -5   3  112.24   22.20
   1  -5   3   94.81   17.08
   1  -5   3  118.00   23.10
   1  -5   3  133.61   25.53
   1  -5   3  127.86   21.25
  -1  -5  -3  104.34   20.37
  -1  -5  -3  139.75   21.43
  -1  -5  -3  131.18   19.83
   1  -5   3   79.93   15.64
   1  -5   3  112.46   18.29
  -1  -5  -3  116.73   21.40
  -1  -5  -3   95.15   16.68
   1  -5   3  105.61   21.05
   1  -5   3  121.88   18.70
   1  -5   3   86.25   16.58
   1  -5   3  108.27   18.72
   1  -5   3  120.18   19.34
   1  -5   3  107.95   19.13
   1  -5   3  111.96   21.66
  -1  -5  -3  127.03   17.64
   1  -5   4  816.43   58.73
   1  -5   4  976.08   75.96
  -1  -5  -4 1098.92   79.62
  -1  -5  -4 1326.35   80.72
   1  -5   4 1210.53   72.31
  -1  -5  -4 1367.43   84.78
   1  -5   4 1280.59   90.69
  -1  -5  -4 1294.75   77.14
   1  -5   4 1098.29   71.27
  -1  -5  -4 1222.77   82.66
   1  -5   4 1210.81   72.41
  -1  -5  -4 1194.94   67.92
   1  -5   4 1333.22   80.75
  -1  -5  -4 1191.29   69.94
   1  -5   4 1136.21   72.18
   1  -5   4 1238.14   73.30
   1  -5   4 1134.66   80.74
  -1  -5  -4 1416.67   84.14
   1  -5   4 1118.39   71.69
   1  -5   4 1207.67   66.77
   1  -5   5  951.14   74.87
  -1  -5  -5  711.42   68.61
  -1  -5  -5  988.04   62.85
   1  -5   5  945.20   65.69
  -1  -5  -5  892.96   70.26
  -1  -5  -5  948.45   64.94
   1  -5   5  757.75   65.10
  -1  -5  -5  933.71   74.67
  -1  -5  -5  871.87   69.82
   1  -5   5  679.14   62.45
   1  -5   5  917.23   64.65
  -1  -5  -5  937.40   72.01
   1  -5   5  731.87   59.67
   1  -5   5  994.44   72.37
   1  -5   5  972.27   68.36
   1  -5   5  950.21   75.86
   1  -5   5  913.44   79.31
   1  -5   5  789.74   61.32
   1  -5   5  887.89   58.66
  -1  -5  -5  920.46   63.35
  -1  -5  -6   20.32   11.58
   1  -5   6   24.99   12.57
  -1  -5  -6   27.63   14.66
  -1  -5  -6   17.71   10.28
  -1  -5  -6   13.10    8.66
  -1  -5  -6   17.23   13.12
   1  -5   6   22.61   11.05
   1  -5   6   12.16   11.26
   1  -5   6   23.87   11.79
  -1  -5  -6   50.32   15.64
   1  -5   6   16.93   11.38
  -1  -5  -6   16.83   13.71
  -1  -5  -6    8.35   12.36
   1  -5   6   17.86   12.31
  -1  -5  -6   14.48   11.33
  -1  -5  -6   43.01   13.37
   1  -5   6   28.12   13.94
   1  -5   6   26.06   11.73
  -1  -5  -6   19.56   15.15
   1  -5   6   15.69   13.21
   1  -5   7   95.62   23.48
   1  -5   7   97.10   23.80
   1  -5   7   76.16   19.15
   1  -5   7   72.96   18.20
  -1  -5  -7  109.56   22.08
  -1  -5  -7  116.48   25.89
  -1  -5  -7   91.30   22.16
   1  -5   7   80.25   20.94
  -1  -5  -7   89.59   20.02
   1  -5   7   72.66   18.55
  -1  -5  -7  110.86   21.58
   1  -5   7   88.92   23.27
  -1  -5  -7   94.89   22.15
  -1  -5  -7  111.17   25.79
   1  -5   8  648.69   53.17
   1  -5   8  864.39   65.06
   1  -5   8  771.87   63.30
   1  -5   8  806.26   63.51
   1  -5   8  662.61   53.86
  -1  -5  -8 1003.47   58.68
  -1  -5  -8  937.22   60.14
  -1  -5  -8  884.48   61.80
  -1  -5  -8  588.17   55.39
  -1  -5  -9  226.03   26.43
   1  -5   9  136.59   22.64
   1  -5   9  180.22   24.77
   1  -5   9  143.85   23.61
   1  -5   9  156.17   21.98
  -1  -5  -9  132.75   19.02
   1  -4 -10   43.96   11.71
  -1  -4  10   20.03   11.13
  -1  -4  10   44.38   12.60
  -1  -4  10   36.25   11.29
   1  -4 -10   36.64   10.45
  -1  -4  10   39.30   12.39
   1  -4  -9  288.73   33.77
   1  -4  -9  305.09   33.07
  -1  -4   9  291.64   31.54
  -1  -4   9  338.01   39.74
  -1  -4   9  299.90   37.07
   1  -4  -9  187.77   32.61
  -1  -4   9  333.54   38.95
  -1  -4   9  357.83   38.33
  -1  -4   9  344.78   35.93
   1  -4  -9  387.02   38.29
   1  -4  -9  271.68   33.77
   1  -4  -9  313.59   32.02
   1  -4  -9  398.22   36.81
   1  -4  -9  340.06   36.01
   1  -4  -8  575.89   62.79
   1  -4  -8  798.21   66.10
   1  -4  -8  793.11   65.05
   1  -4  -8  820.88   62.06
   1  -4  -8  786.27   57.95
  -1  -4   8 1008.73   71.87
  -1  -4   8  831.41   61.28
   1  -4  -8  754.75   57.67
  -1  -4   8 1009.42   72.59
   1  -4  -8  634.54   73.85
  -1  -4   8  728.25   69.96
  -1  -4   8  741.54   56.06
  -1  -4   8  523.99   59.56
  -1  -4   8  876.70   64.71
  -1  -4   8  913.97   62.53
   1  -4  -8 1067.60   70.84
   1  -4  -8  626.07   56.73
  -1  -4   8  917.05   69.59
   1  -4  -8  843.25   73.58
  -1  -4   7  368.70   40.94
   1  -4  -7  266.32   36.80
  -1  -4   7  247.05   37.11
   1  -4  -7  249.71   30.57
  -1  -4   7  285.97   38.00
   1  -4  -7  234.18   34.84
   1  -4  -7  247.26   38.54
  -1  -4   7  260.60   40.21
   1  -4  -7  221.89   36.85
   1  -4  -7  223.48   29.68
   1  -4  -7  276.40   37.15
   1  -4  -7  231.95   41.00
  -1  -4   7  296.19   35.66
  -1  -4   7  318.12   39.62
   1  -4  -7  287.34   37.27
  -1  -4   7  294.41   40.68
   1  -4  -7  332.16   38.77
   1  -4  -7  259.06   32.63
   1  -4  -6  526.28   56.44
  -1  -4   6  619.27   55.00
   1  -4  -6  647.56   47.60
   1  -4  -6  484.85   55.18
   1  -4  -6  546.59   49.43
   1  -4  -6  603.32   56.26
  -1  -4   6  546.08   53.11
   1  -4  -6  599.98   53.16
   1  -4  -6  642.19   53.53
   1  -4  -6  589.25   54.41
   1  -4  -6  526.33   42.54
  -1  -4   6  613.59   52.49
  -1  -4   6  615.68   53.64
   1  -4  -6  599.23   53.45
   1  -4  -6  531.85   56.14
  -1  -4   6  587.30   57.14
   1  -4  -6  428.20   40.32
  -1  -4   5 1652.96   89.69
   1  -4  -5 1372.05   80.54
   1  -4  -5 1508.78   86.84
  -1  -4   5 1799.71   99.02
   1  -4  -5 1907.17   99.89
   1  -4  -5 1493.40   84.45
   1  -4  -5 1456.85   86.42
   1  -4  -5 1394.98   92.14
  -1  -4   5 1910.54   96.87
   1  -4  -5 1278.16   88.17
   1  -4  -5 1122.44   86.61
   1  -4  -5 1569.45   80.72
  -1  -4   5 1887.12   93.80
   1  -4  -5 1284.07   80.31
   1  -4  -5 1735.27  110.53
   1  -4  -5 1440.69   85.19
   1  -4  -5 1891.63   99.75
  -1  -4   5 1537.23   76.23
   1  -4  -4 1950.08  101.53
   1  -4  -4 1775.92   90.57
   1  -4  -4 1853.87   98.57
  -1  -4   4 1744.35   78.13
  -1  -4   4 1768.00   89.61
   1  -4  -4 1911.02   97.88
   1  -4  -4 1820.31   89.32
   1  -4  -4 1429.53   89.50
  -1  -4   4 2140.23  103.17
   1  -4  -4 1929.36   96.54
   1  -4  -4 1503.29   87.79
  -1  -4   4 2155.92  102.96
  -1  -4   4 1719.87   84.79
   1  -4  -4 1800.53   89.77
  -1  -4   3   67.49   12.15
   1  -4  -3   64.56   14.07
  -1  -4   3   83.33   16.30
   1  -4  -3   75.07   16.21
   1  -4  -3   80.42   12.97
  -1  -4   3   57.24    8.53
   1  -4  -3   79.69   16.31
   1  -4  -3   83.75   16.92
   1  -4  -3   68.84   14.77
  -1  -4   3   61.80   10.44
  -1  -4   3   78.78   13.13
   1  -4  -3   79.28   14.65
  -1  -4   3   83.14   15.86
  -1  -4   2 1392.73   65.09
   1  -4  -2 1396.51   69.52
  -1  -4   2 1454.50   70.26
   1  -4  -2 1734.07   81.69
   1  -4  -2 1623.40   80.72
  -1  -4   2 1605.27   75.41
   1  -4  -2 1758.74   84.52
   1  -4  -2 1550.10   77.19
   1  -4  -2 1597.18   74.73
  -1  -4   2 1464.98   75.93
   1  -4  -2 1635.83   81.29
   1  -4  -2 1538.58   77.50
   1  -4  -1 1683.19   77.06
   1  -4  -1 1688.65   74.22
  -1  -4   1 1529.37   80.13
   1  -4  -1 1500.71   73.00
   1  -4  -1 1303.78   60.22
   1  -4  -1 1576.03   69.54
  -1  -4   1 1548.47   71.97
   1  -4  -1 1594.67   74.71
  -1  -4   1 1539.70   71.49
  -1  -4   1 1328.88   64.79
  -1  -4   0  889.44   47.57
  -1  -4   0 1295.64   64.87
   1  -4   0 1327.22   68.02
  -1  -4   0 1133.45   64.08
   1  -4   0 1227.68   61.58
  -1  -4   0 1165.72   65.98
   1  -4   0 1362.13   63.90
   1  -4   0 1210.57   62.29
   1  -4   0 1254.70   61.40
  -1  -4   0 1075.45   51.98
   1  -4   0 1238.82   62.59
   1  -4   0 1293.87   61.30
   1  -4   0 1174.28   54.68
   1  -4   0 1137.88   59.67
   1  -4   1  470.70   34.25
  -1  -4  -1  526.03   39.50
   1  -4   1  460.57   28.23
  -1  -4  -1  502.79   36.29
   1  -4   1  499.02   38.27
  -1  -4  -1  493.33   38.96
   1  -4   1  404.50   24.97
   1  -4   1  533.96   38.31
   1  -4   1  553.39   35.44
  -1  -4  -1  518.37   37.72
   1  -4   1  541.42   38.34
   1  -4   1  453.36   33.32
   1  -4   1  466.62   36.43
  -1  -4  -1  454.80   36.93
   1  -4   1  519.55   35.57
  -1  -4  -2 3539.58  158.25
   1  -4   2 3757.44  161.14
   1  -4   2 3981.89  159.37
   1  -4   2 3503.35  149.49
   1  -4   2 4317.21  161.07
  -1  -4  -2 4093.61  163.96
  -1  -4  -2 3932.64  159.48
   1  -4   2 4053.79  157.10
   1  -4   2 4326.95  168.02
  -1  -4  -2 4053.51  158.61
   1  -4   2 4358.85  172.26
   1  -4   2 4019.73  165.18
   1  -4   2 4059.58  155.50
  -1  -4  -2 4123.21  165.57
   1  -4   2 3624.71  155.89
   1  -4   3 2110.50  106.68
   1  -4   3 1856.66   89.97
  -1  -4  -3 2036.36  105.06
  -1  -4  -3 1777.78   86.12
  -1  -4  -3 2046.61   86.84
   1  -4   3 1786.89   89.95
   1  -4   3 1949.80   90.84
  -1  -4  -3 2216.86  100.20
  -1  -4  -3 1985.17   90.19
  -1  -4  -3 2205.70   99.46
   1  -4   3 1784.15   94.47
   1  -4   3 2008.02  100.93
   1  -4   3 1561.95   84.28
   1  -4   3 1957.47   93.65
  -1  -4  -3 2050.47   93.59
  -1  -4  -3 1878.58   97.62
   1  -4   3 1903.81   91.49
   1  -4   3 1904.42   93.40
   1  -4   4  115.74   23.60
  -1  -4  -4   99.48   17.32
   1  -4   4   98.96   17.30
   1  -4   4   80.76   16.37
   1  -4   4   97.84   18.05
  -1  -4  -4  107.67   21.26
   1  -4   4  116.63   19.64
  -1  -4  -4  107.20   17.40
   1  -4   4   96.89   17.99
  -1  -4  -4   76.40   18.33
  -1  -4  -4  104.65   19.77
  -1  -4  -4  105.68   19.62
  -1  -4  -4  105.06   20.81
  -1  -4  -4   95.16   17.15
   1  -4   4   97.52   19.38
   1  -4   4   72.78   11.85
   1  -4   4   89.84   18.55
   1  -4   4   87.04   15.52
  -1  -4  -4   85.55   14.79
   1  -4   4   87.97   16.79
   1  -4   4   96.96   16.35
   1  -4   5  158.63   24.46
  -1  -4  -5  151.50   24.28
   1  -4   5  128.24   24.84
   1  -4   5  110.16   21.85
   1  -4   5  108.61   20.61
  -1  -4  -5  169.22   28.84
  -1  -4  -5  139.55   25.37
  -1  -4  -5  133.86   24.40
  -1  -4  -5  131.89   23.92
  -1  -4  -5  162.11   21.87
   1  -4   5  123.69   21.15
  -1  -4  -5  135.32   21.07
   1  -4   5   91.99   19.99
   1  -4   5  134.10   24.41
   1  -4   5  132.90   23.04
   1  -4   5  152.13   22.40
  -1  -4  -5  137.74   21.61
  -1  -4  -5  113.23   18.83
   1  -4   5  132.15   23.34
  -1  -4  -5  125.81   25.58
  -1  -4  -6 1405.82   94.14
  -1  -4  -6 1175.89   85.69
  -1  -4  -6 1385.32   91.30
   1  -4   6 1356.44   85.08
  -1  -4  -6 1346.64   79.63
   1  -4   6 1361.55   81.42
   1  -4   6 1349.11   91.17
  -1  -4  -6  956.83   78.00
  -1  -4  -6 1597.65   89.56
  -1  -4  -6 1244.13   78.60
  -1  -4  -6 1366.34   94.48
  -1  -4  -6 1526.41   84.08
   1  -4   6 1550.76  104.10
   1  -4   6 1348.30   82.21
  -1  -4  -6 1461.12   84.33
   1  -4   6 1265.03   88.69
  -1  -4  -6 1386.31   87.77
   1  -4   6 1331.67   86.23
   1  -4   6 1591.13   90.97
   1  -4   6 1511.95   94.48
   1  -4   6 1362.14   83.40
  -1  -4  -6 1410.58   79.87
  -1  -4  -6 1568.79  104.63
  -1  -4  -6 1175.11   69.94
  -1  -4  -6 1662.89  102.55
  -1  -4  -7  659.50   51.54
   1  -4   7  560.64   54.92
  -1  -4  -7  664.43   54.53
  -1  -4  -7  681.27   54.87
  -1  -4  -7  514.59   41.63
   1  -4   7  581.88   53.50
   1  -4   7  595.80   52.28
   1  -4   7  562.10   50.54
  -1  -4  -7  730.13   59.38
  -1  -4  -7  576.25   50.89
  -1  -4  -7  575.42   51.04
  -1  -4  -7  614.06   63.16
   1  -4   7  559.53   51.48
  -1  -4  -7  623.84   68.27
   1  -4   7  582.65   56.88
   1  -4   7  709.64   61.77
  -1  -4  -7  551.71   56.25
   1  -4   7  706.52   58.21
  -1  -4  -7  746.83   68.98
   1  -4   7  652.26   65.52
   1  -4   7  610.91   58.78
  -1  -4  -7  591.37   54.15
   1  -4   8   64.87   20.78
  -1  -4  -8  108.37   22.91
  -1  -4  -8   74.49   16.60
  -1  -4  -8  119.58   21.48
  -1  -4  -8  126.24   20.66
   1  -4   8   83.47   21.99
  -1  -4  -8   78.09   19.26
  -1  -4  -8   63.80   18.52
   1  -4   8   82.95   20.41
   1  -4   8   61.86   16.02
   1  -4   8   89.74   22.88
   1  -4   8   76.26   20.48
   1  -4   8   95.67   20.68
   1  -4   9  174.33   25.62
   1  -4   9  224.60   25.63
   1  -4   9  185.27   28.11
   1  -4   9  174.94   28.26
  -1  -4  -9  190.81   27.31
   1  -4   9  215.86   29.57
  -1  -4  -9  193.76   24.88
   1  -4   9  195.57   25.89
   1  -4   9  169.47   27.57
   1  -4  10  103.37   17.91
  -1  -4 -10  181.31   20.37
  -1  -3  11   80.74   15.80
  -1  -3  11  133.98   18.25
   1  -3 -10  143.15   20.31
   1  -3 -10   74.33   21.02
  -1  -3  10  136.15   21.54
   1  -3 -10  147.74   21.74
  -1  -3  10  205.59   27.17
   1  -3 -10  216.64   25.18
  -1  -3  10  171.11   27.63
   1  -3 -10  183.48   23.08
   1  -3 -10  191.06   23.53
   1  -3  -9  273.55   37.91
   1  -3  -9  293.50   34.49
  -1  -3   9  309.60   38.49
   1  -3  -9  325.88   35.90
   1  -3  -9  389.14   40.07
   1  -3  -9  340.73   37.40
  -1  -3   9  333.37   37.88
   1  -3  -9  240.34   39.08
  -1  -3   9  291.01   33.87
  -1  -3   9  300.84   34.59
  -1  -3   9  273.83   36.20
  -1  -3   9  329.96   41.07
   1  -3  -9  294.71   38.23
  -1  -3   8  136.91   30.54
  -1  -3   8  199.42   32.01
   1  -3  -8  217.67   31.86
  -1  -3   8  175.82   29.58
   1  -3  -8  202.19   29.54
   1  -3  -8  148.52   29.85
  -1  -3   8  176.16   28.19
   1  -3  -8  139.41   20.11
  -1  -3   8  199.23   33.43
   1  -3  -8  165.27   28.97
  -1  -3   8  142.89   25.22
   1  -3  -8  177.80   31.85
   1  -3  -8  222.02   37.98
  -1  -3   8  184.06   29.10
   1  -3  -8  226.70   33.57
   1  -3  -8  180.15   34.23
  -1  -3   8  207.73   28.97
   1  -3  -8  123.81   22.96
  -1  -3   8  230.51   32.46
   1  -3  -8  182.16   28.47
   1  -3  -7  493.65   51.40
   1  -3  -7  401.56   41.41
   1  -3  -7  498.55   50.47
   1  -3  -7  406.38   43.62
  -1  -3   7  465.76   46.19
  -1  -3   7  332.20   38.55
  -1  -3   7  476.18   50.67
   1  -3  -7  497.63   47.43
   1  -3  -7  399.88   40.59
  -1  -3   7  512.51   47.35
   1  -3  -7  472.27   49.48
   1  -3  -7  371.60   51.16
   1  -3  -7  491.67   59.37
   1  -3  -7  426.11   54.58
  -1  -3   7  378.41   43.81
  -1  -3   7  490.73   48.01
   1  -3  -7  414.85   41.21
   1  -3  -6 1019.81   73.08
  -1  -3   6 1072.97   73.86
   1  -3  -6 1044.72   81.89
   1  -3  -6 1055.01   70.28
   1  -3  -6 1220.92   79.11
   1  -3  -6  950.50   62.94
  -1  -3   6 1272.74   74.01
   1  -3  -6 1129.05   71.45
   1  -3  -6  986.83   77.81
  -1  -3   6 1098.41   72.20
  -1  -3   6 1120.39   70.84
   1  -3  -6 1136.25   75.94
  -1  -3   6 1089.41   77.47
   1  -3  -6 1066.19   72.44
  -1  -3   6 1167.48   76.81
   1  -3  -6 1138.61   66.90
   1  -3  -6 1040.57   80.05
  -1  -3   6 1003.15   64.04
   1  -3  -6  979.62   65.12
   1  -3  -6  962.89   62.84
   1  -3  -5   99.70   21.67
   1  -3  -5  103.98   21.27
   1  -3  -5  118.72   17.43
   1  -3  -5  112.69   16.53
  -1  -3   5  150.08   22.48
  -1  -3   5  159.17   25.10
   1  -3  -5  102.16   20.81
  -1  -3   5  102.00   19.07
   1  -3  -5  114.71   21.05
   1  -3  -5  105.37   21.83
   1  -3  -5  111.13   19.00
  -1  -3   5  158.13   19.43
  -1  -3   5  124.58   20.27
   1  -3  -5   99.48   18.38
   1  -3  -5   95.88   14.18
   1  -3  -5  122.30   21.15
   1  -3  -5  107.35   19.98
   1  -3  -4  544.85   40.91
   1  -3  -4  492.91   39.24
   1  -3  -4  535.14   44.84
   1  -3  -4  579.68   41.16
   1  -3  -4  562.89   46.10
  -1  -3   4  646.33   47.39
  -1  -3   4  586.47   41.09
   1  -3  -4  513.36   42.53
  -1  -3   4  565.72   34.81
  -1  -3   4  481.62   33.09
  -1  -3   4  615.79   45.69
   1  -3  -3 2652.32  121.66
   1  -3  -3 2623.05  112.23
   1  -3  -3 2950.02  121.78
   1  -3  -3 2272.19  113.16
   1  -3  -3 2965.11  120.91
   1  -3  -3 2996.37  129.17
  -1  -3   3 2986.69  113.48
   1  -3  -3 3132.67  123.66
  -1  -3   3 3457.16  126.38
   1  -3  -3 2564.68  113.38
  -1  -3   3 2862.93  104.54
  -1  -3   3 2198.00   98.04
   1  -3  -3 2683.50  116.28
  -1  -3   3 2739.69  109.84
  -1  -3   3 3106.45  122.70
  -1  -3   2 1202.98   61.63
   1  -3  -2 2125.19   84.99
   1  -3  -2 1837.59   81.48
   1  -3  -2 1708.67   75.66
  -1  -3   2 2066.21   82.84
   1  -3  -2 2006.13   82.60
   1  -3  -2 1828.02   80.45
  -1  -3   2 1528.43   67.76
   1  -3  -2 1631.20   76.59
   1  -3  -2 1906.67   76.80
  -1  -3   2 1644.44   69.42
   1  -3  -2 1810.55   77.83
  -1  -3   2 1808.49   77.26
  -1  -3   1   83.34    6.66
   1  -3  -1   83.24   11.91
  -1  -3   1  100.96   12.25
   1  -3  -1   94.83   12.17
   1  -3  -1  104.00   14.05
  -1  -3   1   80.83    7.89
   1  -3  -1  106.57   12.07
  -1  -3   1  101.73   12.98
  -1  -3   1   94.33   11.07
   1  -3   0  940.83   40.37
   1  -3   0  937.32   48.19
   1  -3   0  941.34   48.10
   1  -3   0  984.56   51.00
  -1  -3   0  997.61   48.94
  -1  -3   0  874.59   40.60
   1  -3   0  855.15   40.12
   1  -3   0  924.12   44.95
   1  -3   0 1078.07   48.17
  -1  -3   0  826.54   46.72
   1  -3   1 6612.89  196.55
  -1  -3  -1 5477.87  194.88
   1  -3   1 6302.72  198.90
   1  -3   1 5767.57  191.28
   1  -3   1 6042.51  204.56
   1  -3   1 6358.11  201.51
  -1  -3  -1 5766.45  201.84
   1  -3   1 5225.93  185.54
  -1  -3  -1 5645.60  201.42
  -1  -3  -1 5446.33  196.85
   1  -3   1 6260.63  201.93
   1  -3   1 5504.63  195.33
  -1  -3  -1 5301.44  192.11
  -1  -3  -1 3914.45  176.71
   1  -3   1 6459.65  204.01
   1  -3   2 1495.31   72.46
  -1  -3  -2 1339.48   66.76
   1  -3   2 1436.97   68.29
   1  -3   2 1535.76   76.66
  -1  -3  -2 1500.45   71.76
  -1  -3  -2 1507.27   72.20
  -1  -3  -2 1455.54   65.93
   1  -3   2 1387.07   66.85
   1  -3   2 1449.50   72.87
   1  -3   2 1469.13   66.00
  -1  -3  -2 1392.97   69.69
   1  -3   2 1648.30   76.62
   1  -3   2 1593.46   69.81
   1  -3   2 1464.73   70.54
   1  -3   2 1548.53   71.01
   1  -3   2 1342.58   66.95
  -1  -3  -3  532.99   36.97
  -1  -3  -3  489.41   30.25
   1  -3   3  430.54   33.80
   1  -3   3  513.20   41.42
  -1  -3  -3  513.87   36.76
   1  -3   3  427.32   33.89
  -1  -3  -3  488.26   33.07
   1  -3   3  504.47   37.95
   1  -3   3  404.33   28.46
  -1  -3  -3  499.11   31.47
   1  -3   3  450.50   34.50
   1  -3   3  489.92   36.16
  -1  -3  -3  451.43   36.96
   1  -3   3  494.23   33.93
   1  -3   3  521.19   36.56
   1  -3   3  450.65   32.28
  -1  -3  -4 1841.05  100.74
  -1  -3  -4 2154.95   90.30
   1  -3   4 2336.34   95.80
   1  -3   4 1655.65   89.85
   1  -3   4 1964.02   97.90
  -1  -3  -4 2270.39   94.98
  -1  -3  -4 1832.22   97.80
   1  -3   4 1741.50   94.36
   1  -3   4 2123.99  102.97
   1  -3   4 1732.87   90.54
  -1  -3  -4 2030.78   96.48
   1  -3   4 2057.91   92.50
  -1  -3  -4 2276.58   99.89
  -1  -3  -4 2102.04   90.57
   1  -3   4 1351.25   75.91
   1  -3   4 2303.31  100.18
   1  -3   4 2186.11  109.00
   1  -3   4 2286.36   99.73
  -1  -3  -5  764.53   49.84
   1  -3   5  749.79   61.52
   1  -3   5  649.27   47.51
  -1  -3  -5  695.21   54.12
   1  -3   5  711.67   51.33
  -1  -3  -5  827.96   53.89
   1  -3   5  719.34   53.32
  -1  -3  -5  747.56   44.80
   1  -3   5  773.88   58.53
  -1  -3  -5  647.73   53.83
   1  -3   5  607.50   50.30
   1  -3   5  764.09   58.19
   1  -3   5  801.87   64.80
   1  -3   5  774.31   57.68
  -1  -3  -5  753.20   61.95
   1  -3   5  759.03   53.65
  -1  -3  -5  892.03   63.28
  -1  -3  -5  702.96   55.43
  -1  -3  -5  663.32   48.00
   1  -3   5  841.98   54.79
  -1  -3  -5  747.48   50.44
   1  -3   5  704.36   51.47
  -1  -3  -5  854.02   52.62
   1  -3   6  148.95   23.53
   1  -3   6  172.28   28.54
   1  -3   6  181.85   27.34
  -1  -3  -6  149.47   24.07
  -1  -3  -6  169.77   25.17
   1  -3   6  165.61   32.00
  -1  -3  -6  161.91   24.53
   1  -3   6  170.87   26.23
  -1  -3  -6  146.08   24.15
  -1  -3  -6  104.21   18.08
  -1  -3  -6  213.74   33.65
  -1  -3  -6  177.27   29.26
   1  -3   6  146.63   29.22
   1  -3   6  173.96   28.19
   1  -3   6  165.63   28.39
  -1  -3  -6  147.12   26.82
   1  -3   6  153.39   25.10
   1  -3   6  133.33   23.81
   1  -3   6  175.51   25.65
  -1  -3  -6  170.94   26.56
   1  -3   6  165.97   27.50
  -1  -3  -6  140.33   29.44
  -1  -3  -6  158.62   22.54
  -1  -3  -6  154.23   23.58
   1  -3   7  841.13   65.09
  -1  -3  -7  832.31   62.44
  -1  -3  -7 1006.84   83.92
   1  -3   7  859.99   69.39
   1  -3   7  804.12   64.42
   1  -3   7  719.74   69.50
  -1  -3  -7  894.71   63.27
  -1  -3  -7  919.12   66.14
  -1  -3  -7  939.70   77.49
   1  -3   7  795.67   59.23
  -1  -3  -7  654.39   50.29
  -1  -3  -7  585.71   63.58
   1  -3   7  864.66   69.26
   1  -3   7  816.23   69.98
  -1  -3  -7  712.42   68.33
  -1  -3  -7  822.99   63.16
  -1  -3  -7  642.38   56.30
  -1  -3  -7  887.32   59.85
  -1  -3  -7  795.43   66.29
   1  -3   7  700.06   61.55
   1  -3   7  849.90   67.78
   1  -3   7  735.86   58.41
   1  -3   7  834.27   75.80
  -1  -3  -8  140.17   26.45
  -1  -3  -8  136.72   26.22
   1  -3   8  111.91   20.49
   1  -3   8  129.84   26.83
  -1  -3  -8  138.59   26.16
   1  -3   8  146.89   26.56
   1  -3   8  138.47   25.95
  -1  -3  -8  171.33   30.45
   1  -3   8   99.90   22.06
   1  -3   8  127.19   27.44
  -1  -3  -8  109.44   21.66
   1  -3   8  129.31   25.85
  -1  -3  -8  137.86   26.58
  -1  -3  -8  133.30   25.53
   1  -3   9  183.20   27.97
   1  -3   9  128.01   26.50
   1  -3   9  123.10   26.09
   1  -3   9  188.70   27.61
  -1  -3  -9  217.98   30.18
  -1  -3  -9  196.46   27.63
   1  -3   9  192.56   29.11
   1  -3   9  199.54   29.06
   1  -3   9  138.26   22.43
  -1  -3  -9  131.50   20.82
  -1  -3  -9  204.63   28.85
  -1  -3  -9  203.24   30.23
  -1  -3  -9  184.63   27.62
  -1  -3 -10   -1.27    7.17
  -1  -3 -10    5.43    8.52
  -1  -3 -10   18.31    9.70
   1  -3  10   11.24    7.51
   1  -3  10    8.26    5.55
  -1  -2  11   91.84   15.89
  -1  -2  11  135.68   18.41
   1  -2 -11  128.07   18.22
  -1  -2  11  136.18   20.82
  -1  -2  10   72.94   14.82
   1  -2 -10   58.38   17.64
  -1  -2  10   70.04   16.56
   1  -2 -10   32.40   14.95
   1  -2 -10   66.40   15.86
   1  -2 -10   49.58   14.06
  -1  -2  10   60.80   16.05
  -1  -2  10   65.46   17.57
   1  -2 -10   31.68   14.28
  -1  -2  10   54.49   17.41
  -1  -2   9  414.11   43.25
   1  -2  -9  537.31   53.14
   1  -2  -9  404.98   43.55
  -1  -2   9  352.78   39.35
  -1  -2   9  364.19   42.83
  -1  -2   9  399.00   43.31
  -1  -2   9  434.95   48.84
   1  -2  -9  588.63   48.76
  -1  -2   9  514.68   48.12
   1  -2  -9  593.05   50.57
   1  -2  -9  399.72   42.98
   1  -2  -9  421.64   47.86
  -1  -2   9  454.16   42.88
   1  -2  -9  498.09   45.95
   1  -2  -8  557.55   50.95
   1  -2  -8  491.72   41.87
  -1  -2   8  373.04   44.87
   1  -2  -8  677.07   56.48
   1  -2  -8  644.04   59.77
   1  -2  -8  648.77   55.30
   1  -2  -8  624.41   59.88
   1  -2  -8  549.17   64.56
  -1  -2   8  600.66   52.88
  -1  -2   8  565.51   58.47
  -1  -2   8  471.24   53.85
  -1  -2   8  491.04   50.40
  -1  -2   8  622.02   56.90
   1  -2  -8  614.11   67.31
  -1  -2   8  591.36   52.80
  -1  -2   8  583.52   53.09
   1  -2  -8  628.17   53.55
   1  -2  -8  600.83   59.69
  -1  -2   7  406.90   42.64
   1  -2  -7  413.89   45.36
  -1  -2   7  373.97   39.25
   1  -2  -7  366.55   43.48
  -1  -2   7  395.66   39.88
   1  -2  -7  356.10   38.70
   1  -2  -7  424.68   46.57
   1  -2  -7  396.35   40.93
  -1  -2   7  343.89   43.27
   1  -2  -7  284.03   34.48
   1  -2  -7  258.57   43.33
  -1  -2   7  304.43   39.51
  -1  -2   7  300.56   36.25
   1  -2  -7  340.38   37.80
  -1  -2   7  414.43   41.18
   1  -2  -7  326.61   48.20
   1  -2  -7  355.95   47.79
  -1  -2   7  356.56   38.13
   1  -2  -7  347.46   37.42
  -1  -2   6  445.63   40.89
   1  -2  -6  428.23   42.79
   1  -2  -6  387.70   36.43
  -1  -2   6  400.90   36.95
   1  -2  -6  395.39   41.85
   1  -2  -6  355.89   34.72
  -1  -2   6  405.80   37.92
   1  -2  -6  447.32   49.37
   1  -2  -6  437.22   42.51
  -1  -2   6  387.78   35.72
   1  -2  -6  395.81   37.07
   1  -2  -6  352.67   43.92
   1  -2  -6  380.93   38.54
  -1  -2   6  375.25   38.73
   1  -2  -6  397.07   35.98
   1  -2  -6  368.13   38.45
   1  -2  -6  384.64   47.17
   1  -2  -6  373.93   37.52
  -1  -2   6  399.40   40.90
   1  -2  -6  408.08   38.33
   1  -2  -5 3289.55  152.15
   1  -2  -5 2829.14  133.11
   1  -2  -5 3118.90  146.14
   1  -2  -5 2960.45  137.31
  -1  -2   5 2873.31  130.38
   1  -2  -5 2628.90  119.66
  -1  -2   5 3804.70  150.53
   1  -2  -5 3259.75  141.03
  -1  -2   5 3381.52  131.29
   1  -2  -5 2982.87  130.37
  -1  -2   5 3460.17  140.87
   1  -2  -5 3020.21  136.54
   1  -2  -5 3402.59  150.42
   1  -2  -5 2973.01  147.88
   1  -2  -5 3386.94  140.73
  -1  -2   5 3579.07  142.68
   1  -2  -5 2916.15  120.86
  -1  -2   5 2728.38  128.51
   1  -2  -4  800.57   51.16
   1  -2  -4  778.08   45.72
  -1  -2   4  978.53   53.64
   1  -2  -4  729.27   53.17
   1  -2  -4  883.91   58.35
   1  -2  -4  838.01   52.49
  -1  -2   4  899.75   46.79
   1  -2  -4  902.86   52.81
   1  -2  -4  721.02   52.39
   1  -2  -4  820.62   51.79
   1  -2  -4  851.32   50.81
   1  -2  -3 1318.68   66.03
   1  -2  -3 1215.41   61.72
   1  -2  -3 1042.60   58.62
   1  -2  -3 1424.75   69.31
   1  -2  -3 1415.02   68.79
  -1  -2   3 1069.76   54.56
  -1  -2   3 1597.07   70.67
  -1  -2   3 1399.42   62.70
  -1  -2   3 1611.00   70.96
   1  -2  -2 2849.49  106.17
   1  -2  -2 3141.18  109.58
  -1  -2   2 3184.38  110.41
   1  -2  -2 2765.01  107.89
  -1  -2   2 2617.71   96.65
   1  -2  -2 2843.36  105.80
   1  -2  -2 3019.41  110.94
   1  -2  -2 2973.88  109.79
  -1  -2   2 2559.56  100.36
  -1  -2   1 2677.76  118.06
   1  -2  -1 3875.79  129.52
  -1  -2   1 2988.53  114.39
   1  -2  -1 3373.37  121.08
   1  -2  -1 3231.57  123.89
   1  -2  -1 3784.17  121.13
   1  -2   0 4344.05  151.43
   1  -2   0 3798.93  141.59
  -1  -2   0 3697.45  136.00
   1  -2   0 4212.78  148.29
   1  -2   0 3764.30  144.30
   1  -2   0 3908.12  138.21
   1  -2   0 4584.73  146.36
   1  -2   0 3935.24  148.08
   1  -2   0 3968.27  146.00
  -1  -2  -1 6250.42  231.65
  -1  -2  -1 6665.34  237.01
   1  -2   1 7245.98  241.61
   1  -2   1 6909.31  240.99
   1  -2   1 6797.93  235.30
  -1  -2  -1 6124.02  223.77
  -1  -2  -1 5988.95  230.67
   1  -2   1 7509.10  237.51
   1  -2   1 7704.09  233.03
  -1  -2  -1 6418.14  234.73
   1  -2   1 7361.49  241.98
   1  -2   1 6619.72  224.56
  -1  -2  -2 1353.04   65.25
  -1  -2  -2 1474.39   53.98
  -1  -2  -2 1398.35   62.51
   1  -2   2 1401.61   57.46
  -1  -2  -2 1447.71   64.44
   1  -2   2 1406.18   64.69
  -1  -2  -2 1364.51   56.84
   1  -2   2 1468.44   64.39
  -1  -2  -2 1340.29   59.58
   1  -2   2 1349.06   57.17
   1  -2   2 1524.34   69.93
   1  -2   3 2171.86   94.44
   1  -2   3 2578.62   99.94
   1  -2   3 1661.40   90.72
   1  -2   3 2253.14   93.47
  -1  -2  -3 2159.22   86.15
  -1  -2  -3 2054.82   96.43
   1  -2   3 2384.31   99.71
  -1  -2  -3 2437.21   89.31
   1  -2   3 1710.01   81.14
   1  -2   3 2578.80  105.95
   1  -2   3 2222.16   99.00
   1  -2   3 2501.81  100.23
  -1  -2  -3 2608.40   97.33
   1  -2   3 2605.46   96.41
  -1  -2  -3 1831.79   87.35
  -1  -2  -3 2373.99  102.12
  -1  -2  -3 2326.94   94.53
   1  -2   3 2576.32  100.23
   1  -2   4   63.02   12.26
   1  -2   4   65.61   13.33
   1  -2   4   59.62   15.52
   1  -2   4   58.48   14.00
  -1  -2  -4   53.36   11.90
  -1  -2  -4   56.47   12.29
   1  -2   4   54.60   14.37
  -1  -2  -4   67.24   11.61
  -1  -2  -4   55.60   10.44
  -1  -2  -4   59.37   12.60
  -1  -2  -4   49.09    9.53
  -1  -2  -4   76.97   16.10
   1  -2   4   69.43   14.60
   1  -2   4   55.58   11.81
   1  -2   4   55.71   13.07
   1  -2   4   63.60   12.29
  -1  -2  -4   51.58   14.73
  -1  -2  -5  495.71   38.92
   1  -2   5  516.54   43.41
  -1  -2  -5  478.46   42.01
   1  -2   5  426.08   36.57
   1  -2   5  486.90   42.12
   1  -2   5  502.43   44.28
  -1  -2  -5  364.53   33.48
   1  -2   5  480.60   45.59
  -1  -2  -5  492.62   38.34
   1  -2   5  454.48   43.09
  -1  -2  -5  456.09   41.04
   1  -2   5  458.71   40.11
   1  -2   5  490.38   40.97
  -1  -2  -5  539.88   46.33
  -1  -2  -5  451.13   41.29
   1  -2   5  539.39   44.75
  -1  -2  -5  514.51   47.97
   1  -2   5  501.80   47.65
   1  -2   5  422.09   36.67
  -1  -2  -5  467.53   35.97
   1  -2   6 1169.97   75.39
   1  -2   6 1147.02   74.74
  -1  -2  -6 1215.46   73.27
   1  -2   6 1218.02   70.50
  -1  -2  -6 1236.42   72.90
  -1  -2  -6 1347.20   89.79
  -1  -2  -6  936.84   60.97
   1  -2   6 1187.60   78.82
  -1  -2  -6  858.59   62.99
   1  -2   6 1168.88   84.29
   1  -2   6 1143.54   79.68
   1  -2   6 1150.38   78.99
   1  -2   6 1081.04   72.91
  -1  -2  -6 1074.64   76.68
   1  -2   6 1107.61   69.13
  -1  -2  -6 1063.80   64.20
  -1  -2  -6 1291.42   79.53
   1  -2   6 1304.83   81.43
   1  -2   6 1163.33   70.09
  -1  -2  -6 1125.76   68.94
  -1  -2  -6 1168.40   71.35
   1  -2   6 1174.70   80.66
  -1  -2  -6 1366.97   86.90
  -1  -2  -7  966.89   70.06
   1  -2   7  965.39   73.14
   1  -2   7  862.32   63.04
  -1  -2  -7 1077.88   71.72
   1  -2   7 1118.89   80.40
  -1  -2  -7  993.54   70.25
  -1  -2  -7 1118.33   84.51
  -1  -2  -7 1112.38   88.81
  -1  -2  -7 1007.82   75.53
   1  -2   7 1068.71   79.03
   1  -2   7 1016.16   78.81
  -1  -2  -7 1067.05   65.42
  -1  -2  -7 1091.43   70.75
   1  -2   7 1076.98   72.04
  -1  -2  -7  995.21   78.62
  -1  -2  -7  821.40   61.76
   1  -2   7  845.29   66.46
   1  -2   7  987.43   72.19
   1  -2   7  998.97   65.80
   1  -2   7  930.00   74.73
  -1  -2  -7  804.79   58.42
   1  -2   7  986.80   64.86
  -1  -2  -8  148.20   29.44
  -1  -2  -8  147.42   26.26
  -1  -2  -8  180.65   33.06
  -1  -2  -8  128.87   25.99
  -1  -2  -8  108.70   24.47
   1  -2   8  132.18   24.82
   1  -2   8  129.44   26.75
  -1  -2  -8   84.41   24.77
   1  -2   8  133.78   26.50
   1  -2   8  114.83   23.09
   1  -2   8  131.32   26.06
  -1  -2  -8  126.89   23.98
   1  -2   8  126.68   25.13
   1  -2   8  129.86   27.84
   1  -2   8  109.75   27.21
  -1  -2  -8  151.92   27.13
  -1  -2  -9  236.13   33.04
  -1  -2  -9  216.87   32.65
   1  -2   9  182.40   28.54
  -1  -2  -9  242.21   32.26
  -1  -2  -9  183.80   26.14
   1  -2   9  240.57   32.04
   1  -2   9  159.63   30.54
   1  -2   9  219.32   33.71
  -1  -2  -9  200.05   31.16
   1  -2   9  166.94   23.65
  -1  -2  -9  239.35   30.62
   1  -2   9  194.66   32.17
  -1  -2 -10  207.11   28.91
   1  -2  10  148.41   25.43
  -1  -2 -10  264.43   30.11
   1  -2  10  233.74   27.56
   1  -2  10  182.54   24.21
   1  -2  10  233.36   27.14
   1  -2  10  168.19   26.75
  -1  -2 -10  258.10   26.83
  -1  -2 -10  264.48   28.43
   1  -1 -11  178.80   21.49
  -1  -1  11  158.45   21.12
  -1  -1  11  171.18   22.72
  -1  -1  10  404.63   45.11
   1  -1 -10  443.71   44.97
   1  -1 -10  482.13   48.20
  -1  -1  10  500.88   45.09
   1  -1 -10  529.34   41.78
  -1  -1  10  476.89   40.13
   1  -1 -10  343.59   47.44
   1  -1 -10  431.25   36.73
  -1  -1   9  127.30   26.81
   1  -1  -9  101.07   24.92
   1  -1  -9   81.23   21.68
  -1  -1   9  107.79   22.89
   1  -1  -9   91.75   17.37
  -1  -1   9   65.46   17.28
   1  -1  -9  104.13   25.00
  -1  -1   9   95.61   21.65
   1  -1  -9  115.42   22.98
   1  -1  -9  127.78   23.41
  -1  -1   9  116.21   21.54
  -1  -1   8  143.23   28.00
  -1  -1   8  142.02   25.93
   1  -1  -8  138.65   22.46
   1  -1  -8  189.23   32.45
   1  -1  -8  160.76   32.85
   1  -1  -8  156.58   30.83
  -1  -1   8  113.35   20.52
   1  -1  -8  145.01   27.59
   1  -1  -8  184.24   28.42
  -1  -1   8  189.76   30.23
  -1  -1   8  138.13   27.25
   1  -1  -8  166.07   28.39
   1  -1  -8  166.60   35.91
  -1  -1   8  142.71   28.98
  -1  -1   8  141.21   26.78
   1  -1  -8  192.20   29.84
   1  -1  -8  164.82   28.50
  -1  -1   8  121.71   23.51
   1  -1  -8  144.30   28.19
  -1  -1   7  693.92   54.28
   1  -1  -7  841.65   66.89
  -1  -1   7  739.51   57.27
   1  -1  -7  878.70   62.34
   1  -1  -7  827.63   64.56
   1  -1  -7  815.86   62.21
  -1  -1   7  796.20   64.66
  -1  -1   7  858.56   61.55
   1  -1  -7  801.11   70.31
   1  -1  -7  819.72   64.94
  -1  -1   7  839.97   65.94
   1  -1  -7  712.55   52.48
  -1  -1   7  874.19   62.46
  -1  -1   7  602.32   52.49
   1  -1  -7  819.99   59.79
  -1  -1   7  876.93   63.43
   1  -1  -7  744.52   74.09
   1  -1  -7  840.37   68.41
   1  -1  -7  791.82   59.52
  -1  -1   6 1092.51   65.85
   1  -1  -6  978.33   68.58
   1  -1  -6  834.96   52.85
   1  -1  -6 1030.03   74.58
   1  -1  -6 1038.30   79.37
   1  -1  -6 1031.91   65.93
  -1  -1   6 1204.96   72.21
   1  -1  -6  965.18   62.82
   1  -1  -6  993.78   61.65
  -1  -1   6 1049.44   61.76
  -1  -1   6  984.39   63.71
   1  -1  -6  919.80   61.26
   1  -1  -6 1093.92   69.26
  -1  -1   6 1247.95   74.87
  -1  -1   6 1058.62   63.02
   1  -1  -6  942.62   74.89
  -1  -1   6 1089.57   64.37
   1  -1  -6 1061.04   71.99
   1  -1  -6 1022.92   68.46
   1  -1  -6 1026.94   55.38
   1  -1  -6  860.31   59.39
  -1  -1   5    5.04    6.64
   1  -1  -5    5.94    7.15
   1  -1  -5    4.60    7.99
   1  -1  -5    8.31    8.71
   1  -1  -5    8.87    5.59
  -1  -1   5    4.48    5.40
   1  -1  -5   12.03    8.28
  -1  -1   5    6.71    7.25
   1  -1  -5    8.38    8.73
   1  -1  -5    7.32    8.35
  -1  -1   5    9.20    6.64
  -1  -1   5    4.32    5.92
   1  -1  -5    9.12    9.40
  -1  -1   5    6.77    6.25
  -1  -1   5   10.00    6.45
   1  -1  -5   12.17    6.12
   1  -1  -5    5.49    7.96
   1  -1  -4  649.72   43.72
   1  -1  -4  621.50   32.42
  -1  -1   4  877.41   46.77
   1  -1  -4  631.58   41.43
   1  -1  -4  761.05   44.27
  -1  -1   4  581.19   37.70
  -1  -1   4  650.52   38.85
   1  -1  -4  754.75   52.18
   1  -1  -4  711.44   48.63
   1  -1  -4  733.84   50.20
   1  -1  -4  678.63   34.73
   1  -1  -4  741.18   45.21
   1  -1  -4  723.78   48.06
  -1  -1   4  560.62   37.32
  -1  -1   4  859.13   46.99
   1  -1  -4  604.17   43.74
   1  -1  -4  636.26   41.69
   1  -1  -3 3191.72  109.33
   1  -1  -3 2047.47   98.44
   1  -1  -3 3482.53  121.84
  -1  -1   3 2915.55  104.98
  -1  -1   3 3359.64  109.56
   1  -1  -3 2861.63  115.70
  -1  -1   3 2720.24  107.75
  -1  -1   3 2397.22   91.14
   1  -1  -3 2836.81   97.20
   1  -1  -3 3150.43  115.26
   1  -1  -2 1618.63   54.50
   1  -1  -2 1458.11   57.62
   1  -1  -2 1652.75   62.34
  -1  -1   2 1591.59   55.01
  -1  -1   2 1402.49   50.74
  -1  -1   2 1116.02   42.77
  -1  -1   2 1568.04   50.29
   1  -1  -1  969.35   40.92
   1  -1  -1  958.39   35.41
   1  -1  -1 1009.63   38.95
   1  -1  -1  946.90   39.81
   1  -1  -1  677.31   33.16
  -1  -1   1  689.63   27.49
   1  -1   0 6660.22  215.63
   1  -1   0 6029.52  218.38
   1  -1   0 6832.83  223.73
   1  -1   0 5720.83  208.73
   1  -1   0 7044.89  208.91
   1  -1   0 6048.83  213.08
   1  -1   0 6402.83  213.72
  -1  -1   0 5630.64  207.45
  -1  -1  -1 9072.65  282.53
  -1  -1  -1 8620.73  283.30
   1  -1   1 8937.80  286.77
  -1  -1  -1 8143.70  282.69
  -1  -1  -1 8782.39  279.25
  -1  -1  -1 7315.57  274.03
   1  -1   1 8297.53  275.68
  -1  -1  -1 7609.52  278.83
  -1  -1  -1 8092.98  279.35
   1  -1   1 9698.17  283.57
   1  -1   1 8544.90  279.89
  -1  -1  -1 7836.33  275.60
  -1  -1  -2 4387.23  161.36
  -1  -1  -2 4553.72  156.73
  -1  -1  -2 4412.04  152.99
   1  -1   2 4104.37  161.53
   1  -1   2 4583.23  163.07
  -1  -1  -2 4894.70  165.80
  -1  -1  -2 3961.70  149.59
   1  -1   2 4180.93  154.14
  -1  -1  -2 4375.61  153.45
   1  -1   2 4418.69  161.91
   1  -1   2 4453.85  161.87
   1  -1   2 4441.30  164.53
  -1  -1  -2 4310.92  154.57
   1  -1   3  440.99   29.73
  -1  -1  -3  368.76   21.41
   1  -1   3  403.27   28.46
  -1  -1  -3  474.38   33.19
   1  -1   3  387.01   28.24
  -1  -1  -3  399.65   25.13
  -1  -1  -3  347.30   25.76
   1  -1   3  384.06   30.14
   1  -1   3  438.16   31.84
  -1  -1  -3  448.99   28.04
   1  -1   3  379.30   29.03
  -1  -1  -3  528.08   36.04
   1  -1   3  441.60   31.69
  -1  -1  -3  425.47   27.21
  -1  -1  -3  366.52   24.50
   1  -1   4 1143.27   61.22
  -1  -1  -4 1320.75   67.44
   1  -1   4 1123.49   58.01
  -1  -1  -4 1007.36   55.40
   1  -1   4 1172.92   63.16
  -1  -1  -4  979.78   53.99
   1  -1   4  819.21   56.50
   1  -1   4  836.03   57.84
  -1  -1  -4 1038.00   52.98
   1  -1   4  823.86   56.86
  -1  -1  -4 1051.08   56.86
   1  -1   4 1050.81   58.56
  -1  -1  -4 1151.87   61.66
  -1  -1  -4 1341.16   70.70
  -1  -1  -4 1021.35   50.73
  -1  -1  -4 1111.91   58.57
   1  -1   4 1024.50   56.50
   1  -1   5 1240.45   71.33
  -1  -1  -5 1568.97   85.76
  -1  -1  -5 1139.65   69.61
   1  -1   5 1423.86   80.82
  -1  -1  -5 1345.62   69.71
   1  -1   5 1292.55   73.16
   1  -1   5 1342.47   78.22
   1  -1   5 1325.38   72.18
   1  -1   5 1444.63   82.37
  -1  -1  -5 1285.05   74.77
   1  -1   5 1426.10   73.46
   1  -1   5 1250.28   67.66
   1  -1   5 1219.64   73.41
  -1  -1  -5 1427.60   78.24
   1  -1   5 1455.24   81.01
  -1  -1  -5 1350.11   67.81
  -1  -1  -5 1605.70   89.21
   1  -1   5 1276.13   74.85
  -1  -1  -5 1371.62   72.49
   1  -1   5 1499.86   80.52
   1  -1   5 1392.97   80.37
   1  -1   6   35.26   14.27
  -1  -1  -6   75.06   12.89
  -1  -1  -6   45.18   12.39
  -1  -1  -6   49.76   14.53
   1  -1   6   54.13   14.83
  -1  -1  -6   40.65   13.31
   1  -1   6   25.23   10.98
   1  -1   6   39.04   11.95
  -1  -1  -6   41.00   15.93
  -1  -1  -6   64.04   19.58
  -1  -1  -6   26.39    9.48
  -1  -1  -6   31.15   12.25
   1  -1   6   38.02   11.67
   1  -1   6   32.57   11.21
   1  -1   6   33.54   13.01
  -1  -1  -6   21.63   11.09
   1  -1   6   39.75   13.77
  -1  -1  -6   35.74   13.89
   1  -1   6   51.37   17.61
  -1  -1  -6   30.88   12.69
   1  -1   6   37.85   10.25
   1  -1   6   38.10   14.62
   1  -1   6   36.09   11.57
   1  -1   6   48.59   16.35
   1  -1   6   45.79   14.17
   1  -1   6   22.83   12.34
  -1  -1  -6   25.04   11.60
   1  -1   6   29.35   13.86
  -1  -1  -7  273.60   32.95
  -1  -1  -7  297.70   36.07
  -1  -1  -7  289.72   32.37
   1  -1   7  273.38   36.86
   1  -1   7  303.20   40.78
  -1  -1  -7  210.58   27.04
   1  -1   7  275.46   36.60
   1  -1   7  293.22   36.31
  -1  -1  -7  388.05   49.16
   1  -1   7  255.97   31.19
   1  -1   7  285.90   41.12
   1  -1   7  278.77   39.65
   1  -1   7  289.56   40.08
  -1  -1  -7  320.05   37.94
  -1  -1  -7  293.16   36.66
  -1  -1  -7  284.92   37.87
   1  -1   7  297.24   40.73
  -1  -1  -7  262.14   33.28
   1  -1   7  291.56   35.49
  -1  -1  -7  339.26   45.02
   1  -1   7  303.30   34.87
   1  -1   7  245.46   30.27
   1  -1   7  320.89   41.74
  -1  -1  -8 1038.29   77.33
   1  -1   8 1061.19   84.81
  -1  -1  -8 1091.59   77.29
  -1  -1  -8 1134.43   92.23
  -1  -1  -8 1178.62   91.87
   1  -1   8  997.16   81.53
  -1  -1  -8 1084.83   74.00
   1  -1   8  811.33   63.85
   1  -1   8 1056.71   86.04
   1  -1   8 1218.06   82.11
  -1  -1  -8 1106.09   71.56
   1  -1   8 1067.15   83.88
   1  -1   8 1092.89   76.68
  -1  -1  -8  946.42   77.49
   1  -1   8 1073.03   69.62
   1  -1   8 1116.01   73.89
  -1  -1  -8 1014.99   71.67
  -1  -1  -8 1059.06   76.09
  -1  -1  -8  740.44   76.67
  -1  -1  -8 1230.13   78.42
   1  -1   8 1037.53   81.86
  -1  -1  -9  181.30   29.96
  -1  -1  -9  187.64   30.14
   1  -1   9  154.95   29.95
  -1  -1  -9  211.26   30.48
  -1  -1  -9  208.39   30.19
  -1  -1  -9  218.73   30.48
   1  -1   9  209.00   31.19
  -1  -1  -9  181.42   29.80
   1  -1   9  117.33   23.48
   1  -1   9  169.79   26.80
  -1  -1  -9  153.16   25.27
   1  -1   9  169.93   31.18
   1  -1   9  162.50   29.55
   1  -1  10   51.99   18.06
  -1  -1 -10   76.03   19.58
  -1  -1 -10   91.05   15.49
   1  -1  10  127.15   21.20
   1  -1  10   73.43   18.00
   1  -1  10   83.30   17.32
   1  -1  10   72.24   17.60
   1  -1  10   74.48   15.21
  -1  -1 -10  123.47   20.41
  -1  -1 -10  106.82   20.08
  -1  -1 -10  108.55   20.91
  -1   0  11  138.15   20.52
  -1   0  11   98.55   16.25
   1   0 -11  127.23   18.62
   1   0 -10   -1.71    6.77
  -1   0  10    1.22    8.09
   1   0 -10    4.16    9.76
  -1   0  10    3.48    7.56
   1   0 -10    1.48    7.55
  -1   0  10    1.46    8.48
  -1   0  10   -4.47    9.38
   1   0 -10    1.90    9.21
   1   0 -10    1.77    7.42
   1   0  -9  241.00   37.22
   1   0  -9  208.74   33.01
   1   0  -9  235.97   37.94
  -1   0   9  203.44   33.60
  -1   0   9  183.33   29.54
  -1   0   9  236.61   31.83
   1   0  -9  244.49   32.25
  -1   0   9  192.49   26.63
  -1   0   9  232.29   34.10
   1   0  -9  274.74   33.68
   1   0  -9  197.91   31.89
   1   0  -9  218.10   28.29
   1   0  -8 1576.16   91.39
   1   0  -8 1766.41  113.39
   1   0  -8 1986.60  118.49
   1   0  -8 1819.84  108.37
  -1   0   8 1676.81  102.39
   1   0  -8 1770.77   97.58
  -1   0   8 1292.64   87.73
  -1   0   8 1610.45  104.02
  -1   0   8 2036.68  109.58
   1   0  -8 1723.75  125.61
  -1   0   8 1883.31   94.87
   1   0  -8 2249.76  112.52
   1   0  -8 1910.95  110.87
   1   0  -8 1993.64  115.25
   1   0  -8 1989.50  106.60
  -1   0   8 1775.83  101.79
  -1   0   8 1751.25  106.00
   1   0  -8 1783.31  112.14
  -1   0   8 1877.48  109.14
   1   0  -7   -1.51    9.11
   1   0  -7    7.54    9.73
   1   0  -7    9.09   10.37
   1   0  -7   10.43   11.90
   1   0  -7    6.40   11.32
   1   0  -7    3.43    8.31
   1   0  -7    2.58    9.53
  -1   0   7    1.34    8.37
  -1   0   7    2.94    7.86
   1   0  -7    2.23    9.53
  -1   0   7    3.24    4.92
  -1   0   7    3.78    6.65
  -1   0   7    1.37    8.84
  -1   0   7    4.52    7.51
   1   0  -7    8.04    8.07
  -1   0   7   10.93    9.80
   1   0  -7   23.41    8.24
   1   0  -7    8.07   12.49
  -1   0   7   -3.94    9.23
  -1   0   6   15.99    9.11
   1   0  -6   17.24    9.21
   1   0  -6    7.93   10.67
   1   0  -6    5.98    7.73
   1   0  -6   12.75    9.40
   1   0  -6   21.41   11.75
   1   0  -6   38.01    9.71
  -1   0   6    9.64    6.65
   1   0  -6    5.69    8.44
   1   0  -6    8.39    8.75
  -1   0   6   12.00    8.06
   1   0  -6    1.82    9.31
   1   0  -6    4.34    8.21
  -1   0   6   14.96    9.00
  -1   0   6    6.19    7.08
   1   0  -6   18.98   10.42
  -1   0   6   12.56    7.65
   1   0  -6   17.42    7.34
   1   0  -6   16.08    9.99
  -1   0   6    7.57    7.49
  -1   0   6   22.61    6.67
   1   0  -5 2802.73  123.16
   1   0  -5 2829.35  124.06
   1   0  -5 2769.72  128.57
   1   0  -5 2472.65  118.10
   1   0  -5 2720.69  125.63
   1   0  -5 2588.07  127.56
  -1   0   5 2819.45  120.70
  -1   0   5 2655.81  115.90
   1   0  -5 2890.97  140.48
  -1   0   5 2957.47  126.03
  -1   0   5 2738.85  119.52
   1   0  -5 2693.45  114.42
  -1   0   5 2873.23  121.93
  -1   0   5 2715.14  114.76
  -1   0   5 2999.77  129.82
  -1   0   5 3282.46  132.03
   1   0  -4 5055.38  189.64
   1   0  -4 4945.59  176.73
   1   0  -4 5536.80  189.46
   1   0  -4 4980.32  198.26
   1   0  -4 4337.10  179.94
   1   0  -4 5933.22  188.13
   1   0  -4 5081.14  200.92
  -1   0   4 5605.90  184.93
  -1   0   4 5601.74  190.29
   1   0  -4 4607.60  189.51
  -1   0   4 4148.67  181.99
  -1   0   4 4159.37  171.21
   1   0  -4 4593.31  186.23
  -1   0   4 4320.63  179.10
   1   0  -3  191.75   18.30
  -1   0   3  175.55   15.78
   1   0  -3  186.09   21.38
  -1   0   3  178.75   16.16
  -1   0   3  184.07   17.60
   1   0  -3  130.24   18.12
   1   0  -3  162.09   12.79
  -1   0   3  187.38   17.14
   1   0  -3  183.02   16.21
  -1   0   3  142.67   11.69
  -1   0   2 2817.63   87.04
   1   0  -2 2750.57   90.05
   1   0  -2 3127.88  101.30
  -1   0   2 2263.22   84.12
   1   0  -2 2529.90   79.07
  -1   0   2 2842.59   89.78
   1   0  -2 2845.12   86.32
  -1   0   1  859.49   39.01
   1   0  -1  914.89   45.10
   1   0   0   26.25    7.80
   1   0   0   21.45    6.14
  -1   0   0   24.60    3.83
  -1   0  -1   98.84   10.10
  -1   0  -1   73.65    8.46
  -1   0  -1   86.27    9.23
   1   0   1   72.32    9.31
  -1   0  -1   86.14    6.37
   1   0   1   90.33    9.93
  -1   0  -2 1597.32   62.61
   1   0   2 1466.45   62.86
  -1   0  -2 1658.32   62.47
   1   0   2 1456.26   65.74
   1   0   2 1582.50   68.07
   1   0   2 1666.07   67.78
  -1   0  -2 1400.39   58.29
   1   0   2 1467.40   63.62
  -1   0  -2 1551.76   66.04
  -1   0  -2 1330.82   64.92
   1   0   3 4231.95  153.78
   1   0   3 3551.56  146.51
  -1   0  -3 4686.33  157.49
  -1   0  -3 3902.30  147.24
  -1   0  -3 4675.90  160.85
  -1   0  -3 4163.62  145.17
   1   0   3 4125.37  152.70
   1   0   3 3629.53  144.59
   1   0   3 2619.96  143.83
   1   0   3 3406.04  149.39
   1   0   3 3985.71  153.92
  -1   0  -3 4342.61  146.84
   1   0   4    4.65    6.01
  -1   0  -4    9.17    8.22
   1   0   4   -1.80    7.13
  -1   0  -4    0.77    5.56
  -1   0  -4   -0.69    6.48
  -1   0  -4   -0.59    6.63
   1   0   4    6.18    5.75
   1   0   4    1.52    4.90
   1   0   4    3.61    6.67
   1   0   4    6.33    6.84
  -1   0  -4    1.36    5.72
  -1   0  -4    2.61    5.67
   1   0   4   -0.64    4.53
  -1   0  -4   -0.56    4.15
  -1   0  -4   -0.94    8.04
   1   0   4    7.05    7.11
  -1   0  -4   11.05    3.95
   1   0   4    1.39    4.62
   1   0   4    2.79    4.06
   1   0   4    2.75    7.54
   1   0   5   45.13   14.53
   1   0   5   44.03   14.06
  -1   0  -5   35.89   11.30
   1   0   5   42.74   11.03
   1   0   5   33.23   11.43
  -1   0  -5   50.07   13.42
  -1   0  -5   52.41   13.22
   1   0   5   46.67   12.18
   1   0   5   48.87   14.95
   1   0   5   42.57   11.03
  -1   0  -5   41.55   14.29
  -1   0  -5   39.94   12.45
   1   0   5   35.88    9.73
  -1   0  -5   42.59   14.63
  -1   0  -5   43.77   14.27
  -1   0  -5   40.31   10.99
   1   0   5   45.82   14.10
   1   0   5   58.44   14.97
   1   0   5   44.80   13.10
   1   0   5   40.88   13.79
   1   0   6 2224.12  105.85
  -1   0  -6 2115.38  105.49
   1   0   6 2325.10  119.26
  -1   0  -6 2634.80  129.40
  -1   0  -6 2093.33  101.86
  -1   0  -6 2055.65  103.75
  -1   0  -6 2110.41  106.61
  -1   0  -6 2126.10  103.39
  -1   0  -6 2355.36  123.23
  -1   0  -6 2097.93   97.59
   1   0   6 1936.23  103.38
   1   0   6 1955.35  105.40
   1   0   6 2166.12  115.85
  -1   0  -6 1612.68  102.62
   1   0   6 2306.44  120.02
   1   0   6 2195.37  115.75
   1   0   6 1952.95  108.14
  -1   0  -6 2240.94  113.27
   1   0   6 1983.23  105.13
  -1   0  -6 1492.41   90.85
   1   0   6 1985.98  102.19
  -1   0  -6 1915.87  100.84
   1   0   6 2087.09  101.47
   1   0   6 2299.35  119.55
   1   0   6 2271.27  117.62
   1   0   6 1902.68   99.66
   1   0   6 2031.75  104.29
  -1   0  -7  426.55   51.86
  -1   0  -7  428.96   44.38
  -1   0  -7  368.64   40.64
  -1   0  -7  370.79   48.28
  -1   0  -7  412.21   39.94
   1   0   7  359.92   44.78
  -1   0  -7  315.97   41.45
  -1   0  -7  369.20   36.01
  -1   0  -7  411.52   43.13
  -1   0  -7  230.22   36.90
   1   0   7  314.89   37.78
   1   0   7  378.09   46.10
   1   0   7  350.59   37.72
   1   0   7  330.02   43.45
   1   0   7  388.03   43.68
   1   0   7  434.00   43.24
   1   0   7  381.70   39.63
   1   0   7  404.42   48.09
   1   0   7  375.69   46.70
  -1   0  -7  362.08   38.85
   1   0   7  358.67   38.42
  -1   0  -7  367.74   39.29
  -1   0  -8  223.53   31.09
  -1   0  -8  206.84   33.79
  -1   0  -8  212.68   31.60
  -1   0  -8  196.73   31.82
   1   0   8  225.67   31.27
  -1   0  -8  227.57   33.77
  -1   0  -8  185.71   37.52
  -1   0  -8  185.75   30.26
  -1   0  -8  208.10   28.46
   1   0   8  180.06   31.56
   1   0   8  223.77   29.80
   1   0   8  228.96   35.82
   1   0   8  213.21   36.41
   1   0   8  255.86   34.16
  -1   0  -8  194.60   33.60
   1   0   8  206.67   29.30
   1   0   8  192.72   34.68
  -1   0  -8  220.03   32.85
   1   0   8  239.87   37.59
  -1   0  -9   14.50   12.20
   1   0   9   12.18   11.59
  -1   0  -9   27.68   13.46
  -1   0  -9   12.30   10.51
  -1   0  -9   19.08   11.62
   1   0   9   11.58   13.35
   1   0   9   25.80   14.28
   1   0   9   37.07    9.84
   1   0   9   11.48    9.22
  -1   0  -9   17.46   12.21
   1   0   9    9.08    9.61
  -1   0  -9   11.70    9.39
  -1   0  -9   10.62   11.75
  -1   0 -10  257.02   28.82
  -1   0 -10  242.92   32.57
  -1   0 -10  268.80   33.69
  -1   0 -10  216.12   25.57
   1   0  10  312.01   33.24
   1   0  10  210.31   25.24
   1   0  10  170.38   28.56
  -1   1  11  161.20   22.16
   1   1 -11  176.83   22.53
   1   1 -10  434.24   45.28
  -1   1  10  335.01   41.79
  -1   1  10  483.99   40.64
   1   1 -10  519.45   39.96
   1   1 -10  371.70   47.29
   1   1  -9  166.43   26.77
  -1   1   9   94.15   18.04
   1   1  -9  118.87   23.05
  -1   1   9  107.80   19.82
  -1   1   9  106.03   22.32
  -1   1   9  106.21   26.07
   1   1  -9  134.75   26.62
  -1   1   9  148.47   23.52
  -1   1   9  137.89   24.33
   1   1  -9  122.50   26.47
  -1   1   9   97.94   23.14
  -1   1   8  195.49   31.89
  -1   1   8  190.61   26.43
   1   1  -8  183.17   29.40
   1   1  -8  179.44   31.73
   1   1  -8  143.57   24.62
   1   1  -8  143.39   24.99
  -1   1   8  169.43   24.78
  -1   1   8  104.57   21.06
  -1   1   8  162.03   29.61
   1   1  -8  170.07   37.30
  -1   1   8  172.47   28.55
  -1   1   8  134.35   23.66
   1   1  -8  172.44   29.40
   1   1  -8  168.07   28.45
   1   1  -8  159.24   31.32
  -1   1   8  126.67   25.16
  -1   1   8  168.21   30.34
   1   1  -7  835.68   60.92
   1   1  -7  841.44   67.76
   1   1  -7  773.61   63.99
   1   1  -7  890.14   68.00
  -1   1   7  815.19   64.13
   1   1  -7  788.95   57.87
  -1   1   7  828.24   56.13
  -1   1   7  822.04   63.96
  -1   1   7  691.13   55.70
  -1   1   7  818.75   62.58
   1   1  -7  863.77   80.28
   1   1  -7  810.15   60.20
  -1   1   7  830.32   62.16
   1   1  -7  842.44   62.08
  -1   1   7  805.06   55.29
   1   1  -7  738.29   64.27
  -1   1   7  800.33   62.63
  -1   1   7  772.60   58.85
   1   1  -7  751.85   59.64
   1   1  -7  960.16   67.52
  -1   1   7  818.19   69.37
  -1   1   6  843.05   53.99
   1   1  -6  994.11   68.09
   1   1  -6  994.79   63.13
  -1   1   6  988.40   69.52
   1   1  -6  935.55   53.88
   1   1  -6  918.32   64.47
   1   1  -6 1111.86   82.61
   1   1  -6  953.70   66.72
  -1   1   6  967.95   64.56
  -1   1   6  944.05   60.83
   1   1  -6  990.98   66.40
  -1   1   6  912.08   55.39
   1   1  -6  886.35   60.05
  -1   1   6  888.97   54.57
   1   1  -6  924.57   58.79
   1   1  -6  840.39   59.77
  -1   1   6  920.04   59.12
   1   1  -6  924.62   63.69
  -1   1   6  948.91   62.20
  -1   1   6 1050.16   66.55
   1   1  -6  834.07   56.81
  -1   1   5   11.72    8.07
  -1   1   5    5.62    8.29
   1   1  -5   14.87    8.84
   1   1  -5    2.35    9.10
   1   1  -5    1.97    7.62
   1   1  -5   12.74    9.23
  -1   1   5    5.14    6.49
  -1   1   5    7.48    5.50
   1   1  -5   16.22    8.59
   1   1  -5   17.03    9.04
  -1   1   5    9.96    7.34
   1   1  -5    7.47    9.64
   1   1  -5    7.41    9.05
   1   1  -5   16.79    8.58
   1   1  -4  591.10   43.00
   1   1  -4  596.57   38.66
   1   1  -4  693.82   47.78
  -1   1   4  683.37   44.25
   1   1  -4  685.66   45.60
   1   1  -4  776.76   49.65
  -1   1   4  818.66   45.55
   1   1  -4  741.64   53.64
   1   1  -4  818.60   48.44
  -1   1   4  654.53   38.24
   1   1  -4  680.59   41.18
  -1   1   4  787.04   47.09
   1   1  -4  690.89   42.95
   1   1  -4  832.82   46.81
  -1   1   4  722.79   41.90
   1   1  -3 2439.22  111.70
  -1   1   3 3289.23  119.61
   1   1  -3 3587.79  131.39
  -1   1   3 2747.83  110.61
   1   1  -3 3065.51  112.80
   1   1  -3 2730.63  112.43
  -1   1   3 3386.86  118.56
   1   1  -3 2830.28  117.84
   1   1  -2 1552.79   66.73
   1   1  -2 1346.60   55.03
  -1   1   2 1465.23   58.81
  -1   1   2 1554.70   61.99
   1   1  -2 1230.56   53.57
  -1   1   2 1237.41   52.37
   1   1  -2 1433.32   55.16
  -1   1   2 1519.56   60.16
  -1   1   1 1075.11   45.15
  -1   1   1  927.43   43.94
   1   1  -1  886.58   44.77
   1   1  -1  798.00   42.31
  -1   1   1  973.90   40.89
   1   1   0 5168.06  203.04
   1   1   0 5321.51  203.44
   1   1   0 5396.93  201.82
  -1   1   0 5753.48  196.36
  -1   1  -1 9933.77  334.56
  -1   1  -1 9999.00  332.41
   1   1   1 9068.98  334.21
  -1   1  -1 9690.47  333.17
  -1   1  -1 9719.40  333.53
   1   1   2 4032.91  144.11
  -1   1  -2 4538.32  151.58
   1   1   2 4195.26  147.34
  -1   1  -2 4390.89  146.12
  -1   1  -2 2980.53  142.24
   1   1   2 3278.58  136.44
  -1   1  -2 4662.99  145.09
   1   1   3  441.37   31.15
  -1   1  -3  481.65   29.10
   1   1   3  432.66   33.32
   1   1   3  424.83   33.12
   1   1   3  423.34   30.32
   1   1   3  378.74   22.92
  -1   1  -3  484.39   33.25
  -1   1  -3  448.01   34.57
  -1   1  -3  540.42   31.87
  -1   1  -3  443.15   31.03
   1   1   3  384.09   25.76
   1   1   4  943.37   56.91
   1   1   4  947.57   53.72
  -1   1  -4  701.90   42.65
   1   1   4 1073.02   54.54
   1   1   4  587.02   45.51
  -1   1  -4 1144.64   63.69
  -1   1  -4  736.28   49.40
  -1   1  -4  749.74   44.58
  -1   1  -4  830.03   49.52
  -1   1  -4  767.56   44.98
   1   1   4  761.47   44.51
  -1   1  -4 1144.88   63.06
  -1   1  -4  988.84   52.25
   1   1   4  940.87   56.94
   1   1   4  556.67   36.08
  -1   1  -5 1372.74   71.23
   1   1   5 1375.74   73.70
  -1   1  -5 1369.78   69.15
  -1   1  -5 1484.27   87.09
   1   1   5 1224.75   68.63
   1   1   5 1362.05   81.56
  -1   1  -5 1158.67   72.82
   1   1   5 1305.82   77.20
  -1   1  -5 1199.78   76.04
   1   1   5 1391.80   75.25
   1   1   5 1292.00   76.24
  -1   1  -5 1554.30   82.54
   1   1   5 1288.74   76.59
  -1   1  -5 1199.37   68.45
  -1   1  -5 1322.43   70.08
   1   1   5 1182.99   69.13
   1   1   5 1467.02   83.38
  -1   1  -6   73.22   15.32
  -1   1  -6   63.35   16.04
   1   1   6   62.69   17.37
  -1   1  -6   59.50   15.03
  -1   1  -6   46.23   13.75
  -1   1  -6   62.66   14.12
   1   1   6   31.76   13.29
  -1   1  -6   35.80   15.59
   1   1   6   53.99   17.65
   1   1   6   43.42   12.67
   1   1   6   51.70   12.65
   1   1   6   48.58   13.95
  -1   1  -6   65.80   18.35
   1   1   6   62.99   13.34
  -1   1  -6   52.09   18.23
   1   1   6   61.34   18.31
   1   1   6   45.50   13.22
  -1   1  -6   57.54   16.05
   1   1   6   40.64   13.88
  -1   1  -7  333.57   38.16
   1   1   7  306.60   34.61
  -1   1  -7  281.04   36.31
   1   1   7  319.87   42.91
  -1   1  -7  352.06   35.69
   1   1   7  342.40   44.47
  -1   1  -7  325.89   32.22
   1   1   7  334.77   37.07
  -1   1  -7  217.15   37.21
   1   1   7  310.22   40.51
   1   1   7  351.83   46.22
  -1   1  -7  359.24   40.32
   1   1   7  290.57   35.43
  -1   1  -7  308.28   41.02
   1   1   7  296.78   34.67
  -1   1  -7  362.87   48.23
  -1   1  -7  328.53   37.78
   1   1   7  300.33   36.55
  -1   1  -8 1233.98   94.60
   1   1   8 1198.22   87.17
  -1   1  -8 1151.01   78.87
  -1   1  -8 1065.27   70.41
  -1   1  -8  918.68   79.88
  -1   1  -8  749.02   79.32
   1   1   8  969.26   80.79
   1   1   8 1100.09   74.13
   1   1   8 1109.34   88.76
  -1   1  -8 1204.79   81.92
   1   1   8 1054.81   73.86
   1   1   8 1193.87   89.33
  -1   1  -8 1218.79   78.52
  -1   1  -8 1177.00   79.93
   1   1   8 1051.48   74.25
   1   1   9  177.65   25.98
  -1   1  -9  176.80   26.14
  -1   1  -9  151.82   24.45
  -1   1  -9  114.12   26.80
   1   1   9  189.47   32.46
  -1   1  -9  187.34   29.17
   1   1   9  150.62   28.60
   1   1   9  202.67   28.00
  -1   1  -9  207.32   31.23
   1   1   9  223.25   29.08
  -1   1 -10  115.15   22.19
  -1   1 -10  135.85   21.14
   1   1  10   97.92   17.64
  -1   1 -10   90.20   16.98
   1   2 -11  179.66   20.72
  -1   2  11  137.02   18.18
   1   2 -11  166.44   22.17
   1   2 -10   54.76   17.32
   1   2 -10   48.36   17.14
  -1   2  10   63.91   14.16
   1   2 -10   56.50   17.61
  -1   2  10   43.41   11.92
  -1   2  10   45.86   12.43
  -1   2  10   37.82   13.70
   1   2 -10   53.14   14.94
   1   2 -10   25.37   15.67
  -1   2   9  411.59   48.34
   1   2  -9  429.82   49.24
   1   2  -9  506.41   51.56
   1   2  -9  448.98   51.52
  -1   2   9  373.81   42.84
  -1   2   9  573.16   47.63
   1   2  -9  514.04   45.38
  -1   2   9  415.61   40.00
   1   2  -9  514.01   53.33
   1   2  -9  469.89   45.57
  -1   2   9  445.40   41.79
  -1   2   9  348.95   31.79
  -1   2   8  643.98   52.15
   1   2  -8  518.07   52.20
   1   2  -8  674.32   65.28
   1   2  -8  640.88   54.40
   1   2  -8  516.46   52.02
  -1   2   8  636.94   51.75
  -1   2   8  567.05   55.66
   1   2  -8  478.56   64.38
   1   2  -8  660.20   56.74
  -1   2   8  581.24   55.66
  -1   2   8  569.02   54.95
   1   2  -8  644.40   53.86
   1   2  -8  570.32   59.44
   1   2  -8  650.03   61.55
  -1   2   8  527.36   55.92
  -1   2   8  453.75   45.98
   1   2  -8  642.65   60.79
   1   2  -7  330.84   39.93
   1   2  -7  371.90   44.60
   1   2  -7  397.88   46.44
   1   2  -7  336.44   38.99
   1   2  -7  395.01   48.17
  -1   2   7  332.97   40.66
   1   2  -7  308.35   38.57
  -1   2   7  352.00   35.81
  -1   2   7  284.55   35.30
   1   2  -7  414.71   46.08
   1   2  -7  400.22   54.90
   1   2  -7  374.59   41.45
  -1   2   7  335.94   39.22
  -1   2   7  350.45   39.50
  -1   2   7  380.81   37.32
  -1   2   7  384.06   46.86
   1   2  -7  325.42   42.51
   1   2  -7  411.49   43.37
  -1   2   7  379.99   43.13
  -1   2   7  341.20   37.48
   1   2  -7  331.99   37.54
   1   2  -6  356.56   40.15
   1   2  -6  433.20   41.96
   1   2  -6  444.02   42.26
   1   2  -6  367.95   40.98
   1   2  -6  456.99   42.92
   1   2  -6  345.02   37.84
   1   2  -6  362.83   31.81
  -1   2   6  336.39   32.55
  -1   2   6  355.13   39.76
  -1   2   6  374.64   38.26
  -1   2   6  392.92   40.26
  -1   2   6  389.90   37.73
   1   2  -6  375.82   48.95
  -1   2   6  375.57   38.91
  -1   2   6  381.10   43.03
  -1   2   6  385.17   38.34
  -1   2   6  410.17   38.07
  -1   2   6  365.20   33.52
   1   2  -6  425.28   38.94
  -1   2   6  301.07   27.29
   1   2  -6  370.88   37.03
   1   2  -6  363.10   40.14
   1   2  -6  440.75   46.35
   1   2  -6  336.34   35.92
   1   2  -5 3444.69  146.51
  -1   2   5 3230.60  138.41
   1   2  -5 3316.14  138.41
   1   2  -5 3385.18  144.60
  -1   2   5 3159.76  142.60
  -1   2   5 3072.36  136.77
  -1   2   5 3456.30  142.97
   1   2  -5 3284.77  148.69
   1   2  -5 3600.55  162.96
   1   2  -5 2848.23  135.79
  -1   2   5 2838.55  140.17
   1   2  -5 2717.55  137.20
  -1   2   5 2703.56  132.27
   1   2  -5 3358.96  145.21
  -1   2   5 3318.98  136.89
   1   2  -5 3155.83  142.51
  -1   2   4  755.17   50.33
  -1   2   4 1162.09   61.71
   1   2  -4  875.44   56.04
  -1   2   4  951.81   53.17
  -1   2   4 1067.32   60.69
   1   2  -4 1088.57   55.69
   1   2  -4 1070.75   62.69
  -1   2   4 1053.99   57.80
   1   2  -4 1113.39   69.95
  -1   2   4  847.83   51.75
  -1   2   4 1076.50   57.53
   1   2  -4 1025.12   57.87
   1   2  -4 1016.25   57.82
   1   2  -4 1090.06   61.50
   1   2  -4 1112.16   63.12
   1   2  -3 1346.72   68.81
   1   2  -3 1168.10   63.11
   1   2  -3 1390.58   59.54
  -1   2   3 1124.05   60.20
   1   2  -3 1515.07   73.91
  -1   2   3 1398.48   65.06
  -1   2   3 1304.66   61.26
   1   2  -3 1209.23   61.33
  -1   2   3 1268.80   65.12
  -1   2   3 1293.24   56.67
  -1   2   3 1405.43   61.46
   1   2  -3 1204.54   61.20
   1   2  -3 1229.10   64.88
  -1   2   3 1406.73   65.86
  -1   2   2 2593.86  101.38
  -1   2   2 2803.71  107.84
   1   2  -2 2676.15   96.94
   1   2  -2 2722.24  110.33
  -1   2   2 2545.19  102.31
  -1   2   2 3002.92  107.35
   1   2  -2 2342.41  101.60
  -1   2   2 2748.23  108.14
   1   2  -1 3298.96  131.74
   1   2  -1 3004.95  126.15
   1   2   0 3014.67  121.57
   1   2   0 2952.34  116.63
   1   2   0 3029.24  115.75
  -1   2   0 3373.45  117.50
   1   2   1 6281.15  238.39
  -1   2  -1 6955.77  245.50
   1   2   1 6731.63  244.04
  -1   2  -1 7807.64  249.28
  -1   2  -1 7356.04  247.29
  -1   2  -2 1353.56   59.70
   1   2   2 1235.94   58.92
   1   2   2 1215.55   56.65
  -1   2  -2 1312.06   61.71
  -1   2  -2 1259.80   61.53
  -1   2  -2 1331.22   63.85
   1   2   2 1117.64   51.20
  -1   2  -3 2535.20   98.67
  -1   2  -3 2255.32   96.25
  -1   2  -3 2636.71  105.34
  -1   2  -3 2562.91  102.02
   1   2   3 1872.15   85.55
   1   2   3 2775.37  109.05
   1   2   3 2548.90  104.76
  -1   2  -3 2568.56   99.14
   1   2   3 2264.45   97.50
   1   2   3 2586.14  106.54
  -1   2  -3 2342.75  102.63
   1   2   3 2392.16  108.02
  -1   2  -3 2627.04  112.31
   1   2   3 2370.96  108.14
   1   2   4   51.35   11.25
  -1   2  -4   41.01   11.01
  -1   2  -4   53.78   13.49
  -1   2  -4   51.42   12.79
  -1   2  -4   50.43   11.86
   1   2   4   35.58    7.72
   1   2   4   52.10   15.33
   1   2   4   55.70   14.13
   1   2   4   53.69   13.92
   1   2   4   41.31   10.62
  -1   2  -4   59.54   12.16
   1   2   4   62.01   14.16
   1   2   4   53.72   14.96
  -1   2  -4   66.34   14.14
  -1   2  -4   53.86   15.89
  -1   2  -4   52.45   11.77
   1   2   4   62.68   15.20
  -1   2  -5  484.39   39.55
  -1   2  -5  440.13   42.27
  -1   2  -5  430.10   38.42
  -1   2  -5  397.76   36.73
  -1   2  -5  520.03   43.04
   1   2   5  465.87   38.40
   1   2   5  512.09   42.78
  -1   2  -5  476.47   39.81
   1   2   5  450.41   40.74
   1   2   5  574.34   49.87
   1   2   5  494.05   45.12
   1   2   5  490.89   41.12
   1   2   5  517.42   44.76
  -1   2  -5  562.75   48.13
  -1   2  -5  380.14   34.65
  -1   2  -5  501.28   39.92
  -1   2  -5  527.18   50.63
   1   2   5  538.38   51.67
  -1   2  -5  469.92   38.19
   1   2   5  540.36   48.97
  -1   2  -5  436.49   43.95
  -1   2  -5  519.14   40.17
   1   2   5  524.06   47.76
   1   2   6 1337.96   92.97
  -1   2  -6 1201.49   72.84
   1   2   6 1259.55   77.26
  -1   2  -6 1190.53   74.44
  -1   2  -6 1115.63   73.47
  -1   2  -6 1124.99   73.29
  -1   2  -6 1278.45   87.95
   1   2   6 1191.49   82.92
   1   2   6 1155.63   77.35
  -1   2  -6 1033.79   59.82
  -1   2  -6  964.11   75.88
   1   2   6 1252.38   83.52
   1   2   6 1229.50   86.18
   1   2   6 1134.33   78.65
   1   2   6  984.24   66.98
  -1   2  -6 1238.21   83.89
  -1   2  -6 1391.78   94.45
   1   2   6 1268.59   86.53
  -1   2  -6 1047.86   71.55
   1   2   6 1060.08   69.10
   1   2   6 1174.91   73.97
  -1   2  -6 1175.56   73.16
  -1   2  -6 1119.07   72.06
   1   2   7  982.18   68.20
  -1   2  -7 1071.80   73.70
  -1   2  -7 1062.62   74.96
  -1   2  -7  830.40   75.40
  -1   2  -7  952.53   68.54
  -1   2  -7  999.69   72.74
   1   2   7 1067.88   81.56
   1   2   7 1094.83   90.26
  -1   2  -7  869.79   57.27
   1   2   7 1124.68   80.87
   1   2   7 1046.54   71.74
   1   2   7 1112.63   87.01
   1   2   7 1026.76   80.90
  -1   2  -7  971.75   63.54
  -1   2  -7 1111.74   83.15
   1   2   7  977.48   67.70
   1   2   7  872.22   72.58
  -1   2  -7 1131.07   86.94
   1   2   7 1127.39   84.78
  -1   2  -7 1024.12   73.49
  -1   2  -7  992.04   72.50
   1   2   7 1060.34   73.84
  -1   2  -8  134.11   27.55
  -1   2  -8  133.35   26.41
  -1   2  -8  131.18   27.91
  -1   2  -8  151.17   27.26
  -1   2  -8  181.99   32.31
  -1   2  -8  124.37   22.14
   1   2   8  156.88   31.23
   1   2   8  153.59   29.70
   1   2   8  150.54   33.19
   1   2   8  138.11   28.53
  -1   2  -8   77.00   26.18
   1   2   8  141.18   25.07
   1   2   8  167.03   31.39
  -1   2  -8   94.85   18.56
  -1   2  -8  156.98   28.72
   1   2   8  129.76   23.00
  -1   2  -8  141.77   27.29
   1   2   8  104.05   21.37
   1   2   8  133.63   25.39
  -1   2  -9  177.26   28.60
  -1   2  -9  227.07   33.50
  -1   2  -9  209.86   30.01
   1   2   9  181.57   34.77
   1   2   9  181.37   30.09
   1   2   9  199.17   31.07
   1   2   9  216.74   28.51
  -1   2  -9  204.57   30.37
  -1   2  -9  130.07   22.13
  -1   2  -9  152.23   28.43
   1   2   9  141.24   26.02
   1   2  10  185.87   29.02
  -1   2 -10  201.32   28.52
   1   2  10  231.46   23.88
  -1   2 -10  211.66   28.21
  -1   2 -10  241.24   26.59
   1   2  10  230.22   27.28
  -1   2 -10  264.44   26.41
   1   3 -11  164.45   18.27
   1   3 -11  187.22   21.18
   1   3 -10  136.12   23.38
   1   3 -10  217.10   28.57
  -1   3  10  176.17   22.82
   1   3 -10   83.69   24.62
   1   3 -10  188.77   24.68
   1   3 -10  157.19   22.76
  -1   3  10  227.26   26.10
   1   3 -10  213.18   32.04
   1   3  -9  350.41   42.41
  -1   3   9  299.44   33.94
   1   3  -9  222.51   33.54
   1   3  -9  279.00   42.50
   1   3  -9  335.61   42.50
  -1   3   9  225.50   35.52
   1   3  -9  275.74   39.97
  -1   3   9  326.15   36.24
  -1   3   9  248.28   28.61
  -1   3   9  328.40   35.21
   1   3  -9  287.04   38.44
   1   3  -8  177.18   31.93
   1   3  -8  194.08   35.10
   1   3  -8  151.22   30.36
  -1   3   8  119.72   27.80
  -1   3   8  170.42   26.43
   1   3  -8  176.05   29.79
   1   3  -8  163.82   33.96
  -1   3   8  169.30   26.34
  -1   3   8  138.72   26.09
  -1   3   8  181.65   27.64
   1   3  -8  186.53   33.71
   1   3  -8  152.04   26.30
  -1   3   8  115.43   28.21
  -1   3   8  157.19   29.39
   1   3  -8  168.27   28.65
  -1   3   7  477.10   50.47
  -1   3   7  453.10   50.30
   1   3  -7  468.48   49.88
  -1   3   7  393.88   43.95
   1   3  -7  401.65   41.11
   1   3  -7  432.62   49.69
  -1   3   7  456.62   42.12
   1   3  -7  424.42   58.02
   1   3  -7  397.11   45.30
  -1   3   7  427.41   52.53
  -1   3   7  342.34   40.29
  -1   3   7  416.13   43.90
  -1   3   7  435.04   41.66
   1   3  -7  478.38   52.88
   1   3  -7  359.75   44.33
   1   3  -7  434.57   43.64
   1   3  -7  377.96   46.85
   1   3  -7  452.91   46.75
   1   3  -7  507.05   54.79
  -1   3   7  388.03   46.54
  -1   3   6 1100.31   65.15
  -1   3   6 1129.07   80.25
   1   3  -6 1275.46   81.80
   1   3  -6 1123.97   78.47
   1   3  -6 1253.06   85.22
   1   3  -6 1148.49   75.50
  -1   3   6 1161.03   69.19
  -1   3   6 1102.05   67.67
  -1   3   6 1081.40   78.33
  -1   3   6 1084.51   74.35
  -1   3   6 1140.48   78.35
  -1   3   6 1101.88   69.36
   1   3  -6 1232.16   93.22
  -1   3   6 1228.95   74.18
  -1   3   6 1198.10   73.24
  -1   3   6 1110.82   68.40
   1   3  -6 1127.86   78.20
  -1   3   6 1214.75   79.72
   1   3  -6 1032.58   69.87
   1   3  -6 1087.12   79.60
  -1   3   6  945.70   65.79
   1   3  -6 1241.08   80.33
   1   3  -6 1226.39   77.67
   1   3  -6 1129.21   71.26
   1   3  -5  116.75   21.25
  -1   3   5   80.17   17.78
  -1   3   5  118.11   21.94
   1   3  -5   76.12   16.04
  -1   3   5  138.12   20.09
   1   3  -5  132.54   22.82
   1   3  -5   73.22   17.62
  -1   3   5   80.64   14.85
  -1   3   5  107.11   20.62
   1   3  -5  130.79   23.93
  -1   3   5  108.34   21.13
   1   3  -5  106.07   24.19
   1   3  -5  122.48   18.35
  -1   3   5  117.92   18.08
  -1   3   5   80.63   17.44
   1   3  -5  120.22   21.81
  -1   3   5  112.24   21.92
   1   3  -5   91.00   20.05
  -1   3   5   83.08   17.07
  -1   3   5  110.81   18.49
   1   3  -5   95.11   18.68
   1   3  -5   65.75   16.89
   1   3  -4  506.15   39.76
   1   3  -4  581.03   37.27
   1   3  -4  567.68   45.35
  -1   3   4  594.08   44.97
   1   3  -4  554.75   44.11
  -1   3   4  484.42   41.55
  -1   3   4  540.90   40.95
  -1   3   4  434.35   38.37
   1   3  -4  564.48   49.15
  -1   3   4  438.31   35.00
  -1   3   4  581.73   39.75
  -1   3   4  527.81   40.03
   1   3  -4  545.03   43.65
   1   3  -4  516.33   41.96
   1   3  -4  543.82   43.43
   1   3  -4  546.22   43.19
  -1   3   4  523.04   40.44
  -1   3   3 2882.47  117.81
   1   3  -3 2201.29  111.18
   1   3  -3 2272.31  117.79
  -1   3   3 2591.40  117.29
  -1   3   3 2470.99  113.72
   1   3  -3 2961.13  123.37
  -1   3   3 2504.58  112.90
  -1   3   3 2892.07  109.68
  -1   3   3 2939.20  115.77
  -1   3   3 2765.04  109.74
   1   3  -3 2675.60  105.07
   1   3  -3 2666.36  119.98
   1   3  -2 1508.61   79.06
  -1   3   2 1840.00   75.56
  -1   3   2 1893.98   85.48
  -1   3   2 1983.03   85.30
   1   3  -2 1658.84   79.66
  -1   3   2 2200.85   85.54
  -1   3   2 1848.50   79.15
  -1   3   2 1815.05   82.79
   1   3  -2 1600.06   84.57
   1   3  -1   74.22   10.21
   1   3  -1   87.96   13.72
  -1   3   1   97.69   13.23
   1   3   0  786.28   39.66
  -1   3   0  893.72   47.63
  -1   3   0  921.07   43.40
  -1   3   0  870.93   47.28
   1   3   0  844.41   49.61
  -1   3   0 1240.78   53.76
  -1   3   0 1225.29   53.88
   1   3   1 5472.94  209.15
  -1   3  -1 6595.80  219.53
  -1   3  -1 6349.59  215.71
   1   3   1 5827.01  214.20
  -1   3  -1 7270.25  225.31
  -1   3  -1 6077.34  223.00
   1   3   1 4870.36  222.64
  -1   3  -2 1475.54   69.57
  -1   3  -2 1738.45   69.38
  -1   3  -2 1585.30   71.12
  -1   3  -2 1634.20   70.43
   1   3   2 1407.47   67.30
  -1   3  -2 1476.42   69.41
   1   3   2 1316.70   66.57
  -1   3  -2 1608.65   77.10
   1   3   2 1420.46   78.26
  -1   3  -2 1621.71   75.86
   1   3   2 1306.14   73.30
   1   3   2 1489.73   69.95
   1   3   2 1234.20   73.29
   1   3   3  429.78   37.84
  -1   3  -3  467.53   36.62
  -1   3  -3  473.10   31.16
   1   3   3  392.02   27.58
   1   3   3  468.95   41.71
   1   3   3  492.79   36.97
   1   3   3  438.46   34.20
  -1   3  -3  498.13   35.03
  -1   3  -3  527.71   41.15
  -1   3  -3  285.91   26.45
  -1   3  -3  409.47   34.11
  -1   3  -3  441.17   40.30
   1   3   3  389.17   37.25
  -1   3  -3  455.99   33.21
  -1   3  -3  472.56   33.43
   1   3   3  428.52   34.14
   1   3   4 1319.65   81.98
  -1   3  -4 2162.33   91.48
   1   3   4 2220.53  109.05
  -1   3  -4 1584.08   87.41
   1   3   4 2365.19  115.22
  -1   3  -4 2040.71   94.01
   1   3   4 2224.73  106.98
   1   3   4 2129.57  103.47
   1   3   4 1542.00   92.49
  -1   3  -4 1987.74   89.04
  -1   3  -4 1637.93   80.70
  -1   3  -4 1997.54  100.52
   1   3   4 2166.09  101.12
  -1   3  -4 2150.95   95.32
  -1   3  -4 2332.17  113.98
  -1   3  -5  665.07   51.85
  -1   3  -5  643.94   50.57
  -1   3  -5  812.00   52.44
  -1   3  -5  661.31   48.93
  -1   3  -5  766.01   53.88
   1   3   5  541.54   54.53
  -1   3  -5  727.50   61.66
   1   3   5  525.21   56.55
  -1   3  -5  750.18   50.48
   1   3   5  725.42   59.67
  -1   3  -5  808.08   54.51
  -1   3  -5  641.91   56.99
   1   3   5  742.57   60.95
   1   3   5  749.99   56.77
   1   3   5  784.05   59.69
   1   3   5  719.86   53.38
   1   3   5  687.37   47.55
  -1   3  -5  814.54   63.06
  -1   3  -5  592.38   44.96
  -1   3  -5  648.65   61.74
  -1   3  -5  754.54   56.14
   1   3   5  640.06   49.70
  -1   3  -5  628.70   50.03
  -1   3  -5  636.08   55.04
   1   3   5  855.55   58.49
   1   3   6  148.01   32.01
  -1   3  -6  171.44   27.64
  -1   3  -6  148.65   24.89
  -1   3  -6  130.26   24.40
  -1   3  -6  166.63   27.50
   1   3   6  151.07   24.91
  -1   3  -6  144.12   25.29
  -1   3  -6  193.65   33.43
  -1   3  -6  176.97   28.84
  -1   3  -6  139.43   24.61
  -1   3  -6  112.63   26.21
   1   3   6  153.33   24.07
  -1   3  -6  141.21   24.46
   1   3   6  194.95   28.80
   1   3   6  166.41   29.76
   1   3   6  194.62   30.52
   1   3   6  145.79   29.42
   1   3   6  157.54   26.36
   1   3   6  163.62   29.58
  -1   3  -6  151.82   30.02
   1   3   6  152.18   29.77
  -1   3  -6  160.43   25.45
  -1   3  -6  124.82   27.67
  -1   3  -7  861.73   65.51
  -1   3  -7  911.01   69.75
   1   3   7 1109.52   90.29
  -1   3  -7  924.88   78.78
  -1   3  -7  785.28   53.82
   1   3   7  961.81   70.34
  -1   3  -7  597.49   67.88
  -1   3  -7  717.77   69.61
   1   3   7  875.37   70.96
   1   3   7  884.79   78.16
   1   3   7  913.82   67.84
   1   3   7  828.96   73.93
  -1   3  -7  840.46   74.41
  -1   3  -7 1043.63   75.53
  -1   3  -7  827.15   67.60
   1   3   7  949.95   77.88
   1   3   7  861.85   71.52
   1   3   7  797.69   61.18
  -1   3  -7  774.67   65.31
  -1   3  -7  733.88   58.90
  -1   3  -7  871.91   66.77
  -1   3  -8  176.36   28.51
  -1   3  -8  144.04   28.95
  -1   3  -8  178.58   30.07
  -1   3  -8  151.38   27.79
   1   3   8  178.79   28.69
   1   3   8  143.99   24.51
  -1   3  -8  149.91   27.23
   1   3   8  178.87   36.82
   1   3   8  170.05   29.75
   1   3   8  208.58   33.14
  -1   3  -8  177.14   30.60
  -1   3  -8  213.41   36.47
  -1   3  -8  126.15   26.19
   1   3   8  184.57   32.59
  -1   3  -8  125.84   20.92
   1   3   8  161.43   27.71
  -1   3  -9  206.75   29.61
  -1   3  -9  181.92   29.26
  -1   3  -9  192.23   28.63
   1   3   9  149.94   30.06
  -1   3  -9  135.14   21.41
   1   3   9  176.96   25.54
   1   3   9  163.72   26.72
  -1   3  -9  172.55   27.03
  -1   3  -9  105.87   25.33
   1   3   9  186.59   25.78
   1   3  10   11.73    6.60
   1   3  10    5.44    6.12
  -1   3 -10   20.54    5.39
  -1   4  10   29.95    9.71
   1   4 -10   33.54   13.70
  -1   4  10   36.22   10.91
   1   4 -10   26.51    9.42
   1   4 -10   21.13   10.21
   1   4  -9  272.95   39.32
  -1   4   9  346.24   36.50
   1   4  -9  335.64   40.33
  -1   4   9  312.48   31.87
  -1   4   9  421.04   40.15
   1   4  -9  415.92   43.93
   1   4  -9  432.69   51.62
   1   4  -8  698.08   62.99
   1   4  -8  704.62   68.68
  -1   4   8  898.18   64.04
   1   4  -8  812.73   68.84
  -1   4   8  838.15   61.70
  -1   4   8  669.77   64.03
   1   4  -8  932.66   73.67
  -1   4   8  653.18   53.09
   1   4  -8  731.65   65.26
   1   4  -8  794.21   70.43
  -1   4   7  276.75   39.83
   1   4  -7  264.87   36.69
   1   4  -7  300.50   39.83
   1   4  -7  255.84   38.94
   1   4  -7  263.74   42.11
  -1   4   7  282.14   34.31
  -1   4   7  269.94   32.45
  -1   4   7  261.45   34.77
  -1   4   7  302.07   35.58
   1   4  -7  278.31   41.53
  -1   4   7  300.51   33.36
   1   4  -7  265.79   39.31
  -1   4   7  255.89   39.45
  -1   4   6  606.68   47.91
   1   4  -6  687.64   62.07
   1   4  -6  675.48   57.80
   1   4  -6  662.59   60.31
   1   4  -6  654.99   59.14
   1   4  -6  601.87   50.06
   1   4  -6  690.94   61.03
  -1   4   6  649.22   51.24
   1   4  -6  546.23   56.84
  -1   4   6  674.87   62.24
  -1   4   6  648.28   50.57
  -1   4   6  599.44   56.50
  -1   4   6  548.90   49.13
   1   4  -6  686.92   68.04
  -1   4   6  634.18   50.42
  -1   4   6  642.53   51.78
   1   4  -6  581.84   51.19
   1   4  -6  577.01   46.87
   1   4  -6  658.43   57.04
  -1   4   6  691.96   60.86
  -1   4   6  583.36   50.39
   1   4  -5 1677.72   94.06
   1   4  -5 1713.25   95.13
   1   4  -5 1224.18   79.76
  -1   4   5 1235.70   74.32
   1   4  -5 1638.05   79.06
  -1   4   5 1675.53   92.61
   1   4  -5 1229.59   83.28
   1   4  -5 1501.15   92.01
  -1   4   5 1177.30   75.01
   1   4  -5 1215.75   78.64
  -1   4   5 1271.88   74.87
  -1   4   5 1571.05   91.54
  -1   4   5 1366.33   82.41
   1   4  -5 1140.77   87.32
  -1   4   5 1528.66   79.61
  -1   4   5 1712.37   82.19
   1   4  -5 1329.62   87.59
   1   4  -5 1503.09   79.25
  -1   4   5 1407.31   88.03
  -1   4   5 1428.49   87.08
   1   4  -5 1122.11   74.85
   1   4  -5 1474.45   85.71
  -1   4   5 1535.11   93.28
   1   4  -4 1982.17   96.16
   1   4  -4 1986.20  100.04
   1   4  -4 2009.87  103.38
   1   4  -4 2088.30   90.43
  -1   4   4 1653.68   92.65
   1   4  -4 1511.58  100.28
  -1   4   4 1860.77   91.89
  -1   4   4 1862.94   99.15
   1   4  -4 2159.65  109.31
  -1   4   4 2145.90   94.23
  -1   4   4 2107.67   94.92
   1   4  -4 2016.52  107.29
   1   4  -4 1771.67  100.45
  -1   4   4 2012.21  102.16
  -1   4   4 2248.80  105.42
  -1   4   4 2241.76  105.93
  -1   4   4 2079.24  104.83
  -1   4   4 1826.52   93.66
  -1   4   3   69.17   14.28
   1   4  -3   55.88    9.87
  -1   4   3   59.87   13.94
   1   4  -3   53.73   14.47
  -1   4   3   62.61   15.70
  -1   4   3   81.39   16.65
  -1   4   3   52.79   10.86
   1   4  -3   46.53   14.05
  -1   4   3   72.58   14.87
   1   4  -3   58.65   13.98
  -1   4   3   56.83   12.47
   1   4  -3   50.44   12.73
  -1   4   3   68.71   14.38
  -1   4   2 1521.95   76.28
   1   4  -2 1312.63   73.94
   1   4  -2 1448.95   71.65
  -1   4   2 1678.03   76.91
  -1   4   2 1659.47   81.22
   1   4  -2 1287.10   76.93
   1   4  -2 1218.78   64.79
  -1   4   2 1637.00   66.97
  -1   4   2 1576.91   82.27
  -1   4   2 1933.67   82.78
  -1   4   2 1663.55   79.46
  -1   4   2 1531.39   71.18
  -1   4   1 1692.32   78.00
  -1   4   1 1666.81   73.44
  -1   4   1 1855.09   73.91
  -1   4   1 1510.04   62.71
  -1   4   1 1868.78   80.54
   1   4  -1 1234.18   56.70
   1   4  -1 1187.68   71.51
  -1   4   1 1511.15   74.07
  -1   4   1 1838.37   77.87
   1   4  -1 1375.15   72.06
   1   4  -1 1428.87   76.97
   1   4  -1 1417.10   69.50
  -1   4   1 1473.29   61.88
   1   4   0 1111.41   64.18
  -1   4   0 1425.98   64.21
  -1   4   0 1218.95   61.73
  -1   4   0 1254.50   67.62
   1   4   0 1089.04   63.63
  -1   4   0 1418.85   59.79
  -1   4   0 1625.54   69.34
  -1   4   0 1387.58   66.69
  -1   4   0 1459.13   68.90
   1   4   0  893.34   51.44
  -1   4   0 1279.96   56.30
  -1   4  -1  559.56   31.78
   1   4   1  457.47   34.09
   1   4   1  437.35   26.71
  -1   4  -1  547.08   37.83
   1   4   1  388.61   25.10
  -1   4  -1  464.32   34.40
  -1   4  -1  576.11   36.96
  -1   4  -1  481.69   37.54
  -1   4  -1  575.21   34.54
   1   4   1  513.56   40.31
  -1   4  -1  484.60   39.33
  -1   4  -1  503.82   31.78
  -1   4  -2 4747.41  166.28
  -1   4  -2 4567.42  162.18
   1   4   2 3575.52  173.55
   1   4   2 3738.56  158.51
  -1   4  -2 4106.32  167.57
  -1   4  -2 4129.00  167.58
   1   4   2 3742.51  157.68
  -1   4  -2 3918.10  160.67
  -1   4  -2 4234.30  175.03
  -1   4  -2 4407.41  171.63
  -1   4  -2 4401.43  167.29
  -1   4  -2 4456.63  165.33
  -1   4  -3 1534.10   76.45
   1   4   3 1627.52   78.50
   1   4   3 1714.31   81.44
   1   4   3 1608.33   79.96
  -1   4  -3 1433.58   78.81
  -1   4  -3 1798.63   84.16
  -1   4  -3 1176.78   67.49
  -1   4  -3 1819.98   85.86
  -1   4  -3 1358.29   68.53
  -1   4  -3 1805.04   92.92
  -1   4  -3 1474.26   80.25
  -1   4  -3 1389.63   70.12
   1   4   3 1761.70   96.46
  -1   4  -4  135.54   18.38
   1   4   4  189.94   29.26
  -1   4  -4  126.23   20.15
  -1   4  -4  131.16   18.15
  -1   4  -4  112.89   20.09
  -1   4  -4  124.66   20.67
  -1   4  -4   99.45   20.48
   1   4   4  122.09   24.10
  -1   4  -4  134.74   19.10
   1   4   4  112.61   18.84
   1   4   4   82.59   16.91
   1   4   4  134.71   27.29
   1   4   4  140.96   23.10
  -1   4  -4  119.46   20.73
   1   4   4  116.73   20.80
   1   4   4  137.88   21.83
  -1   4  -4  127.92   22.07
   1   4   4  117.28   22.60
  -1   4  -4  107.69   18.67
   1   4   4  119.12   18.37
   1   4   4  116.89   21.03
  -1   4  -4   84.13   18.31
   1   4   5  156.65   24.04
  -1   4  -5  163.47   26.19
   1   4   5  114.89   25.87
  -1   4  -5  139.52   21.19
  -1   4  -5  157.64   22.84
  -1   4  -5  130.96   24.10
  -1   4  -5  157.00   27.34
  -1   4  -5  157.95   23.65
  -1   4  -5  130.98   27.90
   1   4   5  129.51   25.63
   1   4   5  154.44   27.14
   1   4   5  148.11   24.65
   1   4   5  157.17   32.18
   1   4   5  166.26   26.30
  -1   4  -5  148.73   27.89
   1   4   5  157.86   28.35
   1   4   5  154.77   22.16
  -1   4  -5  161.13   29.52
   1   4   5  152.07   23.12
  -1   4  -5  115.48   19.54
  -1   4  -5  119.98   22.97
   1   4   5  134.90   22.23
  -1   4  -5  126.54   22.23
  -1   4  -5  159.61   26.22
  -1   4  -5  168.16   26.23
   1   4   6 1566.20  110.69
  -1   4  -6 1376.48   88.81
  -1   4  -6 1454.91   83.99
  -1   4  -6 1376.76   83.75
  -1   4  -6 1324.27   87.58
  -1   4  -6 1655.04  105.70
  -1   4  -6 1544.84   97.85
  -1   4  -6 1399.38   89.10
  -1   4  -6 1182.34   92.25
  -1   4  -6 1175.06   86.87
   1   4   6 1346.56   89.97
   1   4   6 1491.43   99.80
   1   4   6 1400.00   96.83
  -1   4  -6 1388.37   90.17
   1   4   6 1280.39   78.25
  -1   4  -6 1416.28   99.51
   1   4   6 1374.58   93.36
  -1   4  -6 1454.59   92.69
   1   4   6 1431.80   98.86
  -1   4  -6 1157.06   95.45
  -1   4  -6 1282.79   81.80
  -1   4  -6 1316.99   88.72
  -1   4  -6 1401.27   87.53
   1   4   6 1606.43   94.28
   1   4   7  711.17   60.61
  -1   4  -7  670.14   55.88
  -1   4  -7  723.08   63.26
   1   4   7  640.17   60.07
  -1   4  -7  638.48   56.00
  -1   4  -7  703.53   69.65
  -1   4  -7  632.69   59.85
   1   4   7  641.97   63.55
   1   4   7  658.24   54.83
  -1   4  -7  430.92   59.79
  -1   4  -7  632.73   53.22
  -1   4  -7  449.49   57.70
   1   4   7  597.19   63.76
   1   4   7  700.35   59.77
  -1   4  -7  798.44   65.88
  -1   4  -7  734.28   62.47
  -1   4  -7  681.48   66.61
   1   4   7  826.69   78.25
  -1   4  -7  739.75   63.05
  -1   4  -8   84.32   21.36
  -1   4  -8   86.42   23.39
  -1   4  -8  104.86   20.60
  -1   4  -8   71.99   19.12
   1   4   8   74.34   17.77
  -1   4  -8  102.48   21.97
   1   4   8   93.36   21.30
  -1   4  -8   97.00   22.51
  -1   4  -8   65.30   15.63
   1   4   8   86.16   26.16
   1   4   8  103.96   22.95
   1   4   8   90.84   21.42
  -1   4  -9  208.92   24.84
  -1   4  -9  109.00   26.23
   1   4   9  150.51   22.29
  -1   4  -9  145.46   20.96
   1   4   9  192.13   26.60
  -1   4  -9  231.92   26.32
   1   4   9  189.27   25.38
   1   4   9  191.46   31.08
   1   4  10  143.40   17.92
  -1   4 -10  135.86   18.70
  -1   5  10  427.18   33.13
   1   5 -10  410.45   34.72
   1   5  -9   57.30   18.16
  -1   5   9   77.86   16.10
  -1   5   9   72.88   16.65
   1   5  -9   76.81   18.27
   1   5  -9   56.47   17.78
   1   5  -8  193.45   37.40
   1   5  -8  139.99   30.02
  -1   5   8  173.97   26.48
   1   5  -8  203.45   38.48
   1   5  -8  132.03   28.07
  -1   5   8  167.80   26.78
   1   5  -8  175.26   31.12
  -1   5   7  671.61   62.35
   1   5  -7  671.07   65.16
  -1   5   7  621.67   65.71
   1   5  -7  741.87   67.05
   1   5  -7  650.69   62.64
   1   5  -7  597.73   53.72
  -1   5   7  605.45   53.26
   1   5  -7  728.73   75.86
  -1   5   7  519.78   44.23
  -1   5   7  701.03   54.22
  -1   5   7  723.41   57.52
  -1   5   6  317.55   41.62
   1   5  -6  370.63   46.18
   1   5  -6  261.14   33.75
   1   5  -6  324.95   37.47
  -1   5   6  293.76   41.60
  -1   5   6  292.07   33.74
   1   5  -6  236.49   37.64
   1   5  -6  348.57   45.00
   1   5  -6  307.57   42.84
  -1   5   6  323.56   35.87
  -1   5   6  341.84   35.89
   1   5  -6  383.40   36.13
  -1   5   6  333.58   38.89
  -1   5   5  244.77   36.29
   1   5  -5  296.40   39.26
   1   5  -5  245.56   32.29
  -1   5   5  309.06   40.80
  -1   5   5  240.18   33.24
  -1   5   5  248.30   31.62
  -1   5   5  336.64   39.65
   1   5  -5  232.23   37.06
  -1   5   5  256.11   28.31
  -1   5   5  292.57   30.80
   1   5  -5  261.50   36.41
  -1   5   5  287.02   32.28
  -1   5   5  204.08   32.18
  -1   5   5  252.86   30.30
   1   5  -5  316.99   34.30
  -1   5   4  375.39   34.38
  -1   5   4  412.77   40.67
  -1   5   4  384.62   40.80
   1   5  -4  356.14   39.08
   1   5  -4  276.32   39.71
   1   5  -4  372.78   45.44
  -1   5   4  332.53   38.01
  -1   5   4  349.21   34.04
  -1   5   4  352.88   36.15
  -1   5   4  418.66   33.08
  -1   5   4  319.04   29.87
   1   5  -4  326.34   37.66
  -1   5   4  363.14   33.31
  -1   5   4  293.28   30.31
  -1   5   4  340.24   38.90
   1   5  -4  397.41   39.32
   1   5  -4  245.25   30.86
   1   5  -4  386.49   43.89
  -1   5   4  331.73   34.31
   1   5  -4  397.43   43.24
  -1   5   3 1763.77   91.56
   1   5  -3 1442.37   86.94
  -1   5   3 1521.93   78.09
  -1   5   3 1663.66   91.65
  -1   5   3 1467.62   77.92
   1   5  -3 1305.06   67.66
  -1   5   3 1761.13   87.95
  -1   5   3 1580.12   85.47
  -1   5   3 1671.02   73.35
   1   5  -3 1336.11   82.18
  -1   5   3 1735.75   77.06
  -1   5   3 1789.50   92.04
  -1   5   3 1207.50   70.35
  -1   5   3 1759.16   89.64
   1   5  -3 1507.41   83.76
  -1   5   3 1524.19   81.57
   1   5  -3 1451.98   91.51
  -1   5   2 2421.41  104.38
  -1   5   2 2497.14  113.02
  -1   5   2 2213.18  102.31
   1   5  -2 2120.81  114.03
  -1   5   2 2433.24  109.32
  -1   5   2 2562.82  112.46
   1   5  -2 2190.22  109.12
   1   5  -2 2137.00  101.59
  -1   5   2 2747.35  116.45
  -1   5   2 2065.70   90.40
   1   5  -1   46.84   11.52
  -1   5   1   51.01    8.31
  -1   5   1   43.98   10.85
  -1   5   1   50.26   12.54
  -1   5   1   73.52   13.33
  -1   5   1   47.58   11.42
  -1   5   1   71.46   14.47
  -1   5   1   52.09   13.10
   1   5  -1   37.57   12.12
  -1   5   1   63.12    7.81
   1   5  -1   47.25   13.59
   1   5  -1   46.76   11.33
  -1   5   1   61.64   10.05
  -1   5   0 2399.45   91.13
  -1   5   0 2062.73   82.38
   1   5   0 1660.63   91.34
  -1   5   0 1953.53   96.77
  -1   5   0 2073.02   92.19
  -1   5   0 2648.58  102.65
   1   5   0 1538.99   89.49
  -1   5   0 2250.74  101.58
  -1   5   0 2339.78  102.23
  -1   5   0 2429.92   98.46
   1   5   0 1409.52   78.82
  -1   5   0 1922.04   83.09
   1   5   0 1958.37  100.92
  -1   5  -1 1724.63   85.82
  -1   5  -1 1687.44   71.91
  -1   5  -1 1596.02   78.84
   1   5   1 1126.76   60.51
  -1   5  -1 1560.70   73.22
  -1   5  -1 1788.88   78.09
  -1   5  -1 1833.78   81.13
  -1   5  -1 1752.30   86.32
   1   5   1 1389.61   79.37
   1   5   1 1417.50   82.55
  -1   5  -1 1398.95   80.90
  -1   5  -2 1954.97   87.99
   1   5   2 1342.28   73.87
  -1   5  -2 1617.10   90.38
  -1   5  -2 1914.56   91.11
  -1   5  -2 1808.23   89.26
  -1   5  -2 1551.12   81.61
   1   5   2 1569.91   83.00
  -1   5  -2 1885.81   93.50
  -1   5  -2 1638.43   78.87
  -1   5  -2 1738.40   94.12
  -1   5  -2 1958.69   93.89
   1   5   2 1762.22   98.28
  -1   5  -2 1745.84   80.15
  -1   5  -2 1265.21   68.72
   1   5   3  100.68   18.72
   1   5   3  105.65   19.45
  -1   5  -3  123.81   19.29
  -1   5  -3  121.53   21.38
  -1   5  -3  115.37   21.45
  -1   5  -3   80.84   18.03
   1   5   3  127.49   26.21
  -1   5  -3  101.65   21.33
   1   5   3  103.60   17.84
  -1   5  -3  127.09   17.12
   1   5   3  105.16   16.77
  -1   5  -3  114.93   21.41
   1   5   3  117.97   18.41
  -1   5  -3  104.22   13.53
  -1   5  -3  112.21   23.37
  -1   5  -3  101.15   19.00
   1   5   3  110.65   18.47
  -1   5  -3  123.53   19.88
  -1   5  -3   95.14   20.47
  -1   5  -3   91.24   16.54
  -1   5  -4 1156.28   72.79
  -1   5  -4 1132.00   61.07
  -1   5  -4  850.19   59.22
  -1   5  -4 1159.76   76.40
  -1   5  -4  755.46   69.30
  -1   5  -4 1122.57   63.04
   1   5   4 1077.50   68.10
   1   5   4  913.85   66.17
  -1   5  -4  970.15   73.60
   1   5   4 1137.24   85.53
   1   5   4  942.59   64.72
   1   5   4 1167.76   73.72
  -1   5  -4 1135.27   70.23
  -1   5  -4 1088.91   71.97
   1   5   4 1087.16   66.91
  -1   5  -4 1157.51   77.57
   1   5   4  988.64   68.41
   1   5   4 1518.63   93.79
  -1   5  -4 1073.78   68.17
  -1   5  -4 1020.74   71.94
  -1   5  -4 1174.75   70.81
   1   5   5  890.42   68.77
  -1   5  -5  946.05   60.31
  -1   5  -5 1076.62   72.27
  -1   5  -5  959.05   70.66
  -1   5  -5 1008.57   76.57
  -1   5  -5 1076.72   74.02
  -1   5  -5  923.30   62.18
  -1   5  -5  852.80   72.95
  -1   5  -5  834.39   69.26
  -1   5  -5  983.75   74.77
  -1   5  -5 1093.98   81.94
   1   5   5 1049.62   73.34
  -1   5  -5  974.87   70.05
  -1   5  -5  974.14   71.81
  -1   5  -5  912.12   77.49
   1   5   5  880.40   62.12
   1   5   5  830.33   63.44
  -1   5  -5  784.98   57.96
   1   5   5  928.86   65.94
   1   5   5  987.91   84.21
  -1   5  -6   31.08   15.69
  -1   5  -6   43.65   15.02
  -1   5  -6   27.37    9.23
   1   5   6    2.39   15.41
  -1   5  -6   14.35   12.29
  -1   5  -6   22.04   13.41
  -1   5  -6    8.87    9.51
  -1   5  -6   20.54   14.46
   1   5   6   21.46   14.10
  -1   5  -6   15.54   12.29
   1   5   6   14.00   10.85
  -1   5  -6   17.02   13.74
   1   5   6   12.18    9.03
  -1   5  -6   19.77   11.52
   1   5   6   11.22   10.36
  -1   5  -6   23.38    8.45
  -1   5  -7   93.63   17.39
  -1   5  -7   85.66   21.98
   1   5   7   96.19   27.58
  -1   5  -7  131.15   25.66
   1   5   7   87.14   18.08
  -1   5  -7   79.83   20.75
  -1   5  -7  115.18   24.39
  -1   5  -7  111.88   23.46
  -1   5  -7   89.62   23.09
  -1   5  -7  106.69   20.65
  -1   5  -7   89.07   23.00
   1   5   7   76.46   20.99
  -1   5  -8  524.84   57.06
   1   5   8  790.65   68.68
  -1   5  -8  793.39   56.08
   1   5   8  752.97   54.46
  -1   5  -8  644.08   53.00
  -1   5  -8  629.89   58.88
  -1   5  -8  565.41   45.25
   1   5   8  876.18   61.79
   1   5   9  162.34   25.40
   1   5   9  194.85   24.30
  -1   5  -9  135.68   21.72
   1   5   9  130.82   18.84
   1   6  -9  229.74   30.72
   1   6  -9  290.03   31.05
  -1   6   9  270.18   27.03
   1   6  -8  703.26   66.91
  -1   6   8  633.56   49.46
   1   6  -8  664.41   55.12
   1   6  -8  605.61   57.60
   1   6  -8  525.87   53.31
   1   6  -7  269.02   39.95
  -1   6   7  276.24   34.13
   1   6  -7  241.62   36.19
  -1   6   7  223.67   31.69
   1   6  -7  207.09   35.49
  -1   6   7  260.14   31.94
   1   6  -7  235.05   28.25
   1   6  -7  237.99   40.44
  -1   6   6   51.64   17.01
  -1   6   6   37.12   13.81
   1   6  -6   44.21   19.43
   1   6  -6   46.32   19.56
   1   6  -6   30.78   17.10
  -1   6   6   56.26   16.15
   1   6  -6   49.27   16.10
   1   6  -6   59.83   14.75
  -1   6   6   58.50   16.93
   1   6  -6   43.91   19.78
  -1   6   5 1239.34   81.22
   1   6  -5 1011.20   78.79
   1   6  -5 1008.84   76.06
  -1   6   5 1280.99   78.21
  -1   6   5 1201.18   74.61
  -1   6   5  920.01   76.10
  -1   6   5 1235.22   75.80
  -1   6   5 1169.15   89.22
   1   6  -5 1089.52   86.82
  -1   6   5 1041.53   71.40
   1   6  -5 1158.70   87.63
   1   6  -5 1253.26   80.45
   1   6  -5 1170.74   84.36
   1   6  -5 1019.15   85.06
  -1   6   4 1213.08   81.00
   1   6  -4 1133.87   82.00
   1   6  -4  875.25   70.52
   1   6  -4 1108.92   76.84
   1   6  -4  878.00   78.66
  -1   6   4 1185.76   81.60
  -1   6   4  993.29   64.77
  -1   6   4  835.57   65.83
   1   6  -4  746.12   65.43
  -1   6   4 1212.20   69.37
  -1   6   4  976.40   77.92
   1   6  -4 1030.91   74.23
  -1   6   4 1177.90   77.41
  -1   6   4 1159.48   71.47
  -1   6   4 1071.69   70.72
  -1   6   4 1110.78   72.96
   1   6  -4 1014.68   77.75
  -1   6   3   31.52    8.74
  -1   6   3   15.78    9.28
   1   6  -3    7.69    9.63
  -1   6   3   16.87    9.27
   1   6  -3   19.20    7.77
  -1   6   3   13.57    9.14
  -1   6   3   14.30    9.53
   1   6  -3   27.51   12.59
  -1   6   3   27.43   10.03
  -1   6   3   23.51    7.32
  -1   6   3   26.54   10.61
   1   6  -3    3.50    9.80
   1   6  -3   10.77   11.96
   1   6  -3   11.51    9.86
  -1   6   3   16.29    9.81
  -1   6   2  334.31   36.03
   1   6  -2  267.22   32.84
   1   6  -2  339.59   32.61
  -1   6   2  332.12   33.64
  -1   6   2  337.26   33.60
   1   6  -2  296.95   34.40
  -1   6   2  300.07   30.79
  -1   6   2  330.58   29.20
  -1   6   2  315.22   32.64
   1   6  -2  337.82   43.53
  -1   6   2  303.40   32.76
  -1   6   2  305.37   33.07
  -1   6   2  360.07   38.04
  -1   6   2  340.45   37.55
  -1   6   2  351.07   37.23
  -1   6   2  321.98   35.20
   1   6  -2  286.42   35.09
   1   6  -2  307.61   39.51
  -1   6   1 3075.20  124.87
   1   6  -1 2325.14  121.73
  -1   6   1 2954.79  132.29
  -1   6   1 2576.08  120.71
   1   6  -1 2202.02  124.95
   1   6  -1 1915.13  106.56
  -1   6   1 2741.67  115.68
  -1   6   1 2703.05  125.02
   1   6  -1 2276.57  115.03
  -1   6   1 2633.68  116.95
   1   6  -1 2634.31  134.83
   1   6  -1 2592.09  123.73
  -1   6   1 2458.18  116.19
  -1   6   1 3255.54  134.07
  -1   6   1 2883.42  130.53
   1   6  -1 2562.39  136.35
  -1   6   1 2556.18  119.24
  -1   6   1 3030.99  124.78
   1   6  -1 2152.49  122.15
  -1   6   1 2795.18  123.08
  -1   6   0  164.68   20.35
   1   6   0  164.98   24.61
  -1   6   0  157.49   22.52
  -1   6   0  175.85   21.89
  -1   6   0  191.10   27.34
  -1   6   0  194.70   25.22
  -1   6   0  105.60   14.63
  -1   6   0  139.79   20.48
  -1   6   0  166.29   23.79
   1   6   0  133.80   23.17
  -1   6   0  205.34   25.90
   1   6   0  128.55   20.11
   1   6   0  139.10   22.66
   1   6   0  184.51   28.82
  -1   6   0  171.02   22.98
   1   6   1  119.15   22.39
  -1   6  -1  137.78   21.52
  -1   6  -1  133.02   21.52
  -1   6  -1  156.38   23.36
  -1   6  -1  107.73   17.54
   1   6   1  105.06   18.67
  -1   6  -1  179.01   27.25
  -1   6  -1  128.49   16.48
   1   6   1  128.53   23.62
  -1   6  -1  132.89   20.11
  -1   6  -1  210.20   28.40
  -1   6  -1  159.49   23.71
  -1   6  -1  159.34   23.30
   1   6   1  113.48   20.82
  -1   6  -1  139.75   20.09
  -1   6  -1  137.78   21.11
   1   6   2  950.44   66.02
  -1   6  -2  914.69   55.47
  -1   6  -2  733.29   59.29
  -1   6  -2  927.31   65.22
  -1   6  -2  991.23   69.75
  -1   6  -2  828.09   59.14
   1   6   2  843.03   62.26
   1   6   2  740.35   56.31
  -1   6  -2  913.05   63.60
   1   6   2  860.38   67.36
  -1   6  -2  805.62   58.07
  -1   6  -2  823.27   59.11
  -1   6  -2 1017.81   57.06
  -1   6  -2  951.40   65.96
   1   6   2  876.66   58.38
  -1   6  -2  934.63   65.31
   1   6   3 1279.96   81.52
   1   6   3 1404.94   85.08
  -1   6  -3 1189.11   75.04
  -1   6  -3 1482.12   80.57
  -1   6  -3 1088.46   78.32
  -1   6  -3 1304.58   86.61
   1   6   3 1323.61   76.41
  -1   6  -3 1073.18   78.78
  -1   6  -3 1463.61   89.70
  -1   6  -3 1566.81   87.34
   1   6   3 1155.57   76.14
  -1   6  -3 1382.26   89.13
  -1   6  -3 1420.21   84.99
  -1   6  -3 1374.03   85.51
   1   6   3 1379.43   80.00
   1   6   3 1504.96  101.18
  -1   6  -3 1452.44   92.19
   1   6   4  126.79   29.26
  -1   6  -4  121.73   22.86
  -1   6  -4  154.86   29.59
  -1   6  -4  117.96   26.76
  -1   6  -4  149.00   19.77
   1   6   4  137.87   23.41
  -1   6  -4   80.22   23.11
  -1   6  -4  131.96   21.01
   1   6   4  117.13   23.60
   1   6   4  135.01   24.82
  -1   6  -4  144.23   23.06
  -1   6  -4  112.58   21.64
   1   6   4  148.85   33.44
  -1   6  -4  109.63   24.62
  -1   6  -4  160.59   26.01
  -1   6  -5  241.19   34.01
   1   6   5  241.97   32.52
  -1   6  -5  194.38   34.20
  -1   6  -5  206.84   36.65
   1   6   5  198.91   33.10
   1   6   5  189.54   36.55
  -1   6  -5  180.10   35.15
  -1   6  -5  228.74   36.15
  -1   6  -5  279.77   36.73
  -1   6  -5  239.22   39.53
   1   6   5  303.27   38.67
  -1   6  -5  241.08   33.13
   1   6   5  209.72   30.82
   1   6   5  131.16   35.36
  -1   6  -5  217.74   37.68
   1   6   5  253.09   32.06
  -1   6  -5  225.23   36.58
  -1   6  -5  279.47   38.21
  -1   6  -6  339.38   42.85
   1   6   6  387.50   51.98
  -1   6  -6  363.34   47.60
  -1   6  -6  390.01   43.17
   1   6   6  391.38   41.76
  -1   6  -6  330.71   43.20
  -1   6  -6  297.96   45.48
  -1   6  -6  459.35   49.84
   1   6   6  403.39   46.17
  -1   6  -6  389.87   42.11
   1   6   6  403.86   58.56
   1   6   6  422.18   41.24
  -1   6  -6  371.62   47.08
   1   6   6  437.97   47.25
  -1   6  -7  389.49   46.75
   1   6   7  349.18   38.87
   1   6   7  443.91   45.42
   1   6   7  442.58   46.18
  -1   6  -7  353.35   43.28
  -1   6  -7  369.66   45.85
  -1   6  -7  447.98   42.02
  -1   6  -7  415.91   44.54
  -1   6  -7  427.71   40.89
   1   6   7  403.39   50.06
  -1   6  -8   32.05   11.35
  -1   6  -8   18.63   12.18
   1   6   8   41.48   13.04
  -1   6  -8   39.18   14.17
  -1   6  -8   20.03    8.34
   1   6   8   35.20   13.02
  -1   6  -9   33.11   12.25
   1   6   9   47.05    7.54
   1   7  -9   15.06    4.24
   1   7  -9    3.08    6.58
  -1   7   9    8.10    5.02
  -1   7   8   29.21   10.67
   1   7  -8   38.08   16.62
   1   7  -8   36.08   10.51
   1   7  -8   39.77   10.71
   1   7  -8   18.71   11.25
  -1   7   7  475.77   42.29
  -1   7   7  500.69   44.05
  -1   7   7  528.96   44.69
  -1   7   7  512.71   43.27
   1   7  -7  391.47   43.27
   1   7  -6  538.06   47.28
   1   7  -6  475.32   55.67
  -1   7   6  524.47   46.61
   1   7  -6  411.93   49.52
   1   7  -6  560.06   49.21
   1   7  -6  312.96   43.10
  -1   7   6  523.13   47.23
   1   7  -6  669.61   75.38
  -1   7   6  513.29   46.33
  -1   7   6  535.94   52.46
   1   7  -6  464.60   55.37
  -1   7   5   11.41   10.52
   1   7  -5    2.03   11.82
  -1   7   5   16.73   10.06
   1   7  -5   32.39   11.99
   1   7  -5   16.87    8.61
   1   7  -5   11.58   10.68
  -1   7   5    3.83    6.83
  -1   7   5    7.67    9.46
   1   7  -5   10.85   13.10
   1   7  -5   17.42   18.74
   1   7  -5    3.17    8.48
  -1   7   5   16.91    8.63
  -1   7   5   14.39    7.01
  -1   7   4  541.14   53.98
   1   7  -4  393.10   43.35
   1   7  -4  478.12   50.71
   1   7  -4  436.97   56.94
  -1   7   4  545.43   50.46
  -1   7   4  513.64   44.31
   1   7  -4  582.38   70.13
  -1   7   4  525.26   50.26
  -1   7   4  421.17   46.21
  -1   7   4  516.32   56.50
  -1   7   4  493.88   53.77
   1   7  -4  437.52   52.94
   1   7  -4  388.86   46.16
  -1   7   4  549.64   46.34
  -1   7   4  489.04   50.45
  -1   7   3 1392.45   92.66
  -1   7   3 1828.93  100.61
  -1   7   3 1840.64  105.92
   1   7  -3 1811.47  105.86
  -1   7   3 1830.87  103.91
   1   7  -3 1156.15   92.95
  -1   7   3 1646.40   86.41
  -1   7   3 1510.75   86.18
   1   7  -3 1657.87   91.57
  -1   7   3 1443.49  102.55
   1   7  -3 1589.44  112.25
   1   7  -3 2033.11  129.34
   1   7  -3 1742.71  105.71
  -1   7   3 1654.39   95.84
   1   7  -3 1633.68  112.31
  -1   7   3 1370.41   95.82
  -1   7   3 1988.58  102.38
   1   7  -2  304.78   36.69
   1   7  -2  246.24   34.53
  -1   7   2  348.15   41.15
   1   7  -2  262.09   36.75
   1   7  -2  309.95   43.64
  -1   7   2  331.37   36.87
   1   7  -2  339.18   40.14
  -1   7   2  367.91   40.11
  -1   7   2  322.17   36.60
   1   7  -2  362.62   42.27
  -1   7   2  288.61   30.01
  -1   7   2  328.71   35.06
  -1   7   2  323.84   41.09
  -1   7   2  331.96   38.30
  -1   7   2  295.60   33.10
  -1   7   2  348.31   37.78
   1   7  -2  274.40   42.40
  -1   7   2  339.15   36.59
  -1   7   2  322.44   34.88
   1   7  -1  177.35   28.53
  -1   7   1  179.95   25.05
  -1   7   1  206.75   28.88
   1   7  -1  154.82   27.65
  -1   7   1  189.23   26.69
  -1   7   1  205.33   27.14
  -1   7   1  182.03   24.69
  -1   7   1  201.77   26.12
  -1   7   1  219.99   32.26
   1   7  -1  184.34   30.63
  -1   7   1  248.94   33.23
  -1   7   1  211.37   28.97
  -1   7   1  212.56   28.83
   1   7  -1  135.38   27.75
  -1   7   1  229.10   33.17
   1   7  -1  198.29   35.04
  -1   7   1  205.18   28.02
  -1   7   0  338.61   35.14
   1   7   0  656.97   55.95
   1   7   0  455.16   47.45
  -1   7   0  517.15   45.71
  -1   7   0  539.99   47.48
   1   7   0  533.09   51.18
  -1   7   0  618.98   47.41
  -1   7   0  541.88   47.23
  -1   7   0  580.99   44.91
  -1   7   0  610.96   45.76
  -1   7   0  657.42   52.48
   1   7   0  481.26   39.33
  -1   7   0  642.22   52.55
   1   7   0  597.67   60.04
  -1   7   0  539.35   43.86
  -1   7   0  487.12   42.84
   1   7   1 1844.19  105.57
  -1   7  -1 1984.52  106.03
  -1   7  -1 2283.53  113.28
   1   7   1 2223.47  120.21
  -1   7  -1 2168.72  107.13
  -1   7  -1 2044.90  109.34
  -1   7  -1 1766.34  100.37
  -1   7  -1 2260.16  112.38
   1   7   1 2034.43  105.23
  -1   7  -1 2002.27  111.05
  -1   7  -1 2036.78  101.59
  -1   7  -1 2133.62  108.73
  -1   7  -1 2409.82  124.35
  -1   7  -1 2416.14  127.64
   1   7   1 1873.02  118.70
  -1   7  -1 2378.03  121.78
  -1   7  -1 2242.59  114.37
  -1   7  -1 1986.52  101.34
  -1   7  -2  206.92   29.17
   1   7   2  182.30   27.76
   1   7   2  230.35   34.28
   1   7   2  200.88   30.09
  -1   7  -2  233.33   33.09
  -1   7  -2  211.54   25.89
   1   7   2  322.75   40.24
  -1   7  -2  252.46   32.76
  -1   7  -2  189.18   27.47
  -1   7  -2  206.30   31.73
  -1   7  -2  213.38   27.30
  -1   7  -2  305.52   40.97
   1   7   2  247.22   36.37
  -1   7  -2  202.23   31.28
   1   7   2  241.56   31.38
  -1   7  -2  187.65   30.24
   1   7   3  169.82   28.41
  -1   7  -3  172.50   29.90
  -1   7  -3  145.85   23.35
  -1   7  -3  171.73   25.94
   1   7   3  125.87   20.44
  -1   7  -3  190.67   30.91
  -1   7  -3  185.21   26.74
  -1   7  -3  162.03   30.30
  -1   7  -3  140.92   24.44
   1   7   3  253.63   37.67
   1   7   3  209.43   32.26
   1   7   3  156.87   23.42
   1   7   3  185.08   32.08
  -1   7  -3  191.15   30.50
   1   7   3  215.13   29.70
  -1   7  -3  179.99   33.78
  -1   7  -3   95.64   24.00
  -1   7  -3  183.60   30.37
   1   7   4  519.53   53.10
  -1   7  -4  708.02   62.26
  -1   7  -4  628.27   48.90
  -1   7  -4  652.94   54.22
   1   7   4  647.91   52.40
   1   7   4  449.20   47.20
   1   7   4  674.33   54.78
  -1   7  -4  657.35   55.23
  -1   7  -4  489.79   56.58
   1   7   4  568.57   65.30
  -1   7  -4  701.31   67.89
  -1   7  -4  463.68   53.67
  -1   7  -4  474.38   57.59
   1   7   5  641.18   57.66
  -1   7  -5  800.54   64.19
  -1   7  -5  537.10   62.37
  -1   7  -5  479.92   59.01
  -1   7  -5  700.78   62.32
   1   7   5  747.78   63.31
  -1   7  -5  754.57   70.00
   1   7   5  529.44   65.10
  -1   7  -5  678.55   66.32
   1   7   5  815.85   63.73
   1   7   5  660.35   55.96
  -1   7  -5  704.25   59.39
  -1   7  -6   23.97   13.48
  -1   7  -6   26.96   11.92
  -1   7  -6   25.45   13.11
   1   7   6   24.31   11.52
  -1   7  -6   18.44   12.99
   1   7   6   26.70   13.77
   1   7   6   21.03   13.07
  -1   7  -6   22.31   14.14
  -1   7  -7  138.39   27.33
  -1   7  -7  226.46   29.64
   1   7   7  211.32   27.28
  -1   7  -7  242.04   33.92
  -1   7  -7  197.05   31.51
   1   7   7  226.55   30.32
  -1   7  -7  227.95   27.87
   1   7   7  290.28   33.22
  -1   7  -8  254.95   33.78
  -1   7  -8  320.45   27.72
   1   7   8  343.71   30.61
   1   7   8  376.75   31.61
  -1   8   8  256.74   21.67
  -1   8   8  202.42   19.98
   1   8  -7   65.64   19.46
   1   8  -7   35.79   14.65
  -1   8   7   80.49   15.09
  -1   8   7   91.28   16.01
  -1   8   7   93.00   16.22
   1   8  -7   83.93   23.56
  -1   8   7   92.85   16.48
  -1   8   6   61.99   18.04
   1   8  -6   53.61   19.22
   1   8  -6   40.57   16.02
   1   8  -6   72.60   17.38
  -1   8   6   66.42   15.25
  -1   8   6   62.83   15.80
   1   8  -6   70.03   20.78
   1   8  -6   59.72   23.81
  -1   8   6   64.15   16.05
   1   8  -5  318.72   45.09
  -1   8   5  359.08   38.39
   1   8  -5  456.12   46.30
   1   8  -5  255.74   38.71
   1   8  -5  389.43   43.36
  -1   8   5  346.28   36.20
   1   8  -5  363.93   54.96
  -1   8   5  308.42   34.03
  -1   8   5  367.68   40.09
  -1   8   5  371.61   43.85
   1   8  -4  440.70   50.99
   1   8  -4  481.84   51.43
  -1   8   4  517.27   50.35
  -1   8   4  522.22   52.23
  -1   8   4  481.67   42.76
  -1   8   4  369.27   48.12
   1   8  -4  578.98   67.75
  -1   8   4  424.23   39.86
   1   8  -4  472.62   51.67
   1   8  -4  476.61   53.63
   1   8  -4  570.69   64.18
   1   8  -4  328.50   51.61
  -1   8   4  592.42   53.25
  -1   8   3   52.53   17.09
  -1   8   3   70.21   19.28
   1   8  -3   69.56   15.39
   1   8  -3   24.31   14.69
   1   8  -3   53.59   18.10
   1   8  -3   74.29   20.76
  -1   8   3   69.53   15.41
   1   8  -3   63.80   23.84
  -1   8   3   60.30   18.70
  -1   8   3   79.09   22.61
  -1   8   3   79.09   19.95
   1   8  -3   54.87   22.20
  -1   8   3   68.48   18.80
   1   8  -3   61.48   22.13
  -1   8   3   51.61   18.04
   1   8  -3   61.52   20.05
  -1   8   2  643.05   56.91
  -1   8   2  673.33   53.89
   1   8  -2  678.74   58.95
   1   8  -2  551.98   53.39
  -1   8   2  775.71   61.59
  -1   8   2  674.50   55.21
   1   8  -2  718.77   62.97
  -1   8   2  682.19   56.26
   1   8  -2  578.10   63.14
  -1   8   2  576.27   60.49
   1   8  -2  587.19   58.21
  -1   8   2  701.62   60.29
   1   8  -2  668.93   69.35
  -1   8   2  710.61   64.10
  -1   8   2  600.64   45.61
  -1   8   2  556.55   54.07
  -1   8   1 1033.27   68.29
  -1   8   1 1173.75   71.81
   1   8  -1  686.95   70.34
   1   8  -1  879.95   73.34
  -1   8   1 1128.72   76.41
  -1   8   1  819.48   64.69
   1   8  -1  828.58   71.30
  -1   8   1  921.83   68.95
  -1   8   1  843.31   72.17
  -1   8   1  993.47   69.62
  -1   8   1  928.82   69.45
  -1   8   1  926.32   69.10
  -1   8   1 1174.51   85.53
   1   8  -1  974.33   86.70
  -1   8   1  923.15   66.04
   1   8  -1  826.65   69.94
  -1   8   0  391.26   41.14
  -1   8   0  434.72   41.36
   1   8   0  379.09   44.44
  -1   8   0  382.07   41.37
   1   8   0  455.27   51.43
  -1   8   0  409.11   39.07
  -1   8   0  285.34   34.38
   1   8   0  387.87   52.33
  -1   8   0  305.59   38.98
  -1   8   0  444.04   43.37
   1   8   0  381.30   44.40
  -1   8   0  436.07   46.60
   1   8   0  330.61   38.72
   1   8   1  152.56   26.51
  -1   8  -1  134.68   25.18
   1   8   1  227.27   33.78
  -1   8  -1  229.78   29.88
  -1   8  -1  207.14   26.22
  -1   8  -1  241.93   33.56
  -1   8  -1  242.67   37.13
   1   8   1  172.98   26.72
  -1   8  -1  220.93   28.75
  -1   8  -1  248.41   33.35
  -1   8  -1  234.58   35.75
   1   8   1  133.08   30.62
  -1   8  -1  265.43   40.87
  -1   8  -1  214.92   31.41
  -1   8  -2  636.03   56.50
  -1   8  -2  582.30   53.86
   1   8   2  744.86   65.03
   1   8   2  763.97   68.20
  -1   8  -2  696.24   66.91
  -1   8  -2  594.45   45.41
   1   8   2  741.13   66.75
  -1   8  -2  668.16   59.16
   1   8   2  633.05   55.61
  -1   8  -2  515.26   56.63
   1   8   2  691.27   56.33
  -1   8  -2  545.69   51.46
  -1   8  -2  749.89   70.66
  -1   8  -2  655.42   58.83
   1   8   3  353.79   41.99
   1   8   3  361.61   45.46
  -1   8  -3  292.47   39.91
   1   8   3  443.83   51.42
  -1   8  -3  331.42   42.99
  -1   8  -3  379.68   45.01
  -1   8  -3  442.40   45.60
   1   8   3  461.93   45.23
  -1   8  -3  415.52   53.22
  -1   8  -3  322.62   41.88
  -1   8  -3  360.08   38.92
   1   8   4  215.38   34.14
  -1   8  -4  334.70   42.82
  -1   8  -4  321.39   33.22
   1   8   4  384.17   47.26
  -1   8  -4  255.64   33.55
  -1   8  -4  309.64   39.38
   1   8   4  229.88   29.09
   1   8   4  213.16   28.33
  -1   8  -4  291.09   39.37
   1   8   4  363.16   39.30
  -1   8  -4  268.17   42.45
  -1   8  -4  319.70   45.81
   1   8   5  221.99   31.45
  -1   8  -5  125.57   28.94
   1   8   5  165.73   24.26
  -1   8  -5  196.97   33.21
   1   8   5  144.64   24.09
  -1   8  -5  157.73   25.58
  -1   8  -5  249.33   38.91
  -1   8  -5  199.60   30.38
   1   8   5  203.22   31.16
  -1   8  -6  207.23   29.02
   1   8   6  158.43   22.58
   1   8   6  243.51   31.30
   1   8   6  174.99   24.51
  -1   8  -6  184.94   32.64
  -1   8  -6  211.26   27.97
   1   8   7  346.63   31.55
  -1   8  -7  308.36   29.63
  -1   8  -7  301.05   28.10
  -1   8  -8    5.93    6.33
   1   9  -7   56.45   12.48
  -1   9   7   92.16   11.99
   1   9  -6  209.72   31.56
  -1   9   6  241.70   24.57
   1   9  -6  381.85   44.35
  -1   9   6  398.88   33.71
  -1   9   6  393.51   32.45
   1   9  -6  201.51   28.50
  -1   9   5   25.04   10.30
   1   9  -5   19.02   10.57
  -1   9   5   37.52   11.23
   1   9  -5   41.36   18.56
  -1   9   5   44.53   12.85
   1   9  -5   48.81   14.27
   1   9  -5   48.42   14.66
  -1   9   4  379.00   40.62
   1   9  -4  314.18   38.75
   1   9  -4  254.71   36.54
   1   9  -4  384.01   50.09
  -1   9   4  278.90   28.92
   1   9  -4  278.09   43.99
  -1   9   4  368.02   42.11
   1   9  -4  225.52   33.37
  -1   9   3  261.52   34.80
   1   9  -3  207.04   28.80
  -1   9   3  316.41   38.04
   1   9  -3  272.06   37.35
  -1   9   3  210.19   24.54
   1   9  -3  220.19   39.05
   1   9  -3  229.58   38.80
   1   9  -3  218.15   34.25
  -1   9   3  246.26   36.22
  -1   9   3  277.10   36.98
   1   9  -2  697.48   64.15
   1   9  -2  929.51   73.44
  -1   9   2  771.85   64.02
  -1   9   2 1040.73   73.00
   1   9  -2  718.04   72.24
   1   9  -2  731.38   67.04
  -1   9   2  831.28   75.01
   1   9  -2  904.90   69.08
  -1   9   2  853.22   73.47
  -1   9   2  928.24   65.42
  -1   9   2  842.23   65.16
   1   9  -2  772.95   79.39
  -1   9   2  901.93   68.36
  -1   9   1   36.32   13.22
  -1   9   1   36.14   13.82
   1   9  -1   28.38   14.66
  -1   9   1   71.96   16.65
   1   9  -1   43.91   16.64
   1   9  -1   51.66   15.68
  -1   9   1   41.14   14.20
  -1   9   1   65.22   17.60
   1   9  -1   46.48   17.29
  -1   9   1   55.61   19.43
   1   9  -1   27.19   17.44
  -1   9   1   42.05   15.72
  -1   9   0  302.62   37.28
  -1   9   0  359.22   37.11
   1   9   0  350.33   42.34
  -1   9   0  301.10   37.39
  -1   9   0  344.81   35.90
  -1   9   0  348.24   39.21
   1   9   0  399.02   48.94
  -1   9   0  305.97   40.51
   1   9   0  286.92   47.30
   1   9   0  281.09   36.20
  -1   9   0  328.44   35.25
   1   9   1  481.98   47.19
   1   9   1  579.35   54.37
   1   9   1  541.05   57.52
  -1   9  -1  511.67   49.41
  -1   9  -1  463.42   47.60
  -1   9  -1  537.53   50.59
  -1   9  -1  458.67   51.54
  -1   9  -1  422.72   38.20
   1   9   1  313.14   35.88
  -1   9  -1  508.74   58.14
   1   9   1  390.90   52.10
  -1   9  -2  240.43   32.50
  -1   9  -2  242.95   41.25
   1   9   2  234.51   32.36
   1   9   2  271.32   37.44
   1   9   2  222.77   30.15
  -1   9  -2  183.52   33.68
  -1   9  -2  248.17   34.25
  -1   9  -2  177.22   26.89
  -1   9  -2  217.96   33.24
   1   9   3   38.14   13.14
  -1   9  -3   26.73   15.94
   1   9   3   24.96   14.98
  -1   9  -3   44.04   14.00
   1   9   3   53.44   17.49
  -1   9  -3   31.60   14.46
   1   9   3   43.57   14.66
  -1   9  -3   40.29   12.80
  -1   9  -3   17.40   10.77
  -1   9  -3   32.76   14.05
   1   9   4  389.68   43.54
  -1   9  -4  356.49   43.36
  -1   9  -4  469.38   38.22
  -1   9  -4  335.08   40.21
  -1   9  -4  408.42   50.51
  -1   9  -4  444.95   51.78
  -1   9  -4  438.53   47.51
   1   9   4  507.55   44.12
  -1   9  -5  157.53   28.62
  -1   9  -5  272.95   36.41
  -1   9  -5  227.70   34.29
  -1   9  -5  254.08   31.07
   1   9   5  243.98   30.90
  -1   9  -6   25.65   11.19
  -1   9  -6   49.07   12.71
   1   9   6   59.71   13.96
  -1   9  -6   62.31   16.91
  -1   9  -6   61.45   13.67
  -1   9  -6   20.55   12.02
  -1   9  -7   83.06   11.69
   1   9   7   87.31   13.16
  -1   9  -7   78.28   14.28
   1   9   7   74.23   11.68
   1  10  -6   75.18   14.56
  -1  10   6   78.01   11.85
   1  10  -5  118.68   16.94
   1  10  -5  125.12   19.13
  -1  10   5  106.99   15.43
   1  10  -5  130.69   22.50
  -1  10   5  130.83   19.31
  -1  10   4  413.08   36.61
   1  10  -4  254.39   33.08
   1  10  -4  314.38   35.88
  -1  10   4  390.04   33.81
   1  10  -4  248.14   28.65
   1  10  -3   67.74   15.89
  -1  10   3   92.32   18.52
  -1  10   3   73.42   17.41
   1  10  -3   61.78   16.86
   1  10  -3   71.01   17.38
   1  10  -3   88.85   21.27
  -1  10   3  111.13   20.56
  -1  10   3   91.84   17.32
  -1  10   2  206.14   29.80
   1  10  -2  177.97   28.18
   1  10  -2  202.70   27.84
  -1  10   2  209.44   28.31
   1  10  -2  205.73   27.76
  -1  10   2  177.66   30.04
   1  10  -2  139.64   32.05
   1  10  -2  108.46   22.39
  -1  10   1  966.83   67.86
  -1  10   1  916.30   57.27
   1  10  -1  795.14   62.29
   1  10  -1  741.94   57.60
  -1  10   1  772.53   59.10
   1  10  -1  696.37   71.25
  -1  10   1  793.79   70.21
   1  10  -1  662.29   60.08
  -1  10   0   34.04   12.53
   1  10   0   39.36   15.90
   1  10   0   27.58   13.28
   1  10   0   18.00    9.99
   1  10   0   12.15   12.68
  -1  10   0   40.91   12.50
  -1  10  -1   12.32   10.13
   1  10   1   13.91    9.57
  -1  10  -1    9.13    8.16
   1  10   1    3.30    9.22
   1  10   1   18.59   11.07
  -1  10  -1   18.50   10.66
  -1  10  -1   17.53   12.96
  -1  10  -1    8.07    9.74
   1  10   1    8.13    9.14
   1  10   2  664.64   51.63
  -1  10  -2  751.62   56.96
   1  10   2  809.03   59.91
  -1  10  -2  735.13   54.74
  -1  10  -2  733.55   56.02
  -1  10  -2  725.48   66.11
  -1  10  -2  641.84   59.77
  -1  10  -3  360.98   32.76
   1  10   3  426.55   41.84
   1  10   3  281.28   35.36
  -1  10  -3  356.54   37.45
  -1  10  -3  348.71   42.51
  -1  10  -3  304.33   35.05
  -1  10  -3  300.51   41.34
  -1  10  -4   79.60   16.77
   1  10   4   84.96   17.36
  -1  10  -4  102.76   18.83
   1  10   5   79.92   15.18
  -1  10  -6  135.15   14.24
   1  10   6  108.79   13.69
  -1  11   4   19.10    8.35
   1  11  -4   29.68    6.63
   1  11  -4   19.78    6.83
  -1  11   4   34.80    7.72
  -1  11   4   32.69    7.38
   1  11  -3  309.19   29.22
   1  11  -3  298.80   26.72
  -1  11   3  385.22   28.32
  -1  11   2  261.33   26.57
   1  11  -2  221.39   23.95
   1  11  -2  239.25   26.92
  -1  11   2  195.64   20.42
  -1  11   2  281.23   29.51
   1  11  -1   12.08    7.93
   1  11  -1   41.23   11.89
   1  11  -1   34.27    9.97
  -1  11   1   38.22   10.73
  -1  11   1   42.46   12.33
   1  11   0   54.91   12.76
  -1  11   0   58.98   13.18
   1  11   0   19.96    9.87
   1  11   0   69.62   15.09
  -1  11   0   63.84   15.56
  -1  11   0   64.31   17.63
   1  11   1  319.44   29.54
  -1  11  -1  279.72   28.97
   1  11   1  240.87   30.61
  -1  11  -1  286.09   30.30
   1  11   1  312.55   31.28
  -1  11  -2   52.74   12.21
  -1  11  -2   69.34   13.80
  -1  11  -2   52.65   16.55
   1  11   3   63.42   13.18
   1  11   3   44.83    8.71
  -1  11  -3   82.63   13.93
  -1  11  -4  112.90   14.66
   1  11   4  122.57   15.94
  -1  12   0   46.84    9.15
  -1  12   0   98.72   11.76
  -1  12  -1    2.88    3.12
   2 -11  -3   15.10    6.02
  -2 -11   3   12.37    5.17
   2 -11  -2    7.78    3.05
  -2 -11   2    5.64    2.63
   2 -11  -1  254.10   23.19
   2 -11  -1  267.38   24.54
   2 -11   0  177.56   20.19
   2 -11   0  154.69   17.99
  -2 -11   0   93.28   16.18
  -2 -11   0   63.75   10.30
   2 -11   1  134.64   16.11
   2 -11   1  192.59   21.33
   2 -11   2   61.47   11.88
  -2 -11  -2   51.36    9.29
  -2 -11  -3  117.84   12.52
   2 -11   3  140.12   16.76
   2 -10  -5  121.69   13.85
  -2 -10   5   53.33   10.58
   2 -10  -4   27.94    9.99
   2 -10  -4   36.26    9.29
  -2 -10   4   15.78    6.49
   2 -10  -4   28.40    9.00
  -2 -10   4   14.05    8.77
   2 -10  -4   39.48   10.14
   2 -10  -3  125.82   22.20
   2 -10  -3  165.16   18.93
   2 -10  -3  212.47   23.34
   2 -10  -3  116.03   20.98
   2 -10  -3  193.40   24.53
  -2 -10   3  126.98   20.43
   2 -10  -2  439.77   40.67
  -2 -10   2  481.69   41.67
  -2 -10   2  542.88   45.00
   2 -10  -1  480.32   40.86
  -2 -10   1  277.12   34.25
  -2 -10   1  271.17   30.37
  -2 -10   1  340.54   35.90
   2 -10  -1  269.41   31.90
   2 -10  -1  427.84   37.76
   2 -10  -1  371.21   39.05
   2 -10   0   51.23   13.77
   2 -10   0   35.96   12.34
   2 -10   0   33.48   12.12
   2 -10   0   69.19   16.37
  -2 -10   0   50.24   14.59
   2 -10   0   31.37   11.27
  -2 -10   0   30.79   12.94
   2 -10   1  192.47   21.91
   2 -10   1  318.83   34.65
  -2 -10  -1  164.48   20.74
   2 -10   1  320.67   36.86
   2 -10   1  176.29   24.91
   2 -10   1  265.44   30.84
  -2 -10  -1  177.73   24.98
   2 -10   1  269.38   29.89
   2 -10   1  239.09   27.29
  -2 -10  -1  188.71   28.55
   2 -10   2  126.07   20.47
   2 -10   2  116.05   19.10
   2 -10   2  145.15   23.78
   2 -10   2  132.24   22.87
  -2 -10  -2   62.24   16.78
   2 -10   2  108.29   16.78
  -2 -10  -3   23.70   11.20
   2 -10   3   39.92   10.19
   2 -10   3   38.49   12.60
  -2 -10  -3   17.43    9.76
   2 -10   3   35.09   11.50
  -2 -10  -3   59.81   12.38
  -2 -10  -3   23.52   11.34
   2 -10   4   10.65    5.64
  -2 -10  -4    8.59    6.93
   2 -10   4   11.59    6.95
  -2 -10  -4   14.82    5.99
  -2 -10  -5  245.37   18.22
   2 -10   5  153.54   16.64
   2  -9  -7  124.77   13.31
   2  -9  -7  116.50   11.76
  -2  -9   6   57.01   13.53
   2  -9  -6  101.10   15.15
  -2  -9   6   64.16   13.21
  -2  -9   6   93.59   17.09
   2  -9  -6   61.62   16.16
  -2  -9   6   64.05   14.96
   2  -9  -5  180.81   22.46
   2  -9  -5  221.85   25.47
   2  -9  -5  177.21   28.27
  -2  -9   5  129.33   19.89
  -2  -9   5  138.43   23.73
   2  -9  -5  123.68   22.45
  -2  -9   5  126.36   22.50
   2  -9  -5  131.32   20.96
   2  -9  -4  267.83   28.12
   2  -9  -4  243.68   31.87
  -2  -9   4  169.53   23.66
   2  -9  -4  224.11   33.30
  -2  -9   4  201.68   27.00
   2  -9  -4  242.51   31.53
   2  -9  -3  232.82   29.70
   2  -9  -3  212.30   29.03
   2  -9  -3  174.13   29.93
  -2  -9   3  165.88   24.63
  -2  -9   3  162.52   25.29
   2  -9  -3  143.65   21.12
   2  -9  -3  154.39   27.16
   2  -9  -2  156.16   27.19
   2  -9  -2  164.56   25.19
   2  -9  -2  193.39   28.26
  -2  -9   2  198.51   28.70
  -2  -9   2  153.48   26.91
   2  -9  -2  163.96   22.23
   2  -9  -1  618.07   53.60
   2  -9  -1  479.88   46.42
  -2  -9   1  502.71   49.51
   2  -9  -1  381.04   39.53
   2  -9  -1  479.97   45.09
   2  -9  -1  558.03   52.37
   2  -9  -1  603.99   49.75
   2  -9   0  655.27   58.96
  -2  -9   0  452.18   44.49
  -2  -9   0  436.67   41.96
   2  -9   0  489.09   41.61
   2  -9   0  690.59   56.72
   2  -9   0  623.71   53.15
   2  -9   0  595.98   49.66
   2  -9   0  562.07   48.78
   2  -9   0  585.19   52.24
   2  -9   1  103.70   20.16
   2  -9   1  119.10   24.32
   2  -9   1  104.76   21.32
   2  -9   1   88.19   20.11
   2  -9   1   80.57   18.83
  -2  -9  -1   75.26   19.14
   2  -9   1  100.57   19.37
   2  -9   2  102.44   18.88
   2  -9   2  129.59   23.68
   2  -9   2  158.15   27.82
  -2  -9  -2  103.60   23.01
   2  -9   2  159.80   27.91
   2  -9   2  108.51   21.48
   2  -9   2  143.87   23.83
   2  -9   3  315.33   37.14
   2  -9   3  383.57   40.47
   2  -9   3  367.49   35.56
   2  -9   3  287.49   34.56
  -2  -9  -3  222.98   33.46
  -2  -9  -3  148.58   28.60
   2  -9   3  259.42   27.77
   2  -9   4  286.32   34.39
   2  -9   4  266.28   31.27
   2  -9   4  293.71   32.18
   2  -9   4  258.37   31.16
   2  -9   4  314.62   34.75
  -2  -9  -4  373.70   33.52
  -2  -9  -4  237.92   33.04
  -2  -9  -4  182.48   29.08
  -2  -9  -5   55.83   12.28
   2  -9   5   39.21   11.95
  -2  -9  -5   61.73   11.31
   2  -9   5   36.00   11.04
  -2  -9  -5   24.32   10.54
   2  -9   5   24.24    9.86
   2  -9   5   34.41   10.63
  -2  -9  -5   35.11   12.44
  -2  -9  -6  165.01   17.65
  -2  -9  -6  192.56   17.26
   2  -8  -8   33.76    7.96
   2  -8  -8   23.94    6.66
  -2  -8   8   21.31    7.32
  -2  -8   7   60.30   13.07
  -2  -8   7  112.59   19.09
   2  -8  -7  102.72   16.66
  -2  -8   7   68.87   16.05
   2  -8  -7   94.22   18.29
  -2  -8   7   78.68   16.39
  -2  -8   7  101.14   18.27
   2  -8  -6  509.44   38.49
  -2  -8   6  397.55   37.97
   2  -8  -6  655.45   48.50
  -2  -8   6  578.97   51.31
   2  -8  -6  501.63   42.29
  -2  -8   6  604.75   51.34
  -2  -8   6  434.43   45.60
   2  -8  -5  316.15   35.71
   2  -8  -5  381.11   39.13
   2  -8  -5  299.72   36.92
  -2  -8   5  385.74   45.37
   2  -8  -5  361.75   45.33
   2  -8  -5  380.47   33.32
   2  -8  -5  330.39   34.30
  -2  -8   5  334.30   42.26
  -2  -8   4   34.82   13.18
   2  -8  -4   29.96   10.10
   2  -8  -4   19.24   12.83
   2  -8  -4   17.81   10.51
   2  -8  -4   46.25   14.26
  -2  -8   4   34.37   13.90
  -2  -8   4   31.15   13.01
   2  -8  -4   36.06   13.82
   2  -8  -4   27.33   13.00
   2  -8  -3  891.65   71.19
   2  -8  -3  767.64   75.59
  -2  -8   3  984.08   71.99
   2  -8  -3 1245.18   78.19
   2  -8  -3  877.25   54.77
   2  -8  -3 1033.89   61.50
  -2  -8   3  837.19   79.75
   2  -8  -3  912.62   77.20
   2  -8  -3 1058.34   71.75
   2  -8  -3  877.80   77.69
  -2  -8   3  767.45   75.80
   2  -8  -3 1055.27   80.24
  -2  -8   3 1005.67   71.06
   2  -8  -3  965.28   62.84
   2  -8  -3  926.86   61.72
   2  -8  -3  901.63   71.48
   2  -8  -2  359.43   47.83
   2  -8  -2  349.81   43.23
   2  -8  -2  355.67   38.34
   2  -8  -2  441.63   45.07
   2  -8  -2  409.64   42.24
  -2  -8   2  263.85   43.15
  -2  -8   2  295.16   44.50
   2  -8  -2  362.76   46.20
  -2  -8   2  252.80   42.69
   2  -8  -2  318.97   33.65
  -2  -8   2  385.64   50.76
  -2  -8   2  335.77   40.50
   2  -8  -1  640.19   52.66
   2  -8  -1  619.23   53.03
   2  -8  -1  550.36   47.89
   2  -8  -1  777.06   63.52
  -2  -8   1  460.44   51.08
   2  -8  -1  497.13   42.74
   2  -8  -1  589.18   53.88
   2  -8  -1  551.91   59.90
   2  -8  -1  644.85   52.17
  -2  -8   1  441.35   44.03
  -2  -8   1  556.17   61.71
   2  -8  -1  505.65   49.97
   2  -8  -1  667.51   60.04
  -2  -8   1  498.34   55.91
   2  -8  -1  577.27   57.26
  -2  -8   1  466.15   55.66
   2  -8  -1  580.28   54.95
  -2  -8   0   25.30   15.42
   2  -8   0   32.74   12.55
   2  -8   0   21.70   13.55
   2  -8   0   36.43   13.03
  -2  -8   0   33.03   12.61
   2  -8   0   24.95   11.26
   2  -8   0   44.36   12.15
  -2  -8   0   31.97   15.42
   2  -8   0   38.41   15.09
   2  -8   0   47.71   16.16
  -2  -8   0   47.24   14.99
   2  -8   0   39.61   13.09
   2  -8   0   25.21   12.01
   2  -8   0   30.97   14.19
   2  -8   0   29.70   12.93
  -2  -8   0   30.76   13.20
   2  -8   0   32.73   13.58
   2  -8   1  163.35   26.85
   2  -8   1  170.96   28.17
  -2  -8  -1  161.81   31.77
   2  -8   1  118.41   26.59
   2  -8   1  171.72   28.38
   2  -8   1  179.61   30.20
  -2  -8  -1  211.87   35.88
   2  -8   1  192.72   31.00
  -2  -8  -1  175.92   32.42
   2  -8   1  127.95   22.72
  -2  -8  -1  139.03   28.05
  -2  -8  -1  135.75   26.23
   2  -8   1  152.37   26.06
   2  -8   2 1011.76   77.34
  -2  -8  -2  924.13   81.82
  -2  -8  -2 1294.26   88.57
   2  -8   2  926.00   74.87
  -2  -8  -2 1227.28   86.34
  -2  -8  -2 1047.49   80.80
   2  -8   2 1234.98   85.30
   2  -8   2 1046.24   73.24
   2  -8   2  984.08   71.28
   2  -8   2 1093.17   79.67
  -2  -8  -2  797.93   66.56
  -2  -8  -3   43.55   15.74
   2  -8   3   39.24   16.58
   2  -8   3   33.36   12.43
   2  -8   3   24.74   13.63
  -2  -8  -3   67.93   17.82
   2  -8   3   60.88   18.60
   2  -8   3   38.92   16.70
   2  -8   3   30.75   13.00
  -2  -8  -3   34.89   14.74
   2  -8   3   39.25   14.83
   2  -8   4  155.62   26.78
   2  -8   4  180.13   32.38
   2  -8   4  190.28   29.92
   2  -8   4  219.63   30.07
   2  -8   4  221.77   36.04
   2  -8   4  211.81   30.34
   2  -8   4  267.31   31.35
  -2  -8  -4  219.54   32.81
   2  -8   5  364.15   37.63
  -2  -8  -5  349.23   34.12
  -2  -8  -5  352.29   33.70
   2  -8   5  327.98   41.18
   2  -8   5  339.92   37.60
   2  -8   5  327.10   31.72
   2  -8   5  372.83   38.13
   2  -8   5  426.21   45.19
  -2  -8  -5  346.01   40.76
   2  -8   6  104.34   18.21
   2  -8   6  124.26   22.16
   2  -8   6   90.87   15.39
   2  -8   6   93.42   18.23
  -2  -8  -6   91.99   20.21
  -2  -8  -6  160.86   20.24
  -2  -8  -6   91.68   20.98
  -2  -8  -7   53.46    7.73
   2  -8   7   23.32    8.46
  -2  -8  -7   35.21    9.15
  -2  -8  -7   28.05    9.27
  -2  -7   8  394.93   37.09
   2  -7  -8  534.55   38.62
  -2  -7   8  519.54   40.82
  -2  -7   8  494.05   40.70
   2  -7  -7  685.14   52.21
  -2  -7   7  682.07   55.71
  -2  -7   7  652.59   54.78
   2  -7  -7  572.25   52.89
   2  -7  -6   36.35   13.29
   2  -7  -6   29.03   11.80
  -2  -7   6   18.78   13.86
   2  -7  -6   45.56   16.09
  -2  -7   6   27.41   15.85
   2  -7  -6   23.28   14.48
   2  -7  -5   32.59   13.37
   2  -7  -5   32.29   11.35
   2  -7  -5   39.92   12.94
   2  -7  -5   30.82   13.25
   2  -7  -5   40.01   14.99
   2  -7  -5   49.17   15.04
   2  -7  -5   50.64   14.97
  -2  -7   5   29.68   13.34
   2  -7  -5   49.98   18.13
  -2  -7   5   32.36   13.54
  -2  -7   5   48.53   14.85
   2  -7  -5   35.12   12.77
   2  -7  -4  508.89   50.31
   2  -7  -4  476.56   39.66
   2  -7  -4  492.42   54.32
   2  -7  -4  665.27   55.47
   2  -7  -4  432.86   48.87
   2  -7  -4  535.41   53.69
  -2  -7   4  452.47   57.18
  -2  -7   4  366.44   53.01
  -2  -7   4  396.62   47.70
   2  -7  -4  604.62   46.33
  -2  -7   4  641.23   52.58
   2  -7  -4  398.90   40.08
   2  -7  -4  540.41   50.30
   2  -7  -4  537.60   58.33
   2  -7  -3  894.80   56.29
   2  -7  -3  791.58   74.14
   2  -7  -3 1222.27   77.52
   2  -7  -3  932.54   70.94
   2  -7  -3  994.88   78.80
   2  -7  -3  945.73   70.03
   2  -7  -3 1044.64   81.10
  -2  -7   3  873.34   80.57
  -2  -7   3  793.19   66.19
   2  -7  -3  962.16   62.75
  -2  -7   3 1086.34   73.60
   2  -7  -3  962.86   63.15
  -2  -7   3 1114.14   77.03
   2  -7  -3  968.62   74.79
   2  -7  -3 1083.20   82.24
   2  -7  -2   21.90   10.42
   2  -7  -2   25.77   13.96
   2  -7  -2   20.49   10.37
   2  -7  -2   32.12   12.93
   2  -7  -2   24.96   13.34
   2  -7  -2   31.00    9.66
  -2  -7   2   20.74   13.82
   2  -7  -2   27.91   14.09
   2  -7  -2   16.28    9.07
  -2  -7   2   23.83   16.03
   2  -7  -2   24.94   10.09
   2  -7  -2   19.15   12.10
   2  -7  -2   35.36   14.90
   2  -7  -1 1276.36   80.20
   2  -7  -1 1343.75   84.93
  -2  -7   1 1151.99   82.28
  -2  -7   1  928.79   71.00
   2  -7  -1 1392.65   83.14
   2  -7  -1 1399.22   85.41
   2  -7  -1 1380.62   81.43
  -2  -7   1 1241.14   96.87
   2  -7  -1 1428.09   90.63
  -2  -7   1 1180.36   89.43
   2  -7  -1 1300.99   88.02
  -2  -7   1 1175.42   91.77
   2  -7  -1 1481.54   90.60
   2  -7  -1 1295.18   77.37
   2  -7  -1 1303.77   78.86
   2  -7   0 1345.17   86.88
  -2  -7   0 1377.32   93.06
   2  -7   0 1390.22   96.69
   2  -7   0 1657.33   88.34
   2  -7   0 1569.57   90.85
   2  -7   0 1490.62   91.16
   2  -7   0 1536.62   85.01
   2  -7   0 1391.79   87.87
  -2  -7   0 1460.49  103.99
   2  -7   0 1474.18   93.82
  -2  -7   0 1389.76  101.11
  -2  -7   0 1268.50   91.89
   2  -7   0 1605.74   94.62
  -2  -7   0 1243.46   93.47
   2  -7   0 1231.28   82.13
   2  -7   0 1637.70   97.00
   2  -7   0 1532.99   87.60
  -2  -7  -1   86.09   22.11
   2  -7   1  112.56   23.30
   2  -7   1  137.23   27.85
  -2  -7  -1   97.46   20.08
  -2  -7  -1  116.42   26.61
   2  -7   1  119.12   18.98
   2  -7   1  108.27   22.91
  -2  -7  -1  155.66   29.90
  -2  -7  -1  137.38   24.61
   2  -7   1   96.04   20.05
   2  -7   1  142.72   26.06
   2  -7   1  119.55   26.56
  -2  -7  -1  103.49   25.69
   2  -7   1  121.66   24.99
   2  -7   1  114.91   20.53
   2  -7   1  147.65   22.24
   2  -7   1  121.27   23.68
   2  -7   1  138.43   23.67
   2  -7   1  110.37   21.88
  -2  -7  -2   39.71   16.37
   2  -7   2   33.28   15.00
  -2  -7  -2   37.06   15.86
  -2  -7  -2   74.46   20.75
   2  -7   2   37.25   14.59
  -2  -7  -2   38.71   13.89
   2  -7   2   28.83   14.90
   2  -7   2   30.33   14.44
   2  -7   2   35.25   14.84
   2  -7   2   45.68   15.83
   2  -7   2   25.35   13.68
   2  -7   2   36.44   13.62
  -2  -7  -2   23.83   12.65
  -2  -7  -3 1028.73   87.87
   2  -7   3 1157.07   68.71
   2  -7   3 1266.74   79.38
   2  -7   3 1235.72   82.21
   2  -7   3 1223.71   84.77
  -2  -7  -3 1340.73   89.50
  -2  -7  -3 1381.39   91.34
   2  -7   3  757.77   68.87
   2  -7   3 1260.17   95.94
   2  -7   3 1429.54   94.33
  -2  -7  -3 1002.34   72.84
   2  -7   3 1051.10   76.90
   2  -7   3 1091.31   68.19
  -2  -7  -3 1089.27   79.18
   2  -7   4  465.95   42.34
   2  -7   4  475.86   49.93
   2  -7   4  550.02   49.12
   2  -7   4  450.22   49.24
   2  -7   4  433.10   45.94
  -2  -7  -4  651.22   60.09
   2  -7   4  432.49   55.83
   2  -7   4  528.31   55.70
   2  -7   4  615.24   62.68
   2  -7   4  569.15   50.39
   2  -7   4  471.69   47.80
   2  -7   4  462.36   42.91
  -2  -7  -4  496.34   52.08
   2  -7   5  110.35   22.11
   2  -7   5  113.57   23.30
  -2  -7  -5  132.38   26.48
  -2  -7  -5  117.56   20.68
   2  -7   5   84.13   21.19
   2  -7   5  106.47   19.00
   2  -7   5  158.53   31.69
   2  -7   5  109.25   19.98
   2  -7   5  135.47   24.53
   2  -7   5   80.54   19.05
   2  -7   6   52.70   14.67
   2  -7   6   37.27   12.24
   2  -7   6   41.86   14.67
   2  -7   6   66.57   17.85
   2  -7   6   37.20   12.12
  -2  -7  -6   29.49   13.33
   2  -7   6   54.66   15.51
   2  -7   6   54.34   14.62
  -2  -7  -6   69.44   16.16
  -2  -7  -7  436.46   35.95
  -2  -7  -7  437.24   31.68
   2  -7   7  263.57   30.47
   2  -7   7  380.50   35.44
   2  -7   7  265.44   28.96
  -2  -7  -7  201.38   29.88
  -2  -7  -8   91.86   13.26
   2  -7   8   61.50   11.41
  -2  -6   9  241.44   28.62
   2  -6  -9  291.79   26.55
  -2  -6   9  229.92   27.01
  -2  -6   9  307.40   25.06
  -2  -6   8   11.80   10.58
   2  -6  -8    8.63    9.05
  -2  -6   8   13.09    9.32
  -2  -6   8   22.71    9.51
  -2  -6   8   14.24    9.77
  -2  -6   8    8.34    7.94
   2  -6  -8   19.46    7.41
  -2  -6   7  215.22   33.76
   2  -6  -7  180.23   25.93
   2  -6  -7  252.59   33.46
  -2  -6   7  182.35   24.47
  -2  -6   7  254.76   34.74
  -2  -6   7  246.30   34.50
   2  -6  -7  158.39   20.65
   2  -6  -7  192.02   30.55
   2  -6  -6  549.59   45.99
   2  -6  -6  660.00   49.94
  -2  -6   6  695.94   60.88
   2  -6  -6  546.13   51.92
  -2  -6   6  641.49   59.03
   2  -6  -6  656.15   56.36
  -2  -6   6  453.09   53.84
   2  -6  -6  483.01   38.02
   2  -6  -6  439.84   54.36
   2  -6  -6  553.33   59.44
  -2  -6   6  214.67   46.27
  -2  -6   6  439.97   53.21
   2  -6  -6  669.49   62.91
   2  -6  -6  556.50   49.24
   2  -6  -5  657.46   53.17
   2  -6  -5  625.38   48.33
   2  -6  -5  519.68   56.90
   2  -6  -5  817.90   57.06
   2  -6  -5  881.83   66.59
  -2  -6   5  559.23   55.91
   2  -6  -5  648.09   62.51
   2  -6  -5  450.96   60.37
  -2  -6   5  389.92   55.08
  -2  -6   5  641.87   60.54
   2  -6  -5  681.39   58.19
   2  -6  -5  661.61   57.86
   2  -6  -5  596.81   51.80
   2  -6  -4   84.04   19.28
   2  -6  -4   84.70   16.26
   2  -6  -4   95.27   21.79
   2  -6  -4   92.89   18.24
   2  -6  -4  120.49   23.12
  -2  -6   4   63.30   16.24
   2  -6  -4   70.99   19.71
   2  -6  -4   81.33   20.27
  -2  -6   4   41.73   19.25
   2  -6  -4   69.03   21.13
   2  -6  -4  103.71   25.86
  -2  -6   4   59.03   18.55
  -2  -6   4  100.04   20.85
   2  -6  -4   49.03   14.70
   2  -6  -4   81.30   19.75
   2  -6  -3  439.71   38.22
   2  -6  -3  464.17   47.38
   2  -6  -3  549.30   48.23
   2  -6  -3  482.14   46.41
   2  -6  -3  452.06   44.81
  -2  -6   3  399.22   51.02
   2  -6  -3  417.38   48.05
  -2  -6   3  317.50   39.14
  -2  -6   3  526.77   45.49
   2  -6  -3  393.26   33.42
   2  -6  -3  398.66   36.76
   2  -6  -3  539.41   53.19
   2  -6  -2 1160.83   84.65
  -2  -6   2 1081.81   70.95
   2  -6  -2 1189.64   68.87
   2  -6  -2 1401.61   80.81
   2  -6  -2 1245.34   75.68
   2  -6  -2  980.54   68.04
   2  -6  -2 1258.73   84.81
  -2  -6   2 1130.34   86.13
  -2  -6   2 1113.99   87.37
  -2  -6   2 1050.84   69.61
   2  -6  -2 1033.81   68.36
   2  -6  -2 1167.07   67.56
   2  -6  -2 1288.76   81.52
   2  -6  -2 1372.44   82.34
   2  -6  -2 1247.30   73.96
   2  -6  -2 1368.85   85.12
   2  -6  -1  748.43   53.20
   2  -6  -1  836.87   60.88
   2  -6  -1  771.32   56.97
  -2  -6   1  683.09   55.32
   2  -6  -1  824.86   54.65
   2  -6  -1  855.04   60.23
   2  -6  -1  802.87   55.01
   2  -6  -1  524.21   43.53
   2  -6  -1  835.61   62.73
   2  -6  -1  840.41   62.98
  -2  -6   1  663.05   61.28
  -2  -6   1  747.29   66.57
  -2  -6   1  591.23   45.55
   2  -6  -1  716.44   57.55
   2  -6  -1  952.16   63.00
   2  -6  -1  884.32   59.42
   2  -6   0  195.63   27.57
  -2  -6   0  180.77   28.44
   2  -6   0  234.07   33.38
   2  -6   0  193.42   26.51
   2  -6   0  205.14   27.58
   2  -6   0  197.81   27.51
   2  -6   0  232.73   26.21
  -2  -6   0  185.03   33.27
   2  -6   0  207.09   29.27
  -2  -6   0  138.86   29.96
  -2  -6   0  169.07   28.65
   2  -6   0  239.20   30.88
  -2  -6   0  205.79   32.18
   2  -6   0  165.45   24.99
   2  -6   0  203.83   28.94
   2  -6   0  240.82   28.71
   2  -6   0  203.53   27.94
  -2  -6  -1  615.18   56.82
   2  -6   1  640.84   54.77
   2  -6   1  601.93   56.05
   2  -6   1  689.66   56.05
   2  -6   1  658.99   52.56
   2  -6   1  628.30   49.67
   2  -6   1  576.18   44.61
  -2  -6  -1  684.94   61.80
   2  -6   1  645.65   54.37
  -2  -6  -1  629.39   59.01
  -2  -6  -1  644.93   53.77
   2  -6   1  563.60   48.15
  -2  -6  -1  541.36   52.96
   2  -6   1  747.18   62.66
   2  -6   1  724.72   57.88
   2  -6   1  727.25   54.99
   2  -6   1  673.65   52.11
   2  -6   1  641.70   51.68
  -2  -6  -2  746.79   67.52
   2  -6   2  883.08   63.84
   2  -6   2  893.78   63.18
   2  -6   2  915.93   64.42
   2  -6   2  877.89   66.78
  -2  -6  -2 1008.74   72.93
   2  -6   2  850.72   54.56
   2  -6   2  866.91   63.73
  -2  -6  -2  985.69   73.34
   2  -6   2  839.54   64.82
   2  -6   2  702.92   53.61
  -2  -6  -2  848.46   64.90
   2  -6   2  945.07   76.05
   2  -6   2  948.97   71.28
   2  -6   2 1060.53   76.18
   2  -6   2  836.23   53.20
   2  -6   2  923.76   67.22
   2  -6   2  815.22   67.62
   2  -6   3   -2.07    6.45
  -2  -6  -3    1.91    8.70
   2  -6   3   -3.85   11.20
   2  -6   3    4.30    8.01
  -2  -6  -3    1.28    8.48
  -2  -6  -3    4.25    7.63
  -2  -6  -3   -1.58    9.53
   2  -6   3    1.52    8.85
   2  -6   3   -1.34    6.84
   2  -6   3    1.09    6.08
   2  -6   3    1.58    7.65
  -2  -6  -3    1.67    7.60
   2  -6   3   14.08    7.18
  -2  -6  -3   12.59    6.77
   2  -6   3    2.05    9.92
   2  -6   3    3.56    9.09
   2  -6   3    2.87    6.94
   2  -6   3    4.18    3.90
   2  -6   3   -2.79    9.01
  -2  -6  -4  438.61   52.80
   2  -6   4  511.06   47.29
   2  -6   4  422.90   41.59
   2  -6   4  425.21   42.57
  -2  -6  -4  461.82   39.59
  -2  -6  -4  463.50   48.02
   2  -6   4  378.88   43.88
   2  -6   4  472.06   51.34
   2  -6   4  418.64   40.61
  -2  -6  -4  546.30   53.38
   2  -6   4  496.86   56.62
  -2  -6  -4  443.28   44.35
   2  -6   4  380.00   42.91
   2  -6   4  403.37   44.26
   2  -6   4  327.33   40.91
   2  -6   5 1022.88   73.50
   2  -6   5  894.56   66.93
  -2  -6  -5  862.71   76.98
   2  -6   5 1030.89   73.62
   2  -6   5  877.95   64.76
   2  -6   5  799.14   58.59
  -2  -6  -5 1050.04   65.76
   2  -6   5  930.74   68.46
   2  -6   5  919.32   76.42
  -2  -6  -5  971.40   77.93
   2  -6   5 1024.17   84.72
   2  -6   5 1206.05   83.83
  -2  -6  -5 1065.76   76.07
   2  -6   5  955.21   70.13
   2  -6   5  653.23   60.18
  -2  -6  -5  882.02   62.17
  -2  -6  -5 1024.97   76.54
   2  -6   6  158.08   23.54
   2  -6   6  211.05   30.68
   2  -6   6  187.83   29.11
   2  -6   6  179.80   27.58
   2  -6   6  245.30   36.59
  -2  -6  -6  259.25   29.83
   2  -6   6  243.73   34.63
   2  -6   6  164.44   25.61
   2  -6   6  152.51   26.20
  -2  -6  -7   13.09   10.11
  -2  -6  -7   22.56   10.29
   2  -6   7    1.44    9.02
   2  -6   7    2.87    8.68
   2  -6   7    3.64    8.53
  -2  -6  -7   12.44    9.72
   2  -6   7    9.67    8.51
   2  -6   7   15.93    8.00
   2  -6   7    2.28    7.79
  -2  -6  -8  322.37   29.44
  -2  -6  -8  278.08   29.63
   2  -6   8  240.21   27.93
   2  -6   8  192.79   24.07
  -2  -5  10   28.97    8.87
   2  -5 -10   42.64    9.12
  -2  -5   9   22.73   11.12
   2  -5  -9   32.69   11.47
  -2  -5   9   24.77   10.00
  -2  -5   9   19.69    8.93
  -2  -5   9   37.76   11.86
  -2  -5   8  353.47   41.62
   2  -5  -8  378.25   39.04
   2  -5  -8  261.31   27.30
  -2  -5   8  269.32   30.38
  -2  -5   8  303.09   32.67
  -2  -5   8  350.24   39.14
  -2  -5   8  333.50   37.63
   2  -5  -8  229.49   31.18
  -2  -5   7  871.12   69.03
   2  -5  -7  681.27   54.65
  -2  -5   7  510.69   60.12
   2  -5  -7  530.27   63.65
  -2  -5   7  607.79   50.17
  -2  -5   7  879.04   66.96
   2  -5  -7  729.97   59.15
   2  -5  -7  769.74   57.15
   2  -5  -7  861.53   64.66
  -2  -5   7  818.54   64.58
   2  -5  -7  665.11   59.92
   2  -5  -7  603.81   46.33
   2  -5  -6  199.81   25.30
   2  -5  -6  243.19   30.74
   2  -5  -6  246.60   36.58
   2  -5  -6  243.04   35.12
   2  -5  -6  300.69   37.41
  -2  -5   6  250.01   38.34
   2  -5  -6  255.62   40.41
   2  -5  -6  272.73   40.90
  -2  -5   6  265.21   38.82
  -2  -5   6  220.99   27.75
  -2  -5   6  248.88   36.66
   2  -5  -6  226.99   30.89
   2  -5  -6  299.40   35.89
  -2  -5   6  297.93   39.39
   2  -5  -6  278.97   39.54
   2  -5  -5  335.11   30.04
   2  -5  -5  377.45   36.47
   2  -5  -5  333.45   44.16
   2  -5  -5  355.61   39.53
   2  -5  -5  448.23   46.24
   2  -5  -5  394.15   38.57
  -2  -5   5  352.26   42.03
   2  -5  -5  383.43   39.13
   2  -5  -5  378.09   46.42
   2  -5  -5  356.30   48.36
  -2  -5   5  411.16   46.03
   2  -5  -5  469.15   42.66
   2  -5  -5  358.13   41.28
   2  -5  -5  430.94   49.50
   2  -5  -4 1568.80   81.58
   2  -5  -4 1794.63   90.61
   2  -5  -4 1681.73   97.70
   2  -5  -4 1254.99   80.42
  -2  -5   4 1334.81   86.67
   2  -5  -4 1411.15   92.11
   2  -5  -4 1691.64   98.73
   2  -5  -4 1402.35   99.25
  -2  -5   4 1789.26   99.93
   2  -5  -4 2121.67  103.61
   2  -5  -4 1591.44   91.03
  -2  -5   4 1637.68   87.40
   2  -5  -4 1625.66   91.56
   2  -5  -3  278.03   27.96
   2  -5  -3  233.30   32.76
   2  -5  -3  286.06   33.20
   2  -5  -3  256.55   31.57
   2  -5  -3  256.67   24.62
   2  -5  -3  277.34   32.86
  -2  -5   3  241.86   31.84
   2  -5  -3  260.21   25.74
   2  -5  -3  259.14   31.57
  -2  -5   3  249.61   29.03
   2  -5  -3  305.18   38.31
   2  -5  -2    8.84    6.92
   2  -5  -2   16.64    9.59
  -2  -5   2   12.17    7.56
   2  -5  -2   10.39    8.97
   2  -5  -2   17.04    9.70
  -2  -5   2   11.75    6.82
   2  -5  -2   19.42    9.04
   2  -5  -2   19.40    9.57
   2  -5  -2    2.81    6.60
   2  -5  -2   13.91    8.90
  -2  -5   2   10.98    8.77
   2  -5  -2   13.29    9.60
  -2  -5   2   12.59    7.95
   2  -5  -2    5.51    5.75
   2  -5  -2   14.56    9.19
   2  -5  -2   12.93    5.89
   2  -5  -2   13.45    9.47
   2  -5  -1  654.51   51.56
  -2  -5   1  685.95   50.42
   2  -5  -1  719.78   51.78
   2  -5  -1  666.76   46.60
   2  -5  -1  776.27   53.13
   2  -5  -1  715.02   47.86
   2  -5  -1  501.66   39.15
   2  -5  -1  754.87   54.70
   2  -5  -1  833.29   57.15
  -2  -5   1  606.92   53.71
   2  -5  -1  741.57   53.81
  -2  -5   1  626.39   44.01
   2  -5  -1  779.26   51.60
   2  -5  -1  791.48   56.00
   2  -5  -1  708.67   53.37
   2  -5  -1  755.20   48.82
   2  -5   0 2710.75  132.41
   2  -5   0 2785.68  131.37
   2  -5   0 3005.73  143.02
   2  -5   0 2958.55  125.20
  -2  -5   0 2761.17  146.09
   2  -5   0 3049.88  136.49
  -2  -5   0 2536.11  134.33
   2  -5   0 3349.21  137.92
  -2  -5   0 2663.96  140.60
   2  -5   0 2960.11  141.14
   2  -5   0 2848.26  134.93
  -2  -5   0 2691.24  133.89
   2  -5   0 3262.18  135.65
   2  -5   0 3339.12  134.16
   2  -5   0 2828.15  133.06
  -2  -5  -1  779.39   59.76
   2  -5   1  741.22   58.68
   2  -5   1  775.51   55.76
   2  -5   1  778.60   53.92
   2  -5   1  725.42   46.11
  -2  -5  -1  791.38   60.89
   2  -5   1  811.99   56.55
  -2  -5  -1  752.33   60.79
  -2  -5  -1  737.15   53.19
   2  -5   1  697.06   49.90
  -2  -5  -1  666.61   54.64
   2  -5   1  794.17   61.53
   2  -5   1  809.25   58.63
   2  -5   1  648.62   49.38
   2  -5   1  780.31   57.13
   2  -5   1  803.38   55.49
   2  -5   1  711.33   54.29
   2  -5   1  775.34   54.59
   2  -5   2  808.95   49.62
   2  -5   2  716.06   59.55
   2  -5   2  728.73   58.32
   2  -5   2  858.32   59.45
  -2  -5  -2  870.43   62.18
   2  -5   2  655.60   44.88
   2  -5   2  774.27   57.94
  -2  -5  -2  848.23   62.66
   2  -5   2  808.73   56.84
  -2  -5  -2  563.20   57.27
   2  -5   2  664.15   46.55
  -2  -5  -2  702.97   54.28
   2  -5   2  921.59   69.34
   2  -5   2  865.75   63.31
   2  -5   2  895.94   66.04
   2  -5   2  792.19   54.01
   2  -5   2  783.69   57.38
   2  -5   2  798.48   50.63
   2  -5   2  823.30   57.03
  -2  -5  -3  792.45   52.87
  -2  -5  -3  984.57   56.69
   2  -5   3 1135.23   84.57
  -2  -5  -3 1014.08   67.13
   2  -5   3 1079.37   73.75
  -2  -5  -3 1131.36   73.95
   2  -5   3  824.45   60.05
  -2  -5  -3 1000.57   63.42
   2  -5   3 1023.74   71.43
   2  -5   3 1085.43   77.82
   2  -5   3  934.13   59.91
  -2  -5  -3  724.34   57.07
   2  -5   3  934.86   66.87
   2  -5   3  856.77   62.85
   2  -5   3  775.79   61.47
   2  -5   3 1003.00   62.62
   2  -5   3 1059.11   66.87
   2  -5   4 1868.82  105.69
  -2  -5  -4 1950.56  117.03
   2  -5   4 2042.05  107.98
  -2  -5  -4 1818.01   94.88
  -2  -5  -4 1928.35   95.77
  -2  -5  -4 2036.41  106.56
   2  -5   4 2002.88  116.10
  -2  -5  -4 2424.08  118.58
   2  -5   4 1725.90  116.09
   2  -5   4 2156.22  118.35
   2  -5   4 1723.89   97.51
   2  -5   4 1597.71  107.12
   2  -5   4 1916.31  101.01
  -2  -5  -4 1864.87  104.30
   2  -5   4 1553.83  100.32
   2  -5   4 1986.44  103.98
   2  -5   5  110.75   25.94
  -2  -5  -5   71.08   22.35
   2  -5   5   89.55   20.82
  -2  -5  -5   65.53   17.19
  -2  -5  -5  115.78   21.70
   2  -5   5   67.40   23.15
  -2  -5  -5  102.84   23.25
   2  -5   5   78.91   21.92
   2  -5   5   86.14   24.70
   2  -5   5   62.15   21.45
   2  -5   5  102.83   23.93
   2  -5   5   78.86   19.02
  -2  -5  -5   88.24   20.94
   2  -5   5   93.44   21.10
   2  -5   5   97.51   21.57
   2  -5   6  188.27   30.81
  -2  -5  -6  224.84   27.53
  -2  -5  -6  147.44   27.31
  -2  -5  -6  217.81   29.85
   2  -5   6  203.13   37.63
  -2  -5  -6  227.80   30.92
   2  -5   6  138.53   22.30
   2  -5   6  200.26   35.03
   2  -5   6  183.80   32.15
   2  -5   6  242.28   37.03
  -2  -5  -6  180.93   34.67
   2  -5   6  190.80   31.51
   2  -5   6  204.33   35.06
  -2  -5  -6  233.09   33.40
   2  -5   6  205.66   31.36
   2  -5   6  217.29   31.88
   2  -5   6  156.22   28.39
  -2  -5  -7  384.02   39.22
   2  -5   7  333.70   38.39
  -2  -5  -7  429.24   41.28
   2  -5   7  375.78   45.22
   2  -5   7  423.83   46.50
   2  -5   7  356.02   38.99
   2  -5   7  379.06   41.04
   2  -5   7  374.95   43.05
   2  -5   7  293.57   37.20
   2  -5   7  279.98   37.42
  -2  -5  -7  373.21   34.27
  -2  -5  -7  300.85   39.89
   2  -5   8  131.98   23.29
  -2  -5  -8  186.40   24.79
  -2  -5  -8  175.45   25.50
   2  -5   8   83.01   18.76
   2  -5   8   79.37   15.28
   2  -5   8   77.80   19.04
  -2  -5  -8   91.07   20.58
  -2  -5  -9    6.52    6.83
  -2  -5  -9    6.54    6.94
  -2  -5  -9    4.42    6.37
   2  -5   9    4.94    4.70
  -2  -4  10  233.37   23.75
   2  -4 -10  239.95   23.54
  -2  -4  10  238.18   25.33
   2  -4 -10  250.07   21.76
  -2  -4   9  654.01   54.74
   2  -4  -9  649.24   48.81
   2  -4  -9  332.51   42.58
   2  -4  -9  650.20   49.05
  -2  -4   9  568.33   48.98
  -2  -4   9  462.45   39.01
  -2  -4   9  539.56   44.47
  -2  -4   9  687.99   49.00
   2  -4  -9  514.18   38.39
  -2  -4   8  255.59   35.89
   2  -4  -8  203.17   33.45
   2  -4  -8  214.22   33.01
   2  -4  -8  211.97   24.76
   2  -4  -8  139.49   30.08
  -2  -4   8  251.03   32.06
   2  -4  -8  257.08   33.69
  -2  -4   8  223.22   29.96
  -2  -4   8  234.40   32.51
   2  -4  -8  207.68   26.42
  -2  -4   7  457.60   48.61
   2  -4  -7  326.71   37.45
   2  -4  -7  322.03   41.29
   2  -4  -7  391.56   42.95
   2  -4  -7  358.54   33.45
  -2  -4   7  347.19   46.26
   2  -4  -7  338.73   47.63
  -2  -4   7  263.58   38.15
   2  -4  -7  252.21   43.74
  -2  -4   7  289.11   40.86
   2  -4  -7  364.16   44.49
   2  -4  -7  301.16   44.66
  -2  -4   7  410.13   42.82
   2  -4  -7  323.46   37.65
   2  -4  -7  361.73   39.71
  -2  -4   7  376.38   40.85
   2  -4  -7  319.08   33.86
   2  -4  -7  314.18   40.05
   2  -4  -6 1312.65   90.23
   2  -4  -6 1324.71   89.99
   2  -4  -6 1140.54   90.53
   2  -4  -6 1664.38  101.56
   2  -4  -6 1293.29   85.78
  -2  -4   6 1579.36   98.68
   2  -4  -6 1464.18   84.38
   2  -4  -6 1213.19   98.55
  -2  -4   6 1423.57   86.82
   2  -4  -6 1288.12   98.73
  -2  -4   6 1461.55   89.68
   2  -4  -6 1444.76   89.39
   2  -4  -6 1444.59   86.74
   2  -4  -6 1517.36   89.69
  -2  -4   6 1487.52   90.42
   2  -4  -6 1340.17   75.97
   2  -4  -5  393.79   32.53
   2  -4  -5  455.73   40.78
   2  -4  -5  415.20   38.93
   2  -4  -5  447.03   43.16
   2  -4  -5  410.03   46.32
   2  -4  -5  411.20   36.89
   2  -4  -5  501.73   46.96
   2  -4  -5  435.32   43.72
   2  -4  -5  441.16   47.82
  -2  -4   5  452.00   46.23
   2  -4  -5  371.62   44.90
   2  -4  -5  439.85   50.73
   2  -4  -5  418.93   38.44
  -2  -4   5  426.72   39.33
   2  -4  -5  386.03   46.39
  -2  -4   5  431.53   45.97
   2  -4  -5  423.93   43.80
   2  -4  -5  451.40   41.96
   2  -4  -5  342.68   39.28
   2  -4  -5  501.62   43.68
   2  -4  -4  204.42   25.09
   2  -4  -4  216.24   24.33
   2  -4  -4  192.49   26.78
   2  -4  -4  203.26   27.52
   2  -4  -4  220.83   26.46
   2  -4  -4  293.01   32.95
  -2  -4   4  251.52   31.01
   2  -4  -4  236.40   32.51
   2  -4  -4  160.36   26.45
  -2  -4   4  208.79   23.83
   2  -4  -4  214.11   31.43
   2  -4  -4  147.55   27.90
   2  -4  -4  247.27   28.46
  -2  -4   4  254.46   32.75
   2  -4  -4  209.97   27.35
   2  -4  -4  204.68   25.70
   2  -4  -4  202.03   28.74
   2  -4  -4  221.06   32.50
   2  -4  -3  582.42   50.15
   2  -4  -3  825.22   54.26
  -2  -4   3  641.61   47.16
   2  -4  -3  657.44   51.17
   2  -4  -3  681.97   50.51
  -2  -4   3  539.39   37.02
   2  -4  -3  680.43   51.29
  -2  -4   3  780.55   54.38
   2  -4  -3  745.15   51.95
   2  -4  -3  633.59   48.00
   2  -4  -3  651.53   44.91
  -2  -4   2 3469.86  152.14
   2  -4  -2 4501.41  177.82
  -2  -4   2 3999.20  156.19
   2  -4  -2 3984.23  163.91
   2  -4  -2 4207.55  162.23
   2  -4  -2 4156.41  169.79
   2  -4  -2 3924.23  160.40
   2  -4  -2 4466.29  175.18
  -2  -4   2 4100.35  164.86
   2  -4  -2 2894.61  149.37
   2  -4  -2 4379.73  174.31
   2  -4  -2 3759.64  150.89
   2  -4  -2 4511.08  169.25
  -2  -4   1  664.30   46.04
   2  -4  -1  793.67   48.52
  -2  -4   1  593.17   36.51
   2  -4  -1  769.19   48.16
   2  -4  -1  798.40   45.96
   2  -4  -1  645.06   40.73
   2  -4  -1  787.25   51.53
   2  -4  -1  872.77   54.45
  -2  -4   1  682.08   45.01
   2  -4  -1  783.35   51.08
   2  -4  -1  703.64   44.62
   2  -4  -1  757.39   51.78
   2  -4   0  187.13   23.27
   2  -4   0  202.37   19.73
   2  -4   0  191.91   20.24
   2  -4   0  187.40   15.48
   2  -4   0  211.02   23.96
   2  -4   0  227.07   24.51
  -2  -4   0  156.14   22.09
   2  -4   0  222.63   27.74
  -2  -4   0  175.20   17.97
   2  -4   0  183.83   26.05
   2  -4   0  252.36   25.79
   2  -4   0  243.96   24.43
   2  -4   1 1885.96   90.70
   2  -4   1 1894.16   96.58
   2  -4   1 1550.02   74.98
   2  -4   1 1685.91   75.55
  -2  -4  -1 1831.71   93.31
   2  -4   1 1828.73   88.72
   2  -4   1 1642.90   81.74
   2  -4   1 1855.53   87.61
  -2  -4  -1 1770.94   95.91
  -2  -4  -1 1582.41   81.80
   2  -4   1 1543.30   80.04
  -2  -4  -1 1519.25   86.76
   2  -4   1 1890.97   98.08
   2  -4   1 1883.95   88.96
   2  -4   1 1706.28   85.95
   2  -4   2 1857.51   92.83
  -2  -4  -2 1564.58   80.73
  -2  -4  -2 1318.23   76.07
   2  -4   2 1845.45   89.28
   2  -4   2 1966.64  105.59
  -2  -4  -2 1806.43   89.57
   2  -4   2 1486.49   73.32
   2  -4   2 1805.10   89.37
  -2  -4  -2 1910.45   96.42
   2  -4   2 1876.08   88.77
   2  -4   2 1621.95   76.80
  -2  -4  -2 1689.11   86.26
   2  -4   2 2034.95  101.94
   2  -4   2 1886.90   84.07
   2  -4   2 1764.67   83.86
   2  -4   2 1833.60   90.13
  -2  -4  -3  827.83   57.19
  -2  -4  -3  757.29   55.15
   2  -4   3  944.13   64.30
  -2  -4  -3 1064.24   62.19
   2  -4   3 1008.65   66.31
   2  -4   3 1009.39   69.10
  -2  -4  -3 1129.82   67.91
   2  -4   3  848.06   56.51
  -2  -4  -3  938.89   56.13
   2  -4   3 1032.34   69.75
   2  -4   3 1141.92   72.87
   2  -4   3 1068.60   62.08
   2  -4   3  959.48   64.13
   2  -4   3  871.22   61.92
   2  -4   3 1053.16   62.96
   2  -4   3  976.06   63.74
   2  -4   4  235.97   24.79
   2  -4   4  219.86   30.13
   2  -4   4  258.76   32.03
  -2  -4  -4  159.76   26.40
  -2  -4  -4  249.10   28.29
   2  -4   4  252.81   32.12
   2  -4   4  244.44   39.06
  -2  -4  -4  227.08   35.21
  -2  -4  -4  264.87   29.77
   2  -4   4  270.62   36.03
   2  -4   4  221.42   32.95
  -2  -4  -4  298.22   34.16
   2  -4   4  236.00   35.96
   2  -4   4  244.04   31.62
   2  -4   4  301.88   38.60
   2  -4   4  233.15   33.29
   2  -4   4  301.45   39.29
   2  -4   4  269.59   32.36
  -2  -4  -4  259.48   31.53
   2  -4   4  285.73   33.17
   2  -4   5  398.01   38.85
   2  -4   5  505.51   47.39
  -2  -4  -5  515.77   41.07
  -2  -4  -5  442.62   49.82
   2  -4   5  494.29   48.55
  -2  -4  -5  406.10   46.15
  -2  -4  -5  552.06   46.24
   2  -4   5  420.21   45.97
  -2  -4  -5  567.44   45.19
   2  -4   5  507.94   58.80
   2  -4   5  479.20   48.19
   2  -4   5  383.47   47.68
   2  -4   5  484.29   53.22
  -2  -4  -5  455.94   46.88
   2  -4   5  476.32   53.32
   2  -4   5  410.88   48.86
   2  -4   5  548.39   52.75
   2  -4   5  590.50   57.90
   2  -4   5  537.97   49.42
  -2  -4  -5  472.90   47.91
   2  -4   5  494.17   48.26
  -2  -4  -5  494.18   42.03
  -2  -4  -6  834.62   55.97
  -2  -4  -6  796.85   59.79
  -2  -4  -6  745.57   69.51
  -2  -4  -6  946.28   65.60
  -2  -4  -6  699.68   54.81
   2  -4   6  847.44   67.09
  -2  -4  -6  871.11   61.51
   2  -4   6  829.31   78.47
   2  -4   6  641.82   66.33
   2  -4   6  958.04   76.56
  -2  -4  -6  588.06   62.00
   2  -4   6  876.97   68.59
   2  -4   6  826.69   72.38
   2  -4   6  989.46   77.69
  -2  -4  -6  846.14   72.70
   2  -4   6  912.28   69.03
   2  -4   6  907.16   73.32
  -2  -4  -6  869.79   70.63
   2  -4   6  798.20   66.61
   2  -4   6  920.82   68.56
   2  -4   6  785.73   67.07
   2  -4   6  685.88   56.35
  -2  -4  -7  109.30   22.05
  -2  -4  -7   94.13   17.75
  -2  -4  -7   88.83   21.59
   2  -4   7   94.40   21.32
  -2  -4  -7  116.72   23.00
   2  -4   7   77.52   19.71
   2  -4   7   96.03   23.77
  -2  -4  -7   91.05   20.66
   2  -4   7  100.62   24.86
   2  -4   7   95.24   20.24
   2  -4   7  118.91   24.76
   2  -4   7   89.12   22.55
   2  -4   7   83.77   17.27
   2  -4   7  120.47   23.30
   2  -4   7   87.31   23.51
  -2  -4  -7   81.14   20.85
  -2  -4  -8  301.29   31.82
  -2  -4  -8  412.48   40.70
   2  -4   8  206.22   32.08
   2  -4   8  320.88   38.76
  -2  -4  -8  329.32   34.70
   2  -4   8  333.94   38.85
   2  -4   8  253.73   31.76
   2  -4   8  320.86   33.69
  -2  -4  -8  181.57   29.71
  -2  -4  -9  416.75   32.43
  -2  -4  -9  377.51   34.94
  -2  -4  -9  331.45   31.55
  -2  -4  -9  282.74   26.44
  -2  -3  10  108.26   20.57
  -2  -3  10   87.66   16.36
  -2  -3  10  130.54   20.37
   2  -3 -10  116.12   18.55
   2  -3 -10  123.73   18.24
  -2  -3   9   38.83   14.92
   2  -3  -9   22.12   13.79
   2  -3  -9   36.45   15.66
   2  -3  -9   43.38   16.43
  -2  -3   9   51.40   16.38
  -2  -3   9   48.85   14.80
  -2  -3   9   40.67   14.64
   2  -3  -9   59.07   18.05
   2  -3  -9   37.30   12.22
   2  -3  -8  504.55   53.14
   2  -3  -8  396.65   39.62
   2  -3  -8  430.02   40.71
   2  -3  -8  411.10   49.18
  -2  -3   8  492.57   49.95
  -2  -3   8  404.32   52.05
  -2  -3   8  489.18   49.30
   2  -3  -8  483.31   57.98
  -2  -3   8  387.68   47.85
  -2  -3   8  345.48   45.63
  -2  -3   8  452.29   43.86
   2  -3  -8  333.89   49.33
  -2  -3   8  460.68   43.32
  -2  -3   7  517.63   49.75
   2  -3  -7  419.39   49.48
   2  -3  -7  405.90   52.64
  -2  -3   7  470.17   52.44
   2  -3  -7  369.95   54.22
   2  -3  -7  460.26   51.39
  -2  -3   7  413.33   46.01
  -2  -3   7  374.62   39.43
   2  -3  -7  392.22   39.39
  -2  -3   7  367.59   45.03
  -2  -3   7  473.75   44.38
   2  -3  -7  439.96   43.40
   2  -3  -7  462.40   45.45
  -2  -3   7  486.45   44.32
   2  -3  -7  374.31   37.89
   2  -3  -7  322.00   39.97
   2  -3  -6  120.91   22.01
   2  -3  -6   83.11   21.83
   2  -3  -6  121.07   26.19
   2  -3  -6  119.67   18.81
   2  -3  -6  103.99   26.25
  -2  -3   6  142.81   27.33
   2  -3  -6  129.20   30.13
  -2  -3   6  120.71   22.99
  -2  -3   6  107.32   19.09
   2  -3  -6   68.49   23.25
  -2  -3   6  119.77   25.42
   2  -3  -6   88.58   19.66
  -2  -3   6  101.14   20.58
   2  -3  -6   81.91   19.25
  -2  -3   6  132.03   22.61
   2  -3  -6  105.72   19.03
   2  -3  -6  104.61   22.71
   2  -3  -5  331.93   29.26
   2  -3  -5  312.51   32.73
   2  -3  -5  327.42   38.07
   2  -3  -5  354.02   35.35
   2  -3  -5  360.01   36.99
   2  -3  -5  336.68   41.88
   2  -3  -5  371.03   39.90
  -2  -3   5  363.83   39.58
   2  -3  -5  301.39   39.26
   2  -3  -5  329.20   43.13
   2  -3  -5  347.31   39.16
  -2  -3   5  347.90   34.82
  -2  -3   5  323.15   29.82
   2  -3  -5  322.36   41.54
   2  -3  -5  291.30   32.30
   2  -3  -5  330.44   35.03
   2  -3  -5  375.79   41.08
   2  -3  -4 1806.96   93.24
   2  -3  -4 1709.68   92.02
   2  -3  -4 1805.31   89.31
   2  -3  -4 1777.89   99.04
   2  -3  -4 2060.79   97.69
  -2  -3   4 2076.53   99.30
   2  -3  -4 1638.15   94.89
   2  -3  -4 1822.39  102.60
  -2  -3   4 1969.72   88.65
  -2  -3   4 1428.90   76.29
   2  -3  -4 1784.57   99.49
   2  -3  -4 1389.46   96.41
   2  -3  -4 1799.72   87.52
  -2  -3   4 1969.23  100.23
   2  -3  -4 1536.02   87.90
   2  -3  -4 1551.31   82.22
   2  -3  -4 1579.81   95.72
   2  -3  -3 1281.31   72.24
   2  -3  -3 1173.99   72.84
   2  -3  -3 1376.79   77.08
  -2  -3   3 1597.68   78.07
   2  -3  -3 1366.94   80.20
   2  -3  -3 1163.76   71.76
  -2  -3   3 1486.74   68.56
  -2  -3   3 1351.68   63.52
   2  -3  -3 1421.51   78.22
   2  -3  -3 1353.38   71.24
   2  -3  -3 1354.87   72.94
   2  -3  -3 1708.89   86.81
  -2  -3   2  462.06   31.64
   2  -3  -2  714.52   48.72
   2  -3  -2  647.97   42.22
   2  -3  -2  581.05   40.84
  -2  -3   2  585.38   38.59
   2  -3  -2  590.76   43.83
   2  -3  -2  590.79   39.16
  -2  -3   2  416.60   29.53
  -2  -3   2  500.21   31.49
   2  -3  -2  607.35   43.41
   2  -3  -2  589.65   40.29
   2  -3  -2  575.90   45.10
   2  -3  -2  545.32   37.71
   2  -3  -1 3357.71  134.18
   2  -3  -1 2685.60  119.65
   2  -3  -1 2970.31  126.47
  -2  -3   1 2599.15  111.08
   2  -3  -1 2851.60  125.81
   2  -3  -1 3115.30  116.30
   2  -3  -1 2722.30  120.39
  -2  -3   1 2542.09  104.51
   2  -3  -1 2854.35  114.01
   2  -3  -1 2976.44  123.86
   2  -3  -1 3108.65  126.68
   2  -3  -1 3180.18  125.26
   2  -3  -1 3041.50  119.54
   2  -3   0 1531.02   74.58
   2  -3   0 1891.76   80.57
  -2  -3   0 1299.77   58.55
   2  -3   0 1725.66   82.54
   2  -3   0 1677.38   67.36
   2  -3   0 1482.05   74.55
   2  -3   0 1633.69   60.32
   2  -3   0 1707.17   76.76
   2  -3   0 1739.92   77.42
  -2  -3   0 1222.96   71.28
   2  -3   0 1651.25   83.81
   2  -3   0 1703.57   76.17
   2  -3   0 1514.21   76.91
   2  -3   1  486.55   40.56
  -2  -3  -1  347.63   23.92
   2  -3   1  524.12   35.85
   2  -3   1  444.08   34.23
  -2  -3  -1  387.67   24.37
   2  -3   1  438.73   34.05
   2  -3   1  457.34   25.11
  -2  -3  -1  493.13   36.05
   2  -3   1  456.68   35.37
   2  -3   1  504.30   33.78
   2  -3   1  460.53   35.19
  -2  -3  -1  375.51   27.92
   2  -3   1  333.74   27.30
  -2  -3  -1  394.54   33.29
   2  -3   1  547.27   42.56
   2  -3   1  539.69   38.04
   2  -3   2  464.63   37.55
  -2  -3  -2  401.46   29.68
   2  -3   2  541.87   38.66
   2  -3   2  493.04   37.25
  -2  -3  -2  420.37   31.32
   2  -3   2  303.62   21.32
   2  -3   2  467.72   38.61
  -2  -3  -2  522.23   38.43
   2  -3   2  444.61   32.01
   2  -3   2  427.40   25.17
  -2  -3  -2  389.59   30.10
   2  -3   2  444.45   32.58
  -2  -3  -2  359.24   29.16
   2  -3   2  381.07   31.52
   2  -3   2  530.53   38.25
   2  -3   3 2610.20  139.82
   2  -3   3 3326.46  156.85
  -2  -3  -3 3225.88  150.36
   2  -3   3 4021.53  163.17
   2  -3   3 4034.85  159.42
   2  -3   3 4388.04  179.14
  -2  -3  -3 3945.34  149.54
   2  -3   3 4136.95  169.40
   2  -3   3 4026.49  167.95
  -2  -3  -3 4318.30  158.70
   2  -3   3 3187.32  143.57
   2  -3   3 4415.72  175.69
   2  -3   3 3939.13  165.16
   2  -3   3 4147.91  159.68
  -2  -3  -3 3815.49  154.42
   2  -3   3 4105.47  160.91
   2  -3   4  247.04   27.49
   2  -3   4  235.25   30.15
  -2  -3  -4  239.39   29.95
   2  -3   4  262.52   32.45
   2  -3   4  252.54   29.94
   2  -3   4  307.23   36.63
   2  -3   4  273.55   37.99
  -2  -3  -4  205.40   24.29
   2  -3   4  283.36   36.29
  -2  -3  -4  283.16   29.98
   2  -3   4  234.91   33.68
   2  -3   4  243.66   33.17
   2  -3   4  212.80   29.74
   2  -3   4  245.63   33.46
   2  -3   4  260.97   31.14
  -2  -3  -4  270.08   31.14
   2  -3   4  269.64   31.80
  -2  -3  -4  269.31   27.23
   2  -3   4  285.98   32.64
   2  -3   4  274.33   33.08
   2  -3   5   63.99   16.34
   2  -3   5   73.19   18.57
  -2  -3  -5   75.80   16.76
  -2  -3  -5   53.84   18.03
  -2  -3  -5   87.32   18.62
  -2  -3  -5   86.69   14.85
   2  -3   5   70.94   21.68
   2  -3   5   76.20   18.84
   2  -3   5   61.16   20.41
  -2  -3  -5   59.44   16.36
   2  -3   5   73.55   20.77
   2  -3   5   59.92   18.74
   2  -3   5   74.94   18.71
   2  -3   5   62.03   18.29
  -2  -3  -5   82.92   20.03
   2  -3   5   56.72   17.81
   2  -3   5   81.90   21.86
   2  -3   5   68.56   18.12
   2  -3   5   52.81   17.86
   2  -3   6  309.32   37.77
   2  -3   6  318.39   38.48
  -2  -3  -6  340.67   37.25
  -2  -3  -6  351.89   45.49
  -2  -3  -6  404.39   41.37
  -2  -3  -6  371.18   37.63
   2  -3   6  300.51   40.26
  -2  -3  -6  357.55   37.69
   2  -3   6  278.04   42.87
   2  -3   6  346.16   47.15
  -2  -3  -6  277.02   39.06
   2  -3   6  332.53   42.81
   2  -3   6  373.32   46.17
  -2  -3  -6  346.26   43.78
   2  -3   6  307.79   38.05
   2  -3   6  316.23   41.35
  -2  -3  -6  322.08   42.26
   2  -3   6  323.41   41.76
   2  -3   6  382.81   42.43
   2  -3   6  339.57   40.14
   2  -3   6  326.99   43.48
  -2  -3  -7  582.91   49.51
   2  -3   7  455.87   47.80
   2  -3   7  511.42   47.60
  -2  -3  -7  526.84   48.35
   2  -3   7  508.91   51.27
  -2  -3  -7  526.85   49.52
  -2  -3  -7  560.52   59.28
  -2  -3  -7  565.82   51.35
   2  -3   7  562.14   55.05
  -2  -3  -7  567.54   49.06
   2  -3   7  532.21   56.43
   2  -3   7  495.33   58.17
  -2  -3  -7  485.99   55.81
   2  -3   7  487.81   45.79
   2  -3   7  503.77   50.91
  -2  -3  -7  542.79   56.70
   2  -3   7  493.52   54.53
   2  -3   7  454.09   48.24
   2  -3   8  352.76   39.46
  -2  -3  -8  373.75   40.21
  -2  -3  -8  429.81   43.67
  -2  -3  -8  490.37   46.19
  -2  -3  -8  395.76   42.92
   2  -3   8  448.12   47.40
   2  -3   8  437.06   44.48
   2  -3   8  366.96   38.03
   2  -3   8  318.91   42.22
  -2  -3  -8  297.46   36.34
  -2  -3  -8  455.22   42.03
  -2  -3  -9   11.60    9.46
  -2  -3  -9   19.07   10.54
  -2  -3  -9   25.55    8.25
   2  -3   9   19.75    8.94
  -2  -3  -9    8.87    8.83
   2  -3   9    6.40    7.10
   2  -3   9    1.24    8.73
   2  -2 -11   22.78    6.74
  -2  -2  11   16.25    7.69
  -2  -2  10  317.67   36.75
   2  -2 -10  372.67   38.65
   2  -2 -10  319.39   39.99
   2  -2 -10  320.89   36.72
  -2  -2  10  282.79   33.36
  -2  -2  10  385.95   38.53
  -2  -2  10  389.79   37.06
   2  -2 -10  370.15   34.07
  -2  -2  10  462.80   40.53
   2  -2 -10  436.97   37.08
  -2  -2  10  438.61   37.32
   2  -2 -10  446.51   37.53
  -2  -2   9  599.28   55.34
   2  -2  -9  632.18   58.64
   2  -2  -9  599.15   58.03
   2  -2  -9  486.31   58.93
  -2  -2   9  702.61   58.17
   2  -2  -9  746.90   56.87
   2  -2  -9  834.11   62.66
   2  -2  -9  585.90   48.23
   2  -2  -9  613.66   51.29
  -2  -2   8  244.41   34.56
   2  -2  -8  218.83   30.86
   2  -2  -8  264.15   39.65
   2  -2  -8  224.49   32.58
   2  -2  -8  172.76   37.16
  -2  -2   8  252.18   36.45
   2  -2  -8  213.89   39.74
  -2  -2   8  247.73   36.74
  -2  -2   8  228.63   30.89
  -2  -2   8  179.81   29.47
   2  -2  -8  269.07   39.76
   2  -2  -8  221.65   30.60
  -2  -2   7  663.45   55.94
  -2  -2   7  574.00   47.84
   2  -2  -7  645.35   62.19
   2  -2  -7  663.33   64.07
   2  -2  -7  589.06   51.56
   2  -2  -7  625.13   67.55
  -2  -2   7  633.68   52.75
   2  -2  -7  652.11   52.41
   2  -2  -7  764.03   49.90
   2  -2  -7  712.82   56.01
   2  -2  -7  559.07   67.38
  -2  -2   7  651.45   59.43
  -2  -2   7  604.76   56.94
   2  -2  -7  473.25   48.30
   2  -2  -7  656.05   54.85
  -2  -2   7  629.23   48.84
  -2  -2   6 1183.06   73.23
   2  -2  -6  998.48   77.61
   2  -2  -6 1356.98   82.87
   2  -2  -6 1039.16   79.82
   2  -2  -6 1196.31   65.54
   2  -2  -6 1119.23   70.48
   2  -2  -6 1127.20   71.32
  -2  -2   6 1198.00   83.02
   2  -2  -6 1008.68   88.07
  -2  -2   6 1143.32   76.30
  -2  -2   6 1130.91   69.45
   2  -2  -6 1141.34   71.31
  -2  -2   6 1175.63   79.67
  -2  -2   6 1173.72   67.93
   2  -2  -6 1025.97   70.20
  -2  -2   6 1182.45   67.84
   2  -2  -6 1030.73   66.53
   2  -2  -6 1164.96   76.06
   2  -2  -5 1903.58   97.18
  -2  -2   5 2018.32   94.40
  -2  -2   5 1646.86   87.86
   2  -2  -5 1932.16  106.01
   2  -2  -5 2117.28  104.80
   2  -2  -5 2008.80  106.05
   2  -2  -5 1970.14  107.47
   2  -2  -5 1865.40   95.16
  -2  -2   5 2431.13  114.64
   2  -2  -5 2087.52  120.41
  -2  -2   5 2157.23  103.26
  -2  -2   5 1548.69   88.49
   2  -2  -5 1924.22  115.00
  -2  -2   5 1891.43   92.17
   2  -2  -5 1879.78   94.25
   2  -2  -5 1921.71   97.10
   2  -2  -5 2036.31  101.47
   2  -2  -5 2128.62  108.03
   2  -2  -5 1942.25   88.72
   2  -2  -4   29.37   11.92
   2  -2  -4   17.19    6.77
   2  -2  -4   16.85    9.13
  -2  -2   4   20.20   10.42
   2  -2  -4   28.78   12.30
   2  -2  -4   22.36   10.06
  -2  -2   4    9.45    6.96
  -2  -2   4   16.89    8.62
   2  -2  -4   13.20    9.78
   2  -2  -4   18.84   10.29
   2  -2  -4   22.27    8.30
   2  -2  -4   25.29   10.48
  -2  -2   4   12.38    5.55
   2  -2  -3 2487.54  112.29
   2  -2  -3 2275.41  108.50
   2  -2  -3 2389.15  109.52
   2  -2  -3 2248.60  105.16
  -2  -2   3 2314.26   93.38
  -2  -2   3 2626.84  106.37
  -2  -2   3 2426.04  102.41
   2  -2  -3 2455.47  115.47
   2  -2  -3 2499.63  118.83
   2  -2  -3 2452.07  115.13
   2  -2  -2 1833.99   83.25
   2  -2  -2 1850.95   83.33
   2  -2  -2 2280.43   91.69
   2  -2  -2 1965.17   88.00
   2  -2  -2 1754.44   81.09
   2  -2  -2 1940.23   91.25
   2  -2  -2 1834.59   84.42
  -2  -2   2 1485.58   64.32
   2  -2  -2 1646.37   87.45
   2  -2  -2 2351.07   94.88
   2  -2  -1 1255.34   61.16
   2  -2  -1  988.17   46.32
   2  -2  -1 1195.87   61.56
   2  -2  -1 1051.01   55.70
   2  -2  -1 1132.30   49.72
   2  -2  -1 1168.96   55.08
  -2  -2   1  802.90   34.30
   2  -2  -1  964.53   54.68
   2  -2  -1 1264.82   55.04
   2  -2   0  101.81    9.40
   2  -2   0  147.84   20.48
   2  -2   0  136.29   15.98
   2  -2   0  123.25   16.73
   2  -2   0  150.88   15.57
   2  -2   0   92.20   13.54
  -2  -2   0   71.29    7.44
   2  -2   0  154.07   16.77
   2  -2   0  148.80   17.41
   2  -2   1 2768.10  100.28
  -2  -2  -1 2271.89   92.20
   2  -2   1 2740.77  106.81
   2  -2   1 2929.46  111.50
   2  -2   1 2671.50  106.31
  -2  -2  -1 2413.65   96.80
   2  -2   1 2745.86  110.29
   2  -2   1 2741.04   98.35
   2  -2   1 2256.02   93.70
  -2  -2  -1 1967.77   87.34
  -2  -2  -1 2265.52   92.57
   2  -2   1 2542.44  106.78
  -2  -2  -1 2251.67   87.36
   2  -2   2 1412.24   68.69
   2  -2   2 1343.75   61.85
   2  -2   2 1261.12   65.78
  -2  -2  -2 1009.60   58.82
   2  -2   2 1654.29   76.67
  -2  -2  -2 1336.84   51.05
  -2  -2  -2 1312.06   56.24
   2  -2   2 1439.24   76.65
  -2  -2  -2 1249.83   56.23
   2  -2   2 1380.36   73.08
   2  -2   2 1231.17   55.74
  -2  -2  -2 1457.36   65.25
  -2  -2  -2 1021.75   53.35
   2  -2   2 1566.25   77.94
   2  -2   2  997.25   60.18
  -2  -2  -2 1277.90   61.64
   2  -2   2 1190.58   67.17
   2  -2   3 1186.36   69.97
   2  -2   3 1836.90   93.73
  -2  -2  -3 1665.14   80.82
  -2  -2  -3 1766.14   69.03
  -2  -2  -3 1518.28   67.72
   2  -2   3 1548.41   81.49
   2  -2   3 1746.17   90.49
  -2  -2  -3 1777.80   75.49
   2  -2   3 1842.70   91.72
   2  -2   3 1706.87   82.75
  -2  -2  -3 1621.87   78.36
   2  -2   3 1680.99   84.24
   2  -2   3 1663.44   76.65
   2  -2   3 1719.81   84.02
   2  -2   3 1664.09   81.02
   2  -2   4  346.62   34.00
   2  -2   4  312.72   34.08
  -2  -2  -4  240.44   27.23
  -2  -2  -4  409.53   39.22
   2  -2   4  369.02   36.39
  -2  -2  -4  329.56   28.60
  -2  -2  -4  295.82   26.39
   2  -2   4  364.40   41.39
  -2  -2  -4  336.03   30.64
   2  -2   4  379.98   38.52
   2  -2   4  306.26   36.41
  -2  -2  -4  403.40   38.90
   2  -2   4  338.62   37.85
   2  -2   4  449.91   41.28
  -2  -2  -4  367.34   35.77
   2  -2   4  352.46   33.29
   2  -2   4  421.62   38.29
   2  -2   4  394.58   39.85
   2  -2   4  353.04   40.77
   2  -2   5  699.63   56.64
  -2  -2  -5  788.64   53.87
   2  -2   5  607.18   60.16
  -2  -2  -5  861.80   65.65
   2  -2   5  742.13   58.65
  -2  -2  -5  773.63   49.77
   2  -2   5  613.71   56.46
   2  -2   5  652.90   50.45
   2  -2   5  766.32   58.70
  -2  -2  -5  636.00   49.83
   2  -2   5  779.81   62.18
   2  -2   5  640.08   54.38
   2  -2   5  728.14   59.62
  -2  -2  -5  733.12   59.50
   2  -2   5  793.29   63.01
   2  -2   5  733.07   57.69
   2  -2   5  672.07   61.99
   2  -2   5  786.73   64.24
   2  -2   6  746.75   64.03
  -2  -2  -6  810.78   57.05
  -2  -2  -6  864.30   61.79
  -2  -2  -6  868.35   62.52
  -2  -2  -6  866.93   73.49
  -2  -2  -6  807.95   57.10
   2  -2   6  861.02   69.99
   2  -2   6  829.71   64.65
   2  -2   6  784.03   73.23
   2  -2   6  806.81   65.58
  -2  -2  -6  842.48   69.28
   2  -2   6  847.77   62.97
   2  -2   6  727.37   63.23
  -2  -2  -6  806.84   68.52
   2  -2   6  701.85   66.36
   2  -2   6  882.96   65.85
   2  -2   6  778.61   70.23
   2  -2   6  857.99   64.85
   2  -2   7   39.77   17.03
   2  -2   7   42.98   16.08
   2  -2   7   35.51   17.25
  -2  -2  -7   45.37   15.41
  -2  -2  -7   32.57   14.80
  -2  -2  -7   49.37   17.09
  -2  -2  -7   37.43   14.74
  -2  -2  -7   71.72   20.19
   2  -2   7   55.82   16.50
   2  -2   7   39.34   15.44
   2  -2   7   35.27   15.91
  -2  -2  -7   20.16   15.71
   2  -2   7   58.13   18.69
  -2  -2  -7   71.65   19.53
   2  -2   7   51.44   16.44
  -2  -2  -7   49.31   15.60
   2  -2   7   43.97   15.42
   2  -2   8   88.60   22.07
   2  -2   8   99.10   21.20
  -2  -2  -8   90.87   20.94
  -2  -2  -8   79.97   21.23
  -2  -2  -8  134.04   25.15
  -2  -2  -8  116.21   23.65
  -2  -2  -8   84.85   20.32
   2  -2   8  102.16   23.20
   2  -2   8  119.31   25.04
   2  -2   8   92.95   22.47
   2  -2   8   95.93   25.99
  -2  -2  -8  148.09   24.29
   2  -2   9  541.15   49.69
   2  -2   9  632.90   56.09
  -2  -2  -9  719.21   55.25
  -2  -2  -9  753.84   58.43
  -2  -2  -9  807.21   57.23
   2  -2   9  629.80   51.62
   2  -2   9  762.86   54.55
  -2  -2  -9  710.36   52.98
   2  -2   9  742.62   54.38
  -2  -2  -9  815.49   51.28
  -2  -2 -10   59.89   12.54
   2  -2  10   55.66   11.23
  -2  -1  11  186.58   23.60
  -2  -1  10   87.58   18.90
   2  -1 -10   87.73   20.64
   2  -1 -10  103.55   21.18
  -2  -1  10   89.91   19.97
  -2  -1  10  126.82   22.80
   2  -1 -10  121.70   20.61
  -2  -1  10  129.67   22.26
   2  -1 -10  136.03   21.20
  -2  -1  10   91.44   17.89
   2  -1 -10   72.65   20.70
   2  -1 -10  112.85   20.31
   2  -1 -10   82.02   16.46
  -2  -1   9   14.60   11.05
   2  -1  -9   27.80   14.02
   2  -1  -9   18.29   14.46
   2  -1  -9    2.12    9.08
   2  -1  -9   16.53   10.78
  -2  -1   9   18.62   12.01
  -2  -1   9    2.41    9.73
  -2  -1   9   21.06   13.07
   2  -1  -9   15.92   12.49
   2  -1  -9   18.33   12.47
   2  -1  -9    6.32   10.83
   2  -1  -8  624.64   75.61
   2  -1  -8  728.38   60.89
   2  -1  -8  871.41   74.92
   2  -1  -8  712.10   75.64
   2  -1  -8  737.37   69.26
   2  -1  -8  801.61   53.89
   2  -1  -8  722.35   57.22
  -2  -1   8  766.73   69.48
  -2  -1   8  730.03   60.52
  -2  -1   8  751.96   67.87
  -2  -1   8  727.50   62.12
  -2  -1   8  509.38   53.97
   2  -1  -8  816.63   63.96
   2  -1  -8  674.89   57.13
   2  -1  -7  777.73   61.31
   2  -1  -7  952.15   76.44
   2  -1  -7  920.38   77.22
   2  -1  -7 1005.27   60.99
   2  -1  -7  903.54   63.33
   2  -1  -7  782.51   81.89
  -2  -1   7  969.51   72.80
  -2  -1   7  917.86   65.82
  -2  -1   7  761.28   64.59
  -2  -1   7  887.24   63.68
   2  -1  -7  729.60   59.40
   2  -1  -7  900.26   64.89
   2  -1  -7  736.84   70.07
   2  -1  -7  920.00   68.14
  -2  -1   6  257.12   29.71
   2  -1  -6  220.72   34.75
   2  -1  -6  259.98   36.55
   2  -1  -6  306.55   37.67
   2  -1  -6  240.73   31.34
  -2  -1   6  232.19   30.05
   2  -1  -6  216.25   33.81
   2  -1  -6  248.25   27.59
   2  -1  -6  224.06   27.79
   2  -1  -6  256.73   42.45
  -2  -1   6  281.88   34.67
  -2  -1   6  257.65   30.76
  -2  -1   6  242.31   33.24
  -2  -1   6  242.97   25.71
   2  -1  -6  253.54   29.22
   2  -1  -6  225.66   28.88
   2  -1  -6  254.18   30.31
   2  -1  -5  714.76   56.95
   2  -1  -5  796.51   60.61
   2  -1  -5  677.41   55.98
   2  -1  -5  910.93   59.61
   2  -1  -5  717.39   45.67
   2  -1  -5  697.61   48.49
  -2  -1   5  796.93   51.68
   2  -1  -5  753.95   66.98
  -2  -1   5  677.14   52.40
  -2  -1   5  672.91   48.49
  -2  -1   5  807.56   45.67
   2  -1  -5  786.61   48.74
   2  -1  -5  632.64   47.72
  -2  -1   5  664.12   42.64
   2  -1  -5  793.89   54.48
  -2  -1   5  748.95   49.08
   2  -1  -4 1772.55   89.73
   2  -1  -4 1726.12   90.33
   2  -1  -4 1601.90   86.75
   2  -1  -4 1866.67  101.29
  -2  -1   4 1744.30   85.50
  -2  -1   4 1734.75   81.19
  -2  -1   4 1447.00   76.03
  -2  -1   4 1568.34   72.86
   2  -1  -4 1698.25   76.03
   2  -1  -4 1611.92   85.64
   2  -1  -3 2875.50  124.00
  -2  -1   3 3146.51  121.51
   2  -1  -3 2949.12  125.72
  -2  -1   3 3167.80  115.11
   2  -1  -3 3346.70  134.57
   2  -1  -3 3161.17  136.30
  -2  -1   3 3504.14  126.25
   2  -1  -3 2099.61  121.84
  -2  -1   3 2497.62  108.33
  -2  -1   3 2707.23  105.50
   2  -1  -3 2672.64  109.87
   2  -1  -3 3607.58  131.90
   2  -1  -2   25.67    8.86
  -2  -1   2   19.71    5.30
   2  -1  -2   28.86    9.24
   2  -1  -2   31.05   10.43
   2  -1  -2   14.54    6.64
  -2  -1   2   17.76    3.95
   2  -1  -2   26.87    8.87
  -2  -1   1 1701.31   74.72
   2  -1  -1 1876.12   88.44
   2  -1  -1 1816.90   84.56
   2  -1   0 6519.95  188.06
   2  -1   0 6072.80  184.73
   2  -1   0 5980.35  190.36
  -2  -1  -1  272.07   22.17
   2  -1   1  329.42   27.39
   2  -1   1  393.42   31.52
   2  -1   1  353.84   26.93
  -2  -1  -1  354.73   23.41
   2  -1   1  356.86   27.36
  -2  -1  -1  289.99   16.20
   2  -1   1  394.08   31.29
  -2  -1  -1  341.12   21.56
   2  -1   1  353.95   27.56
  -2  -1  -2  684.47   42.40
   2  -1   2  894.42   53.14
  -2  -1  -2  655.03   35.08
  -2  -1  -2  751.30   38.93
   2  -1   2  691.48   46.93
  -2  -1  -2  566.40   28.37
   2  -1   2  717.52   43.38
   2  -1   2  731.22   48.55
  -2  -1  -2  686.20   35.12
   2  -1   2  843.63   50.38
   2  -1   2  714.28   45.05
  -2  -1  -2  514.41   36.35
   2  -1   2  622.77   41.42
   2  -1   2  716.16   44.07
   2  -1   2  631.50   42.95
  -2  -1  -3 2051.28   94.63
   2  -1   3 2418.96  106.42
  -2  -1  -3 1827.23   80.22
  -2  -1  -3 2031.17   82.38
   2  -1   3 1862.70   95.51
   2  -1   3 1762.62   87.86
   2  -1   3 1792.54   90.56
   2  -1   3 1938.37   99.59
  -2  -1  -3 1858.37   78.07
   2  -1   3 2144.08   97.94
  -2  -1  -3 1960.37   91.81
  -2  -1  -3 1890.72   89.06
   2  -1   3 1228.41   83.39
   2  -1   3 1937.95   92.76
  -2  -1  -3 1904.69   79.46
   2  -1   3 1960.51   93.58
   2  -1   3 1235.10   85.03
   2  -1   4 1848.58  106.85
  -2  -1  -4 2216.27   97.48
  -2  -1  -4 2711.83  122.58
   2  -1   4 2554.08  115.08
  -2  -1  -4 2008.04   98.91
  -2  -1  -4 2301.34  101.44
  -2  -1  -4 2169.01  100.30
   2  -1   4 2216.05  116.56
   2  -1   4 2438.69  117.81
   2  -1   4 2510.66  125.46
  -2  -1  -4 2233.28   98.78
   2  -1   4 1820.89  107.00
   2  -1   4 2181.71  112.51
  -2  -1  -4 2431.35  114.84
  -2  -1  -4 2477.07  114.99
   2  -1   4 2518.68  120.03
   2  -1   4 2370.73  115.80
   2  -1   4 2514.99  114.44
   2  -1   4 2523.62  121.50
   2  -1   4 2206.22  109.20
   2  -1   5   37.58   15.21
  -2  -1  -5   46.89   11.43
   2  -1   5   37.46   13.58
  -2  -1  -5   34.17   12.26
  -2  -1  -5   49.15   11.99
  -2  -1  -5   38.39   12.72
  -2  -1  -5   38.75   12.50
   2  -1   5   29.70   12.93
  -2  -1  -5   54.33   17.54
   2  -1   5   40.05   15.88
   2  -1   5   35.01   13.96
   2  -1   5   63.53   14.92
   2  -1   5   50.76   14.46
   2  -1   5   48.85   16.61
  -2  -1  -5   55.28   17.02
   2  -1   5   37.06   15.00
   2  -1   5   52.50   13.63
   2  -1   5   39.23   13.94
   2  -1   5   35.66   12.78
   2  -1   5   42.76   13.68
   2  -1   6  427.45   49.71
  -2  -1  -6  469.93   44.39
  -2  -1  -6  483.31   54.52
   2  -1   6  487.83   54.36
  -2  -1  -6  431.48   39.64
  -2  -1  -6  437.85   41.18
   2  -1   6  407.45   47.52
   2  -1   6  481.69   51.21
   2  -1   6  458.86   44.39
   2  -1   6  485.35   56.21
   2  -1   6  533.92   51.75
  -2  -1  -6  482.27   50.57
   2  -1   6  455.33   44.03
  -2  -1  -6  458.53   50.75
   2  -1   6  376.56   42.96
   2  -1   6  468.67   46.44
   2  -1   6  487.99   47.95
   2  -1   7  869.63   75.99
  -2  -1  -7  852.07   66.39
  -2  -1  -7  934.77   70.61
  -2  -1  -7  872.25   65.66
  -2  -1  -7  974.54   84.49
   2  -1   7  954.32   70.57
  -2  -1  -7  889.16   62.87
   2  -1   7  909.75   75.18
   2  -1   7  962.34   81.21
   2  -1   7  864.86   63.68
   2  -1   7  868.88   73.05
   2  -1   7  878.87   71.61
  -2  -1  -7  834.23   74.00
   2  -1   7  876.48   79.53
  -2  -1  -7  846.31   76.68
  -2  -1  -7  871.94   62.44
   2  -1   8  232.77   37.19
   2  -1   8  232.34   31.42
  -2  -1  -8  240.36   34.18
  -2  -1  -8  239.72   34.80
   2  -1   8  204.67   37.35
  -2  -1  -8  285.54   35.55
  -2  -1  -8  216.23   31.61
   2  -1   8  226.00   35.20
  -2  -1  -8  225.95   30.23
   2  -1   8  183.04   25.85
   2  -1   8  196.22   31.82
   2  -1   8  225.80   33.73
   2  -1   8  228.40   37.33
  -2  -1  -8  218.86   32.16
  -2  -1  -8  243.61   30.58
   2  -1   9   47.66   15.11
   2  -1   9   33.06   10.93
   2  -1   9   29.91   13.71
  -2  -1  -9   44.64   15.58
  -2  -1  -9   40.86   14.93
  -2  -1  -9   39.42   13.90
  -2  -1  -9   45.24   15.37
   2  -1   9   33.42   13.92
  -2  -1  -9   62.48   17.71
   2  -1   9   29.60   11.67
   2  -1   9   34.52   12.25
   2  -1   9   43.00   14.19
  -2  -1  -9   37.02   13.64
   2  -1  10  102.19   16.05
  -2  -1 -10   83.91   14.59
  -2   0  11   15.25    8.22
   2   0 -11   14.49    6.60
  -2   0  11   21.60    8.22
  -2   0  10  355.74   38.76
   2   0 -10  614.78   46.19
   2   0 -10  540.11   50.39
   2   0 -10  338.96   48.45
  -2   0  10  453.20   44.22
  -2   0  10  599.39   50.66
   2   0 -10  576.30   46.75
   2   0 -10  587.48   44.74
  -2   0  10  535.49   39.79
   2   0 -10  482.78   45.47
  -2   0   9  182.13   30.37
   2   0  -9  204.39   38.11
  -2   0   9  211.82   33.16
  -2   0   9  194.26   28.44
   2   0  -9  247.23   38.31
   2   0  -9  248.15   33.09
   2   0  -9  284.34   35.70
  -2   0   8  158.80   27.90
   2   0  -8  213.65   37.77
   2   0  -8  157.61   28.01
   2   0  -8  120.74   33.46
   2   0  -8  211.33   28.16
   2   0  -8  166.00   26.34
  -2   0   8  174.35   33.00
   2   0  -8  113.67   34.78
  -2   0   8  183.56   33.32
  -2   0   8  188.95   31.06
   2   0  -8  185.09   30.10
   2   0  -8  215.63   32.96
  -2   0   7  445.99   42.91
   2   0  -7  484.15   49.72
   2   0  -7  396.62   48.81
  -2   0   7  449.20   49.63
   2   0  -7  481.33   56.02
   2   0  -7  412.20   48.16
   2   0  -7  540.10   43.22
   2   0  -7  416.58   40.59
  -2   0   7  473.37   47.11
  -2   0   7  554.84   55.54
   2   0  -7  459.12   62.58
  -2   0   7  498.56   51.16
  -2   0   7  467.54   46.31
  -2   0   7  485.16   39.69
  -2   0   7  417.07   44.37
   2   0  -7  385.65   40.46
   2   0  -7  450.69   46.10
   2   0  -7  422.89   44.28
  -2   0   6 1182.73   70.67
   2   0  -6 1150.39   82.57
   2   0  -6 1266.73   81.73
   2   0  -6 1303.13   82.48
   2   0  -6 1288.85   89.80
   2   0  -6 1044.90   76.77
   2   0  -6 1231.55   68.72
  -2   0   6 1261.15   81.01
   2   0  -6 1209.83   70.54
  -2   0   6 1565.74   93.12
   2   0  -6 1202.59   97.35
  -2   0   6 1394.11   84.52
  -2   0   6 1232.04   75.53
  -2   0   6 1333.62   82.43
   2   0  -6 1106.99   69.98
   2   0  -6 1183.72   73.28
   2   0  -6 1122.56   74.14
  -2   0   5 1242.03   64.26
   2   0  -5 1280.46   81.37
   2   0  -5 1384.63   75.94
   2   0  -5 1077.09   69.80
   2   0  -5 1082.64   60.58
   2   0  -5  947.75   71.31
   2   0  -5 1233.61   89.15
  -2   0   5 1112.50   69.34
  -2   0   5 1215.40   73.75
  -2   0   5 1187.65   67.98
   2   0  -5 1119.68   62.30
   2   0  -5 1135.46   68.05
   2   0  -4  430.21   39.53
   2   0  -4  473.15   41.84
   2   0  -4  473.68   37.34
   2   0  -4  582.09   51.37
  -2   0   4  525.06   37.65
  -2   0   4  594.33   42.81
  -2   0   4  436.14   28.13
   2   0  -4  444.81   30.20
  -2   0   4  441.25   32.62
  -2   0   4  541.27   38.21
   2   0  -4  361.90   30.57
  -2   0   4  474.89   32.18
   2   0  -3    5.36    7.35
  -2   0   3    7.73    5.20
   2   0  -3   -1.04    6.27
   2   0  -3    4.63    7.70
   2   0  -3    5.01    7.86
  -2   0   3    3.68    6.39
  -2   0   3    4.85    4.77
  -2   0   3    6.63    2.48
   2   0  -3    5.68    4.65
  -2   0   3   10.76    4.67
  -2   0   2 7213.84  224.22
  -2   0   2 6684.75  218.47
   2   0  -2 7108.78  238.65
   2   0  -2 7318.03  237.04
  -2   0   2 6694.87  225.92
  -2   0   2 6307.45  212.97
   2   0  -2 7001.55  233.84
   2   0  -2 6553.84  227.27
  -2   0   1   20.37    7.21
   2   0  -1   22.65    9.13
   2   0  -1   14.22    7.07
  -2   0   1   17.32    3.59
   2   0  -1   32.03   10.10
   2   0   0    0.91    7.19
   2   0   0    1.49    5.25
  -2   0   0   -0.34    3.70
   2   0   0   -1.39    6.24
   2   0   1 2207.67   92.41
   2   0   1 2422.48  100.51
  -2   0  -1 2466.75   93.88
  -2   0  -1 2550.79   95.41
   2   0   1 2387.14  100.60
  -2   0  -1 1998.51   77.16
  -2   0  -1 2115.70   89.55
  -2   0  -1 2096.10   86.17
   2   0   1 1562.50   87.90
   2   0   1 2054.36   91.22
   2   0   1 2452.34   98.79
   2   0   2 1963.39   91.26
   2   0   2 2503.59  102.35
  -2   0  -2 2087.12   85.51
  -2   0  -2 2207.29   87.34
   2   0   2 2169.57   99.10
   2   0   2 2099.55   94.69
  -2   0  -2 1692.06   71.03
   2   0   2 1821.03   88.52
  -2   0  -2 2057.14   89.70
  -2   0  -2 2021.76   87.35
   2   0   2 1898.12   90.71
   2   0   2 2135.98   96.48
   2   0   3  110.34   18.65
  -2   0  -3   77.96   16.60
   2   0   3  133.62   22.40
  -2   0  -3  110.37   15.34
   2   0   3  100.73   17.00
  -2   0  -3  101.59   15.06
  -2   0  -3   78.54   11.69
   2   0   3  120.04   21.53
   2   0   3   93.35   15.56
  -2   0  -3   88.97   16.73
  -2   0  -3   73.36   15.93
   2   0   3   73.91   16.46
   2   0   3  109.80   19.52
   2   0   3  103.91   17.08
   2   0   3  104.62   19.18
   2   0   3  103.03   17.59
   2   0   4   66.86   15.19
   2   0   4   70.74   18.40
  -2   0  -4   70.94   11.30
  -2   0  -4   65.79   13.09
  -2   0  -4  117.39   22.16
  -2   0  -4   67.90   14.52
  -2   0  -4   82.04   15.05
   2   0   4   67.20   16.07
   2   0   4   41.01   14.67
   2   0   4   45.02   11.88
  -2   0  -4   64.55   16.49
  -2   0  -4   86.44   18.56
   2   0   4   75.08   18.30
   2   0   4   69.10   15.55
   2   0   4   75.62   17.68
   2   0   4   68.57   15.03
   2   0   5  703.70   60.94
  -2   0  -5  618.53   48.37
  -2   0  -5  605.13   43.88
  -2   0  -5  831.98   65.64
  -2   0  -5  542.30   47.74
  -2   0  -5  617.77   46.28
  -2   0  -5  549.38   46.58
   2   0   5  557.27   50.10
   2   0   5  608.29   55.25
   2   0   5  629.48   50.74
   2   0   5  592.43   59.20
   2   0   5  471.29   47.61
  -2   0  -5  597.47   52.39
  -2   0  -5  670.07   57.53
   2   0   5  666.98   52.71
   2   0   5  706.29   62.17
   2   0   5  618.24   50.46
  -2   0  -5  621.76   43.38
  -2   0  -6  599.61   50.96
  -2   0  -6  559.31   46.31
  -2   0  -6  701.94   66.17
  -2   0  -6  486.76   44.64
  -2   0  -6  553.57   47.49
  -2   0  -6  410.14   45.80
   2   0   6  619.40   59.64
   2   0   6  545.50   49.57
   2   0   6  568.73   62.30
   2   0   6  569.45   56.32
   2   0   6  545.93   52.96
   2   0   6  644.19   64.16
  -2   0  -6  405.50   45.19
  -2   0  -6  556.49   57.83
   2   0   6  664.38   64.59
   2   0   6  551.23   49.98
   2   0   6  559.47   58.26
   2   0   6  542.90   50.15
  -2   0  -6  515.20   44.28
   2   0   7   26.59   16.39
  -2   0  -7   24.20   13.60
  -2   0  -7   17.10   14.20
  -2   0  -7   32.24   15.77
  -2   0  -7   17.97   11.91
  -2   0  -7   27.00   13.79
  -2   0  -7    8.19   10.11
  -2   0  -7   17.89   13.52
  -2   0  -7   27.12   12.78
  -2   0  -7   26.48   13.18
   2   0   7   10.99   15.86
   2   0   7   25.84   15.17
   2   0   7   23.86   12.00
   2   0   7    7.21    9.22
  -2   0  -7   11.47   11.14
   2   0   7   20.12   14.83
  -2   0  -7   18.84   15.11
   2   0   7    8.73   12.72
   2   0   7   28.94   15.88
   2   0   7   15.19   11.25
   2   0   8  792.73   73.07
  -2   0  -8  805.83   64.63
  -2   0  -8  818.70   65.84
  -2   0  -8  896.78   65.18
  -2   0  -8  752.86   59.10
   2   0   8  719.38   59.73
   2   0   8  756.49   66.81
  -2   0  -8  701.77   54.33
   2   0   8  726.76   56.09
   2   0   8  643.95   58.29
  -2   0  -8  667.82   57.68
   2   0   8  687.64   59.79
   2   0   8  760.92   71.15
   2   0   8  801.64   73.17
  -2   0  -8  755.77   56.13
   2   0   9  468.66   48.35
   2   0   9  484.07   40.49
  -2   0  -9  501.52   46.62
  -2   0  -9  472.56   47.20
  -2   0  -9  461.38   41.85
  -2   0  -9  511.56   45.07
  -2   0  -9  478.67   42.79
   2   0   9  471.03   46.23
   2   0   9  321.41   31.60
   2   0   9  407.04   38.56
   2   0   9  497.77   49.81
  -2   0  -9  455.17   43.56
   2   0   9  411.33   46.06
   2   0  10   48.37   11.94
  -2   0 -10   52.64   12.43
  -2   1  11  196.59   23.28
  -2   1  11  159.02   18.17
   2   1 -10  118.54   22.57
   2   1 -10   85.43   21.34
   2   1 -10   97.26   21.71
   2   1 -10   80.50   21.55
  -2   1  10   93.55   19.94
   2   1 -10  104.88   20.36
   2   1 -10  114.21   20.02
  -2   1  10  122.78   20.54
  -2   1  10   80.41   14.07
   2   1 -10  119.34   20.58
  -2   1   9   18.36   11.17
   2   1  -9    8.95   12.60
   2   1  -9    4.49   10.24
   2   1  -9   20.92   13.18
  -2   1   9   24.02   12.39
  -2   1   9   10.27    9.27
  -2   1   9   11.93    9.43
   2   1  -9   16.20   15.24
   2   1  -9    1.39   10.74
   2   1  -9    6.10   12.28
  -2   1   8  589.15   55.61
   2   1  -8  683.68   66.93
  -2   1   8  628.44   68.33
   2   1  -8  550.06   61.25
   2   1  -8  731.00   78.20
   2   1  -8  825.15   55.73
  -2   1   8  732.31   53.10
  -2   1   8  715.87   64.14
  -2   1   8  662.26   58.01
  -2   1   8  648.27   63.72
  -2   1   8  740.74   62.99
   2   1  -8  697.44   80.95
  -2   1   8  632.67   63.26
  -2   1   8  687.57   60.84
  -2   1   8  773.99   55.77
   2   1  -8  658.08   58.14
   2   1  -8  855.65   65.77
  -2   1   7  899.87   64.62
   2   1  -7  944.85   78.28
   2   1  -7  732.37   64.06
  -2   1   7  989.49   80.11
   2   1  -7 1040.72   63.41
   2   1  -7  817.77   59.44
  -2   1   7  915.60   59.82
   2   1  -7  879.72   76.08
  -2   1   7 1061.51   72.89
  -2   1   7 1092.01   80.33
   2   1  -7  967.20   93.46
  -2   1   7  923.47   68.98
  -2   1   7  925.46   61.13
  -2   1   7  828.71   63.58
   2   1  -7  894.43   67.44
   2   1  -7 1062.20   74.32
  -2   1   6  225.58   27.09
   2   1  -6  262.66   34.02
   2   1  -6  198.37   27.56
   2   1  -6  254.75   27.98
   2   1  -6  227.89   26.55
  -2   1   6  251.32   26.72
  -2   1   6  264.04   31.73
   2   1  -6  241.48   43.57
  -2   1   6  238.74   34.47
  -2   1   6  230.69   30.24
   2   1  -6  217.24   28.02
   2   1  -6  231.31   34.83
   2   1  -6  232.97   35.62
  -2   1   5  768.74   47.59
   2   1  -5  774.44   58.55
   2   1  -5  773.81   60.28
   2   1  -5  861.22   65.65
   2   1  -5  874.98   57.23
   2   1  -5  686.72   49.88
   2   1  -5  539.27   42.26
  -2   1   5  827.59   53.30
   2   1  -5  835.82   72.29
  -2   1   5  836.38   54.27
   2   1  -5  632.01   55.25
  -2   1   5  800.93   46.71
  -2   1   5  847.52   59.30
   2   1  -5  682.10   47.14
  -2   1   5  776.70   54.28
   2   1  -5  815.39   51.53
  -2   1   4 1847.17   87.64
   2   1  -4 1361.34   83.25
   2   1  -4 1714.33   89.39
   2   1  -4 1566.05   86.65
   2   1  -4 1417.00   74.56
   2   1  -4 1990.11  106.35
  -2   1   4 1732.90   82.84
  -2   1   4 1951.84   91.56
  -2   1   4 1444.38   72.98
   2   1  -4 1805.78   93.93
   2   1  -4 1435.83   71.24
  -2   1   4 1898.09   84.41
  -2   1   4 1615.21   72.66
   2   1  -3 3085.02  129.47
   2   1  -3 3118.93  133.09
   2   1  -3 3421.90  141.19
   2   1  -3 3462.62  144.70
  -2   1   3 3570.85  132.18
  -2   1   3 3366.80  129.13
  -2   1   3 2961.26  121.87
  -2   1   3 2571.78  109.12
   2   1  -3 2738.21  109.58
  -2   1   3 3454.84  127.05
   2   1  -2   10.45    7.24
  -2   1   2   16.22    7.59
   2   1  -2   16.33    7.86
   2   1  -2   19.60    9.63
  -2   1   2   19.11    7.40
  -2   1   2   15.54    5.42
   2   1  -2    8.77    6.64
  -2   1   2    9.08    5.42
   2   1  -1 1792.94   85.30
   2   1  -1 1624.12   84.00
  -2   1   1 1896.27   84.42
  -2   1   1 1535.10   64.57
  -2   1   1 1976.52   78.24
  -2   1   1 2058.18   87.46
   2   1   0 5755.79  228.02
   2   1   0 5459.94  231.38
  -2   1   0 6179.88  215.17
   2   1   1  370.43   29.05
   2   1   1  394.45   31.56
  -2   1  -1  396.57   30.25
  -2   1  -1  387.54   28.91
  -2   1  -1  386.52   27.70
  -2   1  -1  420.65   33.45
  -2   1  -1  350.73   27.15
   2   1   1  405.03   33.59
   2   1   1  350.73   28.01
   2   1   1  344.08   30.01
   2   1   2  750.30   48.96
  -2   1  -2  740.17   43.48
   2   1   2  597.17   43.99
   2   1   2  745.04   50.62
  -2   1  -2  763.36   42.66
   2   1   2  607.07   42.36
  -2   1  -2  533.04   39.66
  -2   1  -2  728.71   44.73
   2   1   2  618.35   44.75
   2   1   2  485.10   38.96
   2   1   2  698.87   47.66
   2   1   3 2045.02  103.44
   2   1   3 1659.45   91.95
   2   1   3 2220.76  105.85
  -2   1  -3 2113.67   92.16
  -2   1  -3 1960.57   96.47
  -2   1  -3 2002.21  100.63
  -2   1  -3 2036.48   99.63
   2   1   3 1789.02   99.32
   2   1   3 2204.17  109.69
  -2   1  -3 2045.18   93.69
  -2   1  -3 1838.12   85.45
  -2   1  -4 2368.03  102.10
   2   1   4 2455.04  126.89
  -2   1  -4 2459.23  125.21
  -2   1  -4 2442.45  107.62
  -2   1  -4 2398.01  113.25
  -2   1  -4 2695.16  112.99
   2   1   4 2168.91  104.03
   2   1   4 2383.23  120.97
   2   1   4 1789.01  105.62
  -2   1  -4 2547.63  119.86
  -2   1  -4 2507.10  118.83
  -2   1  -4 2120.15  116.60
   2   1   4 2457.82  114.56
   2   1   4 1849.41  115.83
   2   1   4 2285.15  110.78
   2   1   5   29.18   17.22
   2   1   5   53.08   17.98
  -2   1  -5   36.76   11.93
  -2   1  -5   45.36   17.10
  -2   1  -5   34.38   13.35
  -2   1  -5   21.80   11.65
  -2   1  -5   31.48   10.81
  -2   1  -5   24.10   11.98
  -2   1  -5   43.79   10.91
   2   1   5   29.75   11.66
   2   1   5   25.49   10.03
   2   1   5   35.00   11.12
  -2   1  -5   21.46   11.70
  -2   1  -5   20.31   14.23
   2   1   5   51.91   18.94
   2   1   5   40.90   13.45
   2   1   6  532.45   60.56
  -2   1  -6  431.89   42.25
  -2   1  -6  417.83   41.30
  -2   1  -6  576.80   61.18
  -2   1  -6  474.26   44.17
  -2   1  -6  423.77   47.40
   2   1   6  446.86   44.99
   2   1   6  524.06   60.57
   2   1   6  368.23   44.58
   2   1   6  459.65   47.60
  -2   1  -6  352.64   41.25
  -2   1  -6  467.19   54.14
   2   1   6  508.84   57.48
   2   1   6  545.35   59.33
  -2   1  -6  393.69   39.04
   2   1   6  444.56   45.19
  -2   1  -7  980.27   69.14
  -2   1  -7  941.65   69.44
  -2   1  -7  903.65   66.63
  -2   1  -7 1042.58   89.83
  -2   1  -7  896.10   64.82
   2   1   7  964.76   86.89
  -2   1  -7  919.66   68.54
  -2   1  -7  888.55   59.06
  -2   1  -7  624.80   68.28
   2   1   7  857.59   67.18
   2   1   7  811.30   68.58
   2   1   7  929.70   86.54
   2   1   7  896.11   70.80
   2   1   7  788.05   77.61
  -2   1  -7  861.62   77.38
  -2   1  -7  885.28   82.42
   2   1   7 1047.22   86.39
  -2   1  -7  845.43   67.46
   2   1   7 1005.41   84.46
  -2   1  -7  902.78   63.61
   2   1   7  933.03   70.37
  -2   1  -8  226.80   33.26
  -2   1  -8  233.92   31.47
  -2   1  -8  235.15   30.89
   2   1   8  253.90   41.81
  -2   1  -8  194.61   25.56
  -2   1  -8  250.43   34.55
   2   1   8  226.87   30.88
   2   1   8  126.00   24.41
   2   1   8  208.37   30.50
   2   1   8  232.31   38.73
   2   1   8  235.78   32.58
   2   1   8  172.88   33.88
   2   1   8  245.22   33.10
   2   1   9   30.61   15.63
   2   1   9   42.69   14.43
  -2   1  -9   54.21   13.25
  -2   1  -9   27.35   12.51
   2   1   9   21.34   12.61
   2   1   9   33.97   11.40
  -2   1  -9   29.49   13.49
   2   1   9   18.28   12.81
   2   1  10   77.41   14.30
  -2   1 -10   86.99   14.56
   2   2 -11   16.89    6.49
   2   2 -10  345.06   37.34
   2   2 -10  290.55   36.73
   2   2 -10  276.90   38.20
  -2   2  10  318.70   35.68
   2   2 -10  375.46   37.27
  -2   2  10  352.23   34.47
  -2   2  10  369.31   32.81
   2   2 -10  374.15   41.76
   2   2  -9  694.39   65.31
   2   2  -9  628.27   69.05
  -2   2   9  753.76   52.56
  -2   2   9  692.40   61.00
  -2   2   9  480.83   48.24
  -2   2   9  822.86   57.65
   2   2  -9  756.53   63.50
   2   2  -9  709.57   56.00
   2   2  -9  728.27   64.22
   2   2  -9  778.22   59.50
   2   2  -9  755.49   73.16
  -2   2   8  162.28   28.81
   2   2  -8  192.07   34.86
   2   2  -8  180.83   35.32
   2   2  -8  209.61   38.68
   2   2  -8  237.40   43.65
  -2   2   8  202.17   28.12
  -2   2   8  177.37   31.93
  -2   2   8  154.61   28.27
  -2   2   8  100.71   20.48
  -2   2   8  179.28   29.20
  -2   2   8  212.16   33.99
   2   2  -8  209.39   41.61
  -2   2   8  176.85   32.05
  -2   2   8  183.95   30.83
  -2   2   8  216.03   29.55
   2   2  -8  171.09   32.69
   2   2  -8  196.44   31.07
  -2   2   8  178.85   36.10
   2   2  -8  207.70   32.26
  -2   2   7  501.67   49.29
   2   2  -7  677.86   65.39
   2   2  -7  606.66   62.52
   2   2  -7  614.54   73.06
   2   2  -7  599.78   47.63
   2   2  -7  709.85   69.72
  -2   2   7  671.04   51.13
  -2   2   7  646.04   65.86
  -2   2   7  539.61   52.59
  -2   2   7  615.43   56.43
  -2   2   7  631.28   60.47
   2   2  -7  640.05   76.69
   2   2  -7  633.70   60.20
  -2   2   7  617.16   58.05
  -2   2   7  632.37   50.25
   2   2  -7  606.54   61.31
   2   2  -7  561.45   52.34
   2   2  -7  657.73   57.28
  -2   2   6 1094.56   68.42
   2   2  -6 1093.20   78.14
   2   2  -6 1173.18   84.39
   2   2  -6 1173.25   83.71
   2   2  -6 1209.55   74.85
   2   2  -6 1156.38   87.89
   2   2  -6 1170.42   65.47
   2   2  -6  837.55   59.03
  -2   2   6 1003.86   63.88
  -2   2   6 1221.90   75.70
   2   2  -6 1172.36  100.24
   2   2  -6 1314.76   88.16
  -2   2   6 1247.92   80.38
  -2   2   6 1082.19   80.58
  -2   2   6  925.74   65.31
   2   2  -6 1059.90   71.33
   2   2  -6  948.23   67.35
   2   2  -5 1841.38  104.14
   2   2  -5 2048.76  109.68
   2   2  -5 2105.17  115.47
   2   2  -5 1695.12   93.83
   2   2  -5 1326.66   82.86
  -2   2   5 2131.07  106.64
  -2   2   5 2153.12  100.34
   2   2  -5 2113.96  127.94
  -2   2   5 2214.82  107.79
  -2   2   5 1875.13   92.61
   2   2  -5 1699.10   91.47
  -2   2   5 2412.23  114.42
  -2   2   5 2315.21  109.75
   2   2  -5 1813.83   91.49
   2   2  -5 1785.21  108.22
  -2   2   4   22.75   10.24
   2   2  -4   11.46    9.98
   2   2  -4   13.83   10.54
   2   2  -4   22.16   12.28
   2   2  -4   20.62    5.71
   2   2  -4   10.57    9.76
  -2   2   4   22.25    9.13
   2   2  -4   27.03   13.37
  -2   2   4   21.26    9.81
  -2   2   4   16.23    7.32
  -2   2   4   19.62    9.15
   2   2  -3 2345.53  109.18
   2   2  -3 2018.08  107.07
   2   2  -3 2342.98  112.53
   2   2  -3 2608.16  120.33
  -2   2   3 2046.62   99.67
   2   2  -3 2619.32  125.22
  -2   2   3 2566.81  109.00
  -2   2   3 2915.99  119.51
  -2   2   3 2681.93  109.11
  -2   2   3 2383.04   97.45
  -2   2   3 2858.23  115.34
   2   2  -2 1449.76   78.13
   2   2  -2 2041.70   96.25
   2   2  -2 1558.93   79.96
  -2   2   2 1957.66   87.79
   2   2  -2 1356.24   76.11
   2   2  -2 1649.45   83.90
  -2   2   2 1986.75   82.72
   2   2  -2 1717.41   88.16
  -2   2   2 2010.39   90.33
  -2   2   2 1823.56   83.03
  -2   2   2 1858.02   76.69
   2   2  -2 1483.93   76.56
   2   2  -1 1000.38   60.73
   2   2  -1  949.80   56.61
  -2   2   1 1269.08   64.02
  -2   2   1 1052.82   49.21
  -2   2   1 1222.95   59.00
  -2   2   1 1319.58   68.50
  -2   2   0  136.84   19.24
   2   2   0  122.11   18.47
   2   2   0  149.30   18.65
  -2   2   0  152.51   15.70
  -2   2   0  152.34   19.29
   2   2   1 2520.39  110.55
  -2   2  -1 3034.84  117.43
   2   2   1 2695.27  115.94
   2   2   1 2305.18  112.45
   2   2   1 2166.77  110.97
  -2   2  -1 2872.71  111.31
  -2   2  -1 3149.89  121.91
   2   2   1 2122.51  110.14
   2   2   1 2732.94  121.11
   2   2   2 1351.61   77.10
   2   2   2 1400.34   73.09
  -2   2  -2 1505.36   73.46
  -2   2  -2 1431.51   68.75
  -2   2  -2 1070.82   61.02
   2   2   2 1522.18   79.21
  -2   2  -2 1441.85   73.26
  -2   2  -2 1404.49   74.73
   2   2   2 1171.94   73.03
   2   2   2 1379.80   80.54
   2   2   3 1737.72   97.93
  -2   2  -3 1646.21   79.21
  -2   2  -3 1830.68   83.62
   2   2   3 1872.84  104.30
  -2   2  -3 1810.68   88.53
  -2   2  -3 1952.55   86.65
   2   2   3 1887.05  100.03
  -2   2  -3 1326.33   83.96
  -2   2  -3 1799.33   92.41
  -2   2  -3 1736.29   93.66
  -2   2  -3 1411.53   75.04
   2   2   3 1538.62   92.31
   2   2   4  398.76   46.39
  -2   2  -4  384.42   32.82
  -2   2  -4  423.90   35.22
  -2   2  -4  347.87   33.17
  -2   2  -4  372.72   38.58
  -2   2  -4  400.52   37.06
   2   2   4  395.28   42.06
   2   2   4  248.21   31.35
   2   2   4  432.07   47.55
  -2   2  -4  444.49   43.25
  -2   2  -4  369.72   38.88
  -2   2  -4  385.63   43.45
   2   2   4  348.26   41.95
  -2   2  -4  353.30   30.51
   2   2   5  522.32   60.73
  -2   2  -5  573.19   46.52
  -2   2  -5  578.27   48.51
  -2   2  -5  666.00   50.75
  -2   2  -5  861.09   72.19
  -2   2  -5  704.34   52.35
   2   2   5  581.53   48.70
  -2   2  -5  504.62   52.74
  -2   2  -5  591.27   53.86
   2   2   5  502.70   54.35
   2   2   5  671.37   54.48
   2   2   5  530.11   60.50
  -2   2  -5  764.21   63.66
  -2   2  -5  551.09   50.64
  -2   2  -5  751.64   67.46
   2   2   5  601.96   61.38
   2   2   5  707.20   65.23
   2   2   5  745.17   55.90
   2   2   6 1028.91   90.19
  -2   2  -6  857.15   63.90
  -2   2  -6 1019.91   68.13
  -2   2  -6  852.93   64.79
  -2   2  -6  794.17   59.95
  -2   2  -6  963.19   63.92
  -2   2  -6 1047.62   87.58
  -2   2  -6  708.48   68.35
  -2   2  -6  863.78   63.13
   2   2   6  905.85   76.76
  -2   2  -6  736.66   67.37
   2   2   6  857.18   66.45
   2   2   6  892.35   82.78
   2   2   6  874.18   66.05
  -2   2  -6  537.80   53.87
  -2   2  -6  903.30   81.29
   2   2   6  792.47   75.43
  -2   2  -6  779.22   63.39
   2   2   6  893.31   78.23
   2   2   6  820.61   64.11
   2   2   7   59.79   24.14
  -2   2  -7   48.24   13.40
  -2   2  -7   60.39   18.93
  -2   2  -7   39.01   16.67
   2   2   7   43.61   19.96
  -2   2  -7   96.77   25.34
  -2   2  -7   52.10   15.17
  -2   2  -7   42.55   15.15
  -2   2  -7   41.51   16.34
  -2   2  -7   42.03   16.93
  -2   2  -7   32.76   12.03
  -2   2  -7   63.41   18.43
   2   2   7   69.20   22.32
   2   2   7   34.09   15.29
  -2   2  -7   34.83   17.56
   2   2   7   63.47   15.52
  -2   2  -7   93.08   26.16
   2   2   7   62.87   20.35
   2   2   7   59.03   22.33
  -2   2  -7   44.59   16.73
  -2   2  -7   39.68   16.59
   2   2   7   60.27   21.26
   2   2   7   30.50   15.05
   2   2   8  142.93   32.92
  -2   2  -8  112.16   23.46
  -2   2  -8  107.81   24.16
  -2   2  -8  106.44   23.52
  -2   2  -8   89.72   19.80
   2   2   8   95.61   21.01
   2   2   8  115.21   26.53
   2   2   8  103.04   21.70
  -2   2  -8   89.19   21.54
  -2   2  -8  115.66   24.36
   2   2   8  104.49   25.24
  -2   2  -8   97.06   19.50
   2   2   8  128.98   28.66
   2   2   9  774.40   65.85
  -2   2  -9  809.15   59.49
  -2   2  -9  598.96   54.41
  -2   2  -9  749.04   59.02
   2   2   9  823.56   59.87
   2   2   9  898.98   57.19
  -2   2  -9  627.27   50.96
   2   2   9  759.70   52.13
   2   2   9  712.94   60.29
   2   2   9  683.93   56.53
   2   2  10   45.64   10.45
  -2   3  10  172.32   21.08
  -2   3  10   91.55   15.97
   2   3 -10  144.47   21.47
  -2   3  10   87.53   13.50
   2   3  -9   49.23   17.75
   2   3  -9   49.64   17.97
   2   3  -9   37.49   17.43
  -2   3   9   49.94   16.77
  -2   3   9   44.27   13.79
  -2   3   9   47.69   14.47
   2   3  -9   57.82   19.23
   2   3  -9   34.41   13.25
   2   3  -8  506.60   54.85
   2   3  -8  500.68   56.54
   2   3  -8  522.28   57.90
  -2   3   8  460.14   58.52
   2   3  -8  462.59   59.04
  -2   3   8  542.69   47.76
  -2   3   8  469.19   52.31
  -2   3   8  405.47   45.91
  -2   3   8  311.74   36.44
   2   3  -8  432.79   57.95
   2   3  -8  480.64   52.21
  -2   3   8  467.28   49.55
  -2   3   8  431.59   47.13
  -2   3   8  567.48   48.70
   2   3  -8  488.54   54.37
   2   3  -8  497.98   47.99
   2   3  -8  485.48   49.35
   2   3  -8  584.04   68.99
   2   3  -7  367.52   48.02
  -2   3   7  293.26   34.43
   2   3  -7  382.83   49.12
   2   3  -7  521.32   59.18
   2   3  -7  340.70   53.89
  -2   3   7  484.78   44.15
  -2   3   7  384.23   44.78
  -2   3   7  397.57   52.78
  -2   3   7  290.63   36.71
  -2   3   7  379.39   45.65
  -2   3   7  400.82   46.49
   2   3  -7  389.66   59.67
   2   3  -7  517.47   57.38
  -2   3   7  426.15   46.38
  -2   3   7  381.33   42.16
  -2   3   7  457.63   42.44
   2   3  -7  460.54   52.78
   2   3  -7  386.66   43.15
   2   3  -7  390.50   44.86
   2   3  -6  110.62   25.65
   2   3  -6  108.57   26.40
   2   3  -6  114.13   27.98
   2   3  -6   86.45   20.09
   2   3  -6   95.67   27.73
  -2   3   6   66.51   21.02
  -2   3   6  110.47   24.57
  -2   3   6   98.21   22.22
  -2   3   6   82.24   17.56
  -2   3   6   84.22   19.54
  -2   3   6  109.43   23.94
   2   3  -6  102.56   30.64
   2   3  -6  124.95   28.28
  -2   3   6  110.77   22.91
  -2   3   6   86.88   19.48
   2   3  -6   85.32   23.99
  -2   3   6   88.15   20.12
  -2   3   6   93.83   17.45
   2   3  -5  301.49   37.93
   2   3  -5  253.53   36.16
  -2   3   5  256.55   27.85
   2   3  -5  229.67   28.66
   2   3  -5  341.23   42.00
   2   3  -5  303.95   43.14
  -2   3   5  355.68   40.32
   2   3  -5  299.72   28.85
  -2   3   5  319.16   38.48
  -2   3   5  271.04   27.82
  -2   3   5  308.82   34.54
   2   3  -5  291.88   44.95
   2   3  -5  270.38   40.52
  -2   3   5  293.97   31.80
  -2   3   5  330.29   36.92
   2   3  -5  288.22   37.12
  -2   3   5  324.17   33.90
  -2   3   5  342.97   39.88
   2   3  -5  289.67   33.27
   2   3  -5  268.94   36.38
   2   3  -4 2080.08  103.97
   2   3  -4 1700.83  100.87
  -2   3   4 2425.99  112.62
   2   3  -4 2097.04  108.45
   2   3  -4 2050.94  113.32
  -2   3   4 1829.03  102.64
  -2   3   4 2040.50  103.19
  -2   3   4 1532.40   90.66
   2   3  -4 2169.75  119.39
   2   3  -4 2157.24  118.27
  -2   3   4 2210.23   97.89
  -2   3   4 1946.58   96.84
  -2   3   4 1976.48   88.98
  -2   3   4 2234.26  109.17
   2   3  -4 1453.45   89.93
   2   3  -4 2258.91  125.09
   2   3  -3 1094.45   73.94
   2   3  -3 1290.94   72.25
   2   3  -3 1230.81   74.25
   2   3  -3 1334.59   76.10
   2   3  -3 1342.09   79.91
  -2   3   3 1582.41   81.43
  -2   3   3 1436.00   77.90
  -2   3   3 1440.12   71.96
   2   3  -3 1472.46   85.74
  -2   3   3 1542.17   74.14
  -2   3   3 1521.65   76.66
  -2   3   3 1643.45   84.97
  -2   3   3 1391.48   68.59
  -2   3   3 1621.50   83.10
   2   3  -2  427.38   36.83
   2   3  -2  438.45   35.52
   2   3  -2  444.10   35.46
   2   3  -2  534.80   45.69
  -2   3   2  642.56   42.39
  -2   3   2  747.72   44.90
   2   3  -2  502.86   41.06
  -2   3   2  627.03   46.48
   2   3  -2  468.81   38.08
  -2   3   2  611.23   42.23
  -2   3   2  632.66   39.06
  -2   3   2  583.75   44.21
   2   3  -2  472.04   40.40
   2   3  -1 2041.65  111.43
   2   3  -1 2677.28  127.40
  -2   3   1 3153.25  120.85
  -2   3   1 3344.27  121.19
  -2   3   1 3514.39  125.94
   2   3  -1 2364.34  117.98
   2   3  -1 2295.10  114.38
  -2   3   1 3443.50  129.70
  -2   3   1 3280.03  124.13
  -2   3   1 3208.11  133.17
  -2   3   0 1702.15   88.18
   2   3   0 1290.75   78.94
  -2   3   0 1491.28   73.47
  -2   3   0 1524.38   73.64
   2   3   0 1324.58   74.33
   2   3   0 1344.35   71.60
  -2   3   0 1490.65   72.36
  -2   3   0 1951.03   83.95
  -2   3   0 1770.53   77.68
   2   3   1  324.88   34.27
   2   3   1  381.93   30.63
  -2   3  -1  462.70   36.87
  -2   3  -1  447.15   32.76
  -2   3  -1  338.85   28.73
   2   3   1  414.29   34.33
  -2   3  -1  467.86   39.19
  -2   3  -1  467.72   35.77
  -2   3  -1  521.17   40.46
  -2   3  -1  455.91   33.16
  -2   3  -1  406.14   31.44
   2   3   2  472.39   44.42
   2   3   2  341.23   37.78
   2   3   2  508.76   38.74
  -2   3  -2  602.80   43.37
   2   3   2  526.73   42.91
  -2   3  -2  533.96   42.75
  -2   3  -2  515.05   41.51
  -2   3  -2  517.40   36.24
  -2   3  -2  445.75   34.54
  -2   3  -2  426.89   32.98
   2   3   3 4215.33  186.33
  -2   3  -3 4299.48  162.16
  -2   3  -3 3994.46  160.14
   2   3   3 3508.22  173.45
   2   3   3 4539.48  196.31
  -2   3  -3 4431.24  173.54
  -2   3  -3 4384.61  167.39
   2   3   3 4334.97  181.99
  -2   3  -3 2668.69  157.19
  -2   3  -3 3912.37  173.22
  -2   3  -3 3907.10  170.80
   2   3   3 3331.47  173.28
   2   3   4  257.32   40.66
  -2   3  -4  303.14   31.00
   2   3   4  250.45   29.66
  -2   3  -4  246.24   27.44
  -2   3  -4  308.23   31.19
  -2   3  -4  235.78   29.22
  -2   3  -4  286.66   30.53
  -2   3  -4  274.78   34.86
   2   3   4  210.39   27.37
   2   3   4  274.33   35.33
  -2   3  -4  283.41   29.53
  -2   3  -4  251.15   31.36
   2   3   4  325.77   42.34
  -2   3  -4  210.28   28.25
  -2   3  -4  267.76   36.39
  -2   3  -4  275.67   33.71
  -2   3  -4  302.06   40.58
   2   3   4  261.53   37.64
   2   3   4  286.33   44.46
   2   3   4  276.79   37.81
  -2   3  -5   92.25   17.14
  -2   3  -5   67.24   16.87
  -2   3  -5   95.30   19.46
  -2   3  -5   85.65   19.54
  -2   3  -5   86.47   19.58
  -2   3  -5   67.40   23.92
  -2   3  -5   45.93   17.51
  -2   3  -5   71.31   17.97
  -2   3  -5   92.38   22.16
   2   3   5   74.37   24.24
  -2   3  -5   92.43   24.71
  -2   3  -5   73.42   18.12
  -2   3  -5   77.90   24.06
   2   3   5   53.81   20.73
  -2   3  -5   90.71   20.75
   2   3   5   55.74   19.58
   2   3   5   75.66   22.84
   2   3   5   66.87   17.30
  -2   3  -6  451.38   45.43
  -2   3  -6  436.70   43.25
  -2   3  -6  427.27   45.78
  -2   3  -6  336.05   38.97
  -2   3  -6  359.50   42.38
  -2   3  -6  297.76   45.33
   2   3   6  384.17   50.01
  -2   3  -6  371.73   41.21
  -2   3  -6  307.75   44.64
   2   3   6  449.79   47.51
   2   3   6  465.57   59.89
   2   3   6  405.54   51.80
  -2   3  -6  410.94   56.19
   2   3   6  429.78   54.68
   2   3   6  464.33   64.37
  -2   3  -6  398.91   45.07
   2   3   6  403.32   43.93
  -2   3  -7  562.97   53.25
  -2   3  -7  561.81   52.49
  -2   3  -7  578.15   53.99
   2   3   7  624.66   63.37
  -2   3  -7  582.41   46.46
   2   3   7  591.74   61.73
  -2   3  -7  575.56   52.78
  -2   3  -7  381.67   55.10
   2   3   7  601.33   55.63
   2   3   7  564.28   66.17
  -2   3  -7  518.99   60.38
   2   3   7  560.09   63.09
  -2   3  -7  635.54   58.08
   2   3   7  596.23   72.80
  -2   3  -7  547.65   54.20
   2   3   7  611.52   54.98
  -2   3  -8  449.49   44.36
  -2   3  -8  395.08   45.34
  -2   3  -8  407.36   43.49
   2   3   8  393.09   46.04
  -2   3  -8  405.12   44.22
   2   3   8  401.28   42.28
   2   3   8  428.01   47.37
   2   3   8  427.46   49.09
  -2   3  -8  493.85   47.59
  -2   3  -8  328.64   36.16
   2   3   8  429.67   42.93
   2   3   9   23.01   10.62
  -2   3  -9   35.89    9.80
  -2   3  -9   32.98    9.89
  -2   3  -9   19.33    7.17
  -2   3  -9    3.75    7.12
   2   3   9   13.74    8.38
   2   3   9    8.87    7.47
  -2   3  -9    8.34    8.59
  -2   4  10  232.47   22.15
  -2   4  10  300.87   27.52
   2   4 -10  254.53   30.91
  -2   4   9  725.26   51.32
   2   4  -9  454.89   43.75
  -2   4   9  762.74   52.82
  -2   4   9  469.16   38.70
   2   4  -9  715.02   64.80
   2   4  -8  265.01   35.83
   2   4  -8  212.02   34.78
   2   4  -8  196.19   36.71
  -2   4   8  320.17   36.20
  -2   4   8  271.24   39.72
   2   4  -8  285.25   42.25
  -2   4   8  323.43   36.42
   2   4  -8  308.90   49.27
   2   4  -8  299.81   37.46
   2   4  -7  373.17   48.25
   2   4  -7  371.87   46.07
   2   4  -7  359.01   49.10
   2   4  -7  407.04   50.54
   2   4  -7  455.53   62.51
  -2   4   7  435.52   42.64
  -2   4   7  353.11   43.65
  -2   4   7  409.74   52.88
  -2   4   7  292.88   36.83
   2   4  -7  389.40   52.90
   2   4  -7  433.63   55.92
  -2   4   7  275.87   37.78
  -2   4   7  327.23   38.75
  -2   4   7  435.08   42.23
   2   4  -7  364.87   47.09
   2   4  -7  329.31   48.90
  -2   4   7  228.50   30.98
  -2   4   7  376.74   40.32
   2   4  -6 1137.48   86.35
  -2   4   6 1256.36   81.47
   2   4  -6 1577.78  103.48
   2   4  -6 1259.18   93.69
   2   4  -6 1018.99   91.55
   2   4  -6 1483.71   98.98
   2   4  -6 1614.36   80.19
  -2   4   6 1469.26   83.63
  -2   4   6 1622.67  102.60
  -2   4   6 1550.75   97.30
  -2   4   6 1269.85   85.19
   2   4  -6 1025.95   96.32
   2   4  -6 1920.29  123.59
  -2   4   6 1475.39   89.49
  -2   4   6 1560.81   85.97
   2   4  -6  955.51   84.16
  -2   4   6 1556.27   84.55
  -2   4   6 1208.82   94.61
  -2   4   6 1150.06   88.00
  -2   4   6 1490.49  103.41
  -2   4   6 1308.89   81.45
   2   4  -6 1245.34  109.67
   2   4  -5  489.02   46.15
   2   4  -5  357.14   45.49
   2   4  -5  363.80   36.22
   2   4  -5  430.89   46.94
  -2   4   5  479.29   50.61
   2   4  -5  434.15   50.32
   2   4  -5  459.34   36.41
  -2   4   5  370.50   44.38
   2   4  -5  458.21   59.35
  -2   4   5  367.81   41.03
  -2   4   5  413.42   38.03
   2   4  -5  449.33   53.79
   2   4  -5  413.01   53.93
  -2   4   5  336.34   35.15
  -2   4   5  486.46   45.19
   2   4  -5  400.68   46.16
  -2   4   5  400.50   42.24
  -2   4   5  500.71   52.15
  -2   4   5  400.17   41.15
   2   4  -5  343.68   38.60
  -2   4   5  369.72   37.15
   2   4  -4  275.45   29.58
   2   4  -4  264.83   34.09
   2   4  -4  253.75   31.04
   2   4  -4  204.89   29.86
   2   4  -4  244.83   24.72
   2   4  -4  165.60   29.02
  -2   4   4  281.24   34.84
  -2   4   4  164.42   26.75
  -2   4   4  225.63   30.58
  -2   4   4  206.30   24.54
   2   4  -4  217.37   32.87
   2   4  -4  313.81   44.14
  -2   4   4  271.29   27.95
   2   4  -4  228.37   31.39
  -2   4   4  271.72   31.48
  -2   4   4  234.76   27.09
  -2   4   4  280.54   35.28
  -2   4   4  197.82   27.63
   2   4  -4  174.51   24.96
   2   4  -4  265.59   39.78
   2   4  -3  654.31   53.83
   2   4  -3  742.55   54.77
   2   4  -3  676.91   50.70
  -2   4   3  930.05   62.26
  -2   4   3  870.20   59.15
   2   4  -3  675.03   53.22
  -2   4   3  884.20   59.20
  -2   4   3  765.83   48.63
  -2   4   3  813.33   55.31
   2   4  -3  732.18   49.83
  -2   4   3  803.28   51.15
  -2   4   3  881.39   60.80
   2   4  -3  684.95   57.87
   2   4  -3  706.20   61.35
   2   4  -2 3176.38  153.52
   2   4  -2 3194.51  149.63
   2   4  -2 2827.93  144.41
  -2   4   2 4602.44  168.92
  -2   4   2 4543.89  165.88
  -2   4   2 4823.83  169.68
   2   4  -2 3188.87  150.15
  -2   4   2 3845.09  150.49
  -2   4   2 4926.49  169.21
  -2   4   2 4294.42  158.99
   2   4  -2 3094.67  157.71
  -2   4   2 4344.57  169.62
   2   4  -2 3845.21  168.87
  -2   4   1  765.18   52.37
  -2   4   1  686.43   43.35
  -2   4   1  853.11   50.56
  -2   4   1  853.53   52.16
   2   4  -1  573.73   40.97
   2   4  -1  660.99   51.65
  -2   4   1  788.53   50.16
  -2   4   1  764.54   54.71
   2   4  -1  545.93   44.78
  -2   4   1  867.25   52.88
   2   4  -1  482.69   46.08
  -2   4   0  235.30   25.93
  -2   4   0  263.72   28.25
  -2   4   0  224.36   22.64
  -2   4   0  258.98   26.53
   2   4   0  198.70   20.29
  -2   4   0  253.70   28.12
  -2   4   0  195.88   23.53
  -2   4   0  251.88   27.73
   2   4   0  234.87   29.78
   2   4   0  142.95   22.12
  -2   4  -1 1728.88   79.83
  -2   4  -1 1643.97   82.30
   2   4   1 1435.57   73.16
  -2   4  -1 1670.90   79.03
   2   4   1 1318.59   73.86
  -2   4  -1 1781.29   89.16
  -2   4  -1 1515.02   82.80
   2   4   1 1486.88   91.32
  -2   4  -1 1720.28   82.44
  -2   4  -2 2071.06   98.07
  -2   4  -2 2240.63   99.17
   2   4   2 2018.31   99.22
  -2   4  -2 2080.88  102.52
  -2   4  -2 2072.20  106.37
  -2   4  -2 2112.91  105.88
   2   4   2 2201.27  119.47
  -2   4  -2 2200.35  100.32
   2   4   3  834.68   61.80
  -2   4  -3 1180.61   65.55
   2   4   3 1190.54   73.18
  -2   4  -3 1162.14   65.78
  -2   4  -3 1073.55   65.86
  -2   4  -3 1139.48   72.56
   2   4   3  769.57   56.62
  -2   4  -3 1205.89   69.32
   2   4   3  910.42   63.67
   2   4   3 1134.79   73.06
   2   4   3  916.54   59.49
  -2   4  -3  827.86   59.80
  -2   4  -3 1130.26   75.90
  -2   4  -3  953.85   67.22
  -2   4  -3  980.17   61.89
  -2   4  -3 1132.08   66.42
   2   4   3  849.52   61.18
  -2   4  -4  257.80   31.15
  -2   4  -4  198.12   25.54
   2   4   4  289.08   34.88
  -2   4  -4  215.75   28.44
   2   4   4  261.84   33.23
  -2   4  -4  248.20   35.81
   2   4   4  237.83   29.44
  -2   4  -4  220.65   27.22
   2   4   4  266.49   38.39
   2   4   4  199.09   29.68
  -2   4  -4  195.58   25.54
  -2   4  -4  183.34   31.96
  -2   4  -4  261.97   33.20
  -2   4  -4  232.27   29.76
  -2   4  -4  217.37   29.77
   2   4   4  249.93   37.90
  -2   4  -5  538.04   49.58
   2   4   5  498.46   46.07
  -2   4  -5  529.53   45.16
  -2   4  -5  604.56   51.25
  -2   4  -5  474.87   46.94
   2   4   5  559.71   51.03
   2   4   5  327.98   49.06
   2   4   5  481.08   52.16
   2   4   5  456.82   45.45
  -2   4  -5  340.18   49.16
  -2   4  -5  544.68   46.26
  -2   4  -5  451.20   50.54
   2   4   5  590.50   54.37
   2   4   5  476.30   56.72
  -2   4  -5  565.06   60.04
  -2   4  -5  461.10   45.60
   2   4   5  526.54   68.91
  -2   4  -5  451.16   45.76
  -2   4  -5  551.76   50.59
   2   4   5  399.71   51.27
  -2   4  -6  894.68   68.68
  -2   4  -6  803.49   60.56
  -2   4  -6  882.61   68.69
  -2   4  -6  742.26   58.18
  -2   4  -6 1089.32   91.50
  -2   4  -6  855.08   68.11
   2   4   6  800.92   70.49
  -2   4  -6  677.06   72.54
  -2   4  -6  779.45   60.98
  -2   4  -6  697.75   70.05
   2   4   6  744.74   75.80
   2   4   6  926.75   95.03
  -2   4  -6  831.65   67.57
   2   4   6  872.15   66.85
  -2   4  -7  115.51   25.41
  -2   4  -7  109.65   21.33
  -2   4  -7  130.70   27.26
  -2   4  -7   90.30   20.88
  -2   4  -7  109.64   24.87
   2   4   7   88.35   22.10
   2   4   7   72.50   21.84
  -2   4  -7  115.75   24.50
  -2   4  -7  119.80   23.21
   2   4   7   99.22   22.59
  -2   4  -8  344.31   36.53
  -2   4  -8  288.91   33.99
  -2   4  -8  250.68   37.00
   2   4   8  270.57   33.55
  -2   4  -8  328.05   38.04
   2   4   8  341.47   37.54
  -2   4  -8  388.00   40.13
   2   4   8  390.49   48.26
  -2   4  -8  263.13   30.41
   2   4   8  358.30   37.54
   2   4   9  339.09   36.25
   2   4   9  337.70   31.15
  -2   4  -9  223.69   26.19
   2   4   9  309.73   29.87
  -2   5  10   38.91    8.91
   2   5 -10   38.73    9.89
  -2   5   9   36.00   11.66
   2   5  -9   16.14   10.16
  -2   5   9   35.92   11.75
   2   5  -9   14.65   11.84
   2   5  -8  271.41   40.23
  -2   5   8  316.26   35.54
   2   5  -8  334.30   44.85
  -2   5   8  337.78   36.17
   2   5  -8  320.02   47.18
   2   5  -7  662.32   65.71
   2   5  -7  705.18   69.57
  -2   5   7  859.31   61.57
  -2   5   7  613.19   55.34
   2   5  -7  932.62   84.39
  -2   5   7  600.87   52.63
  -2   5   7  698.85   56.23
  -2   5   7  845.28   58.69
   2   5  -7  764.16   79.71
  -2   5   7  833.90   63.20
   2   5  -6  184.65   28.02
   2   5  -6  276.15   42.29
  -2   5   6  247.70   31.84
  -2   5   6  280.13   41.72
  -2   5   6  244.71   35.21
   2   5  -6  298.17   50.88
  -2   5   6  272.21   32.25
  -2   5   6  215.86   28.96
  -2   5   6  223.25   36.30
  -2   5   6  216.20   38.48
  -2   5   6  207.47   29.36
   2   5  -6  208.26   41.85
  -2   5   6  215.96   30.77
   2   5  -5  352.98   46.45
   2   5  -5  420.85   36.07
   2   5  -5  396.21   49.59
  -2   5   5  389.68   49.04
  -2   5   5  386.67   38.43
  -2   5   5  477.33   51.11
  -2   5   5  435.35   47.01
  -2   5   5  434.31   41.68
  -2   5   5  408.14   37.67
  -2   5   5  435.07   42.35
  -2   5   5  444.04   48.84
  -2   5   5  461.70   53.16
  -2   5   5  394.95   42.95
  -2   5   5  312.41   31.64
   2   5  -5  427.70   56.70
  -2   5   5  436.73   42.61
  -2   5   4 1717.97   92.09
  -2   5   4 1657.48   92.11
   2   5  -4 1437.66   99.69
  -2   5   4 1984.17  109.14
   2   5  -4 1804.74  104.75
   2   5  -4 1548.43   88.71
   2   5  -4 1730.59   82.06
  -2   5   4 1895.40  110.41
  -2   5   4 1783.62  105.21
  -2   5   4 1582.17   99.55
  -2   5   4 1413.03   83.07
  -2   5   4 1710.39   90.81
   2   5  -4 2270.11  136.54
   2   5  -4 1736.55  101.98
  -2   5   4 1287.91   80.19
  -2   5   4 2098.66  100.76
  -2   5   4 1967.92  104.03
  -2   5   4 2145.89  113.35
  -2   5   4 1521.49   94.36
   2   5  -4 1846.77  116.96
  -2   5   3  369.12   34.55
   2   5  -3  288.57   37.02
  -2   5   3  340.57   31.51
   2   5  -3  323.91   35.66
   2   5  -3  356.17   33.86
  -2   5   3  260.08   25.51
  -2   5   3  386.47   41.34
  -2   5   3  293.33   30.12
  -2   5   3  341.19   39.06
   2   5  -3  406.61   51.35
   2   5  -3  261.38   33.91
  -2   5   3  371.45   31.00
  -2   5   3  374.22   38.42
  -2   5   3  369.68   36.03
  -2   5   3  377.83   40.67
  -2   5   3  299.83   31.86
   2   5  -3  351.36   42.33
  -2   5   3  337.75   37.43
   2   5  -3  366.12   43.40
   2   5  -2    8.00    7.83
   2   5  -2   30.00    9.15
  -2   5   2    7.24    5.27
  -2   5   2   12.00    8.66
  -2   5   2    8.34    5.94
  -2   5   2   10.43    8.93
  -2   5   2    9.27    7.41
   2   5  -2    5.37   11.18
  -2   5   2    9.69    5.48
  -2   5   2   13.16    8.11
   2   5  -2    9.49    8.76
   2   5  -2   12.70    8.22
   2   5  -2    9.39    9.11
  -2   5   2   11.95    7.88
   2   5  -2   14.12    9.93
  -2   5   1  747.39   49.33
   2   5  -1  498.35   47.29
   2   5  -1  590.99   51.72
   2   5  -1  558.52   52.91
  -2   5   1  786.13   54.49
  -2   5   1  679.70   43.47
  -2   5   1  827.83   56.87
   2   5  -1  643.09   57.99
  -2   5   1  859.21   53.82
  -2   5   1  898.07   57.94
  -2   5   1  811.84   55.13
   2   5  -1  624.74   51.09
  -2   5   1  872.51   58.08
  -2   5   0 3031.23  118.49
   2   5   0 2132.03  117.57
   2   5   0 2280.33  121.31
  -2   5   0 2770.26  125.15
  -2   5   0 2652.71  113.14
  -2   5   0 3294.15  131.26
  -2   5   0 3103.44  131.24
  -2   5   0 2750.49  132.48
   2   5   0 2396.01  127.31
   2   5   0 1607.84  113.35
  -2   5   0 3189.29  131.29
   2   5   1  661.77   53.97
  -2   5  -1  948.38   54.93
   2   5   1  789.31   58.47
   2   5   1  582.62   49.20
  -2   5  -1  723.92   53.66
  -2   5  -1  813.18   57.77
   2   5   1  674.97   60.04
  -2   5  -1  823.08   51.59
  -2   5  -1  874.72   56.93
  -2   5  -1  898.41   58.74
  -2   5  -1  725.21   55.80
  -2   5  -1  853.53   58.17
  -2   5  -1  747.11   61.82
  -2   5  -1  799.55   55.12
   2   5   2  596.96   46.69
  -2   5  -2  997.71   59.06
   2   5   2  895.36   64.06
  -2   5  -2  934.17   62.59
  -2   5  -2  832.22   61.74
  -2   5  -2  883.37   63.26
  -2   5  -2  852.71   55.71
   2   5   2  592.55   44.33
   2   5   2  630.56   49.32
  -2   5  -2  990.65   56.47
  -2   5  -2  650.70   51.63
   2   5   2  681.86   49.90
  -2   5  -2  863.55   64.02
  -2   5  -2  901.83   63.56
  -2   5  -2  952.71   60.99
  -2   5  -2  739.27   65.17
   2   5   2  853.62   71.79
  -2   5  -2  880.25   61.07
   2   5   3  789.06   62.70
   2   5   3  868.32   76.29
  -2   5  -3 1145.18   71.36
  -2   5  -3 1136.78   65.60
   2   5   3 1184.58   76.87
  -2   5  -3 1097.35   71.09
  -2   5  -3 1036.59   74.04
   2   5   3  706.79   55.95
  -2   5  -3 1079.81   60.07
  -2   5  -3  799.80   52.73
  -2   5  -3 1090.31   69.84
   2   5   3  808.67   58.90
   2   5   3  952.18   66.70
   2   5   3  937.41   61.86
  -2   5  -3  785.31   56.84
  -2   5  -3 1019.21   75.33
  -2   5  -3 1037.81   71.44
   2   5   3 1126.92   91.07
  -2   5  -3  965.10   63.07
  -2   5  -3  781.77   63.61
   2   5   4 1548.32   95.05
  -2   5  -4 1859.29   88.98
   2   5   4 2182.31  114.30
  -2   5  -4 1829.61   97.02
  -2   5  -4 1440.53   92.36
  -2   5  -4 1233.19   96.72
  -2   5  -4 1939.31  105.77
   2   5   4 1500.60   91.51
  -2   5  -4 1731.99   89.10
  -2   5  -4 1511.47   98.55
   2   5   4 1366.68   94.62
  -2   5  -4 1615.74  108.78
  -2   5  -4 1736.56   99.74
   2   5   4 2016.24  136.77
  -2   5  -4 1549.74   94.51
   2   5   4 1761.29  119.60
  -2   5  -4 1731.68  102.09
   2   5   5   46.18   15.30
  -2   5  -5   93.36   16.34
   2   5   5   69.40   25.32
  -2   5  -5   55.75   23.56
  -2   5  -5   91.96   24.32
  -2   5  -5   56.55   20.67
  -2   5  -5   69.14   18.26
  -2   5  -5   50.31   18.90
   2   5   5   58.81   16.99
  -2   5  -5   68.19   15.96
   2   5   5   62.34   19.82
  -2   5  -5   73.01   23.34
  -2   5  -5   79.03   17.31
  -2   5  -5   53.66   18.28
   2   5   5   66.62   28.12
  -2   5  -5   86.78   21.71
  -2   5  -5   59.14   18.58
   2   5   6  205.77   41.58
  -2   5  -6  238.29   35.74
  -2   5  -6  181.35   26.30
  -2   5  -6  250.20   43.69
  -2   5  -6  142.08   35.32
  -2   5  -6  199.11   28.13
   2   5   6  183.89   32.16
  -2   5  -6  209.42   33.68
  -2   5  -6  225.08   33.74
  -2   5  -6  171.15   29.38
   2   5   6  193.56   30.44
   2   5   7  481.67   57.46
  -2   5  -7  401.43   44.61
  -2   5  -7  301.57   40.82
  -2   5  -7  404.27   45.73
  -2   5  -7  448.37   45.60
  -2   5  -7  357.39   39.39
   2   5   7  367.57   41.06
  -2   5  -8  120.37   18.60
  -2   5  -8  191.50   24.87
  -2   5  -8   99.94   22.79
  -2   5  -8  132.64   22.57
   2   5   8  144.69   22.31
   2   5   9    7.16    6.53
  -2   5  -9    2.97    4.23
   2   5   9    1.27    5.01
  -2   6   9  386.79   30.84
   2   6  -9  238.89   28.50
  -2   6   9  381.93   31.10
   2   6  -9  290.89   31.89
  -2   6   8    2.10    6.78
   2   6  -8    3.45   11.46
   2   6  -8   17.84   13.08
   2   6  -7  201.15   35.30
  -2   6   7  247.09   31.34
  -2   6   7  208.78   31.06
   2   6  -7  285.49   46.76
  -2   6   7  231.02   29.31
   2   6  -7  188.59   36.84
   2   6  -6  585.60   63.34
   2   6  -6  562.17   60.13
  -2   6   6  501.15   58.02
  -2   6   6  691.72   52.85
  -2   6   6  581.05   63.85
  -2   6   6  563.35   49.39
   2   6  -6  391.82   56.31
  -2   6   6  677.69   56.94
   2   6  -5  587.08   64.20
   2   6  -5  495.31   57.31
  -2   6   5  522.07   51.32
  -2   6   5  738.84   64.44
   2   6  -5  655.47   77.82
   2   6  -5  651.31   52.39
  -2   6   5  742.04   54.45
  -2   6   5  539.03   58.26
  -2   6   5  721.61   65.23
  -2   6   5  759.31   69.77
  -2   6   5  728.11   58.95
   2   6  -5  684.72   70.09
  -2   6   4  100.66   20.49
   2   6  -4   72.93   22.53
  -2   6   4  113.18   19.99
   2   6  -4   81.12   21.63
   2   6  -4  100.22   19.28
  -2   6   4   77.47   16.66
  -2   6   4   77.94   21.78
  -2   6   4   78.97   18.00
   2   6  -4  117.35   33.86
  -2   6   4   99.68   17.88
  -2   6   4   85.98   21.97
  -2   6   4   84.98   17.07
  -2   6   4  105.89   24.30
  -2   6   4   95.67   22.08
   2   6  -4   74.44   23.78
  -2   6   4   97.04   21.73
   2   6  -4  111.62   26.97
  -2   6   4  100.44   21.10
  -2   6   3  522.52   45.94
  -2   6   3  467.71   43.84
   2   6  -3  435.04   48.30
  -2   6   3  499.22   42.57
   2   6  -3  471.62   45.31
  -2   6   3  471.27   43.57
  -2   6   3  515.90   49.59
  -2   6   3  383.91   38.32
  -2   6   3  487.73   42.33
   2   6  -3  578.02   65.34
  -2   6   3  516.67   50.81
  -2   6   3  444.90   45.27
  -2   6   3  489.17   48.80
   2   6  -3  410.60   50.64
   2   6  -3  396.31   46.56
  -2   6   2 1324.77   75.07
   2   6  -2  974.28   66.25
  -2   6   2  973.42   57.83
   2   6  -2  966.97   70.43
   2   6  -2 1075.18   69.58
  -2   6   2 1327.86   72.68
   2   6  -2 1206.66   75.53
   2   6  -2  779.30   58.64
  -2   6   2 1416.53   76.07
  -2   6   2 1254.03   74.16
  -2   6   2 1393.27   85.40
   2   6  -2 1227.86   92.38
  -2   6   2 1352.55   79.42
  -2   6   2 1273.84   79.66
   2   6  -2  859.04   78.09
   2   6  -2  818.78   73.15
   2   6  -2  982.19   72.34
  -2   6   1  919.92   52.84
   2   6  -1  618.55   54.23
  -2   6   1  782.03   61.89
   2   6  -1  813.94   58.68
  -2   6   1  877.73   57.87
   2   6  -1  645.71   55.72
   2   6  -1  582.04   55.10
  -2   6   1  811.17   61.03
   2   6  -1  625.81   51.60
  -2   6   1  885.21   60.12
  -2   6   1  777.85   46.79
   2   6  -1  784.07   68.64
  -2   6   1 1021.64   66.55
  -2   6   1  920.30   64.08
  -2   6   1  990.54   62.07
   2   6  -1  736.50   60.25
   2   6  -1  675.69   63.24
  -2   6   1 1024.18   68.16
   2   6  -1  704.74   56.58
   2   6   0  162.71   22.35
   2   6   0  172.86   28.96
  -2   6   0  259.73   27.53
  -2   6   0  200.75   30.22
   2   6   0  217.01   30.42
  -2   6   0  234.86   28.00
  -2   6   0  253.12   30.36
  -2   6   0  244.52   30.16
  -2   6   0  209.18   23.53
  -2   6   0  228.92   23.93
  -2   6   0  224.81   28.06
   2   6   0  192.54   31.07
  -2   6   0  232.65   29.89
  -2   6   0  259.00   33.09
   2   6   0  183.39   28.90
  -2   6   0  240.75   31.85
   2   6   0  123.44   25.22
  -2   6   0  222.53   26.95
   2   6   0  183.83   26.88
   2   6   1  580.44   46.35
   2   6   1  604.17   54.58
  -2   6  -1  911.61   56.46
  -2   6  -1  734.54   54.50
  -2   6  -1  801.12   49.89
   2   6   1  708.30   58.56
  -2   6  -1  703.98   54.44
  -2   6  -1  800.14   59.16
  -2   6  -1  700.44   49.85
   2   6   1  557.47   56.32
  -2   6  -1  749.65   55.45
   2   6   1  526.26   44.32
  -2   6  -1  704.96   60.70
  -2   6  -1  790.62   60.97
   2   6   1  546.67   52.01
   2   6   1  797.63   58.72
   2   6   2  729.78   55.09
  -2   6  -2 1079.66   66.80
   2   6   2 1006.25   71.83
  -2   6  -2  923.88   59.15
  -2   6  -2  755.64   60.62
  -2   6  -2  782.90   63.85
  -2   6  -2 1094.89   71.64
  -2   6  -2  912.76   68.89
  -2   6  -2  909.24   51.68
  -2   6  -2  898.64   62.93
  -2   6  -2  704.41   55.22
   2   6   2  722.61   55.86
  -2   6  -2  787.33   64.52
   2   6   2  807.62   73.48
  -2   6  -2 1025.67   71.89
  -2   6  -2  815.33   69.39
  -2   6  -2  932.54   66.56
   2   6   3    1.51    6.90
  -2   6  -3    3.57    9.02
   2   6   3   10.29    9.98
  -2   6  -3    6.33    7.91
  -2   6  -3    9.94   12.24
  -2   6  -3   10.40   10.47
  -2   6  -3    6.91    8.00
  -2   6  -3    4.42    7.53
   2   6   3   17.25    7.19
  -2   6  -3    3.86    7.62
   2   6   3   15.40    8.75
  -2   6  -3   14.27   10.85
  -2   6  -3   11.16   12.73
  -2   6  -3   11.07    9.54
  -2   6  -3    1.54    9.93
   2   6   3   -3.76    7.00
   2   6   3    2.49   12.73
  -2   6  -3    9.93    9.99
   2   6   4  377.75   42.78
  -2   6  -4  282.21   34.35
  -2   6  -4  425.44   42.03
  -2   6  -4  334.29   43.34
  -2   6  -4  270.32   42.72
  -2   6  -4  389.97   46.74
  -2   6  -4  420.55   46.75
   2   6   4  284.73   35.35
  -2   6  -4  345.90   46.33
  -2   6  -4  344.36   33.69
  -2   6  -4  366.10   44.68
  -2   6  -4  388.54   44.35
   2   6   4  239.96   35.89
  -2   6  -4  353.00   46.55
  -2   6  -4  316.68   39.35
   2   6   4  382.91   57.46
   2   6   4  491.96   51.48
  -2   6  -5 1224.91   82.32
   2   6   5  953.49   70.14
  -2   6  -5  743.04   56.51
  -2   6  -5 1100.48   75.42
  -2   6  -5 1324.11   99.44
  -2   6  -5 1142.73   84.15
   2   6   5  888.57   68.08
  -2   6  -5  988.61   63.69
  -2   6  -5  888.96   79.09
   2   6   5 1166.15   81.79
  -2   6  -5 1046.71   87.08
  -2   6  -5  975.55   77.29
   2   6   5  778.90   88.91
  -2   6  -5  692.19   73.46
  -2   6  -6  190.88   30.94
  -2   6  -6  230.68   34.56
   2   6   6  209.29   33.28
  -2   6  -6  202.34   33.71
  -2   6  -6  245.96   33.62
   2   6   6  241.93   33.34
  -2   6  -7   -1.36    9.60
   2   6   7    7.03    9.31
  -2   6  -7   13.47   10.65
  -2   6  -7    9.03    9.11
   2   6   7   13.29   11.14
  -2   6  -7   24.04   12.08
   2   6   7    8.24    9.11
  -2   6  -8  260.96   27.67
   2   6   8  239.25   26.72
  -2   6  -8  209.24   21.94
   2   6   8  256.96   26.80
   2   7  -9    6.50    4.85
  -2   7   9   14.82    5.15
  -2   7   9    8.07    5.00
  -2   7   8  445.61   35.18
   2   7  -8  479.95   46.84
  -2   7   8  407.28   33.43
   2   7  -8  356.30   35.46
  -2   7   7  576.61   45.01
  -2   7   7  658.83   47.40
   2   7  -7  489.78   50.75
  -2   7   6   31.64   13.96
   2   7  -6   44.04   18.82
  -2   7   6   46.33   14.63
   2   7  -6   26.85   20.80
  -2   7   6   25.08   11.53
   2   7  -6   19.93   14.65
  -2   7   5   49.97   16.14
   2   7  -5   43.17   20.81
   2   7  -5   52.00   15.16
  -2   7   5   62.41   16.52
  -2   7   5   61.36   17.58
   2   7  -5   53.48   26.76
  -2   7   5   70.34   16.34
  -2   7   5   89.23   21.31
  -2   7   5   61.84   17.88
   2   7  -5   57.00   20.20
  -2   7   4  625.89   53.53
   2   7  -4  423.21   53.04
  -2   7   4  659.97   53.56
   2   7  -4  434.66   47.84
  -2   7   4  485.25   45.29
  -2   7   4  639.66   53.32
   2   7  -4  752.31   81.84
  -2   7   4  690.63   50.00
  -2   7   4  642.02   63.04
  -2   7   4  538.35   51.26
   2   7  -4  592.91   65.03
  -2   7   4  639.74   58.44
  -2   7   4  624.19   56.60
   2   7  -4  536.99   55.65
  -2   7   3 1160.74   76.80
   2   7  -3  948.50   77.54
  -2   7   3 1164.33   74.55
  -2   7   3 1076.07   78.86
   2   7  -3 1290.02   84.92
  -2   7   3 1170.85   75.02
   2   7  -3 1304.58  105.76
  -2   7   3 1176.56   67.93
  -2   7   3 1281.55   87.54
  -2   7   3 1180.74   73.06
   2   7  -3 1067.37   90.24
  -2   7   3 1207.77   84.24
   2   7  -3  890.13   73.51
  -2   7   2   30.65   12.19
  -2   7   2   31.31   11.44
   2   7  -2   32.71   10.59
  -2   7   2   27.21   11.48
  -2   7   2   35.66   10.54
   2   7  -2   18.72   16.04
  -2   7   2   25.74   11.22
  -2   7   2   31.42   14.14
  -2   7   2   25.64   12.95
  -2   7   2   26.54   13.67
  -2   7   2   31.24   12.09
   2   7  -2   17.56   13.74
   2   7  -2    9.00   13.12
   2   7  -2   15.72    7.69
  -2   7   1 1462.52   81.30
  -2   7   1 1192.45   76.87
   2   7  -1 1003.84   77.65
  -2   7   1 1065.43   65.03
  -2   7   1 1362.06   79.72
  -2   7   1 1284.81   76.35
   2   7  -1  912.21   69.07
  -2   7   1 1367.01   79.20
   2   7  -1 1072.22   87.33
  -2   7   1 1482.47   88.58
   2   7  -1  996.43   69.66
  -2   7   1 1380.10   87.59
  -2   7   1 1188.11   82.37
  -2   7   1 1477.70   84.21
   2   7  -1 1153.85   82.06
   2   7  -1 1044.33   89.25
  -2   7   1 1471.33   91.61
  -2   7   1 1237.15   81.38
  -2   7   1 1258.60   73.56
   2   7   0 1302.96   80.36
   2   7   0 1416.42   94.19
  -2   7   0 1680.07   84.84
  -2   7   0 1771.95   93.11
   2   7   0 1433.06   93.57
  -2   7   0 1523.93   91.71
  -2   7   0 1404.60   85.78
  -2   7   0 1621.62   91.34
   2   7   0 1270.87   92.78
  -2   7   0 1646.11   93.34
  -2   7   0 1545.55   95.18
  -2   7   0 1597.36   97.66
   2   7   0 1040.91   80.62
  -2   7   0 1818.72   97.62
  -2   7   0 1685.45  100.72
   2   7   0  916.14   85.29
  -2   7   0 1464.31   84.91
   2   7   1  110.17   20.13
  -2   7  -1  134.64   23.29
  -2   7  -1   87.98   15.74
   2   7   1  140.44   26.41
   2   7   1   96.54   24.01
  -2   7  -1  130.16   24.08
  -2   7  -1  119.61   23.11
  -2   7  -1   68.71   14.39
  -2   7  -1  110.20   21.35
   2   7   1   96.46   18.42
  -2   7  -1  140.09   28.18
  -2   7  -1  111.02   23.71
   2   7   1  120.68   22.90
   2   7   1  126.95   24.06
  -2   7  -1  109.43   21.79
   2   7   2   32.92   11.95
  -2   7  -2   30.45   13.25
  -2   7  -2   31.11   11.52
  -2   7  -2   16.49   11.35
   2   7   2   27.92   14.38
  -2   7  -2   17.28   10.18
  -2   7  -2   24.95   13.98
  -2   7  -2   58.32   14.22
  -2   7  -2   42.31   15.83
  -2   7  -2   20.42   12.91
   2   7   2   25.23   11.00
  -2   7  -2   23.79   11.01
  -2   7  -2   38.55   15.79
   2   7   2   44.58   15.36
  -2   7  -2   36.29   16.84
   2   7   3 1037.07   80.74
  -2   7  -3 1156.00   80.94
  -2   7  -3 1121.62   74.63
   2   7   3 1550.22   95.40
  -2   7  -3 1259.76   75.71
  -2   7  -3 1171.11   84.85
  -2   7  -3 1136.02   87.02
  -2   7  -3  882.31   76.42
   2   7   3 1003.96   70.50
   2   7   3 1131.75   75.39
  -2   7  -3 1092.68   81.03
  -2   7  -3 1213.86   83.62
  -2   7  -3  937.62   78.67
  -2   7  -3 1285.63   89.46
   2   7   3 1155.84   94.21
  -2   7  -3 1461.35   96.99
   2   7   4  489.95   50.87
  -2   7  -4  416.59   41.24
   2   7   4  681.96   60.61
  -2   7  -4  474.11   46.03
   2   7   4  444.28   58.64
  -2   7  -4  497.77   52.97
  -2   7  -4  378.93   51.74
  -2   7  -4  396.13   49.55
   2   7   4  368.06   42.40
   2   7   4  549.77   52.47
  -2   7  -4  478.66   47.50
  -2   7  -4  468.09   53.18
  -2   7  -4  664.36   61.38
  -2   7  -4  487.40   50.32
  -2   7  -5  100.94   17.86
  -2   7  -5  124.36   23.97
   2   7   5  105.13   21.94
  -2   7  -5  125.60   26.51
  -2   7  -5  106.51   25.31
   2   7   5  111.25   23.29
  -2   7  -6   58.98   17.77
  -2   7  -6   51.46   16.36
  -2   7  -6   60.03   18.41
   2   7   6   67.15   17.26
  -2   7  -6   84.10   18.51
   2   7   6   79.64   18.53
  -2   7  -7  299.62   37.30
   2   7   7  426.61   34.41
   2   7   7  320.34   32.02
  -2   7  -7  365.68   32.79
   2   7   7  387.32   34.75
  -2   7  -8   61.59   10.44
   2   7   8   38.42    8.94
   2   7   8   50.14   10.13
   2   8  -8    7.38    6.45
  -2   8   8   22.23    6.79
   2   8  -8   21.09    9.54
  -2   8   8   18.03    5.94
   2   8  -7   38.35   14.73
  -2   8   7  106.24   15.99
   2   8  -7  113.19   25.88
  -2   8   7   84.35   14.24
  -2   8   7   99.25   15.71
   2   8  -6  371.50   45.00
   2   8  -6  424.40   41.08
  -2   8   6  665.45   46.03
   2   8  -6  757.53   71.80
  -2   8   6  572.49   42.35
  -2   8   6  619.66   46.20
  -2   8   6  663.53   52.69
  -2   8   5  318.77   34.58
   2   8  -5  225.79   36.05
  -2   8   5  343.75   37.87
  -2   8   5  347.63   34.29
   2   8  -5  277.10   48.45
  -2   8   5  299.20   30.93
   2   8  -5  245.66   32.57
  -2   8   5  330.47   39.43
  -2   8   4   41.74   14.14
   2   8  -4    5.46    9.32
  -2   8   4   28.42   11.18
   2   8  -4   27.10   20.05
  -2   8   4   28.63   10.36
  -2   8   4   41.97   14.14
  -2   8   4   25.64   12.95
  -2   8   3 1112.49   73.61
  -2   8   3 1196.26   75.51
   2   8  -3  828.16   73.01
  -2   8   3  783.11   58.54
  -2   8   3 1093.05   81.15
   2   8  -3 1120.43   96.41
  -2   8   3  924.58   57.91
  -2   8   3  968.88   79.48
  -2   8   3 1098.51   80.76
  -2   8   3 1148.56   69.40
  -2   8   3 1069.12   74.01
  -2   8   3 1045.16   73.57
  -2   8   2  313.33   36.75
   2   8  -2  326.98   36.45
   2   8  -2  227.32   33.70
  -2   8   2  400.76   41.42
  -2   8   2  335.89   37.80
   2   8  -2  309.81   41.28
  -2   8   2  381.04   40.49
  -2   8   2  338.77   37.31
   2   8  -2  301.66   46.63
  -2   8   2  381.82   45.40
  -2   8   2  366.40   44.56
  -2   8   2  301.65   35.82
   2   8  -2  304.03   43.81
  -2   8   2  381.73   46.06
  -2   8   2  377.05   43.49
   2   8  -1  523.49   47.15
  -2   8   1  539.53   48.76
   2   8  -1  482.08   51.53
  -2   8   1  585.59   51.34
  -2   8   1  548.01   47.05
  -2   8   1  580.79   47.04
   2   8  -1  358.56   40.21
  -2   8   1  551.16   49.07
  -2   8   1  626.22   50.24
   2   8  -1  483.73   55.47
  -2   8   1  623.58   57.31
  -2   8   1  624.36   58.64
  -2   8   1  564.63   53.59
  -2   8   1  591.81   52.57
   2   8  -1  411.76   56.17
  -2   8   1  641.99   51.93
  -2   8   0   42.74   12.83
   2   8   0   30.29   11.90
  -2   8   0   39.00   11.72
   2   8   0   20.32   14.66
  -2   8   0   73.05   18.00
  -2   8   0   38.14   13.61
   2   8   0   34.29   15.83
  -2   8   0   51.59   13.57
  -2   8   0   55.58   14.25
  -2   8   0   53.85   14.74
  -2   8   0   47.28   16.65
  -2   8   0   51.20   15.54
  -2   8   0   45.59   16.03
  -2   8   0   50.14   19.47
   2   8   0   15.00   13.00
  -2   8   0   26.13   12.00
  -2   8   0   45.73   12.91
   2   8   1  104.62   20.99
  -2   8  -1  100.67   20.48
   2   8   1  115.94   27.89
  -2   8  -1  111.54   19.99
  -2   8  -1  129.22   23.91
  -2   8  -1  128.95   22.92
  -2   8  -1  110.00   19.60
  -2   8  -1  141.94   27.98
  -2   8  -1  140.11   24.29
  -2   8  -1  126.17   26.32
  -2   8  -1  134.79   28.65
  -2   8  -1  161.41   26.58
   2   8   2 1032.27   70.45
  -2   8  -2 1238.94   78.64
  -2   8  -2 1004.86   74.38
  -2   8  -2  907.68   68.74
   2   8   2 1465.40   90.09
  -2   8  -2 1211.02   89.91
  -2   8  -2 1226.52   81.09
  -2   8  -2 1027.33   79.91
  -2   8  -2  867.97   60.87
  -2   8  -2  876.38   74.34
  -2   8  -2 1152.41   78.12
   2   8   3   34.72   15.52
  -2   8  -3   34.74   15.06
   2   8   3   20.42   14.82
  -2   8  -3   30.88    9.80
  -2   8  -3   17.90   10.96
   2   8   3   32.54   15.66
  -2   8  -3   39.09   15.80
  -2   8  -3   40.17    9.32
  -2   8  -3   47.26   14.20
  -2   8  -3   25.95   15.28
  -2   8  -3   36.45   17.54
  -2   8  -3   26.60   13.40
  -2   8  -4  233.67   33.79
  -2   8  -4  235.81   28.64
  -2   8  -4  167.71   27.09
  -2   8  -4  204.36   31.60
  -2   8  -4  239.70   35.91
  -2   8  -4  164.08   31.87
  -2   8  -4  233.54   32.92
   2   8   4  317.40   38.04
  -2   8  -5  328.56   39.84
   2   8   5  343.33   35.27
  -2   8  -5  416.87   42.53
  -2   8  -5  336.36   43.81
  -2   8  -6  116.14   17.44
   2   8   6  206.43   27.42
  -2   8  -6  187.46   25.41
  -2   8  -6  156.52   22.83
  -2   8  -7   29.66    8.25
   2   8   7   18.24    7.75
  -2   8  -7   21.98    7.77
   2   8   7   25.33    8.57
   2   9  -7   68.27   12.82
  -2   9   7   63.15    9.63
   2   9  -7   93.73   17.06
  -2   9   7  103.54   11.71
   2   9  -6   62.00   15.61
  -2   9   6   82.41   13.03
   2   9  -6   72.02   20.69
  -2   9   6   94.88   14.86
  -2   9   5  147.51   21.19
  -2   9   5  141.91   18.56
   2   9  -5  152.74   31.06
  -2   9   5  159.62   23.98
   2   9  -4  203.55   26.36
  -2   9   4  395.45   37.85
   2   9  -4  254.95   36.20
  -2   9   4  344.81   30.56
   2   9  -4  375.21   48.99
  -2   9   4  347.99   39.07
  -2   9   3  257.00   30.69
   2   9  -3  177.98   25.38
  -2   9   3  261.46   32.44
   2   9  -3  188.03   30.94
  -2   9   3  160.64   29.31
  -2   9   3  209.88   23.60
   2   9  -3  216.18   37.63
  -2   9   3  241.03   32.03
  -2   9   2  184.87   26.67
   2   9  -2  176.28   25.61
   2   9  -2  126.35   23.22
  -2   9   2  221.66   30.31
   2   9  -2  165.24   29.12
  -2   9   2  162.31   19.46
  -2   9   2  165.56   25.22
   2   9  -2  136.74   29.20
  -2   9   2  190.09   25.96
  -2   9   2  202.63   33.23
  -2   9   2  166.55   25.97
   2   9  -1  648.71   51.32
  -2   9   1  646.33   51.99
   2   9  -1  392.36   46.52
  -2   9   1  767.47   58.05
   2   9  -1  646.66   57.98
  -2   9   1  550.23   51.23
  -2   9   1  692.62   51.82
  -2   9   1  491.32   45.82
   2   9   0  569.41   48.08
  -2   9   0  607.66   51.28
  -2   9   0  643.80   56.67
   2   9   0  393.13   49.17
  -2   9   0  664.35   55.11
  -2   9   0  649.07   51.61
  -2   9   0  591.78   48.58
   2   9   0  432.96   43.96
  -2   9   0  592.40   47.03
  -2   9   0  679.44   64.01
  -2   9   0  452.56   41.81
   2   9   1   98.41   19.58
  -2   9  -1  147.68   25.14
   2   9   1   99.08   24.70
  -2   9  -1  113.55   22.16
  -2   9  -1  110.31   26.87
   2   9   1  100.96   23.45
  -2   9  -1   62.80   14.70
  -2   9  -1  112.12   24.73
  -2   9  -1  111.12   21.37
  -2   9  -2  163.47   24.97
  -2   9  -2  156.20   26.14
   2   9   2  144.32   28.29
  -2   9  -2  158.39   30.83
  -2   9  -2  137.04   24.33
  -2   9  -2  128.84   18.40
  -2   9  -2   96.59   21.33
   2   9   3  358.12   42.13
  -2   9  -3  290.06   37.21
  -2   9  -3  404.60   37.87
   2   9   3  357.01   40.33
  -2   9  -3  393.04   40.72
  -2   9  -3  273.72   39.11
  -2   9  -3  365.44   45.27
  -2   9  -3  347.93   38.98
   2   9   3  409.62   42.74
   2   9   4  290.75   34.26
  -2   9  -4  257.44   26.76
  -2   9  -4  265.45   32.83
   2   9   4  360.58   37.03
  -2   9  -4  264.77   33.67
  -2   9  -4  344.69   41.27
  -2   9  -4  325.09   36.29
  -2   9  -4  353.79   36.70
  -2   9  -5   36.94   10.42
   2   9   5   41.84   14.27
  -2   9  -5   45.91   12.84
  -2   9  -5   50.25   12.54
  -2   9  -5   46.43   13.91
   2   9   5   25.08    8.80
  -2   9  -5   48.53   12.91
   2   9   5   37.13   11.76
  -2   9  -6  177.15   18.79
  -2   9  -6  148.49   18.78
   2   9   6  138.17   19.11
   2  10  -6  149.46   16.99
  -2  10   6  205.93   17.11
   2  10  -5   82.00   16.52
   2  10  -5  120.94   19.76
  -2  10   5  127.89   16.11
  -2  10   5  120.77   12.26
  -2  10   4   35.51   10.02
   2  10  -4   24.85   10.60
   2  10  -4   17.50   10.00
  -2  10   3  229.98   27.05
   2  10  -3  157.45   24.99
   2  10  -3  150.47   24.72
  -2  10   3  191.87   27.96
  -2  10   3  220.04   26.89
  -2  10   2  636.10   45.93
   2  10  -2  571.45   42.96
  -2  10   2  674.23   50.43
   2  10  -2  589.03   50.67
  -2  10   2  563.73   53.36
  -2  10   2  567.70   45.27
   2  10  -1  404.05   35.77
  -2  10   1  434.77   37.72
   2  10  -1  320.85   35.52
  -2  10   1  491.83   43.05
   2  10  -1  406.81   41.70
  -2  10   1  343.72   32.81
   2  10   0   54.31   13.45
  -2  10   0   48.00   12.72
   2  10   0   51.38   15.09
  -2  10   0   42.00   15.63
   2  10   0   25.36   12.07
  -2  10   0   36.91   13.35
  -2  10  -1  271.65   30.66
  -2  10  -1  293.84   32.27
   2  10   1  242.68   29.67
  -2  10  -1  317.24   31.80
  -2  10  -1  306.97   31.64
   2  10   1  188.86   25.91
  -2  10  -1  230.65   32.68
   2  10   1  239.41   34.00
  -2  10  -1  351.61   42.00
   2  10   2  151.11   25.52
  -2  10  -2  113.13   19.95
  -2  10  -2  144.42   21.41
  -2  10  -2  147.85   22.15
   2  10   2  116.50   20.73
  -2  10  -2  132.82   24.85
  -2  10  -2  119.64   25.35
  -2  10  -2  174.58   23.63
   2  10   2  123.90   20.87
  -2  10  -3   48.21   13.03
  -2  10  -3   67.69   13.19
  -2  10  -3   67.43   15.04
   2  10   3   52.49   13.74
   2  10   3   58.87   14.38
  -2  10  -3   71.44   15.51
  -2  10  -3   68.99   14.96
   2  10   4   24.25    9.22
  -2  10  -4   13.46    7.58
   2  10   4    8.47    7.75
   2  10   4   14.33    7.33
  -2  10  -4   22.03    8.63
  -2  10  -5  130.75   15.85
  -2  10  -5  248.58   21.67
  -2  10  -5  265.15   21.61
   2  10   5  168.08   17.89
   2  11  -4  141.58   16.07
  -2  11   4  162.53   15.04
  -2  11   3   38.88    8.62
   2  11  -3   20.16    7.88
  -2  11   3   29.53    7.58
  -2  11   2    1.47    4.88
   2  11  -2    9.58    6.18
  -2  11   2    0.50    3.32
  -2  11   1  304.28   23.92
  -2  11   1  304.03   28.37
   2  11  -1  269.91   27.25
  -2  11   0  173.13   18.61
   2  11   0  166.52   21.47
  -2  11   0  144.40   24.11
  -2  11  -1  175.10   19.12
  -2  11  -1  207.50   22.22
   2  11   1  198.36   22.47
  -2  11  -2   58.38   10.62
  -2  11  -2   69.14   11.32
   2  11   2   36.91   13.62
   2  11   3  102.47   14.27
   3 -11   0   32.92    7.46
   3 -10  -4   60.90   10.57
   3 -10  -3  223.42   21.62
  -3 -10   3   67.82   12.11
   3 -10  -2   38.18   10.12
   3 -10  -2   68.69   13.93
   3 -10  -2   39.39   11.48
   3 -10  -1   28.59    8.81
  -3 -10   1   28.95    7.34
   3 -10  -1   42.91   11.78
  -3 -10   1   13.39    7.67
   3 -10   0  293.70   29.02
  -3 -10   0  100.98   18.20
   3 -10   0  178.77   18.64
  -3 -10   0   89.94   18.13
   3 -10   0  232.31   25.43
   3 -10   1  182.80   17.97
  -3 -10  -1   85.47   17.82
  -3 -10  -1   89.17   17.06
   3 -10   1  233.31   24.43
   3 -10   2   92.99   13.63
   3 -10   2  126.38   18.32
  -3 -10  -3   57.52    9.26
   3 -10   3   63.21   10.85
   3  -9  -6  226.12   20.35
   3  -9  -5  180.75   20.04
  -3  -9   5  116.16   18.52
  -3  -9   5   73.77   15.86
   3  -9  -5  195.65   25.23
   3  -9  -4  366.69   34.13
   3  -9  -4  412.77   41.05
   3  -9  -3   39.32   12.19
   3  -9  -3   31.78   12.37
   3  -9  -3   38.63   12.01
   3  -9  -3   40.95    9.75
  -3  -9   3   34.56    9.53
   3  -9  -3   41.75   12.59
   3  -9  -2  408.73   39.90
   3  -9  -2  430.50   39.62
   3  -9  -2  457.54   42.23
   3  -9  -2  402.91   31.70
  -3  -9   2  253.66   30.27
  -3  -9   2  296.63   33.39
   3  -9  -2  405.76   40.41
   3  -9  -1  437.26   34.24
   3  -9  -1  609.47   49.35
  -3  -9   1  335.85   36.26
   3  -9  -1  295.36   33.45
   3  -9  -1  501.39   41.38
   3  -9  -1  427.05   39.59
   3  -9   0  137.50   22.94
   3  -9   0  161.46   21.84
   3  -9   0  188.79   28.13
   3  -9   0  145.37   21.40
   3  -9   0  191.21   26.96
   3  -9   1   15.20    5.89
   3  -9   1   19.82    9.60
   3  -9   1   17.71    8.90
   3  -9   1    8.31    7.67
   3  -9   1    5.28    6.61
  -3  -9  -1   13.05    5.64
   3  -9   2  459.61   41.84
   3  -9   2  373.69   36.10
   3  -9   2  362.40   36.30
   3  -9   2  353.67   37.19
   3  -9   2  405.43   37.21
   3  -9   3  121.34   20.29
   3  -9   3  114.07   19.30
   3  -9   3   66.32   16.02
   3  -9   3  102.45   17.26
  -3  -9  -4    4.67    5.68
   3  -9   4    6.09    6.12
   3  -9   4    3.85    4.51
  -3  -9  -5  122.13   12.05
   3  -9   5   71.30   11.76
   3  -8  -7  281.80   22.97
   3  -8  -7  264.87   17.69
   3  -8  -6  339.13   29.69
  -3  -8   6  196.68   25.16
   3  -8  -6  290.40   23.45
  -3  -8   6  169.32   24.72
  -3  -8   6  149.79   24.66
   3  -8  -5   10.67    8.26
  -3  -8   5   10.94    9.81
   3  -8  -5    7.04    7.01
  -3  -8   5    2.48   10.01
   3  -8  -5    5.80    8.76
   3  -8  -4   80.24   18.55
   3  -8  -4   71.85   14.74
   3  -8  -4   92.20   14.45
   3  -8  -4   65.19   15.70
   3  -8  -4   71.62   19.64
   3  -8  -3  397.48   42.73
   3  -8  -3  392.32   35.03
  -3  -8   3  275.49   34.54
   3  -8  -3  324.95   37.47
   3  -8  -3  287.49   35.81
   3  -8  -3  362.98   43.83
   3  -8  -2  344.51   33.02
   3  -8  -2  399.35   43.56
   3  -8  -2  448.41   44.79
  -3  -8   2  282.42   34.59
   3  -8  -2  350.07   38.46
   3  -8  -2  309.78   39.22
   3  -8  -1   24.71   10.57
   3  -8  -1   16.97    8.97
   3  -8  -1   35.72   13.74
  -3  -8   1   29.56   12.33
   3  -8  -1   20.38    9.88
   3  -8  -1   12.84    9.79
   3  -8   0 1336.08   81.70
   3  -8   0 1387.08   79.14
  -3  -8   0 1101.51   88.17
   3  -8   0 1122.58   73.30
   3  -8   0 1405.53   77.10
   3  -8   0 1556.61   88.05
   3  -8   0 1365.14   79.79
   3  -8   1  312.97   38.03
   3  -8   1  298.27   35.95
   3  -8   1  329.20   33.28
  -3  -8  -1  149.66   25.25
   3  -8   1  213.77   31.37
   3  -8   1  269.19   33.45
   3  -8   1  180.33   24.37
   3  -8   2  145.06   26.47
   3  -8   2  156.57   24.85
   3  -8   2  120.78   23.84
  -3  -8  -2   74.69   16.92
   3  -8   2  114.93   22.94
   3  -8   2  139.48   20.94
   3  -8   2  115.92   22.11
   3  -8   3  141.04   25.87
   3  -8   3  148.44   24.72
   3  -8   3  136.24   23.65
   3  -8   3  161.64   24.23
  -3  -8  -3   57.47   17.42
   3  -8   4  126.46   22.23
   3  -8   4   85.31   19.94
   3  -8   4  142.04   21.23
  -3  -8  -4   69.00   18.08
  -3  -8  -5  670.45   36.12
   3  -8   5  638.97   47.19
   3  -8   5  538.54   42.72
   3  -8   5  516.14   41.58
  -3  -8  -5  371.91   41.17
  -3  -8  -5  274.47   37.32
  -3  -8  -6   38.77    7.87
   3  -8   6   23.37    7.02
   3  -7  -8  178.40   17.94
   3  -7  -8  165.75   15.12
  -3  -7   7   22.23   11.27
   3  -7  -7   38.26   11.30
  -3  -7   7   61.70   11.79
   3  -7  -7   33.04   10.56
  -3  -7   7   52.62   11.67
   3  -7  -7   23.46   10.74
   3  -7  -6   76.50   17.03
  -3  -7   6   85.78   19.86
   3  -7  -6   98.18   16.97
  -3  -7   6   56.95   18.23
   3  -7  -6   87.90   20.91
   3  -7  -5 1258.77   83.81
   3  -7  -5 1290.12   75.18
   3  -7  -4  252.61   29.84
   3  -7  -4  273.49   35.85
  -3  -7   4  169.13   30.59
   3  -7  -4  193.81   29.92
   3  -7  -4  200.25   26.09
   3  -7  -4  217.73   29.18
   3  -7  -4  203.07   34.75
   3  -7  -3   43.50   14.88
   3  -7  -3   42.57   14.68
   3  -7  -3   25.47    9.90
   3  -7  -3   37.03   14.55
  -3  -7   3   22.03   10.77
   3  -7  -3   57.39   17.53
  -3  -7   3   33.24   13.89
   3  -7  -3   48.28   10.86
   3  -7  -3   19.20   10.97
   3  -7  -3   33.12   14.88
   3  -7  -2  330.81   45.61
   3  -7  -2  337.54   35.45
   3  -7  -2  310.33   34.38
   3  -7  -2  448.01   46.06
  -3  -7   2  265.88   42.36
   3  -7  -2  268.66   40.41
  -3  -7   2  332.98   42.58
  -3  -7   2  236.28   41.30
   3  -7  -2  367.01   39.69
   3  -7  -2  351.12   43.62
   3  -7  -2  394.27   43.70
   3  -7  -1  872.15   74.91
   3  -7  -1  588.27   53.78
   3  -7  -1  680.58   54.99
   3  -7  -1  969.50   70.57
  -3  -7   1  769.74   71.26
   3  -7  -1  898.58   70.00
  -3  -7   1  508.95   64.74
   3  -7  -1  667.62   63.33
  -3  -7   1  580.57   65.04
   3  -7  -1  985.74   68.88
   3  -7  -1  710.55   53.97
   3  -7  -1  887.31   61.59
   3  -7  -1  802.12   63.86
   3  -7  -1  780.47   63.36
   3  -7   0  286.81   36.77
  -3  -7   0  163.30   30.60
  -3  -7   0  262.96   37.38
   3  -7   0  299.61   36.62
  -3  -7   0  218.63   38.47
  -3  -7   0  208.44   35.70
   3  -7   0  288.67   35.69
   3  -7   0  288.58   35.68
   3  -7   0  229.19   30.96
   3  -7   0  267.04   30.92
   3  -7   0  230.62   31.77
   3  -7   1    8.34    4.76
   3  -7   1    5.06    9.03
  -3  -7  -1   10.70    9.10
  -3  -7  -1    2.25    6.79
   3  -7   1   19.53   11.44
  -3  -7  -1   19.55   14.45
   3  -7   1   17.33    8.07
   3  -7   1    4.62    8.61
   3  -7   1    3.47    9.29
   3  -7   1    2.88    7.34
   3  -7   1    2.84    7.26
   3  -7   1    7.44    9.90
   3  -7   1    2.60    6.65
   3  -7   2  309.41   39.56
   3  -7   2  434.80   48.29
  -3  -7  -2  229.92   38.51
   3  -7   2  334.23   39.73
   3  -7   2  401.25   44.38
  -3  -7  -2  501.76   52.84
   3  -7   2  366.76   42.77
   3  -7   2  404.20   41.59
   3  -7   2  381.01   41.99
  -3  -7  -2  223.08   32.80
   3  -7   3  292.42   40.44
   3  -7   3  270.83   36.06
   3  -7   3  220.33   31.82
  -3  -7  -3  127.85   27.37
   3  -7   3  256.83   32.35
   3  -7   3  265.48   34.75
   3  -7   3  231.35   32.78
   3  -7   4    8.51    8.70
   3  -7   4   11.82    8.75
   3  -7   4   18.20   11.08
   3  -7   4    9.29    8.18
   3  -7   4   18.91    9.33
  -3  -7  -4   26.60   11.96
  -3  -7  -5  529.50   36.52
   3  -7   5  420.51   33.79
   3  -7   5  452.97   43.28
   3  -7   5  497.14   44.45
   3  -7   5  345.56   32.66
  -3  -7  -5  278.43   38.59
  -3  -7  -6  134.86   17.38
   3  -7   6   87.58   17.87
   3  -7   6   79.33   16.46
   3  -7   6  112.54   18.41
  -3  -7  -6   67.31   17.45
   3  -7   7   61.65   11.23
  -3  -7  -7  132.41   16.10
   3  -6  -9   54.24    8.13
   3  -6  -9   56.84    9.91
  -3  -6   8  134.54   21.92
  -3  -6   8  184.93   25.17
  -3  -6   8  135.11   16.27
   3  -6  -8  157.84   19.32
  -3  -6   7  380.96   42.74
  -3  -6   7  320.58   29.41
  -3  -6   7  473.55   40.28
   3  -6  -7  422.73   36.41
   3  -6  -7  447.41   37.63
  -3  -6   7  428.05   40.20
   3  -6  -7  356.98   39.21
  -3  -6   6  374.82   41.72
   3  -6  -6  375.98   38.01
  -3  -6   6  333.13   42.08
   3  -6  -6  461.70   48.81
   3  -6  -5   20.46   12.71
  -3  -6   5   16.65    9.51
  -3  -6   5   19.47    9.08
   3  -6  -5   12.57   10.54
   3  -6  -5    7.11    8.34
   3  -6  -5   17.34   12.82
   3  -6  -4  210.07   31.69
   3  -6  -4  236.02   30.06
   3  -6  -4  222.23   33.40
   3  -6  -4  151.82   27.13
  -3  -6   4  125.23   29.34
  -3  -6   4  119.52   25.62
   3  -6  -4  153.13   27.43
   3  -6  -4  198.06   26.52
   3  -6  -4  200.77   28.34
   3  -6  -3 1452.47   99.87
   3  -6  -3 1576.33   86.79
   3  -6  -3 2030.57  104.94
   3  -6  -3 1375.71   89.26
   3  -6  -3 1298.33  100.61
  -3  -6   3 1143.34   94.12
  -3  -6   3 1063.98   79.97
   3  -6  -3 1571.46   81.34
   3  -6  -3 1698.91   94.61
   3  -6  -3 1245.15   85.53
   3  -6  -3 1814.07  107.83
   3  -6  -2  240.37   29.95
   3  -6  -2  297.15   41.90
   3  -6  -2  347.16   41.77
   3  -6  -2  252.87   31.22
   3  -6  -2  330.11   38.86
   3  -6  -2  300.71   39.69
   3  -6  -2  264.81   39.27
  -3  -6   2  217.43   35.68
  -3  -6   2  213.41   37.99
   3  -6  -2  333.25   36.06
   3  -6  -2  307.97   37.14
   3  -6  -2  262.30   37.37
   3  -6  -1  389.53   37.80
  -3  -6   1  326.37   38.92
   3  -6  -1  380.14   39.08
  -3  -6   1  393.00   49.83
   3  -6  -1  448.39   46.46
   3  -6  -1  357.99   43.85
  -3  -6   1  342.73   42.70
  -3  -6   1  332.21   47.50
   3  -6  -1  354.02   38.53
   3  -6  -1  502.57   48.95
   3  -6  -1  418.94   37.92
   3  -6  -1  513.77   54.93
   3  -6  -1  463.97   41.71
   3  -6  -1  479.95   47.19
   3  -6  -1  403.76   43.64
   3  -6   0  941.27   69.19
  -3  -6   0  652.97   60.63
   3  -6   0 1113.84   74.15
  -3  -6   0  829.75   71.17
   3  -6   0 1032.73   70.54
  -3  -6   0  816.11   76.13
   3  -6   0  748.55   61.85
  -3  -6   0  762.03   70.54
   3  -6   0  948.34   67.83
   3  -6   0  914.68   67.98
   3  -6   0  814.99   61.21
   3  -6   0  935.58   60.99
   3  -6   0  874.70   65.01
   3  -6   1 1683.60   95.81
   3  -6   1 1789.65  105.62
  -3  -6  -1 1348.84   97.36
   3  -6   1 1997.49  107.06
   3  -6   1 1619.17   94.60
  -3  -6  -1 1722.76  111.21
  -3  -6  -1 1298.15   94.57
   3  -6   1 1694.73  100.22
   3  -6   1 1920.86  108.08
   3  -6   1 1820.19  103.24
   3  -6   1 1801.61   99.83
   3  -6   1 1852.71  101.96
   3  -6   1 1309.09   81.45
   3  -6   2  457.36   48.08
   3  -6   2  576.17   56.69
   3  -6   2  428.89   47.50
   3  -6   2  522.40   50.29
  -3  -6  -2  600.78   56.78
   3  -6   2  477.01   49.42
   3  -6   2  531.52   50.02
   3  -6   3  433.46   51.41
  -3  -6  -3  350.69   47.74
   3  -6   3  307.43   39.34
  -3  -6  -3  544.88   51.49
   3  -6   3  466.83   46.64
   3  -6   3  513.31   47.75
   3  -6   3  423.96   46.58
   3  -6   3  425.88   47.39
  -3  -6  -4  844.05   55.99
   3  -6   4  832.24   62.39
   3  -6   4  907.01   69.99
   3  -6   4  873.46   69.37
   3  -6   4  861.31   68.29
   3  -6   4  883.44   67.22
   3  -6   5  452.65   47.42
  -3  -6  -5  469.20   37.22
   3  -6   5  552.73   50.31
   3  -6   5  522.49   52.50
  -3  -6  -5  501.23   40.93
   3  -6   5  397.37   35.84
   3  -6   5  426.87   44.97
  -3  -6  -5  386.91   46.51
  -3  -6  -6   48.72   13.15
   3  -6   6   53.45   15.42
   3  -6   6   46.29   14.16
   3  -6   6   33.62   11.70
   3  -6   6   37.52   12.90
  -3  -6  -6   35.98   15.11
   3  -6   7   93.89   15.30
  -3  -6  -7  113.66   18.54
   3  -6   7   73.55   11.01
  -3  -6  -7  130.77   16.01
  -3  -6  -7   49.37   15.92
   3  -5  -9  306.65   25.80
  -3  -5   9  304.66   25.72
  -3  -5   8  587.20   50.13
   3  -5  -8  594.28   44.53
  -3  -5   7   38.26   16.04
  -3  -5   7   63.36   15.54
   3  -5  -7   60.74   16.53
   3  -5  -7   61.66   16.19
  -3  -5   7   67.44   16.86
   3  -5  -7   59.07   17.09
   3  -5  -6  223.89   31.61
  -3  -5   6  216.50   31.02
  -3  -5   6  184.96   33.32
  -3  -5   6  242.79   33.46
   3  -5  -6  299.15   35.10
  -3  -5   6  215.16   32.95
   3  -5  -6  298.42   39.86
   3  -5  -5  713.30   63.09
  -3  -5   5  470.27   50.10
  -3  -5   5  551.34   57.28
   3  -5  -5  821.97   59.25
   3  -5  -5  709.61   65.70
   3  -5  -4 1060.47   75.05
   3  -5  -4 1087.37   77.62
   3  -5  -4  939.31   76.32
   3  -5  -4  821.93   74.30
  -3  -5   4 1019.46   75.89
   3  -5  -4 1166.02   72.29
   3  -5  -4 1143.39   70.27
   3  -5  -4 1037.67   68.53
   3  -5  -3   12.03    8.90
   3  -5  -3   15.71   11.27
   3  -5  -3   11.87    8.79
   3  -5  -3   19.20   11.19
   3  -5  -3   12.22    7.61
   3  -5  -3   13.82   11.93
  -3  -5   3    6.91    8.93
   3  -5  -3   23.45    8.05
   3  -5  -3   17.30   10.08
   3  -5  -3   21.43   12.89
   3  -5  -2 1040.85   66.34
   3  -5  -2 1317.53   89.34
   3  -5  -2 1133.25   71.16
   3  -5  -2 1439.89   83.88
   3  -5  -2  966.69   66.86
   3  -5  -2  906.42   78.11
  -3  -5   2  992.05   78.06
  -3  -5   2  872.00   65.10
   3  -5  -2 1457.40   87.94
   3  -5  -2 1187.15   71.09
   3  -5  -2 1245.34   74.66
   3  -5  -2 1327.61   80.25
   3  -5  -2 1318.24   84.99
   3  -5  -1 1218.52   78.69
  -3  -5   1  953.73   69.52
   3  -5  -1 1405.58   92.12
   3  -5  -1 1111.70   71.78
   3  -5  -1 1311.07   81.41
   3  -5  -1 1006.50   76.33
  -3  -5   1  879.50   71.96
   3  -5  -1 1038.99   70.64
   3  -5  -1 1393.73   84.06
   3  -5  -1 1271.06   71.28
   3  -5  -1 1465.57   83.48
   3  -5  -1 1291.47   73.60
   3  -5  -1 1320.53   82.41
   3  -5   0  267.58   33.84
  -3  -5   0  183.84   29.29
   3  -5   0  272.26   33.97
   3  -5   0  267.20   33.38
  -3  -5   0  220.97   33.08
   3  -5   0  284.42   32.93
   3  -5   0  167.45   27.02
  -3  -5   0  206.19   32.94
   3  -5   0  245.36   31.58
   3  -5   0  235.78   29.53
   3  -5   0  299.74   29.72
   3  -5   0  253.90   32.11
   3  -5   1  311.10   38.78
  -3  -5  -1  255.89   36.25
   3  -5   1  356.00   39.61
  -3  -5  -1  309.76   34.68
   3  -5   1  336.07   34.65
  -3  -5  -1  333.41   42.16
  -3  -5  -1  235.77   33.10
   3  -5   1  340.49   39.89
   3  -5   1  314.23   37.49
   3  -5   1  351.96   40.12
   3  -5   1  340.22   38.09
   3  -5   1  352.62   38.58
   3  -5   1  365.23   37.96
   3  -5   2  460.99   46.70
   3  -5   2  516.97   49.23
  -3  -5  -2  600.18   54.12
   3  -5   2  567.27   54.82
   3  -5   2  572.30   53.16
   3  -5   2  590.51   51.67
  -3  -5  -3  375.62   50.08
   3  -5   3  358.29   40.50
   3  -5   3  510.08   52.74
  -3  -5  -3  613.92   52.59
   3  -5   3  616.11   59.47
   3  -5   3  528.54   51.93
   3  -5   3  514.17   54.05
   3  -5   3  314.53   37.14
   3  -5   3  494.18   47.92
  -3  -5  -4  116.62   20.00
   3  -5   4  183.71   31.35
  -3  -5  -4  165.86   24.60
   3  -5   4  154.58   24.03
   3  -5   4  177.06   32.79
   3  -5   4  186.19   33.62
   3  -5   4  172.32   25.24
   3  -5   4  155.84   31.85
   3  -5   4  204.07   32.04
   3  -5   4  151.97   26.15
   3  -5   4  156.48   27.32
  -3  -5  -5   15.64    8.94
   3  -5   5   10.73   10.42
  -3  -5  -5   21.41   11.07
   3  -5   5   15.83   11.43
   3  -5   5   27.02   13.82
  -3  -5  -5   17.78   12.17
   3  -5   5    9.76   12.61
  -3  -5  -5   28.11   14.74
   3  -5   5   18.57    8.03
   3  -5   5   12.85   10.69
   3  -5   5   22.25   12.22
  -3  -5  -6  689.78   48.75
   3  -5   6  691.42   58.66
   3  -5   6  561.14   53.49
  -3  -5  -6  627.73   49.71
   3  -5   6  652.92   56.56
  -3  -5  -6  707.10   52.22
   3  -5   6  722.45   62.63
   3  -5   6  563.84   50.47
   3  -5   6  655.63   58.50
   3  -5   6  546.83   52.91
   3  -5   7  197.77   25.32
  -3  -5  -7  337.55   33.04
  -3  -5  -7  276.14   29.86
   3  -5   7  218.18   27.76
   3  -5   7  262.11   29.96
   3  -5   7  168.23   25.93
  -3  -5  -7  134.80   27.24
  -3  -5  -7  270.05   25.87
  -3  -5  -8   17.78    8.45
   3  -4 -10  259.31   20.34
  -3  -4  10  279.04   23.35
   3  -4 -10  296.39   22.07
  -3  -4   9   46.82   10.82
   3  -4  -9   17.78    8.59
  -3  -4   9   42.09   13.05
  -3  -4   9   16.91    7.53
  -3  -4   9   22.85    9.80
   3  -4  -9   28.63   10.77
  -3  -4   8   49.85   15.36
   3  -4  -8   50.52   14.68
   3  -4  -8   43.19   13.02
   3  -4  -8   58.40   15.05
  -3  -4   8   34.10   12.08
   3  -4  -8   42.95   15.04
  -3  -4   7  491.15   49.49
   3  -4  -7  397.59   46.31
   3  -4  -7  409.99   50.44
   3  -4  -7  521.34   46.92
  -3  -4   7  333.95   47.30
   3  -4  -7  554.79   49.22
   3  -4  -7  464.31   44.51
   3  -4  -7  478.70   46.35
   3  -4  -6  534.22   47.20
   3  -4  -6  363.47   43.23
   3  -4  -6  322.90   44.84
   3  -4  -6  358.26   39.17
  -3  -4   6  357.55   44.24
   3  -4  -6  414.16   52.09
  -3  -4   6  385.43   48.37
  -3  -4   6  404.25   41.27
   3  -4  -6  428.87   43.84
  -3  -4   6  343.60   39.42
   3  -4  -6  427.59   48.23
   3  -4  -5   60.99   18.37
   3  -4  -5   49.36   17.88
  -3  -4   5   59.49   17.42
   3  -4  -5   69.53   19.64
   3  -4  -5   91.44   22.29
  -3  -4   5   70.83   20.58
   3  -4  -5   58.12   16.77
   3  -4  -5   56.33   18.29
   3  -4  -4 1052.76   64.24
   3  -4  -4  824.89   64.73
   3  -4  -4  921.52   68.53
   3  -4  -4  886.53   60.34
  -3  -4   4  767.26   58.65
   3  -4  -4  771.83   68.48
  -3  -4   4  713.52   62.40
   3  -4  -4  610.95   56.64
   3  -4  -4  804.32   58.04
   3  -4  -4  811.77   55.39
   3  -4  -4  905.09   73.05
   3  -4  -3  612.40   55.23
   3  -4  -3  613.27   51.74
   3  -4  -3  634.70   49.84
   3  -4  -3  778.57   58.21
  -3  -4   3  534.80   44.55
   3  -4  -3  560.14   50.90
   3  -4  -3  642.03   56.44
  -3  -4   3  634.32   53.84
   3  -4  -3  807.59   63.19
   3  -4  -3  644.53   52.19
   3  -4  -3  635.37   50.38
   3  -4  -3  567.20   48.10
  -3  -4   2  585.85   46.02
   3  -4  -2  828.31   65.64
   3  -4  -2  733.56   53.79
   3  -4  -2  763.39   54.39
   3  -4  -2  758.02   53.57
   3  -4  -2  823.16   61.43
   3  -4  -2  714.30   63.26
  -3  -4   2  722.68   54.41
   3  -4  -2  668.98   47.56
   3  -4  -2  929.07   65.32
   3  -4  -2  772.80   54.88
   3  -4  -2  780.03   55.31
   3  -4  -2  841.52   58.78
   3  -4  -2  881.86   65.50
   3  -4  -1  357.10   37.23
   3  -4  -1  424.07   46.19
   3  -4  -1  341.39   33.52
   3  -4  -1  423.53   34.80
   3  -4  -1  377.99   33.87
   3  -4  -1  351.07   34.70
   3  -4  -1  426.33   40.17
   3  -4  -1  395.11   40.05
   3  -4  -1  375.03   38.61
   3  -4  -1  237.19   33.78
  -3  -4   1  282.86   34.84
   3  -4  -1  293.22   32.24
   3  -4  -1  379.49   38.97
   3  -4  -1  430.64   40.03
   3  -4  -1  372.17   39.35
   3  -4   0 1042.06   69.07
   3  -4   0 1094.06   69.52
   3  -4   0 1062.51   70.60
   3  -4   0 1095.04   64.75
   3  -4   0 1170.09   70.55
  -3  -4   0  911.13   66.17
   3  -4   0  917.94   61.82
   3  -4   0 1198.00   68.87
   3  -4   0  912.78   63.41
  -3  -4   0  808.73   67.39
   3  -4   0  887.41   64.32
   3  -4   0  850.03   61.14
   3  -4   0 1194.95   71.38
   3  -4   1 1881.45   91.08
   3  -4   1 1645.03   90.61
   3  -4   1 1428.36   84.58
   3  -4   1 1437.65   79.79
  -3  -4  -1 1555.32   94.58
  -3  -4  -1 1228.71   82.11
   3  -4   1 1365.00   88.30
   3  -4   1 1569.57   93.69
   3  -4   1 1745.63   94.11
   3  -4   1 1545.87   88.61
   3  -4   2  344.48   41.35
   3  -4   2  340.59   33.16
   3  -4   2  461.61   42.87
   3  -4   2  345.33   38.23
   3  -4   2  383.08   40.29
  -3  -4  -2  380.09   38.92
   3  -4   2  358.88   43.30
   3  -4   2  379.48   41.91
   3  -4   2  381.93   40.31
   3  -4   2  384.64   35.29
   3  -4   3  183.33   26.69
   3  -4   3  145.62   23.03
   3  -4   3  142.10   22.90
   3  -4   3  208.88   33.12
   3  -4   3  147.80   27.47
  -3  -4  -3  194.90   26.80
   3  -4   3  247.65   36.21
   3  -4   3  108.70   19.64
   3  -4   3  184.09   30.94
   3  -4   3  115.38   22.22
   3  -4   3  208.17   30.06
   3  -4   4 1591.48   95.18
  -3  -4  -4 1599.23   86.07
   3  -4   4 1629.56  101.00
   3  -4   4 1657.04  108.37
   3  -4   4 1498.72  101.80
  -3  -4  -4 1396.37   94.35
   3  -4   4 1651.55  105.80
   3  -4   4 1280.98   87.97
   3  -4   4 1697.00  102.43
   3  -4   4 1472.92   94.90
   3  -4   4 1486.97   93.86
   3  -4   5  228.54   33.33
  -3  -4  -5  230.70   40.59
  -3  -4  -5  276.59   33.56
  -3  -4  -5  289.62   34.20
   3  -4   5  235.46   39.50
   3  -4   5  249.24   37.52
  -3  -4  -5  204.14   35.46
   3  -4   5  259.79   37.26
   3  -4   5  271.33   36.35
   3  -4   5  357.43   43.11
   3  -4   5  264.68   38.02
   3  -4   5  267.40   37.77
  -3  -4  -6   16.58    9.84
  -3  -4  -6   12.81    9.41
   3  -4   6   29.14   12.63
  -3  -4  -6   27.42   12.41
  -3  -4  -6   20.41   12.86
   3  -4   6   20.89   14.05
   3  -4   6   13.77   11.32
   3  -4   6   11.32    9.15
   3  -4   6   27.73   13.17
   3  -4   6   16.71   11.45
   3  -4   6   13.66   10.97
   3  -4   7  112.84   20.05
   3  -4   7   91.37   17.73
  -3  -4  -7  151.34   23.78
   3  -4   7   47.36   15.60
  -3  -4  -7  151.85   24.21
  -3  -4  -7  170.62   25.09
   3  -4   7  102.76   22.12
  -3  -4  -7   85.54   20.57
   3  -4   7  125.30   22.92
   3  -4   7  111.11   23.63
  -3  -4  -7  151.92   20.80
  -3  -4  -8  238.20   25.90
   3  -4   8  155.37   22.61
  -3  -3  10   35.97    8.58
  -3  -3  10   44.64   10.30
  -3  -3  10   49.89   11.74
   3  -3 -10   51.65   11.53
  -3  -3   9  513.72   43.61
   3  -3  -9  520.11   40.08
  -3  -3   9  543.89   43.22
   3  -3  -9  584.07   43.80
  -3  -3   8  582.60   49.63
   3  -3  -8  474.80   51.02
   3  -3  -8  371.10   50.67
   3  -3  -8  494.39   44.50
  -3  -3   8  634.54   55.27
   3  -3  -8  535.12   47.91
   3  -3  -8  559.21   49.06
  -3  -3   7  331.34   38.68
   3  -3  -7  343.69   38.93
   3  -3  -7  245.24   41.21
   3  -3  -7  310.39   30.88
   3  -3  -7  286.38   34.24
  -3  -3   7  266.04   40.58
   3  -3  -7  312.76   46.83
  -3  -3   7  294.94   35.92
  -3  -3   7  254.76   40.16
   3  -3  -7  336.02   39.04
   3  -3  -7  274.79   39.54
   3  -3  -7  265.00   39.95
   3  -3  -7  221.03   31.05
   3  -3  -6 1124.34   73.15
   3  -3  -6 1023.78   79.71
   3  -3  -6 1225.21   79.83
   3  -3  -6  976.87   83.00
   3  -3  -6  884.06   59.14
   3  -3  -6 1037.85   69.55
  -3  -3   6 1021.87   77.51
   3  -3  -6  960.20   88.46
  -3  -3   6  927.24   69.39
  -3  -3   6 1039.19   66.93
   3  -3  -6 1028.28   71.99
  -3  -3   6  852.57   62.27
   3  -3  -6  965.89   77.52
   3  -3  -6 1133.46   78.94
   3  -3  -5 2742.42  121.04
   3  -3  -5 1995.91  115.31
   3  -3  -5 1993.64  121.63
   3  -3  -5 2208.40  119.86
  -3  -3   5 2084.87  114.63
   3  -3  -5 2070.34  129.89
  -3  -3   5 2007.04  104.11
  -3  -3   5 1314.55   89.96
  -3  -3   5 2032.57  118.63
  -3  -3   5 2244.36  104.92
   3  -3  -5 2176.14  109.05
   3  -3  -5 2086.55  119.33
   3  -3  -4  476.26   46.15
   3  -3  -4  671.69   49.85
   3  -3  -4  507.12   50.72
   3  -3  -4  554.48   50.54
  -3  -3   4  512.20   46.68
   3  -3  -4  541.93   55.87
  -3  -3   4  477.63   40.05
  -3  -3   4  525.55   41.13
   3  -3  -4  473.25   41.99
   3  -3  -4  520.33   47.45
   3  -3  -4  547.51   53.03
   3  -3  -3   25.85   11.26
   3  -3  -3   50.02   11.68
   3  -3  -3   32.26   12.50
   3  -3  -3   34.81   11.81
  -3  -3   3   22.56   10.59
   3  -3  -3   33.37   13.36
  -3  -3   3   23.98    9.34
  -3  -3   3   24.88    8.55
   3  -3  -3   40.80   12.66
   3  -3  -3   29.79    9.23
   3  -3  -3   33.59   14.40
   3  -3  -2  847.49   59.87
   3  -3  -2  822.72   56.19
   3  -3  -2  983.77   63.63
   3  -3  -2  875.25   65.46
  -3  -3   2  810.70   48.04
   3  -3  -2  947.46   52.67
   3  -3  -2  833.25   57.55
   3  -3  -2 1008.75   60.84
   3  -3  -1 2656.98  128.71
   3  -3  -1 2618.98  125.64
   3  -3  -1 3216.66  135.39
   3  -3  -1 2862.77  139.02
   3  -3  -1 2555.06  128.52
   3  -3  -1 2637.55  124.30
   3  -3  -1 3012.15  122.98
   3  -3  -1 3326.77  135.46
   3  -3  -1 2969.29  136.16
   3  -3  -1 2578.08  128.86
   3  -3   0  486.89   41.22
  -3  -3   0  352.94   34.26
   3  -3   0  421.59   38.90
   3  -3   0  437.67   39.58
   3  -3   0  394.03   39.02
   3  -3   0  514.20   40.58
   3  -3   0  427.12   39.88
   3  -3   0  504.60   42.30
   3  -3   1  593.36   49.17
   3  -3   1  714.84   52.30
  -3  -3  -1  504.18   37.24
   3  -3   1  576.27   48.06
  -3  -3  -1  550.05   46.48
  -3  -3  -1  494.48   41.76
   3  -3   1  634.94   51.18
   3  -3   1  541.37   48.67
   3  -3   1  617.65   49.53
   3  -3   1  623.83   48.96
   3  -3   2 1403.20   82.67
   3  -3   2 1403.26   89.90
   3  -3   2 1256.20   78.82
   3  -3   2 1832.22   97.18
   3  -3   2 1508.17   91.56
   3  -3   2 1481.76   90.75
  -3  -3  -2 1526.25   80.42
   3  -3   2 1595.80   92.16
   3  -3   2 1428.35   81.19
   3  -3   2 1627.50   89.58
   3  -3   3  710.46   59.58
   3  -3   3  733.27   57.47
   3  -3   3  832.82   66.48
   3  -3   3  675.42   61.30
   3  -3   3  667.17   59.85
   3  -3   3  523.90   48.48
   3  -3   3  724.43   60.86
   3  -3   3  592.70   53.14
   3  -3   3  688.60   56.80
   3  -3   4  157.78   29.57
  -3  -3  -4  120.63   21.59
   3  -3   4  151.21   27.76
   3  -3   4  157.34   30.38
   3  -3   4  162.54   31.53
  -3  -3  -4  139.87   26.99
   3  -3   4  159.44   29.57
   3  -3   4  188.94   29.60
   3  -3   4  205.28   32.22
   3  -3   4  183.21   30.23
   3  -3   4  170.58   29.72
   3  -3   5  495.33   51.58
   3  -3   5  454.92   50.29
  -3  -3  -5  489.79   43.75
   3  -3   5  402.31   47.86
   3  -3   5  523.98   52.94
   3  -3   5  381.73   52.70
  -3  -3  -5  395.98   47.47
   3  -3   5  460.19   50.20
   3  -3   5  482.94   54.11
  -3  -3  -6  760.93   51.95
   3  -3   6  799.51   65.14
  -3  -3  -6  798.06   59.02
  -3  -3  -6  739.87   60.05
   3  -3   6  785.32   66.93
  -3  -3  -6  496.53   60.54
   3  -3   6  643.16   58.22
  -3  -3  -6  837.96   62.37
  -3  -3  -6  825.34   60.28
   3  -3   6  614.03   68.32
  -3  -3  -6  709.48   67.80
   3  -3   6  702.44   64.68
   3  -3   6  820.65   66.85
   3  -3   6  839.05   67.24
   3  -3   6  741.55   68.67
  -3  -3  -7  143.46   24.10
   3  -3   7  150.26   25.56
  -3  -3  -7  142.04   25.30
   3  -3   7   95.08   18.68
  -3  -3  -7  145.73   23.96
  -3  -3  -7  184.54   28.25
  -3  -3  -7  177.82   27.09
   3  -3   7  162.04   28.74
   3  -3   7  152.83   28.35
   3  -3   7  140.43   25.60
   3  -3   7  138.74   27.57
  -3  -3  -7  148.01   20.29
  -3  -3  -8   35.68    9.75
  -3  -3  -8   14.30   11.42
  -3  -3  -8   18.21   10.39
  -3  -3  -8   21.41    9.46
   3  -3   8   10.91    8.32
   3  -3   8   22.92    8.70
   3  -3   8   18.48   10.91
  -3  -3  -9  171.54   20.50
   3  -3   9  120.60   16.64
  -3  -2  10  280.08   28.82
   3  -2 -10  313.77   28.74
  -3  -2   9  100.46   17.51
   3  -2  -9   84.63   22.93
   3  -2  -9   88.69   16.95
  -3  -2   9   90.78   20.60
   3  -2  -9  105.16   20.51
   3  -2  -9   85.85   21.14
   3  -2  -9  122.67   22.82
  -3  -2   8   71.08   18.14
   3  -2  -8  100.90   25.30
   3  -2  -8   92.42   24.91
   3  -2  -8   96.26   27.28
   3  -2  -8  106.23   19.56
   3  -2  -8   95.47   18.90
   3  -2  -8   88.99   21.23
  -3  -2   8  112.34   24.44
   3  -2  -8   93.07   22.09
  -3  -2   7  640.82   53.23
   3  -2  -7  605.48   62.38
   3  -2  -7  762.20   66.77
   3  -2  -7  668.94   65.98
   3  -2  -7  553.35   66.83
   3  -2  -7  705.04   51.08
   3  -2  -7  637.22   51.93
  -3  -2   7  688.29   67.49
   3  -2  -7  599.21   73.01
  -3  -2   7  622.64   59.54
  -3  -2   7  674.77   56.60
  -3  -2   7  571.44   60.67
   3  -2  -7  631.05   55.75
   3  -2  -7  621.80   55.53
  -3  -2   6  171.92   25.93
   3  -2  -6  135.42   28.58
   3  -2  -6  148.78   29.45
   3  -2  -6  148.66   30.94
   3  -2  -6  147.87   33.35
   3  -2  -6  112.15   21.43
   3  -2  -6  134.70   22.71
  -3  -2   6  183.98   32.30
   3  -2  -6  167.28   36.89
  -3  -2   6  148.87   26.95
  -3  -2   6  135.64   24.01
   3  -2  -6  150.07   26.59
   3  -2  -6  101.77   22.37
   3  -2  -6  145.69   25.21
   3  -2  -5   66.30   19.48
   3  -2  -5  138.32   25.41
   3  -2  -5   95.00   23.39
   3  -2  -5   82.57   22.82
   3  -2  -5   64.68   15.13
  -3  -2   5   95.19   22.41
   3  -2  -5   92.68   21.13
   3  -2  -5  109.69   28.21
  -3  -2   5   88.08   18.13
  -3  -2   5   85.10   18.91
   3  -2  -5   85.80   18.25
   3  -2  -5   82.51   19.87
   3  -2  -5   77.88   19.29
   3  -2  -4  777.00   61.73
   3  -2  -4 1066.81   65.86
   3  -2  -4  831.62   67.78
   3  -2  -4  919.44   66.35
   3  -2  -4  950.21   76.49
  -3  -2   4  816.38   57.78
  -3  -2   4  909.31   60.07
   3  -2  -4  819.98   55.93
   3  -2  -4  867.14   63.15
   3  -2  -4  872.80   65.88
   3  -2  -3 1599.25   83.77
   3  -2  -3 1520.14   83.94
   3  -2  -3 1493.14   91.00
   3  -2  -3 1598.21   90.19
   3  -2  -3 1564.54   97.05
  -3  -2   3 1544.01   81.16
  -3  -2   3 1577.48   85.16
   3  -2  -3 1447.81   84.56
   3  -2  -3 1514.07   75.52
   3  -2  -3 1859.92   97.80
   3  -2  -2 1370.79   79.10
   3  -2  -2 1358.43   84.00
   3  -2  -2 1167.55   67.64
   3  -2  -2 1484.94   82.74
   3  -2  -1  361.74   32.55
   3  -2  -1  309.05   32.67
   3  -2  -1  304.86   35.84
   3  -2  -1  309.47   33.13
   3  -2  -1  367.91   30.89
   3  -2  -1  336.79   28.02
   3  -2   0 1073.54   67.03
  -3  -2   0 1046.83   59.03
   3  -2   0 1105.18   75.25
   3  -2   0  963.31   64.75
   3  -2   0  879.99   60.13
   3  -2   0 1154.47   63.96
   3  -2   0 1220.59   67.28
   3  -2   0 1058.26   65.75
   3  -2   1 3284.95  141.84
   3  -2   1 3777.39  148.60
  -3  -2  -1 3152.52  130.54
   3  -2   1 3435.46  133.36
   3  -2   1 3050.27  140.35
  -3  -2  -1 2778.37  126.00
  -3  -2  -1 2260.37  119.44
   3  -2   1 2834.33  124.71
   3  -2   1 2473.24  130.41
   3  -2   1 3475.93  140.07
   3  -2   2  153.90   23.04
   3  -2   2  145.23   23.34
   3  -2   2  146.55   25.11
  -3  -2  -2  131.42   17.82
   3  -2   2  134.79   22.67
   3  -2   2  109.37   22.61
  -3  -2  -2  136.11   16.79
  -3  -2  -2   99.97   19.10
   3  -2   2  114.32   18.04
   3  -2   2  113.40   18.27
   3  -2   2  108.00   21.44
   3  -2   2  113.15   20.44
   3  -2   3  251.42   32.76
   3  -2   3  250.58   32.60
  -3  -2  -3  194.60   24.69
   3  -2   3  370.52   44.21
  -3  -2  -3  280.21   25.77
   3  -2   3  281.75   38.69
  -3  -2  -3  237.14   30.64
  -3  -2  -3  148.04   20.70
   3  -2   3  216.80   30.14
   3  -2   3  289.15   35.93
   3  -2   3  275.27   35.40
   3  -2   3  248.78   31.74
   3  -2   4  792.37   66.48
   3  -2   4  971.35   73.72
  -3  -2  -4  826.87   62.29
  -3  -2  -4  870.80   56.87
   3  -2   4  888.90   65.17
   3  -2   4  996.01   78.92
   3  -2   4  986.80   81.16
   3  -2   4  919.85   73.11
  -3  -2  -4  953.21   69.99
  -3  -2  -4  772.69   57.76
   3  -2   4  923.93   71.96
   3  -2   4 1136.39   78.10
   3  -2   4 1037.35   76.12
   3  -2   4  885.79   74.58
   3  -2   5  973.88   73.49
  -3  -2  -5  888.36   64.45
   3  -2   5  705.67   66.88
  -3  -2  -5  774.94   66.04
   3  -2   5  900.14   72.04
  -3  -2  -5 1027.52   62.04
   3  -2   5  776.23   62.69
   3  -2   5  793.86   73.70
   3  -2   5  725.17   75.07
   3  -2   5  632.46   64.81
  -3  -2  -5  852.61   71.05
  -3  -2  -5  744.46   60.94
   3  -2   5  917.44   76.03
   3  -2   5  895.58   72.70
   3  -2   5  932.39   79.71
   3  -2   6   62.65   19.44
  -3  -2  -6   50.13   16.75
   3  -2   6   49.12   13.88
  -3  -2  -6   67.63   18.02
  -3  -2  -6   61.04   16.71
   3  -2   6   64.74   22.36
   3  -2   6   40.38   16.80
   3  -2   6   37.20   18.34
  -3  -2  -6   40.58   18.18
   3  -2   6   57.19   20.24
  -3  -2  -6   59.31   17.01
   3  -2   6   56.73   21.00
   3  -2   6   58.68   19.39
   3  -2   6   49.70   17.61
   3  -2   7  510.67   49.33
  -3  -2  -7  495.17   47.63
  -3  -2  -7  489.99   48.97
   3  -2   7  467.85   50.84
  -3  -2  -7  517.72   45.53
  -3  -2  -7  578.69   51.87
   3  -2   7  517.33   53.86
   3  -2   7  497.94   54.96
   3  -2   7  489.00   56.10
  -3  -2  -8  335.99   35.89
   3  -2   8  345.68   36.49
  -3  -2  -8  266.81   35.34
  -3  -2  -8  374.59   36.39
  -3  -2  -8  325.05   32.26
  -3  -2  -8  403.87   39.05
  -3  -2  -8  369.87   36.42
   3  -2   8  282.16   36.53
   3  -2   8  300.60   38.12
  -3  -2  -9   40.24   11.49
   3  -2   9   13.58    7.06
   3  -2   9   25.60    8.11
  -3  -2  -9   30.86   10.16
   3  -1 -10  113.63   19.21
   3  -1 -10   74.83   18.62
  -3  -1  10   77.63   18.41
  -3  -1  10  106.75   20.43
  -3  -1  10  125.42   20.19
  -3  -1  10  123.02   18.42
   3  -1 -10  129.30   19.15
   3  -1  -9  402.23   44.65
   3  -1  -9  280.56   44.67
   3  -1  -9  351.62   33.10
  -3  -1   9  312.84   37.52
  -3  -1   9  462.86   44.83
   3  -1  -9  339.32   34.33
   3  -1  -9  531.01   46.35
   3  -1  -9  429.15   46.87
  -3  -1   8  814.69   61.88
   3  -1  -8 1120.91   84.52
   3  -1  -8 1015.27   83.30
   3  -1  -8  933.66   86.47
   3  -1  -8 1188.99   67.05
   3  -1  -8  873.12   61.54
  -3  -1   8 1045.17   74.50
   3  -1  -8  911.68   66.96
   3  -1  -8 1091.26   73.46
   3  -1  -8  909.85   71.42
  -3  -1   7   11.76    8.52
   3  -1  -7   16.68   16.15
   3  -1  -7   27.57   19.07
   3  -1  -7   30.66   16.96
   3  -1  -7    5.09   11.63
   3  -1  -7   24.44   14.90
   3  -1  -7   32.52   12.17
  -3  -1   7   26.94   15.66
  -3  -1   7   27.25   15.14
   3  -1  -7   44.08   21.74
  -3  -1   7   20.07   12.96
  -3  -1   7   18.36   13.27
   3  -1  -7   29.78   15.77
  -3  -1   7   27.18   14.71
   3  -1  -7   34.56   14.98
   3  -1  -7   31.24   13.74
  -3  -1   6  141.42   21.78
   3  -1  -6  158.08   30.13
   3  -1  -6  137.17   29.93
   3  -1  -6  121.30   31.54
   3  -1  -6  152.03   23.53
   3  -1  -6  153.45   23.49
  -3  -1   6  164.29   31.44
   3  -1  -6  144.85   35.32
  -3  -1   6  154.42   28.29
  -3  -1   6  117.06   24.14
   3  -1  -6  148.14   30.05
   3  -1  -6  173.54   27.61
   3  -1  -6  133.93   25.20
   3  -1  -5 2335.60  128.20
   3  -1  -5 2397.00  131.35
   3  -1  -5 3093.03  133.48
   3  -1  -5 2556.53  141.95
   3  -1  -5 2149.30  106.78
   3  -1  -5 2522.64  148.29
  -3  -1   5 2361.92  123.58
  -3  -1   5 2609.68  122.92
   3  -1  -5 2147.91  114.73
   3  -1  -5 1981.69  118.06
   3  -1  -5 2148.31  114.02
  -3  -1   5 2244.86  107.18
   3  -1  -4 1407.42   85.89
   3  -1  -4 1635.82   84.46
   3  -1  -4 1302.34   88.62
   3  -1  -4 1417.35   96.22
  -3  -1   4 1603.56   85.50
  -3  -1   4 1597.96   84.58
  -3  -1   4 1212.62   66.47
   3  -1  -4 1012.04   68.45
   3  -1  -4 1283.79   71.98
   3  -1  -4 1320.90   82.72
   3  -1  -4 1204.80   77.53
  -3  -1   3  150.23   17.14
   3  -1  -3  126.06   23.34
   3  -1  -3  142.61   22.60
   3  -1  -3  134.25   25.69
  -3  -1   3  129.18   19.49
   3  -1  -3  169.30   24.21
   3  -1  -2 1962.92  102.57
   3  -1  -2 2171.83  111.69
   3  -1  -2 2012.65  105.51
   3  -1  -2 1925.17   88.20
  -3  -1   2 1794.33   88.54
  -3  -1   2 1907.35   86.46
   3  -1  -2 2310.29  104.30
   3  -1  -1  912.45   60.12
   3  -1  -1  910.97   65.03
   3  -1  -1  885.10   60.15
  -3  -1   1  817.69   41.32
   3  -1  -1  981.18   53.03
  -3  -1   1  874.55   53.05
   3  -1  -1  899.97   49.41
   3  -1  -1  892.56   52.98
   3  -1  -1  945.79   59.14
   3  -1   0  846.18   53.44
   3  -1   0  798.47   56.44
   3  -1   0  931.35   65.78
   3  -1   0  787.50   56.00
   3  -1   0  858.04   53.45
   3  -1   0  926.86   57.29
   3  -1   0  829.62   50.93
   3  -1   1  358.94   33.74
  -3  -1  -1  312.82   25.52
   3  -1   1  380.69   38.11
  -3  -1  -1  364.83   30.24
  -3  -1  -1  355.72   33.14
   3  -1   1  337.55   36.02
  -3  -1  -1  292.63   22.91
  -3  -1  -1  303.61   28.87
   3  -1   1  321.06   27.63
   3  -1   1  325.35   33.89
   3  -1   1  393.08   35.39
   3  -1   1  309.10   32.11
   3  -1   1  299.01   29.91
   3  -1   2 1441.12   80.68
   3  -1   2 1403.77   81.30
  -3  -1  -2 1456.02   73.80
   3  -1   2 1802.00   95.50
  -3  -1  -2 1480.25   70.36
  -3  -1  -2 1541.83   76.34
   3  -1   2 1335.85   83.00
   3  -1   2 1295.28   76.55
   3  -1   2 1443.98   88.52
  -3  -1  -2 1410.11   77.27
  -3  -1  -2 1025.24   62.42
   3  -1   2 1343.72   77.74
   3  -1   2 1413.90   80.25
   3  -1   2 1499.75   84.63
   3  -1   2 1400.69   81.98
   3  -1   3 1175.62   73.92
   3  -1   3 1223.10   79.07
   3  -1   3 1140.90   74.43
  -3  -1  -3 1283.26   73.88
   3  -1   3 1697.53   97.73
  -3  -1  -3 1330.52   69.29
   3  -1   3 1180.65   81.03
   3  -1   3 1119.35   72.63
   3  -1   3 1146.58   84.30
   3  -1   3 1130.59   76.53
  -3  -1  -3 1272.97   76.58
  -3  -1  -3  884.75   61.13
   3  -1   3 1189.78   78.36
   3  -1   3 1270.91   81.31
   3  -1   3 1188.96   81.52
   3  -1   3  876.22   66.58
   3  -1   4  100.60   19.59
   3  -1   4   81.23   21.06
  -3  -1  -4  105.73   17.57
   3  -1   4   60.87   15.39
  -3  -1  -4   91.96   20.58
   3  -1   4   88.04   21.47
  -3  -1  -4  120.53   19.91
   3  -1   4  109.91   26.62
   3  -1   4  103.40   24.23
   3  -1   4   82.40   19.58
  -3  -1  -4   94.76   21.81
   3  -1   4   89.11   21.88
  -3  -1  -4   61.32   16.46
   3  -1   4   76.38   21.34
   3  -1   4   70.11   17.07
   3  -1   4   64.58   20.30
   3  -1   4   78.69   20.66
   3  -1   4   83.70   23.03
   3  -1   5  207.14   33.55
   3  -1   5  297.97   39.36
  -3  -1  -5  217.55   31.60
  -3  -1  -5  235.50   27.68
  -3  -1  -5  250.03   37.38
   3  -1   5  207.25   35.18
   3  -1   5  243.11   35.72
  -3  -1  -5  261.03   31.98
   3  -1   5  251.38   34.01
   3  -1   5  220.71   37.32
   3  -1   5  208.45   39.54
   3  -1   5  197.25   33.56
  -3  -1  -5  265.19   37.98
  -3  -1  -5  226.36   32.85
   3  -1   5  272.89   42.66
   3  -1   5  254.28   36.04
   3  -1   5  263.01   43.62
   3  -1   6  417.47   49.37
   3  -1   6  485.86   50.18
  -3  -1  -6  459.95   47.79
  -3  -1  -6  473.09   52.99
  -3  -1  -6  399.54   39.36
   3  -1   6  463.02   53.70
  -3  -1  -6  474.32   44.68
   3  -1   6  417.47   44.01
   3  -1   6  455.92   53.30
   3  -1   6  389.92   55.19
   3  -1   6  462.61   51.78
  -3  -1  -6  428.52   52.41
  -3  -1  -6  261.77   43.81
  -3  -1  -6  400.13   44.48
   3  -1   6  447.05   56.53
   3  -1   6  367.66   46.20
   3  -1   6  464.92   58.21
   3  -1   7  314.56   40.58
   3  -1   7  357.02   42.00
  -3  -1  -7  354.59   41.15
  -3  -1  -7  308.87   40.82
  -3  -1  -7  348.05   36.39
   3  -1   7  346.34   44.14
  -3  -1  -7  420.89   44.10
  -3  -1  -7  365.53   38.50
   3  -1   7  360.36   44.55
   3  -1   7  253.87   32.84
   3  -1   7  332.84   42.10
   3  -1   7  306.30   44.95
   3  -1   8   31.66   12.37
  -3  -1  -8   36.74   13.90
  -3  -1  -8   29.53   14.07
  -3  -1  -8   32.16   13.32
  -3  -1  -8   28.76   10.94
  -3  -1  -8   30.78   11.98
   3  -1   8   39.03   16.35
   3  -1   8   37.04   14.19
  -3  -1  -8   26.78   12.92
   3  -1   9  111.66   17.22
  -3  -1  -9  135.74   18.92
   3   0 -10  486.22   44.09
   3   0 -10  359.64   42.93
  -3   0  10  400.02   42.75
  -3   0  10  529.21   45.27
  -3   0  10  545.62   37.46
   3   0 -10  573.63   42.12
   3   0  -9   20.46   14.32
   3   0  -9   29.48   15.23
  -3   0   9   18.56   11.94
  -3   0   9   23.52   13.42
   3   0  -9   35.97   13.18
   3   0  -9   39.21   14.60
   3   0  -9   21.64   11.98
   3   0  -8   79.84   23.95
   3   0  -8   27.49   18.14
   3   0  -8   50.11   16.35
   3   0  -8   46.97   13.30
  -3   0   8   50.63   19.21
  -3   0   8   77.30   20.41
  -3   0   8   74.02   20.28
   3   0  -8   79.64   24.81
  -3   0   8   88.58   19.55
  -3   0   8   84.26   20.82
   3   0  -8   39.72   16.22
   3   0  -8   60.63   19.72
   3   0  -8   89.70   24.20
   3   0  -7 1012.13   78.48
   3   0  -7  839.71   78.68
   3   0  -7  869.88   85.90
   3   0  -7  928.81   62.13
   3   0  -7  737.44   55.43
  -3   0   7  973.36   69.75
   3   0  -7  840.57   90.53
  -3   0   7  973.92   78.45
  -3   0   7  892.10   70.18
  -3   0   7  918.73   59.58
   3   0  -7  927.23   70.58
  -3   0   7  832.68   73.73
   3   0  -7  817.55   65.91
   3   0  -7  693.41   71.94
   3   0  -6  658.79   59.92
   3   0  -6  630.88   64.65
   3   0  -6  597.44   68.58
   3   0  -6  515.38   44.60
   3   0  -6  565.98   44.46
  -3   0   6  566.45   52.12
  -3   0   6  701.68   54.78
   3   0  -6  606.03   72.32
  -3   0   6  624.03   59.95
  -3   0   6  591.85   54.02
   3   0  -6  594.68   52.55
   3   0  -6  618.60   54.20
   3   0  -6  608.85   50.51
   3   0  -6  513.10   58.25
   3   0  -5   93.29   23.56
   3   0  -5   79.90   19.79
   3   0  -5   63.61   22.31
   3   0  -5   86.12   13.99
   3   0  -5   82.51   25.50
  -3   0   5   96.07   20.69
  -3   0   5   98.17   22.62
  -3   0   5   75.80   16.58
   3   0  -5   54.48   14.22
   3   0  -5   64.08   17.40
   3   0  -5   76.48   18.94
   3   0  -4  755.23   58.10
   3   0  -4 1207.32   78.89
   3   0  -4 1359.68   75.12
   3   0  -4 1329.78   87.59
   3   0  -4 1299.56   91.86
  -3   0   4 1439.35   79.86
  -3   0   4 1028.65   61.09
   3   0  -4 1069.75   63.01
   3   0  -4 1064.31   73.15
  -3   0   4 1329.07   71.49
   3   0  -3 1636.76   93.54
   3   0  -3 1645.73   98.45
   3   0  -3 1804.23  106.33
  -3   0   3 1836.55   89.45
  -3   0   3 1711.96   90.04
  -3   0   3 1887.33   82.63
   3   0  -3 1707.64   88.24
   3   0  -2 1252.81   76.10
  -3   0   2 1312.08   70.68
   3   0  -2 1231.23   79.80
   3   0  -2 1211.18   76.35
  -3   0   2 1374.78   76.60
  -3   0   2 1102.16   62.75
  -3   0   2 1293.56   68.02
   3   0  -2 1303.73   70.47
   3   0  -1   49.67   14.22
   3   0  -1   48.23   13.13
   3   0  -1   41.92   15.49
   3   0  -1   40.86   13.03
  -3   0   1   42.20   11.70
  -3   0   1   42.05   12.43
   3   0   0 2382.79  113.56
   3   0   0 2265.48  112.48
  -3   0   0 2548.86  115.63
   3   0   0 2367.90  123.14
   3   0   0 2203.60  112.88
  -3   0   0 2302.15   96.66
   3   0   0 2316.95  106.16
   3   0   0 2234.62  104.59
   3   0   1 3459.04  145.06
  -3   0  -1 3597.92  137.75
   3   0   1 2639.84  132.54
  -3   0  -1 3516.02  139.03
   3   0   1 3256.45  144.73
  -3   0  -1 2882.15  126.18
   3   0   1 2549.00  125.66
   3   0   1 3063.44  138.36
   3   0   1 2862.57  133.73
   3   0   1 2677.18  130.49
   3   0   2  314.32   29.62
   3   0   2  286.32   33.31
  -3   0  -2  341.52   34.21
   3   0   2  401.40   41.38
  -3   0  -2  388.85   33.20
  -3   0  -2  391.40   34.39
   3   0   2  239.64   29.10
   3   0   2  337.80   39.08
  -3   0  -2  289.48   31.07
   3   0   2  207.70   28.91
  -3   0  -2  262.36   25.75
   3   0   2  303.94   33.46
   3   0   2  306.52   34.86
   3   0   2  306.04   35.38
   3   0   3  112.19   21.21
  -3   0  -3  136.52   18.67
   3   0   3  129.46   24.52
  -3   0  -3  133.57   23.81
   3   0   3  194.25   32.05
  -3   0  -3  137.04   20.82
  -3   0  -3  166.80   23.00
   3   0   3  138.88   25.33
   3   0   3  112.14   21.11
   3   0   3  144.14   28.27
  -3   0  -3  126.71   23.50
  -3   0  -3  100.10   18.88
   3   0   3  132.78   25.79
   3   0   3   97.84   21.32
   3   0   3  112.21   23.37
   3   0   3  108.42   22.31
   3   0   3  146.33   28.11
   3   0   3  112.49   20.20
   3   0   4 2919.16  149.86
  -3   0  -4 2986.80  126.44
  -3   0  -4 3284.57  138.26
  -3   0  -4 3567.73  158.86
   3   0   4 3181.85  157.32
  -3   0  -4 2786.28  135.24
  -3   0  -4 3545.08  143.80
   3   0   4 3297.16  158.43
   3   0   4 2440.22  136.59
   3   0   4 3279.60  170.21
   3   0   4 3108.54  150.55
  -3   0  -4 3167.44  149.18
  -3   0  -4 3019.81  154.10
  -3   0  -4 1887.73  126.93
   3   0   4 2452.91  148.75
   3   0   4 2787.56  150.35
   3   0   4 3050.43  148.01
   3   0   4 2386.30  149.46
   3   0   4 2863.28  140.06
   3   0   5  307.19   44.45
   3   0   5  497.64   49.59
  -3   0  -5  276.25   37.01
  -3   0  -5  352.25   37.72
  -3   0  -5  461.37   53.26
   3   0   5  341.02   46.69
  -3   0  -5  344.76   38.62
  -3   0  -5  384.13   41.85
   3   0   5  358.60   46.62
   3   0   5  417.85   45.13
   3   0   5  330.85   51.38
   3   0   5  319.09   42.71
  -3   0  -5  405.60   48.47
  -3   0  -5  359.96   46.97
  -3   0  -5  359.67   43.28
   3   0   5  445.46   55.94
   3   0   5  303.93   44.19
   3   0   5  389.02   44.97
   3   0   5  512.91   60.43
   3   0   6   32.36   18.12
   3   0   6   37.67   16.11
  -3   0  -6   29.30   15.97
  -3   0  -6   22.49   11.97
  -3   0  -6   42.26   15.68
  -3   0  -6   51.52   13.51
  -3   0  -6   45.83   16.80
   3   0   6   21.19   17.65
   3   0   6   33.81   15.76
   3   0   6   41.92   15.88
  -3   0  -6   15.74   15.27
   3   0   6   27.67   14.62
  -3   0  -6   23.24   11.94
  -3   0  -6   36.11   13.07
   3   0   6   43.00   20.06
   3   0   6   40.56   19.20
   3   0   6   39.10   15.39
   3   0   7  428.29   51.43
   3   0   7  525.52   50.28
  -3   0  -7  526.79   50.94
  -3   0  -7  486.73   49.49
  -3   0  -7  471.78   45.44
  -3   0  -7  369.92   38.34
   3   0   7  433.30   51.81
  -3   0  -7  508.38   48.45
  -3   0  -7  526.28   44.85
   3   0   7  466.36   48.64
   3   0   7  367.51   41.57
   3   0   7  505.95   59.15
   3   0   8  366.97   37.96
  -3   0  -8  370.03   41.15
  -3   0  -8  333.47   40.51
   3   0   8  327.37   39.59
  -3   0  -8  388.84   38.34
  -3   0  -8  381.87   39.94
  -3   0  -8  421.89   40.84
  -3   0  -8  427.83   37.08
   3   0   8  343.31   34.21
   3   0   8  369.10   44.74
   3   0   8  372.34   45.35
   3   0   9  227.53   22.31
   3   0   9  186.18   23.58
  -3   0  -9  262.84   25.77
  -3   0  -9  188.56   25.25
   3   1 -10   98.65   19.47
   3   1 -10   96.89   19.92
  -3   1  10   98.71   19.73
   3   1 -10   81.17   13.57
  -3   1  10   75.71   12.73
   3   1 -10  125.24   19.29
   3   1 -10  110.12   17.28
   3   1  -9  505.34   50.30
   3   1  -9  339.95   49.75
  -3   1   9  358.39   40.71
  -3   1   9  439.61   45.62
  -3   1   9  574.16   40.97
   3   1  -9  435.83   41.53
   3   1  -9  460.50   43.79
   3   1  -9  421.02   47.62
   3   1  -8  990.85   82.07
   3   1  -8  853.38   86.30
   3   1  -8 1051.62   65.61
  -3   1   8  931.24   75.42
  -3   1   8  774.86   67.22
  -3   1   8  898.23   70.45
  -3   1   8  909.03   73.85
  -3   1   8 1105.82   68.27
   3   1  -8 1045.69   75.22
   3   1  -8  994.26   84.91
  -3   1   7   47.24   15.27
   3   1  -7   24.07   15.42
   3   1  -7   29.33   17.86
   3   1  -7   26.01   15.64
   3   1  -7   27.60   19.94
   3   1  -7   29.48   16.29
   3   1  -7   16.92    9.55
  -3   1   7   28.73   14.52
  -3   1   7   16.37   14.04
  -3   1   7   54.89   20.23
   3   1  -7   54.14   21.82
  -3   1   7   34.86   16.54
  -3   1   7   22.33   14.68
  -3   1   7   29.80   12.50
   3   1  -7   46.66   17.44
  -3   1   7   44.26   15.20
   3   1  -7   44.73   20.83
   3   1  -6  115.11   28.23
   3   1  -6  134.05   27.08
   3   1  -6  111.87   31.10
   3   1  -6  125.82   22.80
   3   1  -6  104.15   16.70
  -3   1   6  132.11   20.68
  -3   1   6  145.47   25.03
   3   1  -6  143.36   35.96
  -3   1   6  143.52   27.06
  -3   1   6  139.21   27.66
  -3   1   6  132.92   28.77
   3   1  -6   85.81   20.30
   3   1  -6  134.07   22.49
   3   1  -6  121.01   23.93
   3   1  -6  136.94   32.04
   3   1  -5 2326.13  128.02
   3   1  -5 2759.58  124.37
   3   1  -5 2533.20  143.50
   3   1  -5 2078.67  102.70
  -3   1   5 2683.19  116.64
   3   1  -5 2541.92  152.18
   3   1  -5 1518.20  108.62
  -3   1   5 2739.90  125.88
  -3   1   5 2938.85  138.90
   3   1  -5 2200.88  114.99
   3   1  -5 1469.22  102.25
  -3   1   5 2409.09  113.15
  -3   1   5 2504.00  124.79
   3   1  -5 2021.95  105.50
   3   1  -5 2296.37  132.39
   3   1  -4 1423.51   87.55
  -3   1   4 1767.34   91.71
   3   1  -4 1368.88   89.85
   3   1  -4 1644.05   84.83
   3   1  -4 1426.41   96.32
   3   1  -4 1716.81   94.69
   3   1  -4 1625.29  106.46
  -3   1   4 1635.02   89.88
  -3   1   4 1333.41   76.00
   3   1  -4 1180.35   74.17
  -3   1   4 1758.91   84.03
   3   1  -4  984.42   67.12
   3   1  -4 1457.15   92.16
   3   1  -3  145.83   23.88
   3   1  -3  109.26   23.26
   3   1  -3  151.12   27.93
  -3   1   3  149.78   22.26
  -3   1   3  165.82   24.35
  -3   1   3  125.06   15.69
  -3   1   3  176.26   22.65
   3   1  -2 1847.47  102.97
  -3   1   2 2188.28  107.01
  -3   1   2 2012.83  102.97
  -3   1   2 1934.33   92.46
  -3   1   2 2174.34  103.79
   3   1  -1  855.35   60.70
  -3   1   1 1071.60   68.19
  -3   1   1 1113.24   69.92
  -3   1   1 1074.90   62.93
   3   1  -1 1037.15   68.68
   3   1   0  707.88   53.56
   3   1   0  677.50   50.92
  -3   1   0  811.99   56.33
  -3   1   0  667.95   40.56
  -3   1   0  735.61   53.92
   3   1   1  316.81   34.82
  -3   1  -1  395.51   36.57
  -3   1  -1  390.39   35.68
  -3   1  -1  394.82   32.78
  -3   1  -1  342.45   37.77
   3   1   1  303.54   35.09
   3   1   1  268.51   31.85
   3   1   2 1169.18   73.20
   3   1   2 1504.02   84.31
   3   1   2 1501.25   85.23
   3   1   2 1227.90   76.72
   3   1   2 1408.79   84.42
  -3   1  -2 1534.25   79.75
  -3   1  -2 1535.21   77.90
  -3   1  -2 1125.79   71.55
  -3   1  -2 1189.85   81.41
   3   1   2 1185.93   78.24
  -3   1  -2  949.55   60.86
   3   1   2 1407.45   86.37
   3   1   2 1158.46   78.78
   3   1   3 1266.24   85.20
  -3   1  -3 1330.59   72.90
   3   1   3 1383.17   85.11
   3   1   3 1370.90   92.81
   3   1   3 1388.55   88.76
  -3   1  -3 1636.23   96.29
   3   1   3 1635.77   97.95
  -3   1  -3 1570.12   84.47
  -3   1  -3 1596.08   83.16
   3   1   3 1130.38   77.78
  -3   1  -3 1274.04   82.57
  -3   1  -3 1129.41   76.01
   3   1   3 1358.16   90.69
   3   1   3 1337.64   92.93
   3   1   3 1156.16   75.49
   3   1   4   85.98   23.28
  -3   1  -4   88.25   16.86
  -3   1  -4   69.72   17.46
  -3   1  -4   77.18   22.35
   3   1   4   75.07   23.58
  -3   1  -4   78.73   19.87
  -3   1  -4   86.40   19.38
   3   1   4   81.93   24.29
   3   1   4   76.01   18.23
   3   1   4   57.62   17.01
  -3   1  -4   69.15   20.87
  -3   1  -4   65.96   20.47
  -3   1  -4   49.87   16.52
   3   1   4   68.51   22.84
   3   1   4   65.93   21.15
   3   1   4   62.52   20.18
   3   1   4   64.57   17.56
   3   1   5  162.13   35.20
  -3   1  -5  152.56   23.57
  -3   1  -5  163.67   28.72
  -3   1  -5  164.96   26.34
  -3   1  -5  199.82   28.52
  -3   1  -5  271.57   43.39
  -3   1  -5  206.49   31.82
  -3   1  -5  165.20   27.76
  -3   1  -5  164.24   29.21
   3   1   5  195.97   31.73
   3   1   5  212.98   32.68
   3   1   5  192.09   39.23
   3   1   5  201.23   31.38
  -3   1  -5  204.09   35.49
  -3   1  -5  197.39   33.97
  -3   1  -5  207.56   34.27
   3   1   5  232.31   41.53
   3   1   5  226.01   39.75
   3   1   6  413.95   56.04
  -3   1  -6  473.84   47.79
  -3   1  -6  451.70   45.15
  -3   1  -6  445.37   44.21
  -3   1  -6  552.85   64.11
  -3   1  -6  534.50   48.87
  -3   1  -6  393.59   46.54
   3   1   6  385.33   44.66
   3   1   6  399.14   58.57
  -3   1  -6  347.38   49.31
  -3   1  -6  184.52   37.07
  -3   1  -6  435.62   49.92
   3   1   6  435.84   57.99
   3   1   6  335.15   46.97
   3   1   6  361.62   42.53
   3   1   7  360.36   49.12
   3   1   7  326.61   40.14
  -3   1  -7  336.34   41.12
  -3   1  -7  356.84   40.01
  -3   1  -7  354.84   39.93
  -3   1  -7  373.06   41.42
  -3   1  -7  328.49   33.72
   3   1   7  272.40   35.59
  -3   1  -7  316.50   39.29
   3   1   7  343.17   48.94
   3   1   7  290.84   36.79
   3   1   8   53.50   14.42
   3   1   8   14.63   11.23
  -3   1  -8   45.72   15.52
  -3   1  -8   32.76   13.24
  -3   1  -8   24.09   12.65
   3   1   8   24.75   13.60
   3   1   8   25.28   10.74
  -3   1  -8   30.55   13.40
   3   1   9  134.02   17.75
   3   1   9  112.03   17.41
   3   1   9   65.68   14.89
  -3   1  -9  101.88   17.93
  -3   1  -9  130.57   19.95
   3   2 -10  229.81   22.00
  -3   2  10  240.18   24.39
   3   2 -10  245.71   27.65
   3   2  -9  113.31   24.82
   3   2  -9   85.53   23.76
  -3   2   9   99.32   20.71
  -3   2   9  128.00   21.13
   3   2  -9  122.29   22.49
   3   2  -9  106.34   24.97
   3   2  -8   91.38   25.31
   3   2  -8  105.54   28.21
   3   2  -8   91.26   28.05
   3   2  -8  113.20   21.46
  -3   2   8  125.63   21.52
  -3   2   8  118.70   26.48
  -3   2   8  128.17   26.06
  -3   2   8   72.13   19.15
  -3   2   8   83.96   22.12
  -3   2   8  123.26   22.25
   3   2  -8   94.27   23.10
   3   2  -8   77.76   25.51
   3   2  -7  739.49   70.77
   3   2  -7  707.42   63.51
   3   2  -7  797.02   77.46
   3   2  -7  605.05   73.68
   3   2  -7  794.77   55.68
  -3   2   7  828.57   58.60
  -3   2   7  845.10   71.15
  -3   2   7  709.58   71.51
  -3   2   7  735.58   62.14
  -3   2   7  824.30   77.74
   3   2  -7  620.77   80.11
   3   2  -7  554.84   56.56
  -3   2   7  731.47   68.93
   3   2  -7  663.31   63.10
  -3   2   7  658.77   54.41
  -3   2   7  580.85   59.53
   3   2  -7  653.61   58.58
   3   2  -7  730.97   61.88
   3   2  -7  772.39   79.11
   3   2  -6  108.22   27.75
   3   2  -6  138.70   31.65
   3   2  -6   94.07   23.43
   3   2  -6  135.76   33.76
  -3   2   6  121.32   26.28
  -3   2   6  143.40   25.10
   3   2  -6  120.83   35.55
   3   2  -6  100.77   24.93
  -3   2   6  117.47   27.60
   3   2  -6   97.75   23.87
   3   2  -6   99.54   22.60
   3   2  -6  133.33   25.31
   3   2  -6  141.36   33.80
   3   2  -5   76.01   16.44
   3   2  -5   77.12   22.18
   3   2  -5  104.19   26.58
   3   2  -5   86.11   19.51
   3   2  -5  105.79   28.13
  -3   2   5   88.30   21.07
  -3   2   5   76.19   18.22
   3   2  -5   74.66   26.64
   3   2  -5   55.11   19.83
   3   2  -5   99.29   20.17
  -3   2   5   64.52   15.82
  -3   2   5   93.71   22.79
   3   2  -5   57.94   16.94
  -3   2   5   77.39   18.93
   3   2  -5   68.10   18.02
   3   2  -5  119.05   28.57
   3   2  -4  855.31   64.24
   3   2  -4  884.97   68.28
   3   2  -4  957.35   60.33
   3   2  -4  890.37   63.77
   3   2  -4  882.91   73.17
  -3   2   4 1138.44   74.80
   3   2  -4 1018.55   71.29
   3   2  -4  673.34   47.22
  -3   2   4  747.97   60.15
  -3   2   4  798.10   53.85
   3   2  -4  878.13   77.50
   3   2  -4  907.90   69.88
   3   2  -4  771.98   56.02
  -3   2   4  912.11   59.47
   3   2  -4  712.20   53.37
  -3   2   4 1040.22   66.89
   3   2  -4  789.25   50.40
   3   2  -4  597.03   49.78
   3   2  -4  857.87   70.65
   3   2  -3 1565.67   84.47
   3   2  -3 1609.82   89.68
   3   2  -3 1604.62   97.95
   3   2  -3 1752.25   94.31
  -3   2   3 1906.88   93.91
   3   2  -3 1673.34  104.92
   3   2  -3 1691.54   99.72
  -3   2   3 1723.62   91.72
  -3   2   3 1459.79   77.06
  -3   2   3 1842.70   96.50
  -3   2   3 2078.71  105.40
   3   2  -3 1562.86   96.28
   3   2  -2 1229.01   77.97
  -3   2   2 1454.38   83.84
  -3   2   2 1426.37   73.12
   3   2  -2 1202.54   82.40
  -3   2   2 1331.52   78.88
  -3   2   2 1656.48   90.17
  -3   2   2 1170.61   68.19
   3   2  -1  232.41   28.32
   3   2  -1  266.66   33.66
   3   2  -1  243.38   30.38
  -3   2   1  363.41   37.43
  -3   2   1  302.27   30.65
   3   2  -1  286.49   34.46
  -3   2   1  365.12   38.50
   3   2   0  887.76   60.10
  -3   2   0 1089.80   69.56
   3   2   0  906.33   66.23
   3   2   0  890.34   67.91
   3   2   0  894.69   62.74
  -3   2   0 1135.72   72.85
  -3   2   0  955.49   53.46
  -3   2   0 1094.19   68.09
   3   2   1 3184.04  144.15
  -3   2  -1 3511.51  149.82
  -3   2  -1 3402.54  143.82
   3   2   1 3198.61  149.66
  -3   2  -1 3316.85  138.79
  -3   2  -1 3427.89  154.31
   3   2   1 3000.97  150.59
   3   2   2  122.27   22.96
   3   2   2  163.71   26.64
   3   2   2  149.15   25.52
  -3   2  -2  111.41   17.59
   3   2   2  137.81   23.64
   3   2   2  135.82   21.11
   3   2   2  128.27   23.60
  -3   2  -2  153.34   24.58
  -3   2  -2  135.84   21.79
   3   2   2   93.51   18.51
   3   2   2  133.28   25.21
  -3   2  -2  140.06   23.32
   3   2   2  112.84   23.37
   3   2   2  138.83   26.57
   3   2   2  122.45   24.63
   3   2   3  311.18   40.93
  -3   2  -3  298.74   31.90
   3   2   3  315.25   36.30
   3   2   3  328.49   39.86
   3   2   3  233.89   29.35
   3   2   3  395.44   43.48
  -3   2  -3  340.26   38.15
  -3   2  -3  331.76   35.59
   3   2   3  314.27   43.05
  -3   2  -3  240.03   26.99
  -3   2  -3  203.55   32.35
  -3   2  -3  299.85   40.61
   3   2   3  328.02   42.01
   3   2   3  306.75   43.93
   3   2   3  285.37   40.79
   3   2   3  277.05   32.34
   3   2   4  985.39   83.35
  -3   2  -4  962.00   63.64
   3   2   4  922.83   69.12
  -3   2  -4 1158.63   70.18
  -3   2  -4  797.64   59.17
   3   2   4  983.74   78.76
  -3   2  -4 1101.09   89.13
   3   2   4  842.70   61.36
  -3   2  -4  944.17   73.81
  -3   2  -4 1022.17   73.09
   3   2   4 1070.17   90.21
  -3   2  -4 1020.07   78.02
  -3   2  -4  916.60   75.29
  -3   2  -4  852.40   71.95
   3   2   4  826.03   77.61
   3   2   4  982.66   87.63
   3   2   4  947.34   66.85
   3   2   5  804.92   81.02
  -3   2  -5  743.71   58.44
  -3   2  -5  738.40   60.26
  -3   2  -5  898.33   64.15
  -3   2  -5 1215.54   96.52
   3   2   5  856.32   77.74
  -3   2  -5  639.94   66.98
  -3   2  -5  692.38   59.42
  -3   2  -5  736.94   66.04
   3   2   5  907.71   71.29
   3   2   5  864.96   86.60
  -3   2  -5 1030.58   82.12
  -3   2  -5  831.10   70.60
  -3   2  -5  843.90   75.64
   3   2   5  850.80   81.40
   3   2   5  849.89   83.61
  -3   2  -5  975.86   67.91
   3   2   6   85.93   27.92
  -3   2  -6   56.04   15.70
  -3   2  -6   59.94   18.97
  -3   2  -6   39.91   15.17
  -3   2  -6   81.99   25.21
  -3   2  -6   54.02   16.87
  -3   2  -6   39.37   17.22
  -3   2  -6   65.31   18.68
   3   2   6   51.92   22.98
   3   2   6   65.08   22.44
   3   2   6   63.35   19.10
  -3   2  -6   53.42   21.04
  -3   2  -6   52.97   14.99
   3   2   6   71.97   24.14
   3   2   6   52.80   18.68
  -3   2  -6   42.17   16.40
   3   2   7  543.98   62.64
  -3   2  -7  543.71   51.31
  -3   2  -7  480.65   48.70
  -3   2  -7  551.10   49.72
   3   2   7  560.49   59.00
  -3   2  -7  599.17   52.85
   3   2   7  441.59   46.25
  -3   2  -7  499.14   49.28
   3   2   7  510.44   59.78
   3   2   7  460.48   46.09
   3   2   8  367.03   43.02
   3   2   8  393.98   38.14
  -3   2  -8  365.83   38.84
  -3   2  -8  382.82   38.09
   3   2   8  359.10   39.61
  -3   2  -8  342.23   38.48
  -3   2  -8  361.28   34.69
  -3   2  -8  374.66   40.58
   3   2   8  356.33   35.32
  -3   2  -8  389.63   39.03
  -3   2  -8  282.55   32.32
   3   2   9   26.90    9.18
   3   2   9   10.07    6.99
  -3   2  -9   24.71    9.56
   3   2   9   28.70    8.63
  -3   2  -9   35.63   10.17
  -3   3  10   25.49    7.78
  -3   3  10   48.68    8.04
   3   3 -10   55.25   12.81
   3   3  -9  520.88   49.04
   3   3  -9  403.43   47.81
  -3   3   9  645.02   43.48
   3   3  -9  546.23   46.47
  -3   3   9  792.62   51.91
   3   3  -9  580.36   55.72
   3   3  -8  517.80   55.96
   3   3  -8  480.74   57.27
  -3   3   8  675.33   51.06
  -3   3   8  570.03   56.81
  -3   3   8  467.88   49.15
  -3   3   8  325.09   39.06
   3   3  -8  340.65   40.43
   3   3  -8  585.49   53.98
  -3   3   8  641.14   50.84
   3   3  -7  329.29   45.68
   3   3  -7  323.06   47.10
   3   3  -7  259.85   45.69
  -3   3   7  371.56   39.30
  -3   3   7  325.33   45.09
  -3   3   7  231.97   35.35
  -3   3   7  343.30   41.96
   3   3  -7  337.11   53.53
  -3   3   7  297.97   47.68
   3   3  -7  303.99   42.63
  -3   3   7  376.43   45.97
  -3   3   7  320.96   39.72
   3   3  -7  295.49   41.85
  -3   3   7  327.99   37.20
   3   3  -7  300.03   38.59
   3   3  -6  964.43   80.81
   3   3  -6 1124.54   73.70
   3   3  -6 1045.25   87.98
   3   3  -6 1024.80   92.56
   3   3  -6 1133.79   67.51
  -3   3   6 1287.23   89.59
  -3   3   6 1216.34   84.66
  -3   3   6 1133.27   77.84
   3   3  -6  930.89   94.64
   3   3  -6 1098.63   87.62
  -3   3   6 1199.79   87.87
  -3   3   6  711.36   64.87
   3   3  -6  914.55   76.48
   3   3  -6  830.42   68.41
  -3   3   6 1193.06   92.87
  -3   3   6 1174.29   87.56
   3   3  -6  971.83   72.18
  -3   3   6 1026.57   67.19
   3   3  -5 2277.33  110.63
   3   3  -5 2170.22  127.76
   3   3  -5 2188.60  134.61
   3   3  -5 1750.96   95.97
  -3   3   5 2227.80  122.86
  -3   3   5 2298.69  121.43
  -3   3   5 2115.84  110.32
   3   3  -5 2276.14  144.60
   3   3  -5 1634.91  118.70
  -3   3   5 2248.89  114.32
  -3   3   5 2735.02  136.92
   3   3  -5 1927.61  115.02
  -3   3   5 2070.14  111.24
   3   3  -5 1615.58  102.96
  -3   3   5 2591.08  134.06
   3   3  -5 1649.06  103.30
  -3   3   5 2591.97  136.11
   3   3  -4  538.24   52.36
   3   3  -4  563.21   44.36
   3   3  -4  535.18   48.13
   3   3  -4  544.28   55.99
  -3   3   4  726.84   61.55
   3   3  -4  409.01   35.48
  -3   3   4  548.40   51.02
  -3   3   4  502.11   48.43
  -3   3   4  557.76   44.58
   3   3  -4  547.66   59.91
   3   3  -4  549.05   57.91
   3   3  -4  499.23   45.85
  -3   3   4  554.45   48.39
  -3   3   4  547.36   47.65
  -3   3   4  710.45   58.44
   3   3  -4  426.85   40.17
   3   3  -3   48.88   11.30
  -3   3   3   32.30   13.34
   3   3  -3   29.72   11.43
   3   3  -3   35.36   13.29
  -3   3   3   35.70   12.77
  -3   3   3   57.08   15.96
   3   3  -3   40.34   15.55
   3   3  -3   45.11   16.84
  -3   3   3   46.27   14.75
  -3   3   3   33.69   12.14
  -3   3   3   21.31    8.79
  -3   3   3   36.93   12.89
   3   3  -3   44.02   15.97
   3   3  -2  734.77   55.20
   3   3  -2  802.59   59.61
   3   3  -2  860.03   59.49
  -3   3   2  959.18   59.84
  -3   3   2 1080.26   63.32
   3   3  -2  859.65   65.77
  -3   3   2 1036.52   72.65
  -3   3   2  990.80   65.82
  -3   3   2  920.75   57.63
  -3   3   2 1032.91   70.62
   3   3  -2 1013.06   73.90
   3   3  -2  740.82   61.85
   3   3  -1 2026.36  113.75
   3   3  -1 2131.43  110.61
   3   3  -1 2196.56  112.60
  -3   3   1 2764.73  130.62
   3   3  -1 2074.88  110.47
  -3   3   1 2841.74  113.55
  -3   3   1 2915.73  120.94
   3   3  -1 2054.08  117.88
   3   3  -1 2492.90  127.31
   3   3  -1 2137.75  114.11
  -3   3   1 2916.88  129.31
  -3   3   1 2770.87  120.77
  -3   3   1 3031.14  136.85
   3   3  -1 2218.56  119.82
   3   3   0  361.85   39.10
   3   3   0  414.32   37.78
   3   3   0  370.37   35.52
  -3   3   0  508.33   46.01
  -3   3   0  460.42   40.32
  -3   3   0  400.04   34.60
   3   3   0  383.79   37.74
  -3   3   0  421.68   34.29
  -3   3   0  479.81   43.16
  -3   3   0  453.76   47.68
  -3   3   0  452.76   38.40
   3   3   0  412.86   42.26
   3   3   1  472.67   44.41
   3   3   1  553.55   46.09
   3   3   1  570.80   45.68
  -3   3  -1  698.51   54.21
   3   3   1  396.23   38.28
   3   3   1  535.00   47.73
  -3   3  -1  656.06   56.58
  -3   3  -1  613.59   46.94
  -3   3  -1  605.19   52.68
  -3   3  -1  597.32   44.74
   3   3   1  576.89   55.14
  -3   3  -1  565.18   42.75
   3   3   1  645.31   55.14
  -3   3  -2 1753.79   87.99
   3   3   2 1648.45   94.64
   3   3   2 1433.02   87.67
   3   3   2 1493.73   92.26
   3   3   2 1398.35   86.76
   3   3   2 1481.88   88.64
   3   3   2 1714.20   93.60
  -3   3  -2 1855.57   99.68
  -3   3  -2 1689.82   90.23
   3   3   2 1202.48   82.04
   3   3   2 1630.11   98.63
  -3   3  -2 1561.82  100.11
  -3   3  -2 1683.40   95.04
  -3   3  -2 1588.66   85.12
   3   3   2 1615.51  106.20
   3   3   2 2201.11  116.25
   3   3   2 1547.91   84.28
   3   3   3  636.32   63.46
  -3   3  -3  719.32   52.91
   3   3   3  629.81   54.78
  -3   3  -3  758.36   56.11
   3   3   3  691.37   58.73
   3   3   3  563.21   51.50
  -3   3  -3  820.43   64.04
  -3   3  -3  840.90   59.46
   3   3   3  531.18   50.71
   3   3   3  687.39   64.56
  -3   3  -3  528.46   56.23
  -3   3  -3  660.03   59.64
  -3   3  -3  624.83   59.86
  -3   3  -3  680.17   50.59
   3   3   3  724.11   71.57
  -3   3  -3  485.92   44.59
   3   3   3  656.58   51.58
   3   3   4  184.04   37.39
  -3   3  -4  215.10   29.12
   3   3   4  154.67   27.38
  -3   3  -4  218.41   29.82
   3   3   4  178.95   32.58
  -3   3  -4  131.35   22.24
  -3   3  -4  184.49   26.15
   3   3   4  203.26   29.30
  -3   3  -4  224.02   34.98
  -3   3  -4  154.12   27.72
   3   3   4  131.32   26.57
   3   3   4  137.71   32.37
  -3   3  -4  133.09   28.28
  -3   3  -4  170.08   32.93
  -3   3  -4  175.80   31.56
   3   3   4  146.23   33.32
   3   3   4  185.25   39.60
   3   3   4  142.64   34.17
  -3   3  -4  156.71   25.97
   3   3   4  174.37   28.00
   3   3   5  378.85   56.24
  -3   3  -5  383.53   41.47
   3   3   5  346.35   41.59
  -3   3  -5  454.45   45.37
  -3   3  -5  405.36   43.79
  -3   3  -5  415.45   43.20
   3   3   5  426.25   52.73
   3   3   5  456.25   42.50
  -3   3  -5  341.76   49.47
  -3   3  -5  383.06   47.71
   3   3   5  346.08   55.10
  -3   3  -5  479.44   56.79
  -3   3  -5  337.14   44.39
   3   3   5  421.20   60.70
  -3   3  -5  454.63   46.02
   3   3   5  310.66   49.85
   3   3   6  798.11   81.60
  -3   3  -6  823.66   64.23
  -3   3  -6  844.98   63.76
  -3   3  -6  910.32   68.64
  -3   3  -6  798.84   61.61
   3   3   6  796.56   73.28
  -3   3  -6 1009.20   92.53
  -3   3  -6  587.04   70.24
  -3   3  -6  653.98   68.63
   3   3   6  687.06   62.86
   3   3   6  665.41   75.51
  -3   3  -6  695.14   73.60
   3   3   6  674.71   80.45
  -3   3  -6  780.67   63.54
   3   3   6  677.17   73.00
   3   3   7  148.37   32.57
  -3   3  -7  131.19   24.73
  -3   3  -7  147.37   27.21
  -3   3  -7  147.49   24.73
  -3   3  -7  164.99   23.98
   3   3   7  106.32   23.15
   3   3   7  128.69   27.55
  -3   3  -7  144.16   26.03
  -3   3  -7  123.03   23.72
   3   3   7  137.63   23.78
   3   3   8   25.50   10.73
   3   3   8    7.81    8.93
  -3   3  -8   19.53   10.10
  -3   3  -8   30.70    9.55
  -3   3  -8   32.48    9.14
   3   3   8   15.01    9.29
   3   3   8   18.75   10.24
  -3   3  -8   17.51   10.26
  -3   3  -8    2.70    7.15
   3   3   9  176.37   19.67
  -3   3  -9  136.14   17.95
  -3   4   9   31.76    9.89
  -3   4   9   30.22   10.90
  -3   4   8   62.23   19.20
  -3   4   8   60.42   16.31
  -3   4   8   56.11   17.55
  -3   4   8   46.95   14.47
   3   4  -8   25.70   14.85
  -3   4   8   74.38   17.43
   3   4  -8   56.15   17.60
   3   4  -8   45.46   21.02
   3   4  -7  378.17   47.45
   3   4  -7  321.72   46.92
   3   4  -7  462.07   39.31
  -3   4   7  510.10   46.49
  -3   4   7  463.29   53.38
  -3   4   7  345.15   42.23
   3   4  -7  444.75   54.34
  -3   4   7  424.17   57.50
  -3   4   7  490.03   50.30
  -3   4   7  381.54   41.99
   3   4  -7  482.79   51.86
  -3   4   7  494.06   44.86
  -3   4   7  331.99   39.45
   3   4  -7  345.46   41.89
   3   4  -7  533.43   66.63
  -3   4   7  526.16   45.18
   3   4  -6  429.23   51.25
   3   4  -6  401.06   52.53
   3   4  -6  492.65   40.76
  -3   4   6  492.15   55.24
  -3   4   6  415.08   42.28
  -3   4   6  468.33   51.80
  -3   4   6  424.90   48.07
   3   4  -6  393.05   54.89
   3   4  -6  451.61   58.35
  -3   4   6  432.15   49.61
  -3   4   6  421.11   43.50
   3   4  -6  385.85   48.20
  -3   4   6  509.42   50.10
  -3   4   6  514.20   59.59
  -3   4   6  579.99   61.76
  -3   4   6  346.56   43.65
   3   4  -6  405.06   44.32
   3   4  -6  454.14   63.56
  -3   4   6  447.66   43.35
  -3   4   5   65.05   16.27
   3   4  -5   39.47   14.82
   3   4  -5   59.86   20.45
   3   4  -5   72.39   16.45
  -3   4   5   43.92   18.59
  -3   4   5   61.26   20.26
  -3   4   5   80.88   17.13
   3   4  -5   84.76   22.88
   3   4  -5   48.65   21.58
  -3   4   5   60.32   16.78
  -3   4   5   80.38   22.34
   3   4  -5   62.81   20.39
  -3   4   5   47.92   16.66
  -3   4   5   82.18   23.14
  -3   4   5   95.47   23.88
  -3   4   5   61.72   19.18
   3   4  -5   28.70   14.43
   3   4  -5   94.24   29.63
   3   4  -4  873.53   57.77
   3   4  -4  846.35   62.28
   3   4  -4  721.26   64.49
  -3   4   4 1033.84   78.62
   3   4  -4  743.90   50.58
  -3   4   4 1036.58   74.93
  -3   4   4  837.46   66.82
  -3   4   4  783.18   65.28
  -3   4   4  837.07   56.63
   3   4  -4  779.55   70.97
   3   4  -4  875.89   79.55
   3   4  -4  742.57   62.11
  -3   4   4  997.87   64.46
  -3   4   4  917.64   65.92
  -3   4   4 1040.00   77.30
   3   4  -4  596.08   52.12
   3   4  -4  829.77   77.39
   3   4  -3  596.88   44.29
   3   4  -3  517.01   46.56
   3   4  -3  563.42   49.89
   3   4  -3  621.89   54.32
   3   4  -3  500.91   36.73
  -3   4   3  696.16   57.44
  -3   4   3  819.43   60.52
  -3   4   3  686.24   57.89
   3   4  -3  660.47   57.65
  -3   4   3  725.96   52.84
   3   4  -3  475.49   40.62
  -3   4   3  733.94   56.67
  -3   4   3  629.43   48.09
  -3   4   3  858.90   65.51
  -3   4   3  858.62   67.94
  -3   4   3  733.35   59.28
   3   4  -3  635.25   61.92
   3   4  -2  741.65   48.81
   3   4  -2  711.04   54.69
   3   4  -2  677.19   52.99
  -3   4   2  928.47   70.68
   3   4  -2  841.44   60.38
  -3   4   2 1047.03   65.43
  -3   4   2  991.96   67.26
  -3   4   2  995.38   72.66
   3   4  -2  721.50   59.19
   3   4  -2  832.57   70.08
  -3   4   2 1012.92   66.96
  -3   4   2  852.90   58.17
  -3   4   2  941.61   69.44
   3   4  -2  860.15   70.91
  -3   4   2 1012.90   67.58
   3   4  -2  788.71   65.87
   3   4  -1  257.01   32.87
   3   4  -1  236.15   28.41
   3   4  -1  260.54   30.74
   3   4  -1  288.41   29.38
   3   4  -1  259.79   30.24
  -3   4   1  307.61   33.12
  -3   4   1  444.23   39.80
   3   4  -1  245.07   31.16
   3   4  -1  337.26   40.98
  -3   4   1  378.41   37.17
  -3   4   1  330.11   40.21
   3   4  -1  258.57   36.52
  -3   4   1  436.83   40.87
   3   4  -1  270.68   35.65
   3   4   0  969.39   69.24
   3   4   0  827.68   58.35
  -3   4   0 1093.30   69.34
   3   4   0  914.25   59.18
  -3   4   0 1030.35   64.96
  -3   4   0 1062.45   66.41
   3   4   0  859.25   60.15
  -3   4   0 1168.37   76.39
  -3   4   0 1150.29   73.56
  -3   4   0 1133.80   68.86
  -3   4   0 1158.87   81.37
   3   4   0  939.72   74.33
   3   4   0 1055.03   73.53
   3   4   1 1083.60   75.89
   3   4   1 1341.79   74.26
   3   4   1 1116.80   67.78
   3   4   1 1296.00   81.34
  -3   4  -1 1340.00   78.74
   3   4   1 1393.83   76.63
  -3   4  -1 1636.36   92.21
  -3   4  -1 1556.82   81.85
   3   4   1  849.38   65.80
   3   4   1 1297.28   78.26
  -3   4  -1 1575.72   92.59
  -3   4  -1 1443.88   82.37
  -3   4  -1 1473.04   90.01
   3   4   1 1385.20   94.93
  -3   4  -1 1526.10   99.32
  -3   4  -1 1426.23   79.05
   3   4   1 1581.22   93.78
  -3   4  -1 1454.92   80.25
   3   4   1 1051.32   67.32
   3   4   1 1286.37   71.65
   3   4   2  291.33   32.45
  -3   4  -2  383.24   37.69
   3   4   2  317.54   39.47
   3   4   2  372.41   41.69
   3   4   2  375.70   34.54
   3   4   2  290.03   31.85
   3   4   2  309.06   38.45
  -3   4  -2  371.49   41.41
   3   4   2  379.88   38.11
  -3   4  -2  379.97   42.34
  -3   4  -2  393.12   39.32
   3   4   2  270.21   33.79
   3   4   2  346.26   39.35
  -3   4  -2  302.22   39.93
  -3   4  -2  342.38   40.71
  -3   4  -2  401.75   37.39
  -3   4  -2  336.36   35.71
   3   4   2  301.33   33.28
  -3   4  -3  209.02   28.98
   3   4   3  156.01   24.66
   3   4   3  144.42   26.39
   3   4   3  176.05   31.33
   3   4   3  155.17   22.56
   3   4   3  163.35   25.20
   3   4   3  129.67   25.92
  -3   4  -3  170.94   31.01
   3   4   3  154.15   26.94
   3   4   3  125.34   25.57
  -3   4  -3  136.89   27.13
  -3   4  -3  195.24   33.06
  -3   4  -3  163.55   30.21
  -3   4  -3  164.68   25.74
   3   4   3  162.58   25.38
   3   4   4 1691.27  119.54
  -3   4  -4 1847.29   98.07
   3   4   4 1531.76   95.35
   3   4   4 1466.39   96.18
  -3   4  -4 1882.96   98.46
   3   4   4 1523.91   95.11
  -3   4  -4 1741.56  109.89
  -3   4  -4 1680.30   91.72
  -3   4  -4 1536.55   99.13
  -3   4  -4 1697.22   95.13
   3   4   4 1292.17   93.79
   3   4   4 1375.75  103.61
  -3   4  -4 1062.57   84.48
  -3   4  -4 1361.10  102.79
  -3   4  -4 1433.07   97.70
   3   4   4 1522.51  123.21
  -3   4  -4 1306.00   85.92
   3   4   4 1534.18   91.66
   3   4   5  273.58   47.44
  -3   4  -5  281.61   36.76
   3   4   5  266.45   35.46
  -3   4  -5  309.71   35.83
   3   4   5  239.54   37.09
  -3   4  -5  351.37   40.37
  -3   4  -5  325.41   52.33
   3   4   5  283.69   36.16
  -3   4  -5  214.02   40.38
  -3   4  -5  313.52   36.57
  -3   4  -5  267.85   41.00
   3   4   5  223.89   36.74
   3   4   5  236.99   39.80
  -3   4  -5  341.27   48.55
  -3   4  -5  162.59   32.15
   3   4   5  286.68   51.78
  -3   4  -5  301.55   37.79
   3   4   5  281.76   35.73
   3   4   6   10.07   15.74
  -3   4  -6   14.99   11.61
  -3   4  -6   15.16   10.99
  -3   4  -6   21.54   13.15
  -3   4  -6   16.36   10.51
   3   4   6   30.27    9.69
  -3   4  -6   20.16   14.19
  -3   4  -6   24.95   14.22
   3   4   6    3.35   11.14
  -3   4  -6   10.20   10.78
  -3   4  -7  188.44   27.16
   3   4   7  116.37   21.75
  -3   4  -7  177.52   25.01
  -3   4  -7  169.39   28.43
   3   4   7   91.98   21.29
  -3   4  -7  172.72   29.42
  -3   4  -7  182.79   26.84
  -3   4  -7  122.21   23.04
   3   4   7  160.89   24.47
   3   4   8  226.82   25.91
  -3   4  -8  158.68   25.72
   3   4   8  199.17   24.45
  -3   4  -8  211.33   24.98
  -3   4  -8  166.78   21.44
   3   4   8  192.09   23.30
  -3   5   9  391.62   30.77
  -3   5   9  388.96   32.02
   3   5  -9  344.21   36.70
  -3   5   8  770.45   53.47
   3   5  -8  588.35   54.99
  -3   5   8  738.44   52.11
   3   5  -8  665.72   64.35
  -3   5   7   78.68   18.10
  -3   5   7   70.04   17.40
  -3   5   7   99.93   20.06
  -3   5   7   64.13   17.88
   3   5  -7   88.83   25.67
  -3   5   7  114.91   21.31
   3   5  -7   70.24   21.57
   3   5  -7   60.01   24.94
   3   5  -6  277.39   29.64
  -3   5   6  228.19   31.35
  -3   5   6  285.43   40.98
  -3   5   6  278.90   38.73
   3   5  -6  339.50   51.68
   3   5  -6  211.57   35.92
  -3   5   6  273.50   31.64
  -3   5   6  190.81   30.65
  -3   5   6  279.84   38.51
  -3   5   6  271.35   43.82
  -3   5   6  294.40   44.36
  -3   5   6  270.40   36.50
  -3   5   6  251.24   32.90
   3   5  -6  214.00   42.90
   3   5  -5  793.82   50.84
  -3   5   5  673.26   67.87
  -3   5   5  804.10   69.62
  -3   5   5  786.64   58.25
   3   5  -5  653.83   75.49
  -3   5   5  480.04   47.26
  -3   5   5  846.25   67.96
  -3   5   5  731.93   64.22
  -3   5   5  866.47   75.00
  -3   5   5  705.99   63.42
  -3   5   5  875.20   76.32
   3   5  -5  759.77   78.53
  -3   5   5  697.40   56.41
  -3   5   4 1242.45   89.70
   3   5  -4  970.50   68.63
   3   5  -4 1064.96   60.39
  -3   5   4  768.84   61.09
  -3   5   4 1276.36   86.31
  -3   5   4  961.08   78.64
  -3   5   4 1121.36   70.43
  -3   5   4 1147.72   69.69
  -3   5   4 1200.11   80.67
  -3   5   4 1350.15   91.89
  -3   5   4  868.44   74.16
   3   5  -4 1002.33   87.85
   3   5  -3    7.66   11.86
  -3   5   3   17.44    8.12
   3   5  -3   26.23   10.67
   3   5  -3    5.93    9.87
  -3   5   3   10.73   11.90
  -3   5   3   16.72    9.00
  -3   5   3   12.84   11.29
  -3   5   3   10.05   11.14
   3   5  -3    2.39   12.77
  -3   5   3   14.93    8.95
  -3   5   3   10.62   10.10
  -3   5   3   11.25    8.80
  -3   5   3   17.92   11.93
   3   5  -3   30.36   17.89
   3   5  -2 1116.71   78.77
  -3   5   2 1267.54   73.22
   3   5  -2 1030.16   76.56
   3   5  -2  937.20   69.85
   3   5  -2 1166.60   76.81
  -3   5   2 1430.53   90.64
  -3   5   2 1172.36   72.38
  -3   5   2 1635.27   92.42
   3   5  -2 1284.43   95.62
  -3   5   2 1387.57   82.31
  -3   5   2 1249.71   73.73
  -3   5   2 1509.20   87.85
  -3   5   2 1356.76   80.44
  -3   5   2 1521.32   94.18
   3   5  -2 1169.71   88.29
  -3   5   2 1570.21   91.28
   3   5  -2 1113.69   84.44
   3   5  -1 1094.11   77.32
   3   5  -1  951.14   71.54
  -3   5   1 1607.87   89.24
   3   5  -1 1069.15   73.52
  -3   5   1 1356.19   86.50
   3   5  -1 1107.19   72.36
  -3   5   1 1301.46   74.47
  -3   5   1 1577.41   87.93
   3   5  -1 1161.90   89.18
  -3   5   1 1463.46   84.19
  -3   5   1 1357.45   90.28
   3   5  -1 1075.97   83.44
   3   5  -1 1130.58   81.68
   3   5   0  185.49   30.49
   3   5   0  204.72   28.54
   3   5   0  210.21   30.76
  -3   5   0  255.26   34.91
   3   5   0  190.21   26.24
  -3   5   0  263.49   29.86
  -3   5   0  257.68   34.19
  -3   5   0  238.96   33.11
  -3   5   0  249.39   36.91
  -3   5   0  267.66   32.62
   3   5   0  251.29   37.74
  -3   5   0  241.52   31.79
   3   5   0  193.23   31.79
  -3   5   0  245.54   27.17
  -3   5  -1  470.40   41.31
   3   5   1  278.85   35.68
   3   5   1  355.63   36.49
  -3   5  -1  289.81   34.25
  -3   5  -1  368.35   37.14
   3   5   1  271.47   30.33
  -3   5  -1  408.64   43.92
  -3   5  -1  349.65   42.13
  -3   5  -1  362.70   38.65
   3   5   1  293.33   43.15
  -3   5  -1  395.18   40.47
   3   5   1  382.58   44.29
  -3   5  -1  323.99   35.98
   3   5   1  307.32   32.95
   3   5   2  556.07   52.43
  -3   5  -2  686.01   51.73
   3   5   2  594.90   49.77
  -3   5  -2  578.87   53.61
   3   5   2  596.99   56.74
  -3   5  -2  667.08   53.52
   3   5   2  442.03   44.55
  -3   5  -2  378.65   45.12
  -3   5  -2  579.70   55.40
  -3   5  -2  598.61   51.59
  -3   5  -2  585.24   63.99
   3   5   2  553.73   64.35
   3   5   2  533.31   47.29
  -3   5  -2  590.44   50.91
  -3   5  -2  531.80   50.91
  -3   5  -3  649.48   53.22
   3   5   3  494.47   51.51
   3   5   3  620.05   56.66
   3   5   3  529.46   46.69
  -3   5  -3  642.62   51.56
  -3   5  -3  593.96   57.03
   3   5   3  399.66   48.71
  -3   5  -3  505.66   54.95
  -3   5  -3  565.02   52.57
   3   5   3  438.18   47.66
  -3   5  -3  354.43   42.99
  -3   5  -3  523.60   56.05
  -3   5  -3  412.59   49.70
  -3   5  -3  592.16   52.30
  -3   5  -3  436.01   59.28
   3   5   3  502.90   64.90
  -3   5  -3  339.24   44.39
   3   5   3  547.81   48.71
  -3   5  -4  172.66   29.07
   3   5   4  147.26   27.69
  -3   5  -4  186.12   25.91
  -3   5  -4  180.68   33.97
   3   5   4  201.80   32.98
  -3   5  -4  156.61   33.19
  -3   5  -4  170.39   25.86
  -3   5  -4  125.82   27.36
   3   5   4  126.29   27.31
  -3   5  -4  194.25   36.03
  -3   5  -4  172.97   30.79
  -3   5  -4  222.18   32.51
  -3   5  -4  142.37   34.98
  -3   5  -4  129.29   24.31
  -3   5  -4  190.66   32.09
   3   5   4  168.78   27.80
   3   5   5   18.47   12.80
  -3   5  -5   40.67   15.79
  -3   5  -5   33.17   13.15
  -3   5  -5   67.92   21.51
   3   5   5   23.10    8.40
   3   5   5   42.99   15.90
  -3   5  -5   39.51   16.93
  -3   5  -5   32.59   13.61
  -3   5  -5   35.04   14.10
   3   5   5   37.70   16.42
  -3   5  -5   67.14   19.48
  -3   5  -5   21.26    9.23
  -3   5  -5   38.66   13.01
  -3   5  -5   56.24   19.37
  -3   5  -5   19.50   11.94
  -3   5  -5   28.00   14.35
   3   5   5   40.51   14.47
  -3   5  -6  752.03   60.13
  -3   5  -6  594.25   46.65
  -3   5  -6  689.03   58.08
  -3   5  -6  716.56   62.75
   3   5   6  687.77   51.10
  -3   5  -6  749.16   54.10
   3   5   6  633.02   57.18
  -3   5  -6  680.27   53.96
  -3   5  -7  278.86   33.88
  -3   5  -7  246.73   32.63
  -3   5  -7  267.15   33.58
   3   5   7  255.12   31.65
  -3   5  -7  212.24   27.79
  -3   5  -8    9.84    5.65
   3   5   8   10.67    6.95
   3   6  -9   19.18    7.89
  -3   6   9   42.29    8.58
  -3   6   9   59.37   10.46
   3   6  -9   37.10    9.65
  -3   6   8  205.95   23.63
   3   6  -8  137.31   24.03
   3   6  -8  136.70   24.84
  -3   6   7  502.48   42.49
   3   6  -7  417.38   52.75
  -3   6   7  489.69   37.78
   3   6  -7  426.00   51.16
  -3   6   7  456.99   42.12
   3   6  -6  370.20   38.53
  -3   6   6  451.07   42.43
  -3   6   6  401.93   45.89
   3   6  -6  523.25   63.79
  -3   6   6  458.74   41.20
  -3   6   6  323.68   39.19
   3   6  -6  280.26   46.54
  -3   6   6  394.85   41.56
  -3   6   5   16.81   11.10
   3   6  -5   14.20   11.48
  -3   6   5   25.19   10.19
  -3   6   5   18.42    9.76
  -3   6   5   30.92   10.66
  -3   6   5   30.23   11.85
  -3   6   5   33.35   13.88
  -3   6   5   24.15    9.76
  -3   6   5   26.15   13.72
   3   6  -5   16.59   16.69
  -3   6   4  235.45   31.37
  -3   6   4  215.30   35.61
   3   6  -4  179.33   30.17
  -3   6   4  189.69   29.50
  -3   6   4  167.43   31.51
  -3   6   4  192.59   27.77
   3   6  -4  177.45   40.76
  -3   6   4  256.01   32.24
  -3   6   4  195.74   32.12
  -3   6   4  210.59   35.70
  -3   6   4  165.71   25.63
  -3   6   4  207.43   33.19
   3   6  -4  172.69   35.11
  -3   6   3 1097.94   76.14
  -3   6   3 1958.01   96.40
   3   6  -3 1689.69  100.82
   3   6  -3 1395.73   89.33
  -3   6   3 1858.18  108.57
  -3   6   3 2177.42  118.98
  -3   6   3 2007.08  115.55
  -3   6   3 1829.33   96.21
   3   6  -3 1957.10  132.11
  -3   6   3 1908.58  109.58
  -3   6   3 1884.65  103.28
  -3   6   3 2083.79  117.24
  -3   6   3 1820.44   99.87
   3   6  -3 1679.66  111.46
  -3   6   2  224.12   27.35
   3   6  -2  232.14   33.66
  -3   6   2  222.15   28.31
  -3   6   2  241.32   32.06
   3   6  -2  181.49   30.50
   3   6  -2  195.25   29.05
   3   6  -2  266.32   33.65
  -3   6   2  243.65   34.64
  -3   6   2  233.64   25.41
  -3   6   2  298.83   39.75
   3   6  -2  213.93   40.09
  -3   6   2  249.14   33.41
  -3   6   2  249.34   36.31
  -3   6   2  271.54   36.94
   3   6  -2  210.00   34.45
  -3   6   2  248.40   36.75
  -3   6   1  451.53   39.88
   3   6  -1  401.87   44.87
  -3   6   1  434.16   41.16
   3   6  -1  316.53   39.47
   3   6  -1  309.45   38.14
   3   6  -1  356.01   37.61
  -3   6   1  494.97   49.02
  -3   6   1  387.78   46.88
  -3   6   1  404.12   36.46
   3   6  -1  333.80   47.62
  -3   6   1  472.97   48.20
  -3   6   1  470.34   47.02
   3   6  -1  362.50   46.09
  -3   6   1  452.00   44.57
  -3   6   1  472.80   48.71
   3   6  -1  391.24   46.03
   3   6   0  502.94   53.65
  -3   6   0 1034.43   64.23
  -3   6   0  921.87   64.12
   3   6   0  759.73   61.81
   3   6   0  772.42   64.37
   3   6   0  748.20   56.06
  -3   6   0  967.10   71.33
  -3   6   0  874.32   58.76
  -3   6   0  910.71   68.41
  -3   6   0  865.70   68.83
   3   6   0  719.90   68.06
  -3   6   0  961.11   71.55
   3   6   0  851.43   68.53
  -3   6   0  801.16   56.91
  -3   6  -1 2013.25   99.48
   3   6   1 1253.33   90.27
  -3   6  -1 1745.39   92.94
   3   6   1 1618.59   96.11
   3   6   1 1343.31  104.84
  -3   6  -1 1594.92   94.00
  -3   6  -1 1869.35  105.39
   3   6   1 1340.27   84.74
  -3   6  -1 1876.50  108.43
  -3   6  -1 1844.02   96.71
  -3   6  -1 1697.59  101.90
  -3   6  -1 1684.68  105.15
  -3   6  -1 1645.24  111.06
  -3   6  -1 1860.43  102.71
   3   6   1 1983.04  111.63
  -3   6  -1 1743.79   96.89
   3   6   1 1430.88   88.62
  -3   6  -2  701.01   54.82
   3   6   2  484.85   48.81
  -3   6  -2  673.99   50.81
   3   6   2  619.99   52.27
  -3   6  -2  581.12   53.56
   3   6   2  574.55   58.41
  -3   6  -2  594.49   58.34
  -3   6  -2  534.40   50.37
  -3   6  -2  641.03   55.96
   3   6   2  338.87   39.42
  -3   6  -2  416.17   45.63
  -3   6  -2  425.10   50.48
  -3   6  -2  542.25   61.41
   3   6   2  514.46   62.23
  -3   6  -2  646.17   56.43
  -3   6  -2  558.42   51.68
   3   6   2  485.80   47.32
   3   6   3  484.75   52.39
   3   6   3  575.05   50.53
  -3   6  -3  506.21   45.84
  -3   6  -3  527.03   53.72
   3   6   3  431.59   51.45
  -3   6  -3  369.10   36.57
  -3   6  -3  414.36   46.11
   3   6   3  417.49   44.92
  -3   6  -3  445.80   50.31
  -3   6  -3  455.44   57.95
  -3   6  -3  601.60   55.35
   3   6   3  435.99   60.30
  -3   6  -3  371.31   45.14
   3   6   3  483.32   47.13
  -3   6  -4  943.52   69.45
   3   6   4  879.68   68.53
  -3   6  -4  863.93   69.14
  -3   6  -4  965.72   66.83
  -3   6  -4  803.49   60.52
  -3   6  -4  688.33   66.36
   3   6   4 1028.49   77.78
  -3   6  -4  849.96   57.29
  -3   6  -4  751.78   69.21
   3   6   4  680.35   62.00
  -3   6  -4  767.14   71.58
  -3   6  -4  630.93   63.29
  -3   6  -4  611.33   71.82
  -3   6  -4 1033.60   74.66
   3   6   4  735.97   83.22
   3   6   4  951.71   66.93
  -3   6  -5  559.06   52.43
   3   6   5  416.37   44.31
  -3   6  -5  327.77   36.81
  -3   6  -5  544.92   49.48
  -3   6  -5  527.86   53.48
   3   6   5  507.54   50.29
  -3   6  -5  424.21   39.16
   3   6   5  454.83   47.86
  -3   6  -5  422.60   46.71
  -3   6  -5  519.77   50.60
   3   6   5  497.77   46.20
  -3   6  -6   39.48   14.44
  -3   6  -6   33.48   13.61
   3   6   6   32.56   12.11
  -3   6  -6   27.80   13.50
   3   6   6   33.94   13.69
  -3   6  -7  112.15   19.23
   3   6   7  108.46   17.97
  -3   6  -7   99.86   17.07
  -3   7   8  203.22   19.92
   3   7  -8  139.91   21.68
  -3   7   8  183.39   19.25
   3   7  -8  164.32   20.02
   3   7  -7   33.59   12.76
  -3   7   7   40.24   11.46
   3   7  -7   30.93   15.37
  -3   7   7   49.73   12.28
  -3   7   7   42.63    9.92
   3   7  -7   33.90   13.80
  -3   7   6  118.13   18.93
  -3   7   6  108.49   19.99
   3   7  -6   61.84   19.73
  -3   7   6  121.92   21.60
   3   7  -5  800.28   72.35
  -3   7   5 1097.46   76.23
  -3   7   5  938.80   63.61
   3   7  -5  913.52   90.28
  -3   7   5 1182.88   66.87
   3   7  -5 1026.21   80.78
  -3   7   5  934.23   67.84
  -3   7   4  290.87   32.50
   3   7  -4  253.58   33.86
   3   7  -4  180.09   33.38
  -3   7   4  284.90   33.99
   3   7  -4  306.39   51.33
  -3   7   4  261.05   38.23
  -3   7   4  294.79   41.12
  -3   7   4  294.07   32.76
  -3   7   4  242.74   35.87
   3   7  -4  291.74   41.80
  -3   7   4  290.63   39.43
  -3   7   4  291.27   36.00
   3   7  -3   46.88   17.50
  -3   7   3   30.59   12.07
   3   7  -3   32.98   15.12
  -3   7   3   44.67   14.75
  -3   7   3   46.82   13.41
  -3   7   3   37.06   13.73
   3   7  -3   32.77   21.17
  -3   7   3   46.03   13.61
  -3   7   3   28.05   11.87
   3   7  -3   31.09   15.09
  -3   7   2  250.20   28.26
  -3   7   2  375.11   39.00
   3   7  -2  291.61   39.65
   3   7  -2  209.24   31.24
  -3   7   2  345.03   39.46
  -3   7   2  324.71   35.72
   3   7  -2  335.25   50.40
  -3   7   2  393.24   45.15
  -3   7   2  411.59   45.06
  -3   7   2  412.17   44.26
  -3   7   2  362.41   40.22
  -3   7   2  433.59   48.56
   3   7  -2  303.61   40.55
  -3   7   1  869.49   71.57
  -3   7   1  905.14   59.38
  -3   7   1  948.52   65.77
   3   7  -1  778.71   66.78
   3   7  -1  679.53   60.54
   3   7  -1  851.39   61.04
  -3   7   1 1016.76   72.70
   3   7  -1  854.85   79.08
  -3   7   1 1049.04   74.85
  -3   7   1  920.19   70.97
  -3   7   1  954.82   75.35
  -3   7   1  937.72   69.47
  -3   7   1 1100.84   79.36
   3   7  -1  737.31   64.98
  -3   7   0  249.95   30.22
  -3   7   0  233.88   31.87
  -3   7   0  200.78   25.91
   3   7   0  192.57   31.22
   3   7   0  195.50   32.35
   3   7   0  256.48   28.17
  -3   7   0  231.89   32.92
  -3   7   0  258.25   37.36
  -3   7   0  260.99   35.21
  -3   7   0  244.86   35.90
  -3   7   0  201.59   33.86
   3   7   0  182.70   31.90
  -3   7   0  235.97   35.39
  -3   7   0  232.31   28.92
   3   7   0  270.61   36.66
  -3   7  -1   11.75   10.33
   3   7   1   11.44   10.83
  -3   7  -1    7.32    9.09
   3   7   1    3.09    9.01
  -3   7  -1    5.73    8.01
   3   7   1    9.06   13.08
  -3   7  -1    7.99    7.75
  -3   7  -1   17.09   10.69
  -3   7  -1   30.57   10.08
  -3   7  -1    9.79   10.20
  -3   7  -1   10.21    6.24
   3   7   1   22.85   11.12
  -3   7  -1   17.58    9.46
  -3   7  -1   20.98   12.93
  -3   7  -1    9.37    9.17
   3   7   1   11.66    9.36
  -3   7  -2  460.18   44.82
  -3   7  -2  257.92   36.05
  -3   7  -2  298.93   34.32
   3   7   2  410.84   43.52
  -3   7  -2  449.12   45.28
  -3   7  -2  412.49   49.24
  -3   7  -2  251.16   32.50
  -3   7  -2  307.06   42.17
  -3   7  -2  392.76   47.58
   3   7   2  358.59   48.55
  -3   7  -2  499.86   49.65
  -3   7  -2  478.63   50.30
  -3   7  -2  430.77   44.43
   3   7   2  410.20   42.88
  -3   7  -3  265.59   35.30
   3   7   3  256.14   37.66
   3   7   3  288.22   35.53
  -3   7  -3  235.18   32.02
  -3   7  -3  254.52   31.83
  -3   7  -3  283.47   37.25
   3   7   3  243.78   39.70
  -3   7  -3  282.62   36.71
  -3   7  -3  295.35   38.76
  -3   7  -3  317.66   38.50
  -3   7  -3  274.71   36.40
   3   7   3  291.52   35.98
   3   7   4   14.69   11.86
  -3   7  -4   18.49   10.72
  -3   7  -4    8.94    8.28
   3   7   4   18.92   15.45
  -3   7  -4    6.27    8.40
   3   7   4   16.98    7.34
  -3   7  -4   22.53   11.62
  -3   7  -4   11.80   10.10
   3   7   4   28.59   12.76
  -3   7  -5  460.72   45.75
   3   7   5  463.44   41.17
  -3   7  -5  300.78   30.41
  -3   7  -5  450.39   41.98
  -3   7  -5  510.93   47.28
   3   7   5  551.69   49.06
   3   7   5  309.92   35.00
  -3   7  -5  458.63   46.32
  -3   7  -5  477.48   44.70
   3   7   5  510.29   43.32
  -3   7  -6   89.78   19.20
  -3   7  -6   55.95   16.03
  -3   7  -6  121.22   20.42
   3   7   6  122.44   18.76
   3   7   6   78.88   14.77
   3   7   6  102.71   17.12
  -3   7  -7  117.56   15.46
  -3   7  -7   92.81   13.18
  -3   8   7  211.51   18.79
  -3   8   6  339.32   29.49
   3   8  -6  318.90   42.86
  -3   8   6  286.95   25.84
  -3   8   6  306.94   27.95
   3   8  -6  225.19   27.43
  -3   8   6  359.61   33.46
  -3   8   5   10.43    8.97
   3   8  -5    8.87    9.54
  -3   8   5    9.84    9.10
  -3   8   5   10.84    7.71
   3   8  -5    6.60   14.20
  -3   8   5    3.87    5.99
   3   8  -5   15.94   10.09
  -3   8   4   62.39   16.35
  -3   8   4   82.72   16.45
   3   8  -4   77.20   20.32
  -3   8   4   71.19   15.03
  -3   8   4   86.30   18.20
   3   8  -4   56.13   25.32
  -3   8   4   74.17   14.15
  -3   8   4   82.18   20.09
   3   8  -4   57.68   17.04
   3   8  -3  224.05   31.55
  -3   8   3  426.22   39.49
   3   8  -3  373.92   44.10
  -3   8   3  397.96   38.71
   3   8  -3  371.27   53.47
  -3   8   3  367.99   31.15
  -3   8   3  359.56   37.00
   3   8  -3  298.13   37.32
  -3   8   2  423.38   41.71
  -3   8   2  422.61   40.81
   3   8  -2  361.55   43.05
   3   8  -2  243.39   31.22
   3   8  -2  390.33   52.19
  -3   8   2  389.33   40.63
  -3   8   2  538.22   53.26
   3   8  -2  376.73   40.68
  -3   8   1   23.99   10.79
  -3   8   1   18.66   10.77
   3   8  -1    9.76   10.18
   3   8  -1    6.67   10.10
  -3   8   1    9.74    9.23
  -3   8   1   28.59   11.20
  -3   8   1   39.54   13.31
  -3   8   1   10.54   10.03
  -3   8   1   20.04   13.15
   3   8  -1   10.82   10.25
  -3   8   0 1376.27   81.55
  -3   8   0 1361.04   77.10
  -3   8   0 1239.87   77.55
   3   8   0 1078.19   79.32
  -3   8   0 1733.86   92.77
   3   8   0 1507.42   92.44
   3   8   0 1247.59   86.19
  -3   8   0 1427.86   82.71
  -3   8   0 1475.05   96.56
  -3   8   0 1799.79   99.98
  -3   8   0 1651.09  101.70
  -3   8   0 1464.41   80.59
  -3   8  -1  256.07   29.47
  -3   8  -1  246.53   31.24
   3   8   1  323.10   38.74
   3   8   1  237.47   30.83
  -3   8  -1  296.14   33.39
   3   8   1  302.08   39.96
  -3   8  -1  342.43   43.29
  -3   8  -1  295.92   33.78
  -3   8  -2  110.31   22.50
   3   8   2  142.15   24.58
  -3   8  -2   70.02   17.86
  -3   8  -2  111.33   21.74
   3   8   2  114.44   26.12
  -3   8  -2  123.45   25.52
  -3   8  -2  108.18   24.35
  -3   8  -2  122.79   22.92
   3   8   2  105.38   20.85
  -3   8  -3  149.69   25.41
   3   8   3  162.86   29.35
  -3   8  -3  115.21   21.23
   3   8   3  173.09   26.43
  -3   8  -3  136.48   24.17
  -3   8  -3  168.03   28.49
  -3   8  -3  114.26   22.52
   3   8   3  158.80   25.07
  -3   8  -4  160.77   26.54
   3   8   4  137.34   24.39
  -3   8  -4  138.16   21.04
  -3   8  -4  125.83   19.74
  -3   8  -4  126.79   22.49
   3   8   4  197.80   30.25
  -3   8  -4  138.88   26.36
  -3   8  -4  166.52   25.02
   3   8   4  136.25   22.58
   3   8   5  544.16   41.53
  -3   8  -5  686.27   49.12
   3   8   5  723.19   52.07
  -3   8  -5  717.83   49.39
   3   8   5  644.94   45.68
   3   8   6   23.89    8.24
  -3   8  -6   29.98    8.52
   3   8   6   15.43    6.85
  -3   9   6  209.23   18.01
  -3   9   6  238.68   19.71
  -3   9   5  265.41   23.01
   3   9  -5  238.85   34.08
  -3   9   5  295.94   28.54
  -3   9   4  560.06   37.74
   3   9  -4  405.45   41.89
  -3   9   4  481.98   34.51
   3   9  -4  434.64   50.08
  -3   9   4  447.24   43.16
  -3   9   3   52.91   14.32
  -3   9   3   61.71   14.14
   3   9  -3   53.17   16.10
  -3   9   3   43.24    9.98
  -3   9   3   49.97   13.27
  -3   9   3   50.25   15.79
   3   9  -2  316.04   38.40
  -3   9   2  480.16   41.06
   3   9  -2  444.02   43.88
  -3   9   2  366.34   29.77
  -3   9   2  378.27   37.62
  -3   9   2  427.14   39.00
  -3   9   1  543.95   44.60
   3   9  -1  315.08   35.38
   3   9  -1  472.79   45.54
   3   9  -1  300.48   32.89
  -3   9   1  512.04   41.31
  -3   9   1  458.01   43.27
  -3   9   1  573.83   53.20
  -3   9   1  412.90   38.06
  -3   9   0  146.22   19.30
  -3   9   0  201.02   26.98
   3   9   0  192.55   28.35
   3   9   0  145.49   24.48
  -3   9   0  159.95   22.83
  -3   9   0  187.64   28.31
  -3   9   0  173.00   29.11
  -3   9   0  156.42   21.25
  -3   9  -1   14.84    5.95
   3   9   1   11.34    9.10
  -3   9  -1    7.29    6.90
   3   9   1    9.17   10.99
  -3   9  -1    5.34    5.57
  -3   9  -1   13.91    9.34
  -3   9  -1    4.82    7.13
  -3   9  -2  331.00   30.78
  -3   9  -2  391.75   36.51
   3   9   2  417.65   46.55
  -3   9  -2  482.02   40.41
   3   9   2  534.69   43.29
  -3   9  -2  420.90   36.88
   3   9   2  403.62   42.35
  -3   9  -2  292.79   29.06
  -3   9  -2  434.13   44.37
  -3   9  -2  451.28   45.28
  -3   9  -2  411.63   37.30
   3   9   2  302.21   31.56
  -3   9  -3   73.12   13.80
  -3   9  -3  106.99   19.15
   3   9   3  159.28   25.38
  -3   9  -3  125.33   18.34
  -3   9  -3  145.30   20.71
  -3   9  -3  114.40   22.01
  -3   9  -3  106.30   18.28
   3   9   3  120.86   18.43
  -3   9  -4    8.69    3.32
   3   9   4   13.82    8.30
  -3   9  -4    7.31    4.78
  -3   9  -4   13.24    7.65
  -3   9  -4   10.51    7.50
   3   9   4    9.27    5.96
   3   9   5  111.97   15.08
  -3   9  -5   69.44   12.26
  -3   9  -5   96.34   13.42
  -3  10   5   20.02    5.37
  -3  10   4   68.73   11.25
  -3  10   4   84.95   13.39
  -3  10   3  202.51   20.20
   3  10  -3  113.21   16.82
   3  10  -3  141.87   21.38
  -3  10   3  186.52   21.31
  -3  10   2   97.94   15.73
   3  10  -2   69.15   15.12
  -3  10   2   70.37   13.37
  -3  10   1   25.92    8.23
   3  10  -1   27.85   12.01
  -3  10   1   46.07   11.79
   3  10  -1   23.05   10.27
  -3  10   1   36.78   12.48
   3  10   0  140.79   25.49
  -3  10   0  270.17   27.47
   3  10   0  246.83   26.98
  -3  10   0  168.61   19.42
  -3  10   0  205.66   25.21
  -3  10   0  262.00   32.11
   3  10   1  260.74   26.98
   3  10   1  170.60   20.98
  -3  10  -1  188.77   26.07
  -3  10  -1  262.87   30.32
   3  10   2  111.03   21.10
  -3  10  -2  138.03   18.04
   3  10   2  110.45   16.98
  -3  10  -3   65.11   10.65
   3  10   3   68.89   14.83
   3  10   3   71.25   13.41
  -3  11   1  273.21   22.13
   3  11  -1  247.75   21.13
  -3  11   0   21.60    6.52
   4 -10  -2   12.42    4.65
   4 -10  -1  312.84   23.57
   4 -10   0  163.56   16.89
   4  -9  -3  139.90   18.62
   4  -9  -3  121.84   13.47
   4  -9  -2  291.19   28.52
   4  -9  -2  257.36   22.15
   4  -9  -1   65.36   11.53
   4  -9  -1   78.00   14.81
   4  -9   0   42.76   10.08
   4  -9   0   54.24   12.60
   4  -9   1  214.80   22.00
   4  -9   1  179.20   21.77
   4  -9   1  225.84   24.21
   4  -9   2  273.02   24.98
   4  -9   2  359.03   26.56
   4  -9   3   29.41    7.29
   4  -8  -6   24.80    6.41
   4  -8  -5  197.28   20.11
   4  -8  -5  189.83   18.02
   4  -8  -4  444.84   38.42
   4  -8  -4  441.62   32.04
   4  -8  -3  240.88   29.82
   4  -8  -3  254.46   25.44
   4  -8  -3  250.90   27.11
   4  -8  -3  289.26   33.70
   4  -8  -2   77.16   14.95
   4  -8  -2   94.93   19.31
   4  -8  -2   65.33   15.53
   4  -8  -2   81.71   17.78
   4  -8  -1  283.39   29.92
   4  -8  -1  360.82   36.06
   4  -8   0  371.21   35.87
   4  -8   0  337.98   34.13
   4  -8   1   82.13   17.13
   4  -8   1   93.40   18.71
   4  -8   1  101.13   18.69
   4  -8   1   92.12   18.25
   4  -8   2   51.49   13.42
   4  -8   2   55.85   12.92
   4  -8   2   50.47   13.17
   4  -8   2   41.01   11.17
   4  -8   2   48.42    9.64
   4  -8   2   68.62   13.37
  -4  -8  -2   31.96    8.00
   4  -8   2   40.63   12.57
   4  -8   3  424.88   29.38
   4  -8   3  365.27   32.87
   4  -8   3  403.44   35.69
   4  -8   3  358.09   27.39
   4  -8   3  295.75   26.21
   4  -8   3  350.38   33.23
   4  -8   4   65.69    9.05
   4  -7  -7  121.17   13.55
   4  -7  -6  302.77   25.81
   4  -7  -6  306.50   25.36
   4  -7  -6  250.83   28.72
   4  -7  -5  134.86   21.86
   4  -7  -5  129.15   18.85
   4  -7  -5  159.86   20.19
   4  -7  -4   33.42   13.17
   4  -7  -4   37.80   12.06
   4  -7  -4   35.76   14.06
   4  -7  -3  679.18   56.77
   4  -7  -3  615.11   46.54
   4  -7  -3  585.37   48.48
   4  -7  -3  626.84   56.71
   4  -7  -2  241.33   29.16
   4  -7  -2  217.78   30.34
   4  -7  -2  242.58   33.90
   4  -7  -1  162.55   24.80
   4  -7  -1  221.00   30.83
   4  -7  -1  191.16   28.72
   4  -7  -1  164.87   26.30
   4  -7   0  219.94   29.70
   4  -7   0  271.54   34.82
   4  -7   0  180.43   27.78
   4  -7   0  272.34   33.79
   4  -7   0  213.21   26.65
   4  -7   0  262.13   33.42
   4  -7   1  781.48   60.08
   4  -7   1  650.11   55.04
   4  -7   1  795.37   60.02
   4  -7   1  775.71   59.57
   4  -7   1  702.30   52.68
   4  -7   1  622.61   52.34
   4  -7   2  415.52   41.42
   4  -7   2  329.09   36.70
   4  -7   2  402.75   37.77
   4  -7   2  386.50   38.47
   4  -7   2  444.59   41.16
   4  -7   2  407.40   39.55
   4  -7   3   32.86    9.54
   4  -7   3   23.21   10.82
   4  -7   3   27.69   11.47
   4  -7   3   35.91   11.99
  -4  -7  -3    8.74    8.02
   4  -7   4   43.84   11.82
   4  -7   4   41.85   10.75
   4  -7   4   39.18   11.96
  -4  -7  -4    2.74    8.12
   4  -7   5  262.53   23.05
   4  -7   5  205.25   18.67
   4  -6  -8  162.99   14.83
   4  -6  -7  325.82   27.51
   4  -6  -7  334.81   27.93
  -4  -6   6   34.88   12.47
   4  -6  -6   73.57   14.48
   4  -6  -6   46.82   12.78
   4  -6  -6   64.53   16.05
   4  -6  -5  247.67   33.99
   4  -6  -5  263.57   29.81
   4  -6  -5  243.09   34.19
   4  -6  -4  618.23   55.53
   4  -6  -4  536.16   45.39
   4  -6  -3  866.87   65.46
   4  -6  -3  668.55   50.28
   4  -6  -3  668.43   53.04
   4  -6  -3  760.58   64.77
   4  -6  -2   71.78   17.24
  -4  -6   2   54.81   17.15
   4  -6  -2   74.69   16.51
   4  -6  -2   69.39   17.74
   4  -6  -2   56.44   18.01
   4  -6  -1  380.25   40.30
   4  -6  -1  457.31   46.80
  -4  -6   1  193.67   38.78
   4  -6  -1  388.93   39.66
   4  -6  -1  435.84   45.62
   4  -6  -1  237.51   30.40
   4  -6  -1  318.33   34.92
   4  -6  -1  441.56   45.26
   4  -6  -1  353.99   41.62
  -4  -6   0  450.59   54.87
   4  -6   0 1083.82   72.41
   4  -6   0 1259.79   79.60
  -4  -6   0  696.67   68.51
   4  -6   0  827.37   65.35
   4  -6   0 1156.70   77.17
   4  -6   0  916.14   64.84
   4  -6   0  985.68   65.42
   4  -6   0 1216.90   77.81
   4  -6   0 1005.50   70.85
   4  -6   1   25.29   12.78
  -4  -6  -1   28.75   10.96
   4  -6   1   19.62   11.19
   4  -6   1   26.78   12.95
   4  -6   1   25.32   13.04
   4  -6   1   33.78   13.76
   4  -6   1   18.57   10.59
   4  -6   2   41.89   13.92
   4  -6   2   38.09   15.21
   4  -6   2   51.08   15.94
   4  -6   2   34.30   13.89
   4  -6   2   52.83   16.12
   4  -6   3  470.36   48.99
   4  -6   3  486.30   41.13
   4  -6   3  529.79   51.58
   4  -6   3  528.67   50.69
   4  -6   3  522.61   50.26
   4  -6   4  219.53   30.41
   4  -6   4  197.55   27.37
   4  -6   4  239.20   31.64
   4  -6   4  189.78   28.26
   4  -6   4  185.41   27.88
   4  -6   5   35.28   11.00
   4  -6   5   40.92   12.39
   4  -6   5   28.72    9.51
   4  -6   5   28.19   10.68
  -4  -6  -5   21.35   10.38
   4  -6   6   76.48    9.48
   4  -6   6   90.35   13.07
   4  -5  -8    7.33    5.21
  -4  -5   8    0.80    6.69
  -4  -5   8    5.34    5.18
  -4  -5   7  130.67   19.69
   4  -5  -7  170.59   21.12
   4  -5  -7  161.06   22.04
   4  -5  -6  710.96   50.37
   4  -5  -6  734.34   53.19
   4  -5  -6  681.78   58.05
  -4  -5   6  599.68   51.13
   4  -5  -5  137.46   26.87
   4  -5  -5  147.90   24.06
   4  -5  -5  124.66   26.29
   4  -5  -4  216.39   33.13
  -4  -5   4  119.00   23.30
   4  -5  -4  165.14   25.28
   4  -5  -4  180.35   32.22
   4  -5  -3  322.00   37.23
   4  -5  -3  389.29   39.05
   4  -5  -3  416.48   40.20
   4  -5  -2 1096.51   75.35
   4  -5  -2 1347.54   86.66
   4  -5  -2 1208.71   85.02
   4  -5  -2 1047.61   72.28
   4  -5  -2 1103.58   77.15
   4  -5  -2 1203.93   85.55
   4  -5  -1  215.66   30.84
   4  -5  -1  266.55   35.86
  -4  -5   1  138.34   28.61
   4  -5  -1  248.25   31.85
   4  -5  -1  252.54   35.01
   4  -5  -1  254.56   32.06
   4  -5  -1  274.44   35.69
   4  -5  -1  252.16   35.76
  -4  -5   0   72.99   20.23
   4  -5   0  108.30   22.08
   4  -5   0  164.64   27.45
  -4  -5   0  135.63   25.74
   4  -5   0  141.37   26.12
   4  -5   0  117.50   24.52
   4  -5   0  127.31   23.34
   4  -5   0  168.45   28.53
   4  -5   0  133.41   25.17
   4  -5   1  833.26   62.34
   4  -5   1  745.57   63.89
   4  -5   1  712.84   61.50
   4  -5   1  676.16   58.28
   4  -5   2  993.76   75.67
  -4  -5  -2  532.36   60.43
   4  -5   2  879.81   63.95
  -4  -5  -2  706.89   58.91
   4  -5   2 1094.79   79.11
   4  -5   2  993.93   75.49
   4  -5   2 1073.94   77.03
   4  -5   2 1028.42   73.91
   4  -5   3   53.92   18.29
  -4  -5  -3   41.26   14.33
   4  -5   3   76.78   14.63
  -4  -5  -3   70.39   15.87
   4  -5   3   78.66   22.05
   4  -5   3   46.39   17.23
   4  -5   4  180.67   29.39
  -4  -5  -4  179.54   24.25
   4  -5   4  183.26   30.29
   4  -5   4  143.63   28.31
   4  -5   5  360.66   37.43
  -4  -5  -5  407.72   34.87
   4  -5   5  320.81   32.84
   4  -5   5  378.56   40.20
   4  -5   5  372.23   41.41
   4  -5   5  413.78   41.92
  -4  -5  -6  152.93   18.06
  -4  -5  -6  171.29   19.56
   4  -5   6  113.54   19.95
   4  -5   6  147.38   21.41
  -4  -5  -7    6.79    4.49
   4  -5   7   11.27    3.94
  -4  -4   9   88.08   11.96
   4  -4  -8  391.95   30.33
  -4  -4   8  446.66   39.49
   4  -4  -8  373.81   29.58
   4  -4  -8  397.59   34.05
  -4  -4   7  331.52   32.81
   4  -4  -7  288.26   37.63
   4  -4  -7  373.48   33.77
   4  -4  -7  377.95   33.20
   4  -4  -7  357.40   36.06
  -4  -4   6   42.76   13.68
   4  -4  -6   46.08   15.41
   4  -4  -6   55.25   17.06
   4  -4  -6   31.38   12.33
   4  -4  -6   52.19   14.15
   4  -4  -6   69.86   14.72
   4  -4  -6   56.47   16.40
   4  -4  -6   38.55   15.76
   4  -4  -5  338.80   36.78
   4  -4  -5  303.33   40.28
   4  -4  -5  328.84   43.44
   4  -4  -5  340.76   44.84
  -4  -4   5  294.06   40.24
   4  -4  -5  413.20   40.35
   4  -4  -5  332.19   43.22
   4  -4  -4 1139.09   81.84
   4  -4  -4 1144.88   89.73
  -4  -4   4  967.04   78.52
   4  -4  -4 1258.65   77.32
   4  -4  -4 1277.94   91.60
   4  -4  -3  224.17   27.29
   4  -4  -3  155.57   25.96
   4  -4  -3  175.46   27.61
   4  -4  -3  228.92   33.86
   4  -4  -3  174.93   30.40
  -4  -4   3  100.71   23.50
   4  -4  -3  170.42   26.96
   4  -4  -3  163.56   25.35
   4  -4  -3  196.55   33.59
   4  -4  -2  109.44   18.75
   4  -4  -2   98.13   20.33
   4  -4  -2  137.19   25.53
   4  -4  -2   65.48   17.96
   4  -4  -2  122.11   24.08
  -4  -4   2   75.20   16.75
   4  -4  -2  104.83   20.98
   4  -4  -2   73.72   18.41
   4  -4  -1 1066.51   66.61
   4  -4  -1 1149.16   76.35
   4  -4  -1 1084.01   76.09
   4  -4  -1 1382.44   86.29
   4  -4  -1 1406.44   80.54
   4  -4  -1 1100.12   75.92
   4  -4  -1 1333.56   84.79
   4  -4  -1 1241.49   86.04
   4  -4   0  847.27   58.95
   4  -4   0 1126.55   73.66
   4  -4   0 1342.58   82.24
   4  -4   0  975.39   70.36
  -4  -4   0  758.16   70.40
   4  -4   0 1027.35   74.81
   4  -4   0 1067.10   75.96
   4  -4   0 1126.28   73.28
   4  -4   0 1213.15   80.31
   4  -4   0 1076.98   76.98
   4  -4   1  130.94   25.21
   4  -4   1   85.01   16.83
   4  -4   1  127.55   24.04
   4  -4   1  118.03   22.87
   4  -4   1  107.58   22.46
   4  -4   1  102.36   20.59
  -4  -4  -1   72.35   14.64
   4  -4   1  112.78   25.25
   4  -4   1  113.88   24.13
   4  -4   1   87.97   21.38
   4  -4   1  128.89   25.73
   4  -4   2  980.07   74.16
   4  -4   2  753.61   56.55
   4  -4   2  870.09   62.42
   4  -4   2  775.07   64.48
  -4  -4  -2  638.00   55.27
   4  -4   2  965.72   76.07
   4  -4   2  902.81   72.84
   4  -4   2  965.27   74.18
   4  -4   2  784.24   58.92
   4  -4   3  776.83   65.51
   4  -4   3  581.49   51.06
   4  -4   3  635.65   59.03
  -4  -4  -3  614.03   55.08
   4  -4   3  711.61   66.26
   4  -4   3  855.73   70.14
   4  -4   3  714.98   56.44
   4  -4   4  364.76   44.72
   4  -4   4  275.56   37.30
   4  -4   4  207.75   30.09
  -4  -4  -4  282.53   30.99
   4  -4   4  285.96   42.38
   4  -4   4  318.88   36.17
   4  -4   5   11.96   10.79
   4  -4   5   15.46    9.53
   4  -4   5    4.30    8.15
  -4  -4  -5   17.40   10.81
  -4  -4  -5   17.03   11.39
   4  -4   5   13.52    7.70
   4  -4   5   14.87    9.77
   4  -4   5   11.85   11.26
   4  -4   5   13.56   10.03
   4  -4   6  294.64   27.75
  -4  -4  -6  344.32   28.79
  -4  -4  -6  354.45   30.76
  -4  -4  -6  389.67   35.24
   4  -4   6  297.52   35.99
   4  -4   6  358.42   36.56
   4  -4   6  352.93   30.59
  -4  -4  -7  294.63   23.79
   4  -4   7  204.95   24.94
   4  -3  -9  264.11   20.99
  -4  -3   9  178.69   17.94
   4  -3  -8   21.53    8.70
   4  -3  -8    9.26    6.53
  -4  -3   8   26.39   12.05
   4  -3  -8   21.49   10.35
   4  -3  -8   17.83    9.35
   4  -3  -7  256.25   38.24
   4  -3  -7  268.76   27.27
   4  -3  -7  296.94   30.00
   4  -3  -7  279.26   30.92
   4  -3  -7  304.82   35.06
  -4  -3   6  184.92   26.83
   4  -3  -6  214.85   31.83
   4  -3  -6  204.95   36.04
   4  -3  -6  204.94   26.33
   4  -3  -6  208.96   27.00
  -4  -3   6  227.59   31.03
   4  -3  -6  200.43   36.13
  -4  -3   6  178.45   33.73
   4  -3  -6  225.66   28.93
   4  -3  -6  198.36   29.33
   4  -3  -6  207.57   30.98
   4  -3  -5  641.43   62.09
   4  -3  -5  525.85   44.49
  -4  -3   5  476.02   50.52
   4  -3  -5  589.00   63.79
  -4  -3   5  527.52   56.55
   4  -3  -5  527.96   44.56
   4  -3  -5  649.42   60.02
   4  -3  -4   57.67   16.61
   4  -3  -4   46.47   17.12
  -4  -3   4   35.48   11.31
   4  -3  -4   32.83   16.62
  -4  -3   4   63.30   14.48
   4  -3  -4   42.75   15.06
   4  -3  -4   42.88   17.34
   4  -3  -3 1392.89   80.96
   4  -3  -3 1374.71   90.15
   4  -3  -3 1682.04   98.44
   4  -3  -3 1345.01   96.82
  -4  -3   3 1269.10   79.20
   4  -3  -3 1450.39   92.95
   4  -3  -3 1250.25   83.92
   4  -3  -3 1409.54   79.17
   4  -3  -3 1399.91   95.73
   4  -3  -2 1237.69   75.13
   4  -3  -2 1306.34   85.09
   4  -3  -2 1436.85   86.18
   4  -3  -2 1618.18   94.49
   4  -3  -2 1384.42   95.36
   4  -3  -2 1379.18   87.17
   4  -3  -2 1318.69   83.48
   4  -3  -2 1213.56   79.23
   4  -3  -1  128.94   20.39
   4  -3  -1  136.04   24.13
   4  -3  -1  128.30   23.13
   4  -3  -1  179.10   27.75
   4  -3  -1  123.61   23.65
   4  -3  -1  134.86   22.98
   4  -3  -1  114.62   22.80
   4  -3  -1  122.11   22.63
   4  -3  -1  143.78   20.22
   4  -3  -1  170.33   27.12
   4  -3  -1  125.09   25.72
   4  -3   0    9.97    8.19
   4  -3   0    4.48    6.81
  -4  -3   0   11.11    5.98
   4  -3   0    5.72    6.52
   4  -3   0   -1.40    7.47
   4  -3   0    6.17    8.97
   4  -3   0    7.53    9.09
   4  -3   0    1.33    5.67
   4  -3   0    7.69    8.94
   4  -3   1 1225.90   80.75
   4  -3   1  872.59   63.03
   4  -3   1 1253.24   81.55
   4  -3   1 1121.40   72.37
   4  -3   1 1067.92   74.06
   4  -3   1  912.54   72.15
  -4  -3  -1  789.77   58.74
   4  -3   1 1197.00   82.73
   4  -3   1 1030.37   75.53
   4  -3   1  969.15   67.06
   4  -3   1 1174.39   80.31
   4  -3   2  511.05   50.98
   4  -3   2  367.83   39.76
   4  -3   2  619.50   57.36
   4  -3   2  436.38   46.53
   4  -3   2  403.48   47.65
  -4  -3  -2  320.67   37.36
   4  -3   2  552.95   57.38
   4  -3   2  522.84   53.79
   4  -3   2  383.84   41.43
   4  -3   3  478.91   50.46
   4  -3   3  434.68   46.11
   4  -3   3  451.36   46.81
   4  -3   3  466.40   54.05
  -4  -3  -3  427.72   45.40
   4  -3   3  531.96   56.92
   4  -3   3  610.92   59.87
   4  -3   3  533.13   50.92
   4  -3   4  190.11   31.15
  -4  -3  -4  180.81   27.27
   4  -3   4  238.91   33.85
   4  -3   4  188.61   30.62
   4  -3   4  236.83   31.58
   4  -3   4  167.88   31.11
  -4  -3  -4  187.03   31.24
   4  -3   4  229.82   37.16
   4  -3   4  204.23   36.73
   4  -3   4  151.42   26.11
   4  -3   5  320.64   39.20
  -4  -3  -5  436.06   39.95
   4  -3   5  371.01   38.82
   4  -3   5  242.61   35.95
  -4  -3  -5  448.76   41.96
   4  -3   5  362.88   35.19
   4  -3   5  419.31   47.48
   4  -3   5  271.52   41.98
   4  -3   5  387.65   46.27
   4  -3   5  444.37   46.77
   4  -3   6  241.37   29.76
  -4  -3  -6  135.07   25.42
   4  -3   6  166.36   25.40
  -4  -3  -6  208.71   22.42
  -4  -3  -6  227.71   29.23
  -4  -3  -6  296.91   32.46
   4  -3   6  219.58   32.88
   4  -3   6  217.72   30.01
  -4  -3  -7    6.51    7.12
   4  -3   7    1.34    5.53
  -4  -3  -7   26.38    7.64
  -4  -3  -7    5.18    9.13
   4  -3   7    2.88    4.79
   4  -3   7    1.01    6.94
   4  -3   8   80.47   12.68
  -4  -3  -8   75.34   13.29
   4  -2  -9  106.50   20.08
  -4  -2   9  124.01   22.37
  -4  -2   9  115.66   20.08
  -4  -2   9  128.61   20.29
   4  -2  -9  135.97   17.04
   4  -2  -8  378.49   47.57
   4  -2  -8  488.82   35.43
   4  -2  -8  392.27   32.84
  -4  -2   8  513.64   45.01
   4  -2  -8  469.04   39.60
   4  -2  -8  521.29   42.91
   4  -2  -7  683.21   69.96
   4  -2  -7  846.96   55.46
   4  -2  -7  790.15   53.62
  -4  -2   7  890.79   64.78
   4  -2  -7  815.10   59.48
   4  -2  -6   13.66   13.20
   4  -2  -6   19.81   13.30
   4  -2  -6    7.19   12.64
   4  -2  -6   13.15    8.18
  -4  -2   6   29.87   11.70
   4  -2  -6   13.24    9.56
  -4  -2   6   31.29   10.77
  -4  -2   6   17.47    8.15
   4  -2  -6    6.25    8.80
   4  -2  -6   19.06    7.96
   4  -2  -5  586.88   51.82
   4  -2  -5  436.19   53.32
   4  -2  -5  418.94   37.51
  -4  -2   5  418.87   47.66
   4  -2  -5  472.46   60.16
  -4  -2   5  434.77   44.20
  -4  -2   5  495.11   47.25
   4  -2  -5  363.24   36.97
   4  -2  -5  448.53   43.10
   4  -2  -5  442.08   47.94
   4  -2  -4 1433.45   82.59
   4  -2  -4 1121.58   85.84
   4  -2  -4 1276.39   86.76
   4  -2  -4 1262.71   96.70
  -4  -2   4 1125.52   73.75
  -4  -2   4 1320.63   83.47
   4  -2  -4 1153.36   72.51
   4  -2  -4 1064.84   78.61
   4  -2  -4  926.27   77.68
   4  -2  -3  586.78   48.94
   4  -2  -3  550.37   53.91
   4  -2  -3  694.30   58.60
   4  -2  -3  633.62   62.75
  -4  -2   3  547.95   46.00
  -4  -2   3  549.12   51.47
   4  -2  -3  547.28   44.79
   4  -2  -3  649.85   54.94
   4  -2  -3  522.27   50.15
   4  -2  -3  653.65   59.33
   4  -2  -2   25.75   10.42
   4  -2  -2   34.04   13.48
   4  -2  -2   26.51   11.36
   4  -2  -2   30.63   14.84
   4  -2  -2   37.64   13.85
  -4  -2   2   35.70   12.73
   4  -2  -2   35.52   12.50
   4  -2  -2   21.98   10.20
   4  -2  -2   22.80   10.29
   4  -2  -2   38.07   15.13
   4  -2  -1 1335.28   80.17
   4  -2  -1 1604.11   94.36
   4  -2  -1 1991.71   99.21
   4  -2  -1 1632.47  104.44
   4  -2  -1 1453.01   93.18
   4  -2  -1 1758.14   88.97
   4  -2  -1 1426.78   87.41
   4  -2  -1 1462.52   88.94
   4  -2  -1 1243.73   75.86
   4  -2  -1 1649.29   91.52
   4  -2   0  319.04   34.51
   4  -2   0  415.55   43.97
   4  -2   0  470.23   43.56
   4  -2   0  494.76   43.40
   4  -2   0  387.77   43.12
   4  -2   0  442.03   44.64
   4  -2   0  453.76   44.00
   4  -2   0  356.73   37.60
   4  -2   0  371.23   39.04
   4  -2   0  422.40   44.88
   4  -2   1  187.73   26.85
   4  -2   1  252.50   35.27
   4  -2   1  188.95   28.19
  -4  -2  -1  193.56   27.38
   4  -2   1  199.15   31.47
  -4  -2  -1  152.51   22.02
   4  -2   1  181.31   30.64
   4  -2   1  198.25   30.42
   4  -2   1  196.05   31.27
   4  -2   1  200.09   31.87
   4  -2   1  192.55   27.39
   4  -2   2  722.57   60.95
   4  -2   2  911.80   66.82
   4  -2   2  634.08   55.54
   4  -2   2  880.05   71.91
   4  -2   2  723.45   59.75
   4  -2   2  723.07   66.05
  -4  -2  -2  614.87   52.53
   4  -2   2  843.54   71.47
   4  -2   2  704.59   63.73
   4  -2   2  730.13   65.16
   4  -2   2  747.84   60.06
   4  -2   3 1589.28   99.28
   4  -2   3 1522.64   95.82
   4  -2   3 1565.68   95.20
   4  -2   3 1293.67   89.61
   4  -2   3 1173.86   83.64
   4  -2   3 1392.42  102.61
  -4  -2  -3 1281.93   86.87
   4  -2   3 1701.71  107.24
   4  -2   3 1415.42   93.56
   4  -2   4  434.79   48.76
  -4  -2  -4  389.49   42.59
   4  -2   4  375.73   41.92
   4  -2   4  373.11   45.70
  -4  -2  -4  362.64   37.03
   4  -2   4  425.79   41.26
   4  -2   4  442.05   54.43
  -4  -2  -4  337.48   43.22
   4  -2   4  337.69   40.28
   4  -2   4  531.51   57.10
   4  -2   4  356.34   45.82
   4  -2   5   69.99   21.66
  -4  -2  -5   74.66   19.14
   4  -2   5   70.63   21.02
  -4  -2  -5   93.88   19.16
   4  -2   5   72.26   20.93
   4  -2   5   93.22   20.96
   4  -2   5   72.56   22.08
   4  -2   5   69.20   21.41
   4  -2   6   74.83   20.04
  -4  -2  -6   94.71   20.34
  -4  -2  -6  104.01   21.55
   4  -2   6   58.65   18.06
  -4  -2  -6   83.57   20.59
   4  -2   6   65.95   19.54
   4  -2   6   81.65   19.78
   4  -2   7  429.72   38.30
  -4  -2  -7  447.01   38.99
  -4  -2  -7  385.66   40.00
  -4  -2  -7  439.14   33.78
  -4  -2  -7  543.08   43.34
   4  -2   7  427.31   42.21
   4  -2   8   16.49    6.34
   4  -2   8   43.42    8.65
   4  -2   8   30.23    8.88
  -4  -2  -8   31.09   10.07
  -4  -1  10  165.58   18.58
  -4  -1  10  207.88   17.97
   4  -1  -9  167.63   27.91
  -4  -1   9  194.14   28.63
  -4  -1   9  151.54   25.55
  -4  -1   9  264.08   28.75
   4  -1  -9  225.46   23.37
   4  -1  -9  254.85   27.58
   4  -1  -8   43.09   17.19
   4  -1  -8   66.32   15.98
   4  -1  -8   47.89   10.39
  -4  -1   8   62.65   17.59
  -4  -1   8   60.97   16.12
   4  -1  -8   52.97   15.39
   4  -1  -8   61.59   17.19
   4  -1  -7  300.43   46.80
   4  -1  -7  327.75   34.06
   4  -1  -7  253.41   27.64
  -4  -1   7  378.27   40.38
   4  -1  -7  353.61   38.26
   4  -1  -6  922.66   69.60
   4  -1  -6  649.70   70.82
   4  -1  -6  721.79   52.58
   4  -1  -6  686.33   47.65
  -4  -1   6  768.75   70.07
   4  -1  -6  722.24   79.34
  -4  -1   6  779.35   65.77
  -4  -1   6  746.24   63.21
   4  -1  -6  662.69   55.04
   4  -1  -6  731.78   57.00
   4  -1  -5  194.46   30.56
   4  -1  -5  175.34   35.10
   4  -1  -5  177.51   37.38
  -4  -1   5  203.59   32.13
  -4  -1   5  226.31   33.76
   4  -1  -5  185.49   27.00
   4  -1  -5   99.68   21.04
   4  -1  -5  140.48   22.62
   4  -1  -5  141.02   25.25
   4  -1  -4  876.97   63.33
   4  -1  -4  820.36   72.31
   4  -1  -4  875.23   80.28
  -4  -1   4  870.44   66.48
  -4  -1   4  954.63   71.33
   4  -1  -4  770.15   56.05
   4  -1  -4  615.44   58.08
   4  -1  -3  912.89   62.82
   4  -1  -3  893.13   71.12
   4  -1  -3  937.91   69.61
   4  -1  -3  979.29   63.89
   4  -1  -3  979.68   80.17
  -4  -1   3  778.74   62.14
   4  -1  -3  818.51   56.07
   4  -1  -3  956.16   66.30
   4  -1  -3  817.22   64.00
   4  -1  -3  993.00   72.30
   4  -1  -2 1517.75   86.66
   4  -1  -2 1567.24   97.15
   4  -1  -2 1966.57  101.99
   4  -1  -2 1584.19   85.65
   4  -1  -2 1758.60  109.92
  -4  -1   2 1457.00   95.26
  -4  -1   2 1314.52   82.08
   4  -1  -2 1606.63   90.53
   4  -1  -2 1468.02   90.47
   4  -1  -1  605.63   50.29
   4  -1  -1  409.66   37.37
   4  -1  -1  380.63   37.39
   4  -1  -1  641.35   54.33
   4  -1  -1  473.54   43.33
   4  -1  -1  413.50   43.98
   4  -1  -1  558.23   45.87
   4  -1  -1  416.81   36.88
   4  -1  -1  450.51   51.04
   4  -1  -1  462.32   47.34
  -4  -1   1  367.41   40.46
   4  -1  -1  462.13   42.01
   4  -1  -1  508.50   42.33
   4  -1   0  130.57   21.93
   4  -1   0  226.17   31.69
   4  -1   0  168.14   27.62
   4  -1   0  163.90   24.63
  -4  -1   0  175.94   25.76
   4  -1   0  145.74   25.05
   4  -1   0  161.20   27.89
   4  -1   0  159.68   25.26
   4  -1   0  143.71   23.83
   4  -1   0  153.68   24.75
   4  -1   1 1079.22   71.19
   4  -1   1 1032.30   71.29
   4  -1   1 1363.26   80.96
   4  -1   1 1291.93   84.95
   4  -1   1 1222.42   75.45
  -4  -1  -1 1281.25   79.04
   4  -1   1 1174.98   83.67
  -4  -1  -1  946.73   63.74
   4  -1   1 1344.65   83.58
   4  -1   1 1038.45   74.81
   4  -1   1 1123.05   78.70
   4  -1   1 1059.07   79.42
   4  -1   1 1166.45   75.35
   4  -1   2 1090.70   75.61
   4  -1   2 1059.32   73.32
   4  -1   2  939.58   70.54
   4  -1   2 1368.58   90.09
   4  -1   2 1015.62   68.79
  -4  -1  -2 1156.79   71.87
   4  -1   2 1046.40   81.87
  -4  -1  -2  871.79   65.04
   4  -1   2 1223.45   85.97
   4  -1   2 1036.83   74.30
   4  -1   2 1017.08   76.56
   4  -1   2  744.28   70.47
   4  -1   2  860.99   68.19
   4  -1   3  121.84   26.18
  -4  -1  -3  131.66   22.60
   4  -1   3  112.97   24.57
   4  -1   3  185.12   35.11
   4  -1   3  150.84   22.99
  -4  -1  -3  146.44   23.63
   4  -1   3  137.89   30.17
  -4  -1  -3  108.02   23.06
  -4  -1  -3   91.84   26.08
   4  -1   3  128.54   26.55
   4  -1   3  161.41   26.50
   4  -1   3  133.06   28.93
   4  -1   3  143.57   28.81
   4  -1   4  212.38   35.03
  -4  -1  -4  223.04   28.05
   4  -1   4  184.95   33.18
  -4  -1  -4  235.67   32.00
   4  -1   4  156.56   34.25
  -4  -1  -4  164.77   30.73
  -4  -1  -4  138.76   32.38
   4  -1   4  154.56   30.49
   4  -1   4  159.43   33.43
  -4  -1  -5  623.26   55.32
   4  -1   5  504.31   54.80
   4  -1   5  388.24   49.65
  -4  -1  -5  758.52   55.29
   4  -1   5  418.61   55.66
  -4  -1  -5  513.44   56.76
  -4  -1  -5  392.79   55.69
   4  -1   5  522.76   57.16
   4  -1   5  611.63   64.22
   4  -1   6  309.70   38.12
   4  -1   6  321.71   40.11
  -4  -1  -6  302.62   36.99
  -4  -1  -6  236.12   28.23
   4  -1   6  181.94   33.25
  -4  -1  -6  332.69   35.83
   4  -1   6  251.25   38.09
   4  -1   6  267.57   40.07
   4  -1   7   25.13   12.10
  -4  -1  -7   23.34   11.66
  -4  -1  -7   22.52   11.19
  -4  -1  -7   31.72   11.01
   4  -1   7   18.49   10.71
  -4  -1  -7   35.30   13.70
  -4  -1  -7   41.68   13.95
   4  -1   7   34.43   13.12
   4  -1   7   37.31   10.85
  -4  -1  -7   28.13   12.16
   4  -1   7   20.53   12.91
   4  -1   8  121.67   16.12
  -4  -1  -8  140.28   18.96
   4  -1   8  136.05   18.84
   4  -1   8  158.15   18.87
  -4   0  10   10.70    6.22
   4   0  -9  121.56   24.13
  -4   0   9  159.38   25.90
  -4   0   9  107.72   22.58
  -4   0   9   85.04   17.70
  -4   0   9  151.39   22.75
   4   0  -9  177.57   23.38
   4   0  -8  617.63   66.06
   4   0  -8  775.17   49.47
  -4   0   8  651.35   57.54
  -4   0   8  566.10   50.48
   4   0  -8  625.05   49.93
   4   0  -8  747.34   56.01
   4   0  -8  545.38   47.86
   4   0  -7  445.02   49.10
   4   0  -7  378.55   53.96
   4   0  -7  409.58   39.05
  -4   0   7  418.85   47.48
  -4   0   7  368.35   40.46
  -4   0   7  411.62   37.56
   4   0  -7  387.09   41.35
   4   0  -7  420.88   41.38
   4   0  -7  471.03   46.82
   4   0  -7  316.75   40.52
   4   0  -6  253.83   36.66
   4   0  -6  177.61   37.96
   4   0  -6  195.66   27.96
  -4   0   6  222.53   30.34
   4   0  -6  221.71   44.49
  -4   0   6  196.50   33.14
  -4   0   6  147.86   30.84
   4   0  -6  186.69   28.67
   4   0  -6  181.19   27.17
   4   0  -6  181.40   31.47
   4   0  -5  207.20   31.09
   4   0  -5  132.67   32.24
  -4   0   5  185.13   26.34
   4   0  -5  169.34   38.05
  -4   0   5  166.60   30.93
  -4   0   5  188.61   31.79
   4   0  -5  118.00   22.17
   4   0  -5  125.36   22.14
   4   0  -5  117.29   25.55
   4   0  -4 2010.69  107.52
   4   0  -4 1898.92  121.00
   4   0  -4 2269.69  115.93
   4   0  -4 1992.27  132.01
  -4   0   4 2336.48  123.98
   4   0  -4 1704.55   94.80
   4   0  -4 1578.65  102.22
   4   0  -3  976.82   64.01
   4   0  -3  863.11   60.41
   4   0  -3  773.37   67.11
   4   0  -3  895.70   62.56
  -4   0   3  805.38   56.38
   4   0  -3  893.33   78.02
  -4   0   3  759.61   61.86
   4   0  -3  784.44   52.54
   4   0  -3  690.09   57.64
   4   0  -2   13.79   10.52
   4   0  -2    8.08    8.55
   4   0  -2   25.35   15.22
   4   0  -2   16.00   10.96
   4   0  -2   10.44    7.96
   4   0  -2   17.79   11.94
   4   0  -2    9.87    8.81
  -4   0   2   11.21   10.34
  -4   0   2   17.86    9.71
   4   0  -2   17.40    6.14
   4   0  -2   28.10    8.90
   4   0  -2   17.12    9.27
  -4   0   2    8.85    5.66
   4   0  -2   14.97    8.06
   4   0  -1  883.69   62.03
   4   0  -1  758.88   55.69
   4   0  -1  702.14   53.04
   4   0  -1 1053.57   69.50
   4   0  -1  762.61   61.58
  -4   0   1  845.16   65.13
   4   0  -1  674.68   51.62
   4   0  -1  776.82   68.95
   4   0  -1  712.10   61.45
  -4   0   1  789.05   67.59
  -4   0   1  753.81   58.61
  -4   0   1  673.26   53.62
   4   0  -1  693.49   51.80
   4   0  -1  678.42   54.62
   4   0  -1  842.78   59.67
   4   0   0  868.55   59.93
   4   0   0 1417.14   83.93
   4   0   0 1094.45   69.71
   4   0   0  981.52   67.09
   4   0   0 1202.41   71.58
   4   0   0 1513.55   84.43
   4   0   0 1099.06   76.35
  -4   0   0 1260.63   79.05
  -4   0   0 1227.69   79.45
   4   0   0 1039.13   77.17
  -4   0   0 1110.69   79.80
   4   0   0 1244.80   82.84
  -4   0   0  917.82   69.76
   4   0   0  933.40   65.95
   4   0   0 1130.04   73.18
   4   0   0 1382.79   80.82
   4   0   0  931.15   67.22
   4   0   1    4.57    6.65
   4   0   1    5.32    7.11
   4   0   1    1.33   10.70
   4   0   1   -1.64    8.79
  -4   0  -1   -5.38    8.68
  -4   0  -1   -2.82    8.81
   4   0   1    9.14    5.21
   4   0   1   -1.80    8.21
  -4   0  -1    2.03    6.75
   4   0   1    4.20    7.82
  -4   0  -1    3.56    8.61
   4   0   1    6.66    8.49
   4   0   1    6.75    5.76
   4   0   2  568.99   50.10
   4   0   2  527.70   51.09
   4   0   2  534.83   50.78
   4   0   2  617.15   50.66
   4   0   2  438.83   40.46
   4   0   2  695.23   62.47
  -4   0  -2  623.14   50.29
  -4   0  -2  600.59   51.29
   4   0   2  486.91   55.07
  -4   0  -2  371.00   41.39
  -4   0  -2  489.31   56.79
   4   0   2  559.63   54.72
   4   0   2  404.83   46.88
   4   0   3  463.51   47.97
  -4   0  -3  452.06   40.93
   4   0   3  491.35   52.49
   4   0   3  528.71   53.35
   4   0   3  623.15   63.33
  -4   0  -3  534.68   48.71
   4   0   3  491.95   58.50
  -4   0  -3  432.34   47.55
   4   0   3  384.75   46.99
   4   0   3  398.21   48.87
   4   0   3  438.13   52.78
   4   0   4 1192.77   85.02
   4   0   4 1301.58   92.85
  -4   0  -4 1314.43   79.54
   4   0   4 1177.33   90.15
  -4   0  -4 1316.37   85.35
   4   0   4 1131.78   98.75
  -4   0  -4 1098.59   84.80
  -4   0  -4  981.05   88.80
   4   0   4 1024.67   86.72
   4   0   4 1043.50   91.63
  -4   0  -5   -4.73   13.70
  -4   0  -5    9.73    9.00
  -4   0  -5    1.02    9.12
  -4   0  -5    7.01   11.54
   4   0   5   10.34    8.34
  -4   0  -5    5.53    8.92
  -4   0  -5    2.03    8.68
   4   0   5    4.29   10.94
   4   0   5    4.01   12.54
   4   0   5    4.69   12.54
  -4   0  -6  369.56   41.47
   4   0   6  282.55   39.50
  -4   0  -6  267.58   30.13
   4   0   6  258.24   38.58
  -4   0  -6  377.40   39.57
   4   0   6  272.28   40.41
   4   0   6  311.97   45.03
   4   0   7  317.04   33.26
   4   0   7  274.49   33.23
  -4   0  -7  272.55   33.87
  -4   0  -7  228.33   32.21
  -4   0  -7  285.21   26.53
   4   0   7  205.73   31.00
  -4   0  -7  327.69   31.42
  -4   0  -7  274.64   31.55
   4   0   7  256.28   35.81
   4   0   8   20.27    7.66
   4   0   8   26.19    8.47
   4   0   8    5.42    6.10
  -4   0  -8   11.62    7.31
  -4   0  -8   13.59    7.21
   4   1  -9  170.45   29.18
  -4   1   9  219.22   29.88
  -4   1   9  172.97   26.15
   4   1  -9  226.60   26.60
   4   1  -9  203.93   23.36
   4   1  -8   33.96   16.52
   4   1  -8   54.81   16.63
  -4   1   8   49.62   16.89
  -4   1   8   59.79   16.79
  -4   1   8   61.37   14.14
   4   1  -8   51.14   15.43
   4   1  -8   52.98   16.91
   4   1  -8   45.29   16.07
   4   1  -7  304.66   49.03
   4   1  -7  354.67   35.68
  -4   1   7  334.68   42.95
  -4   1   7  292.90   36.05
   4   1  -7  318.18   37.36
   4   1  -7  346.41   39.97
   4   1  -7  268.90   40.68
   4   1  -6  910.29   68.16
   4   1  -6  736.95   76.81
   4   1  -6  533.28   47.69
  -4   1   6  789.05   66.47
  -4   1   6  721.66   57.03
   4   1  -6  786.63   87.09
  -4   1   6  880.79   76.05
  -4   1   6  789.83   67.49
   4   1  -6  607.46   54.44
   4   1  -6  672.19   53.67
   4   1  -6  739.92   60.13
   4   1  -6  566.92   62.48
   4   1  -5  251.84   34.24
   4   1  -5  245.74   42.02
  -4   1   5  217.12   33.14
  -4   1   5  166.42   25.74
   4   1  -5  209.67   43.23
  -4   1   5  220.59   34.62
  -4   1   5  241.92   38.78
   4   1  -5  161.69   25.81
  -4   1   5  254.69   33.42
   4   1  -5  175.47   25.60
   4   1  -5  189.43   28.78
   4   1  -5  184.47   32.99
  -4   1   4  984.46   67.82
   4   1  -4  910.15   63.60
   4   1  -4  837.95   74.19
   4   1  -4 1009.34   72.35
  -4   1   4  650.47   56.67
   4   1  -4  843.64   80.89
  -4   1   4 1059.04   76.13
  -4   1   4  804.16   60.69
   4   1  -4  694.96   51.12
   4   1  -4  604.43   48.25
   4   1  -4  534.06   48.06
   4   1  -4  781.37   65.92
   4   1  -3  822.57   61.50
   4   1  -3  841.64   59.68
   4   1  -3  773.37   67.88
   4   1  -3  887.13   64.03
  -4   1   3  829.06   57.42
   4   1  -3  829.08   75.89
  -4   1   3  936.97   66.09
  -4   1   3  902.21   66.90
   4   1  -3  718.98   48.89
   4   1  -3  774.00   61.57
   4   1  -3  741.29   61.78
   4   1  -2 1619.18   93.14
  -4   1   2 1759.97   97.84
   4   1  -2 1461.87   86.05
   4   1  -2 1880.36  101.34
   4   1  -2 1566.88   98.25
   4   1  -2 1566.97   89.72
   4   1  -2 1596.76  108.14
  -4   1   2 1668.23  101.88
  -4   1   2 1501.90   86.19
  -4   1   2 1667.39   92.99
   4   1  -2 1426.77   88.10
   4   1  -2 1590.36   93.85
   4   1  -1  453.46   43.87
   4   1  -1  400.19   41.65
   4   1  -1  412.88   38.69
   4   1  -1  499.22   46.65
   4   1  -1  410.51   44.06
  -4   1   1  472.88   48.87
   4   1  -1  384.65   38.58
   4   1  -1  408.62   49.23
   4   1  -1  372.07   44.58
  -4   1   1  427.18   47.87
  -4   1   1  492.26   45.91
   4   1  -1  503.72   51.64
  -4   1   1  401.05   42.72
   4   1  -1  422.86   40.30
   4   1  -1  448.52   43.71
   4   1   0  160.95   29.73
   4   1   0  156.89   27.32
   4   1   0  122.42   23.38
   4   1   0  136.30   22.60
   4   1   0  145.05   25.87
   4   1   0  149.79   26.15
  -4   1   0  152.12   27.01
  -4   1   0  147.39   26.02
   4   1   0  128.35   25.78
  -4   1   0  146.72   30.00
  -4   1   0  157.29   27.82
   4   1   0  145.39   27.78
  -4   1   0  129.60   24.81
   4   1   0  129.91   19.45
   4   1   0  122.01   21.26
   4   1   0  117.47   21.83
   4   1   0  181.61   28.03
   4   1   1 1177.24   72.46
   4   1   1 1189.67   79.17
   4   1   1 1435.22   85.59
   4   1   1 1313.65   87.43
  -4   1  -1 1574.98   91.28
  -4   1  -1 1456.55   87.03
   4   1   1 1287.88   90.77
  -4   1  -1 1312.69   93.61
   4   1   1 1322.46   91.69
   4   1   1 1059.82   73.77
   4   1   1 1279.08   80.50
   4   1   1 1731.04   99.90
   4   1   1 1126.21   78.44
   4   1   2 1048.15   76.26
   4   1   2  978.18   68.35
  -4   1  -2 1290.58   80.51
   4   1   2 1014.37   74.79
   4   1   2  902.80   67.87
  -4   1  -2 1223.27   79.05
  -4   1  -2 1256.17   78.42
   4   1   2 1063.64   84.67
  -4   1  -2  991.43   71.01
  -4   1  -2  875.26   79.30
   4   1   2  989.81   80.19
   4   1   2  800.63   60.96
  -4   1  -3  124.45   22.73
   4   1   3   94.34   22.88
  -4   1  -3  172.18   28.89
   4   1   3  122.61   25.67
   4   1   3  134.28   22.78
  -4   1  -3  147.01   25.30
  -4   1  -3  146.36   26.56
   4   1   3  142.67   32.65
   4   1   3   85.77   22.93
  -4   1  -3  110.11   25.27
   4   1   3  118.53   26.76
   4   1   3  124.52   28.15
   4   1   3  124.44   29.54
   4   1   3   92.44   20.20
   4   1   4  199.87   32.17
  -4   1  -4  172.12   25.68
  -4   1  -4  188.13   30.13
  -4   1  -4  237.08   34.89
  -4   1  -4  184.96   30.68
   4   1   4  193.37   39.05
   4   1   4  131.51   27.71
  -4   1  -4  134.75   29.74
  -4   1  -4  120.18   29.75
   4   1   4  127.73   31.22
   4   1   4  164.31   30.86
   4   1   4  102.85   31.31
   4   1   4  156.70   27.70
   4   1   5  712.01   61.05
  -4   1  -5  510.07   53.50
  -4   1  -5  675.50   56.83
  -4   1  -5  882.00   71.39
  -4   1  -5  634.71   55.44
  -4   1  -5  652.65   59.83
   4   1   5  562.74   55.62
   4   1   5  486.66   63.67
  -4   1  -5  561.27   61.48
  -4   1  -5  439.18   59.34
   4   1   5  545.82   64.78
   4   1   5  643.87   70.90
  -4   1  -6  296.10   37.16
  -4   1  -6  329.13   36.03
  -4   1  -6  231.74   27.50
  -4   1  -6  333.05   37.61
   4   1   6  253.83   34.45
  -4   1  -6  238.27   32.12
   4   1   6  269.04   43.02
   4   1   7   25.97   12.13
  -4   1  -7   30.26   11.92
  -4   1  -7   32.92    9.32
   4   1   7   20.10   11.80
  -4   1  -7   34.86   13.46
  -4   1  -7   44.06   14.02
  -4   1  -7   50.07   10.93
  -4   1  -7   20.38   10.44
   4   1   8  180.66   20.18
   4   1   8  127.11   17.10
  -4   1  -8  139.57   21.32
  -4   1  -8  167.13   18.60
   4   1   8   66.89   14.15
  -4   1  -8  107.64   17.16
   4   1   8  171.14   19.25
  -4   2   9  123.91   22.70
  -4   2   9  121.00   21.30
  -4   2   9  173.21   18.05
   4   2  -9  141.26   20.14
   4   2  -9  117.25   19.38
   4   2  -8  407.84   50.50
   4   2  -8  540.86   40.03
  -4   2   8  504.40   49.65
  -4   2   8  343.94   40.37
  -4   2   8  615.99   44.89
   4   2  -8  485.57   43.95
   4   2  -8  435.67   47.91
   4   2  -7 1002.97   69.96
   4   2  -7  698.03   74.23
  -4   2   7  941.91   60.51
  -4   2   7  887.24   72.38
  -4   2   7  857.87   69.69
  -4   2   7  770.93   61.18
   4   2  -7  875.49   64.59
   4   2  -7  763.17   72.73
   4   2  -6    1.46   12.50
   4   2  -6   17.78   14.20
  -4   2   6   -3.58   10.02
  -4   2   6   15.15    8.65
  -4   2   6    1.76    9.39
  -4   2   6    7.80    9.14
   4   2  -6   33.45   16.27
  -4   2   6   11.00   12.30
   4   2  -6    8.49   10.46
   4   2  -6   11.16   13.48
   4   2  -5  513.83   47.87
   4   2  -5  516.74   60.47
   4   2  -5  379.00   36.59
  -4   2   5  413.29   46.62
   4   2  -5  472.22   63.70
   4   2  -5  324.91   45.02
  -4   2   5  520.11   59.19
   4   2  -5  319.56   33.84
  -4   2   5  478.58   51.99
   4   2  -5  303.36   36.74
   4   2  -5  392.79   51.14
   4   2  -4 1325.73   79.84
   4   2  -4 1435.42   90.69
  -4   2   4 1558.09   94.90
   4   2  -4 1201.32   92.96
   4   2  -4 1381.15   90.21
  -4   2   4 1204.47   80.15
   4   2  -4 1204.29  100.05
  -4   2   4 1272.76   81.74
   4   2  -4  982.52   64.06
   4   2  -4  940.74   66.75
   4   2  -4 1193.20   89.61
   4   2  -3  595.50   49.54
   4   2  -3  639.45   56.27
   4   2  -3  639.05   60.71
   4   2  -3  643.74   56.21
   4   2  -3  575.96   63.40
  -4   2   3  585.71   54.50
  -4   2   3  737.76   62.11
  -4   2   3  787.45   59.69
   4   2  -3  535.98   55.22
   4   2  -2   30.44   12.29
   4   2  -2   23.86   12.83
   4   2  -2   27.42   11.39
   4   2  -2   19.52   11.47
   4   2  -2   16.34   10.34
  -4   2   2   34.42   11.91
  -4   2   2   16.67   10.79
   4   2  -2   18.28   14.30
  -4   2   2   25.18   13.29
  -4   2   2   26.66   11.09
  -4   2   2   42.19   14.28
   4   2  -2   22.84   10.27
   4   2  -2   28.60   14.06
   4   2  -1 1801.88  100.56
   4   2  -1 1417.28   89.69
   4   2  -1 1453.12   91.97
   4   2  -1 1370.48   82.99
   4   2  -1 1589.04   93.29
   4   2  -1 1573.95   95.23
  -4   2   1 1767.82  104.31
   4   2  -1 1481.43   88.72
   4   2  -1 1409.16  101.22
   4   2  -1 1401.74   94.18
  -4   2   1 1795.88  108.15
  -4   2   1 1710.21   96.11
  -4   2   1 1652.94  100.49
   4   2  -1 1624.80  104.99
   4   2  -1 1435.77   84.85
   4   2  -1 1549.33   95.31
   4   2   0  377.95   43.89
   4   2   0  374.90   41.51
   4   2   0  318.21   34.92
   4   2   0  404.59   42.48
   4   2   0  347.41   40.10
  -4   2   0  384.93   44.19
  -4   2   0  377.33   41.66
   4   2   0  361.06   42.51
  -4   2   0  422.63   51.11
  -4   2   0  431.34   47.03
   4   2   0  342.13   44.25
  -4   2   0  360.86   44.83
  -4   2   0  288.17   33.19
   4   2   0  305.54   32.88
   4   2   0  297.41   35.21
   4   2   0  416.20   44.50
   4   2   1  163.72   22.53
   4   2   1  205.58   32.21
   4   2   1  207.64   29.02
   4   2   1  248.72   33.41
   4   2   1  244.15   33.69
  -4   2  -1  247.09   34.45
  -4   2  -1  222.55   31.56
   4   2   1  190.36   32.21
  -4   2  -1  216.80   36.36
  -4   2  -1  153.98   24.38
   4   2   1  204.26   34.65
   4   2   1  194.92   25.16
   4   2   1  221.70   34.20
   4   2   1  149.84   26.14
   4   2   2  628.28   51.68
   4   2   2  850.42   69.26
   4   2   2  696.67   58.95
   4   2   2  676.03   56.47
   4   2   2  763.83   65.13
  -4   2  -2  828.66   65.87
  -4   2  -2  826.08   62.49
   4   2   2  570.21   53.98
   4   2   2  731.34   68.86
  -4   2  -2  612.94   67.54
  -4   2  -2  689.86   57.86
  -4   2  -2  499.44   59.90
  -4   2  -2  564.89   47.51
   4   2   2  730.48   69.96
   4   2   2  497.71   47.92
   4   2   2  597.67   48.42
   4   2   2  518.03   46.32
   4   2   2  661.67   58.48
  -4   2  -3 1631.99   92.54
   4   2   3 1242.35   86.63
   4   2   3 1593.58  102.60
  -4   2  -3 1550.31   95.25
  -4   2  -3 1840.31  114.27
   4   2   3 1498.18   99.88
   4   2   3 1531.87   90.77
  -4   2  -3 1829.41  106.61
  -4   2  -3 1736.35  101.06
   4   2   3 1604.42  114.12
  -4   2  -3 1208.31  104.61
  -4   2  -3 1273.03   95.09
   4   2   3 1473.54  109.40
   4   2   3 1242.70   84.00
   4   2   4  446.79   48.28
  -4   2  -4  574.26   49.51
   4   2   4  543.50   57.71
  -4   2  -4  562.35   50.88
  -4   2  -4  638.84   64.10
   4   2   4  471.71   54.84
   4   2   4  449.41   42.70
  -4   2  -4  584.35   57.11
  -4   2  -4  565.46   54.90
   4   2   4  569.22   66.58
  -4   2  -4  422.49   57.21
  -4   2  -4  443.10   52.51
  -4   2  -4  448.18   56.32
   4   2   4  388.75   55.25
  -4   2  -4  405.07   42.33
   4   2   4  435.58   45.08
   4   2   5   84.72   21.98
  -4   2  -5   82.99   18.71
  -4   2  -5   87.14   21.03
   4   2   5   86.32   24.11
  -4   2  -5   83.21   22.47
   4   2   5   89.27   22.06
   4   2   5   50.11   19.84
  -4   2  -5   71.43   18.00
   4   2   5   75.43   19.20
  -4   2  -6  112.47   21.64
   4   2   6   65.52   20.96
  -4   2  -6  105.06   22.20
   4   2   6   65.88   18.14
   4   2   6   73.58   20.72
  -4   2  -6   73.97   17.89
   4   2   7  423.80   39.84
  -4   2  -7  568.02   41.11
  -4   2  -7  345.93   36.23
   4   2   7  320.11   36.46
  -4   2  -7  441.41   38.30
  -4   2  -7  363.98   40.00
  -4   2  -7  486.16   41.77
  -4   2  -7  398.46   35.90
   4   2   8   50.46   10.67
   4   2   8   18.55    7.06
  -4   2  -8   43.35   11.07
   4   2   8   43.86    9.04
  -4   2  -8   30.36    7.85
  -4   2  -8   39.59    9.25
  -4   3   9  374.09   27.60
   4   3  -9  242.42   28.17
   4   3  -8   26.76   10.19
  -4   3   8   17.09   12.60
  -4   3   8   29.05    8.97
  -4   3   8   12.02   10.12
  -4   3   8    8.38    8.44
  -4   3   8   19.60    9.89
  -4   3   8   17.60    8.37
   4   3  -8   17.57   10.82
   4   3  -8    3.15   11.67
   4   3  -7  243.06   39.62
   4   3  -7  294.03   30.67
  -4   3   7  323.61   33.74
  -4   3   7  281.34   39.92
  -4   3   7  298.36   39.26
  -4   3   7  211.10   33.46
  -4   3   7  313.49   34.68
  -4   3   7  253.96   35.07
   4   3  -7  246.46   31.85
   4   3  -7  292.53   44.46
   4   3  -6  269.19   34.54
   4   3  -6  281.18   44.24
   4   3  -6  301.14   32.15
  -4   3   6  274.77   39.66
  -4   3   6  229.00   36.61
   4   3  -6  288.35   47.32
   4   3  -6  236.84   38.53
  -4   3   6  256.16   35.17
  -4   3   6  311.98   43.66
  -4   3   6  274.58   41.06
   4   3  -6  229.97   32.24
   4   3  -6  284.32   45.64
   4   3  -5  652.86   52.92
   4   3  -5  513.14   59.52
   4   3  -5  425.15   39.47
  -4   3   5  482.94   52.28
  -4   3   5  617.45   58.70
  -4   3   5  564.63   57.63
   4   3  -5  617.28   68.96
   4   3  -5  399.59   53.60
  -4   3   5  607.08   56.96
  -4   3   5  530.18   50.16
   4   3  -5  293.87   37.22
  -4   3   5  777.56   69.62
   4   3  -5  613.15   66.43
   4   3  -4   52.35   15.24
   4   3  -4   38.51   16.01
   4   3  -4   28.61   15.16
   4   3  -4   42.83   18.48
  -4   3   4   49.63   17.88
   4   3  -4   30.45   13.04
  -4   3   4   47.40   16.96
  -4   3   4   26.17   14.51
   4   3  -4   67.15   22.01
   4   3  -4   50.23   21.47
  -4   3   4   45.66   16.90
  -4   3   4   25.10   12.46
  -4   3   4   42.47   14.03
   4   3  -4   45.02   11.42
   4   3  -4   36.96   18.93
   4   3  -3 1424.05   82.33
   4   3  -3 1323.93   88.48
   4   3  -3 1320.48   92.40
   4   3  -3 1419.73   92.27
  -4   3   3 1433.53   88.79
   4   3  -3 1337.86  102.12
   4   3  -3 1539.29  105.76
  -4   3   3 1454.35   94.49
  -4   3   3 1483.38   93.26
  -4   3   3 1555.31  102.29
  -4   3   3 1557.36   96.69
   4   3  -3 1293.16   95.55
   4   3  -2 1363.20   84.82
   4   3  -2 1267.09   76.35
  -4   3   2 1430.89   95.25
   4   3  -2 1202.63   82.43
   4   3  -2 1317.57   87.10
  -4   3   2 1438.56   98.63
  -4   3   2 1302.47   78.94
  -4   3   2 1530.28   90.88
   4   3  -2 1293.02   94.72
  -4   3   2 1421.37   92.75
  -4   3   2 1236.36   79.32
  -4   3   2 1416.90   92.57
   4   3  -1  132.78   25.51
   4   3  -1  110.38   19.65
   4   3  -1  121.37   23.02
  -4   3   1  162.60   29.88
  -4   3   1  138.47   25.86
  -4   3   1  108.66   21.26
   4   3  -1  125.99   24.87
  -4   3   1  156.91   29.59
  -4   3   1  126.75   24.31
  -4   3   1  163.89   29.42
  -4   3   1  128.11   24.20
   4   3   0    3.34   10.07
   4   3   0    9.17   10.16
   4   3   0    4.89   12.33
   4   3   0   -1.17    6.28
   4   3   0    5.93   10.15
   4   3   0    1.46    8.48
  -4   3   0    3.49    9.35
   4   3   0    4.89    8.72
  -4   3   0    3.91    8.92
  -4   3   0    1.71    7.81
  -4   3   0   -3.95    9.55
   4   3   0    8.30   11.10
  -4   3   0    5.05    8.15
   4   3   0   12.19    5.68
   4   3   1  941.03   72.68
   4   3   1  866.61   64.56
   4   3   1 1058.96   74.37
   4   3   1 1050.27   73.84
  -4   3  -1 1080.18   79.58
  -4   3  -1 1021.11   72.89
   4   3   1  936.34   75.06
  -4   3  -1 1147.27   88.34
  -4   3  -1 1047.41   81.98
  -4   3  -1  903.87   65.51
   4   3   1  901.00   80.51
  -4   3  -1  997.22   83.78
   4   3   1  827.63   64.93
  -4   3  -2  434.23   43.34
   4   3   2  338.97   37.25
   4   3   2  417.76   48.60
   4   3   2  411.84   48.56
   4   3   2  390.85   42.86
   4   3   2  391.39   43.56
   4   3   2  442.12   47.81
  -4   3  -2  550.55   54.24
  -4   3  -2  472.96   47.14
   4   3   2  308.95   39.56
   4   3   2  383.83   48.23
  -4   3  -2  401.13   52.81
  -4   3  -2  339.78   41.99
  -4   3  -2  321.69   46.06
  -4   3  -2  407.71   40.49
   4   3   2  391.80   53.26
  -4   3  -2  389.97   53.55
   4   3   2  404.73   43.88
   4   3   2  301.06   33.72
  -4   3  -3  587.73   50.79
   4   3   3  542.17   55.75
  -4   3  -3  511.04   53.73
   4   3   3  543.16   53.52
   4   3   3  525.22   50.39
  -4   3  -3  653.44   62.02
  -4   3  -3  617.16   56.40
   4   3   3  418.20   48.06
   4   3   3  480.68   58.23
  -4   3  -3  461.83   57.55
  -4   3  -3  441.08   53.87
  -4   3  -3  486.58   44.83
   4   3   3  500.59   62.78
   4   3   3  455.16   44.34
   4   3   3  522.58   53.32
   4   3   4  199.89   34.78
  -4   3  -4  277.47   35.06
  -4   3  -4  290.10   36.98
  -4   3  -4  312.45   45.49
   4   3   4  240.90   36.84
   4   3   4  229.14   31.45
  -4   3  -4  265.65   39.62
  -4   3  -4  294.90   39.79
   4   3   4  219.51   35.35
   4   3   4  187.68   35.74
  -4   3  -4  177.58   31.91
  -4   3  -4  240.91   37.67
  -4   3  -4  184.21   36.79
   4   3   4  214.26   40.05
   4   3   4  173.80   28.41
   4   3   5  343.01   43.90
   4   3   5  372.99   41.82
  -4   3  -5  414.83   41.86
  -4   3  -5  392.83   41.94
  -4   3  -5  400.16   42.83
   4   3   5  295.34   40.98
  -4   3  -5  345.33   37.76
   4   3   5  368.47   39.36
   4   3   6  235.32   32.00
   4   3   6  272.04   33.06
  -4   3  -6  244.71   30.79
  -4   3  -6  320.10   36.29
  -4   3  -6  207.97   28.75
   4   3   6  209.77   31.50
  -4   3  -6  241.36   34.90
   4   3   6  234.00   32.22
  -4   3  -6  268.27   29.90
   4   3   6  246.17   29.92
  -4   3  -7   18.42    6.49
   4   3   7   -0.78    5.76
  -4   3  -7    5.17    7.46
   4   3   7   -0.82    5.47
  -4   3  -7    3.43    5.65
  -4   3  -7    0.91    5.32
  -4   3  -8  108.06   15.89
  -4   4   9   99.87   13.63
   4   4  -9   95.43   15.81
  -4   4   8  563.36   37.31
  -4   4   8  318.12   35.17
  -4   4   8  572.09   40.07
   4   4  -7  354.06   31.98
  -4   4   7  498.73   41.31
  -4   4   7  391.15   45.87
  -4   4   7  354.63   42.56
  -4   4   7  341.65   40.09
  -4   4   7  408.22   37.96
  -4   4   7  253.06   34.34
  -4   4   6   53.83   15.07
   4   4  -6   62.21   16.12
   4   4  -6   43.33   15.76
   4   4  -6   48.44   14.64
  -4   4   6   36.77   16.59
  -4   4   6   45.79   17.58
   4   4  -6   38.44   19.37
  -4   4   6   49.15   18.57
  -4   4   5  401.94   39.88
   4   4  -5  309.29   35.17
   4   4  -5  357.15   45.02
   4   4  -5  364.97   34.22
  -4   4   5  360.01   45.67
  -4   4   5  350.78   45.10
  -4   4   5  429.32   50.03
  -4   4   5  366.29   36.06
   4   4  -5  358.53   48.80
   4   4  -5  286.83   46.82
  -4   4   5  381.24   40.98
  -4   4   5  468.52   52.94
  -4   4   5  409.44   44.40
  -4   4   5  463.26   50.94
  -4   4   5  472.82   54.23
   4   4  -4 1469.98   78.88
   4   4  -4 1227.91   84.19
  -4   4   4 1480.97  100.46
   4   4  -4 1184.13   85.87
   4   4  -4 1084.07   66.75
  -4   4   4 1247.50   87.04
  -4   4   4 1229.57   87.61
  -4   4   4 1103.52   86.70
  -4   4   4 1232.34   74.81
   4   4  -4 1208.84   94.46
   4   4  -4 1353.62  103.38
  -4   4   4 1348.47   86.08
  -4   4   4 1277.34   86.89
  -4   4   4 1534.16   97.42
  -4   4   4 1102.60   86.75
   4   4  -3  164.74   24.79
   4   4  -3  173.77   32.49
   4   4  -3  137.53   24.00
   4   4  -3  210.98   26.23
   4   4  -3  187.71   29.88
   4   4  -3  152.91   27.19
   4   4  -3  210.21   33.33
   4   4  -3  140.32   20.16
  -4   4   3  149.06   28.34
  -4   4   3  220.41   32.72
  -4   4   3  216.02   34.15
   4   4  -3  187.67   32.87
   4   4  -3  171.06   34.93
  -4   4   3  159.76   27.97
  -4   4   3  224.54   36.22
  -4   4   3  196.52   31.76
  -4   4   3  243.02   35.75
  -4   4   3  186.72   33.16
   4   4  -3  189.07   35.10
   4   4  -2  103.73   22.71
  -4   4   2  139.72   28.09
   4   4  -2  121.30   27.09
   4   4  -2  111.78   18.94
   4   4  -2  104.48   21.47
   4   4  -2   94.95   22.97
   4   4  -2   93.21   21.79
   4   4  -2   99.97   14.86
  -4   4   2  112.04   23.11
  -4   4   2  124.79   22.07
  -4   4   2   94.14   21.84
   4   4  -2  143.80   27.16
  -4   4   2  150.22   28.23
  -4   4   2   85.27   19.17
  -4   4   2  116.26   25.57
  -4   4   2  117.31   24.90
   4   4  -2  140.56   29.26
   4   4  -1 1004.75   76.47
   4   4  -1  935.02   73.17
   4   4  -1  985.68   77.23
   4   4  -1  925.64   61.51
   4   4  -1  924.40   67.44
  -4   4   1 1201.18   85.45
   4   4  -1  974.49   71.11
  -4   4   1 1013.46   73.53
  -4   4   1 1146.02   75.08
  -4   4   1 1196.21   84.77
  -4   4   1 1082.26   76.26
  -4   4   1 1061.73   82.49
   4   4  -1  964.10   84.70
  -4   4   1 1151.88   77.93
   4   4  -1  996.80   78.94
   4   4   0  919.77   75.35
   4   4   0  897.96   71.37
   4   4   0  872.17   59.97
   4   4   0 1010.65   74.27
   4   4   0  921.09   66.89
  -4   4   0 1197.29   83.54
   4   4   0  895.94   68.55
  -4   4   0 1086.19   73.94
   4   4   0  904.55   69.67
  -4   4   0 1024.68   78.15
  -4   4   0 1057.45   84.85
  -4   4   0 1114.10   74.88
  -4   4   0  945.93   69.34
   4   4   0 1056.10   80.50
  -4   4  -1   83.15   20.71
   4   4   1   78.41   22.37
   4   4   1   73.87   16.15
   4   4   1   79.16   22.28
   4   4   1   92.48   20.41
  -4   4  -1  106.64   24.62
  -4   4  -1   82.21   20.08
   4   4   1   82.43   18.83
  -4   4  -1   91.32   24.87
  -4   4  -1   71.58   22.24
  -4   4  -1   82.41   19.65
  -4   4  -1   89.67   25.85
  -4   4  -1   96.61   19.22
   4   4   1   94.82   25.45
  -4   4  -2  997.71   67.80
   4   4   2  956.29   74.67
   4   4   2  791.84   68.37
   4   4   2  726.12   56.55
   4   4   2  796.35   66.05
  -4   4  -2  816.24   63.38
  -4   4  -2 1006.14   76.37
   4   4   2  631.46   57.90
   4   4   2  755.68   65.25
  -4   4  -2  690.35   68.92
  -4   4  -2  613.69   65.62
  -4   4  -2  874.30   63.27
   4   4   2  819.89   80.38
  -4   4  -2  757.68   77.84
   4   4   2  685.20   57.03
   4   4   2  549.05   49.00
  -4   4  -3  943.70   66.41
   4   4   3  863.97   70.68
  -4   4  -3 1084.89   70.76
   4   4   3  708.69   59.14
   4   4   3  778.55   65.53
  -4   4  -3  783.80   67.89
  -4   4  -3  943.50   78.80
  -4   4  -3  985.55   72.42
   4   4   3  690.25   62.70
   4   4   3  695.53   66.47
  -4   4  -3  565.26   63.98
  -4   4  -3  841.82   69.30
  -4   4  -3  697.28   69.85
  -4   4  -3  838.25   62.33
   4   4   3  710.17   78.83
  -4   4  -3  808.21   83.40
   4   4   3  799.77   62.89
   4   4   3  678.79   55.91
  -4   4  -4  342.90   39.38
   4   4   4  273.50   38.67
  -4   4  -4  259.02   33.50
  -4   4  -4  370.07   40.15
   4   4   4  229.78   32.37
   4   4   4  333.26   37.69
  -4   4  -4  244.66   38.05
  -4   4  -4  355.54   38.23
  -4   4  -4  304.14   39.94
   4   4   4  232.91   36.20
  -4   4  -4  185.97   36.35
   4   4   4  280.42   45.72
   4   4   4  289.50   36.23
   4   4   4  264.17   33.08
   4   4   5   22.09   13.11
  -4   4  -5   31.64   13.31
  -4   4  -5   28.92   12.26
  -4   4  -5   37.76   14.78
   4   4   5   31.11   13.34
   4   4   5   13.98    9.56
  -4   4  -5   19.25   13.72
  -4   4  -5   32.57   13.78
   4   4   5   20.58   13.04
   4   4   5   23.58   11.21
  -4   4  -5   20.78   12.69
   4   4   5   21.30   11.32
   4   4   6  358.35   36.40
  -4   4  -6  404.19   36.45
  -4   4  -6  369.26   34.60
  -4   4  -6  461.85   41.65
   4   4   6  195.49   26.69
  -4   4  -6  341.92   39.14
  -4   4  -6  457.99   38.67
   4   4   6  298.63   36.02
  -4   4  -6  294.38   28.67
  -4   4  -6  337.65   37.07
   4   4   6  276.82   29.24
   4   4   6  342.75   33.50
   4   4   7  223.52   24.33
  -4   4  -7  217.03   26.38
   4   5  -8   27.24    6.89
   4   5  -8    0.78    5.47
  -4   5   8    4.52    5.52
  -4   5   8   10.08    6.68
   4   5  -8    5.76    9.11
   4   5  -7  176.01   25.99
  -4   5   7  191.10   24.62
  -4   5   7  152.87   25.97
  -4   5   7  190.13   23.80
  -4   5   7  117.00   22.45
   4   5  -7  142.25   29.10
   4   5  -6  655.60   58.68
   4   5  -6  752.54   45.99
  -4   5   6  727.20   54.32
   4   5  -6  823.34   73.19
  -4   5   6  524.28   45.28
  -4   5   6  678.93   58.87
   4   5  -6  593.90   65.70
  -4   5   6  795.14   55.11
  -4   5   5  149.02   23.92
   4   5  -5  139.96   28.77
   4   5  -5  125.05   19.25
  -4   5   5  149.98   29.83
  -4   5   5  156.88   23.33
   4   5  -5  111.69   30.66
  -4   5   5  108.09   22.17
   4   5  -5  135.27   32.78
   4   5  -4  163.19   32.11
   4   5  -4  156.23   28.12
  -4   5   4  267.15   40.09
   4   5  -4  184.70   30.44
  -4   5   4  218.22   36.56
   4   5  -4  178.08   22.60
  -4   5   4  204.10   35.29
  -4   5   4  231.41   28.44
   4   5  -4  254.52   45.75
  -4   5   4  233.76   29.75
  -4   5   4  228.65   33.86
  -4   5   4  256.32   36.37
  -4   5   4  208.33   35.47
   4   5  -4  222.07   40.49
   4   5  -3  295.11   35.25
   4   5  -3  399.27   48.36
  -4   5   3  345.93   35.33
   4   5  -3  325.62   39.41
   4   5  -3  342.53   40.52
   4   5  -3  461.27   49.01
  -4   5   3  402.58   50.22
  -4   5   3  373.02   39.36
  -4   5   3  497.29   52.56
  -4   5   3  483.10   53.88
  -4   5   3  431.40   41.30
  -4   5   3  411.77   46.84
  -4   5   3  491.54   52.61
  -4   5   3  441.55   46.78
  -4   5   3  436.52   50.00
   4   5  -3  459.54   55.32
  -4   5   2 1163.55   87.01
   4   5  -2  926.43   71.64
   4   5  -2 1064.71   81.73
  -4   5   2  969.57   65.79
   4   5  -2  800.95   63.34
   4   5  -2  925.53   71.76
   4   5  -2 1071.82   76.29
  -4   5   2 1131.85   85.03
  -4   5   2  910.15   68.59
  -4   5   2 1269.34   84.71
  -4   5   2 1051.90   72.44
  -4   5   2 1102.84   80.34
  -4   5   2 1060.47   73.79
  -4   5   2 1201.26   86.52
  -4   5   2 1200.20   83.94
   4   5  -2  985.96   82.00
   4   5  -1  238.76   36.46
   4   5  -1  211.40   34.87
   4   5  -1  275.47   40.18
   4   5  -1  243.32   28.72
   4   5  -1  233.66   34.74
   4   5  -1  247.81   33.83
  -4   5   1  251.43   33.47
  -4   5   1  269.35   35.37
  -4   5   1  222.07   36.90
  -4   5   1  222.81   33.65
  -4   5   1  264.26   39.50
   4   5  -1  227.97   40.62
  -4   5   1  296.29   37.98
  -4   5   1  269.36   36.89
   4   5  -1  293.06   41.19
  -4   5   0  139.24   25.32
   4   5   0   81.61   24.26
   4   5   0  101.28   24.53
   4   5   0  126.08   23.27
  -4   5   0  149.99   25.35
  -4   5   0  134.85   28.46
  -4   5   0  117.35   26.12
  -4   5   0  118.36   24.37
  -4   5   0  124.24   28.14
   4   5   0  105.42   28.06
  -4   5   0  124.81   24.75
   4   5   0  136.10   29.86
   4   5   1  530.82   54.81
   4   5   1  606.18   58.44
  -4   5  -1  681.80   63.27
   4   5   1  553.11   52.09
  -4   5  -1  711.75   58.03
  -4   5  -1  566.44   59.42
  -4   5  -1  576.08   60.06
  -4   5  -1  626.14   66.34
  -4   5  -1  606.35   54.72
   4   5   1  483.82   62.42
  -4   5  -1  686.64   55.64
   4   5   1  712.46   66.18
  -4   5  -1  514.50   48.51
  -4   5  -2 1145.25   73.44
   4   5   2 1044.56   78.80
   4   5   2 1064.93   76.88
  -4   5  -2  830.06   67.06
  -4   5  -2  886.07   65.60
   4   5   2  950.38   75.23
  -4   5  -2 1017.38   78.45
  -4   5  -2 1074.05   74.91
  -4   5  -2  618.72   65.50
  -4   5  -2  657.43   68.88
  -4   5  -2  857.07   82.78
  -4   5  -2 1058.85   71.65
   4   5   2  835.47   84.57
  -4   5  -2  895.37   69.40
   4   5   2  663.35   54.63
   4   5   3   74.56   20.57
  -4   5  -3  100.01   21.90
   4   5   3   64.62   20.30
  -4   5  -3   61.77   18.93
  -4   5  -3   91.27   22.04
  -4   5  -3   91.81   20.41
   4   5   3   34.33   14.84
  -4   5  -3   83.61   21.57
  -4   5  -3   68.67   18.16
  -4   5  -3   58.22   19.29
   4   5   3   48.24   15.22
  -4   5  -4  160.64   26.81
   4   5   4  158.91   29.00
  -4   5  -4  168.43   24.54
  -4   5  -4  172.38   30.35
   4   5   4  232.12   31.55
  -4   5  -4  178.10   25.69
   4   5   4  124.88   25.52
  -4   5  -4  173.02   30.18
   4   5   4  152.25   24.25
   4   5   5  363.19   37.94
  -4   5  -5  456.02   43.82
  -4   5  -5  445.57   42.69
   4   5   5  448.72   38.73
  -4   5  -5  425.02   43.50
  -4   5  -5  460.76   39.40
   4   5   5  355.39   40.67
  -4   5  -5  407.75   42.37
   4   5   5  381.14   37.36
   4   5   6  110.18   19.52
  -4   5  -6  145.07   22.63
  -4   5  -6  138.87   21.76
  -4   5  -6  110.13   18.49
  -4   5  -6  131.47   21.37
   4   5   6  114.72   18.40
   4   5   7    7.27    4.65
  -4   5  -7    8.83    5.57
  -4   6   8  223.17   19.06
  -4   6   8  205.89   19.93
   4   6  -8  186.48   21.74
   4   6  -7  372.77   29.69
  -4   6   7  434.92   33.52
   4   6  -7  354.99   39.09
  -4   6   7  379.21   29.19
  -4   6   6   58.12   14.18
   4   6  -6   74.64   17.72
   4   6  -6   34.72   13.42
  -4   6   6   72.82   14.93
   4   6  -6   86.30   23.72
  -4   6   6   66.68   14.79
  -4   6   6   45.81   14.80
   4   6  -6   53.20   20.32
   4   6  -5  188.75   30.67
   4   6  -5  221.12   33.59
  -4   6   5  275.66   38.86
  -4   6   5  299.69   32.15
   4   6  -5  236.81   42.62
  -4   6   5  245.81   29.48
  -4   6   5  272.01   37.43
   4   6  -5  290.90   42.89
  -4   6   5  292.98   32.74
  -4   6   4  440.83   43.25
   4   6  -4  524.54   52.11
   4   6  -4  383.21   44.98
   4   6  -4  366.39   40.40
  -4   6   4  458.76   51.96
  -4   6   4  535.55   44.33
  -4   6   4  438.71   44.76
   4   6  -4  547.33   59.07
  -4   6   3  354.07   39.83
   4   6  -3  513.93   47.08
   4   6  -3  730.94   63.23
  -4   6   3  730.55   50.45
   4   6  -3  569.43   53.30
   4   6  -3  601.34   53.34
  -4   6   3  681.81   64.30
  -4   6   3  743.60   66.54
  -4   6   3  811.20   68.50
  -4   6   3  745.75   54.52
   4   6  -3  702.76   75.71
  -4   6   3  696.84   61.53
  -4   6   3  824.53   66.50
  -4   6   3  632.88   56.18
  -4   6   3  747.29   65.40
   4   6  -3  695.45   67.33
  -4   6   2   54.23   15.38
   4   6  -2   57.81   17.82
   4   6  -2   74.06   22.85
  -4   6   2   68.77   16.70
   4   6  -2   34.96   13.88
   4   6  -2   69.01   19.47
   4   6  -2   69.18   18.96
  -4   6   2   54.59   16.99
  -4   6   2   77.22   17.40
  -4   6   2   75.46   21.19
  -4   6   2   65.40   19.08
  -4   6   2   99.77   23.44
   4   6  -2   77.41   22.28
  -4   6   1  395.62   40.40
   4   6  -1  333.71   45.07
   4   6  -1  347.33   45.00
  -4   6   1  439.95   42.44
   4   6  -1  347.74   37.51
   4   6  -1  337.37   42.06
   4   6  -1  413.74   42.84
  -4   6   1  444.52   49.25
  -4   6   1  410.28   39.07
  -4   6   1  429.73   48.26
  -4   6   1  401.01   45.21
  -4   6   1  467.14   51.75
   4   6  -1  352.48   49.20
  -4   6   1  436.59   47.91
   4   6  -1  440.55   50.94
  -4   6   0 1216.56   75.65
   4   6   0  801.61   74.47
   4   6   0  965.40   75.41
  -4   6   0 1062.72   73.28
   4   6   0  978.05   64.67
   4   6   0  940.28   75.50
   4   6   0 1035.51   70.94
  -4   6   0 1081.22   80.62
  -4   6   0 1009.17   70.48
  -4   6   0  942.83   76.27
  -4   6   0  974.69   78.01
  -4   6   0 1047.25   84.42
   4   6   0  808.86   79.63
  -4   6   0 1255.04   81.34
  -4   6   0 1064.28   76.45
   4   6   0 1170.26   85.37
  -4   6  -1    2.68    9.45
   4   6   1   14.52   14.72
  -4   6  -1    1.19    9.42
   4   6   1   20.51    7.41
  -4   6  -1    5.83    9.41
   4   6   1    2.64    7.69
  -4   6  -1   37.91   11.78
  -4   6  -1   16.80    8.58
  -4   6  -1   36.83   13.29
  -4   6  -1    9.27   10.88
   4   6   1   19.24   10.98
  -4   6  -1   13.15   10.01
  -4   6  -1    8.43    8.48
   4   6   2   43.15   18.19
   4   6   2   47.18   17.95
  -4   6  -2   58.37   16.73
   4   6   2   60.31   20.30
  -4   6  -2   48.55   14.61
   4   6   2   36.68   13.79
  -4   6  -2   78.13   19.00
  -4   6  -2   38.11   15.14
   4   6   2   55.33   12.26
  -4   6  -3  535.33   48.10
   4   6   3  532.71   52.21
  -4   6  -3  421.87   42.05
  -4   6  -3  434.74   44.50
  -4   6  -3  481.87   45.43
   4   6   3  543.84   53.00
   4   6   3  398.50   39.37
  -4   6  -3  456.96   39.30
  -4   6  -3  583.60   50.24
  -4   6  -3  334.72   40.59
   4   6   3  420.72   39.67
   4   6   4  159.78   23.87
  -4   6  -4  254.18   31.32
   4   6   4  204.68   29.98
  -4   6  -4  206.66   26.93
  -4   6  -4  272.29   31.68
  -4   6  -4  155.27   25.74
   4   6   4  253.19   32.45
   4   6   4  131.78   20.37
  -4   6  -4  266.16   26.95
  -4   6  -4  200.61   26.68
  -4   6  -4  207.42   29.82
   4   6   4  153.58   23.30
   4   6   5   41.84   12.07
  -4   6  -5   44.53   12.77
  -4   6  -5   51.97   13.94
  -4   6  -5   34.71    9.94
   4   6   5   35.83   11.54
  -4   6  -5   39.46   13.27
  -4   6  -5   60.56   10.98
  -4   6  -5   48.33   13.84
   4   6   5   39.15   11.65
   4   6   6   75.82   12.22
  -4   6  -6  114.32   16.84
  -4   6  -6  102.37   16.65
   4   6   6   80.08   13.41
   4   7  -7   85.46   15.16
   4   7  -7   63.07   12.04
  -4   7   7  157.68   16.15
  -4   7   7  129.38   14.70
   4   7  -7  128.10   17.75
   4   7  -6  205.88   27.25
  -4   7   6  394.56   31.07
  -4   7   6  351.35   28.89
  -4   7   6  301.65   23.83
  -4   7   6  290.89   30.92
   4   7  -6  269.59   33.67
  -4   7   6  343.27   30.22
   4   7  -5   92.83   20.42
  -4   7   5  169.97   20.98
  -4   7   5  160.37   26.15
   4   7  -5  134.39   26.10
  -4   7   5  130.42   20.80
  -4   7   4   39.51   12.35
   4   7  -4   26.57   12.41
  -4   7   4   44.73   12.28
  -4   7   4   33.38   12.34
   4   7  -4   42.56   17.63
  -4   7   3  684.15   52.65
  -4   7   3  616.57   45.51
   4   7  -3  455.27   47.29
   4   7  -3  513.83   45.71
  -4   7   3  650.55   49.07
  -4   7   3  460.59   46.08
  -4   7   3  625.98   57.67
   4   7  -3  599.68   57.92
  -4   7   2  173.59   24.50
   4   7  -2  220.70   32.13
  -4   7   2  334.14   33.65
   4   7  -2  237.45   31.39
   4   7  -2  208.97   30.58
  -4   7   2  271.70   31.52
  -4   7   2  296.26   35.94
  -4   7   2  295.20   38.78
   4   7  -2  285.43   38.71
  -4   7   1  183.23   25.60
   4   7  -1  149.21   29.84
   4   7  -1  142.50   28.81
  -4   7   1  155.54   24.84
   4   7  -1  160.70   25.18
   4   7  -1  136.50   26.78
   4   7  -1  193.98   26.86
  -4   7   1  175.07   29.45
   4   7  -1  206.68   32.80
  -4   7   0  265.82   30.91
   4   7   0  152.01   32.68
   4   7   0  172.46   30.62
  -4   7   0  210.81   29.28
  -4   7   0  169.59   24.61
   4   7   0  196.39   26.90
   4   7   0  247.72   35.35
   4   7   0  209.92   27.12
  -4   7   0  265.71   34.68
  -4   7   0  222.34   32.55
  -4   7  -1  805.43   57.31
   4   7   1  596.22   53.68
  -4   7  -1  666.89   55.83
   4   7   1  674.42   48.90
  -4   7  -1  621.27   48.33
   4   7   1  616.07   47.16
  -4   7  -1  762.03   60.93
  -4   7  -1  655.48   55.66
  -4   7  -1  577.79   46.35
  -4   7  -2  402.67   40.03
   4   7   2  481.76   50.13
  -4   7  -2  348.86   35.03
   4   7   2  362.77   44.00
   4   7   2  343.63   31.90
  -4   7  -2  458.43   45.14
  -4   7  -2  324.54   36.19
   4   7   3   25.15   12.96
  -4   7  -3   30.88   11.50
  -4   7  -3   18.43    9.91
   4   7   3   30.29   14.73
  -4   7  -3   22.65    9.95
  -4   7  -3   12.67    8.94
  -4   7  -3   15.76    9.80
   4   7   4   32.63   12.75
  -4   7  -4   23.17   11.57
  -4   7  -4   51.82   11.03
  -4   7  -4   31.57    9.83
   4   7   4   49.99   13.92
  -4   7  -4   27.42    9.84
  -4   7  -4   32.61   11.54
   4   7   4   23.54    9.25
  -4   7  -5  182.62   18.64
  -4   7  -5  316.26   26.59
   4   7   5  416.16   29.96
  -4   7  -5  343.29   29.26
   4   7   5  242.29   22.25
  -4   8   6   28.13    7.47
   4   8  -6   17.17    5.58
  -4   8   6   31.68    7.33
   4   8  -5  107.97   18.59
  -4   8   5  256.58   22.78
  -4   8   5  249.79   19.79
   4   8  -5  146.44   21.06
  -4   8   5  224.21   24.20
   4   8  -4  331.69   34.77
  -4   8   4  354.36   30.85
  -4   8   4  429.47   35.71
  -4   8   4  457.55   29.96
   4   8  -4  416.25   39.05
  -4   8   4  369.62   34.34
  -4   8   3  288.23   26.83
   4   8  -3  240.27   34.79
   4   8  -3  218.09   28.85
  -4   8   3  288.59   29.14
  -4   8   3  243.02   28.67
  -4   8   3  238.36   32.28
   4   8  -3  263.38   31.94
   4   8  -2   75.71   17.92
  -4   8   2  109.80   17.95
   4   8  -2   65.81   19.66
   4   8  -2   76.06   16.77
   4   8  -2   65.56   15.82
  -4   8   2   92.51   17.25
  -4   8   2   95.92   18.97
  -4   8   2  100.14   21.57
   4   8  -2  105.40   21.38
  -4   8   2  101.00   18.65
  -4   8   1  323.00   33.03
   4   8  -1  241.78   34.28
   4   8  -1  243.24   33.65
  -4   8   1  325.45   32.75
   4   8  -1  283.33   31.46
   4   8  -1  248.27   31.68
  -4   8   1  330.08   36.32
  -4   8   1  302.74   38.33
  -4   8   0  292.20   32.44
  -4   8   0  362.75   34.53
   4   8   0  324.40   42.41
   4   8   0  396.80   39.73
  -4   8   0  494.04   42.31
   4   8   0  499.73   39.87
   4   8   0  419.79   42.84
  -4   8   0  452.96   39.13
  -4   8   0  533.43   47.06
  -4   8  -1   66.41   14.44
  -4   8  -1  107.74   18.82
  -4   8  -1   91.79   18.59
   4   8   1   90.35   15.73
   4   8   1  124.00   24.97
  -4   8  -1  125.07   22.76
  -4   8  -1  116.43   19.24
   4   8   2   68.33   19.05
  -4   8  -2   63.41   15.17
  -4   8  -2   48.14   14.64
  -4   8  -2   50.07   11.43
  -4   8  -3  442.52   37.43
   4   8   3  479.03   42.40
  -4   8  -3  431.72   33.95
   4   8   3  543.63   43.49
  -4   8  -3  233.04   24.22
  -4   8  -3  355.58   34.80
  -4   8  -3  301.73   28.99
  -4   8  -4   61.01   10.54
   4   8   4  112.05   18.12
  -4   8  -4   91.46   13.80
   4   9  -5   37.91    9.46
  -4   9   5   65.16   10.22
   4   9  -4   15.42    8.65
   4   9  -4   12.61    5.97
   4   9  -3   91.71   17.90
   4   9  -3   92.90   15.36
  -4   9   3  140.19   14.31
  -4   9   3  145.38   18.31
  -4   9   2  266.02   24.71
   4   9  -2  190.60   24.85
   4   9  -2  218.50   24.20
  -4   9   2  263.87   25.23
  -4   9   2  253.73   30.27
  -4   9   2  220.25   23.89
   4   9  -1   50.09   14.15
   4   9  -1   61.44   13.97
   4   9  -1   75.04   13.76
  -4   9   1   66.28   13.66
  -4   9   1   85.47   15.35
  -4   9   1   75.66   16.03
  -4   9   1   55.22   11.35
  -4   9   0   28.63    8.11
   4   9   0   39.22   13.84
  -4   9   0   57.19   12.51
   4   9   0   44.17   10.17
   4   9   0   43.06   12.47
  -4   9   0   52.07   11.22
  -4   9   0   48.59   12.99
  -4   9  -1  144.84   20.16
   4   9   1  188.65   23.73
  -4   9  -1  153.52   18.14
  -4   9  -1  213.24   27.05
   4   9   2  214.69   24.89
  -4   9  -2  179.29   17.21
   4   9   3   30.82   10.60
  -4   9  -3   20.47    6.54
  -4  10   0  148.52   16.04
   5  -8  -3    2.94    3.71
   5  -8  -2  273.23   25.05
   5  -8  -2  297.63   22.60
   5  -8  -1  154.25   17.57
   5  -8  -1  150.23   16.12
   5  -8   0   49.76    9.24
   5  -8   0   54.11    9.44
   5  -7  -5    9.95    5.19
   5  -7  -4   93.04   11.62
   5  -7  -4  113.63   14.55
   5  -7  -3  552.87   42.07
   5  -7  -3  481.05   34.74
   5  -7  -2   85.32   16.87
   5  -7  -2   75.28   13.69
   5  -7  -1   58.10   13.42
   5  -7  -1   50.78    9.26
   5  -7   0  397.54   34.24
   5  -7   0  370.32   32.25
   5  -7   0  383.48   29.74
   5  -7   1  395.60   33.35
   5  -7   1  423.29   35.37
   5  -7   1  317.91   27.85
   5  -7   2   58.18   11.77
   5  -7   2   41.59    9.39
   5  -7   3  164.60   16.62
   5  -7   3  160.78   16.78
   5  -6  -6  128.24   15.07
   5  -6  -5  376.04   25.59
   5  -6  -5  377.96   29.73
   5  -6  -4   90.52   13.55
   5  -6  -4  122.68   17.57
   5  -6  -3  143.34   23.35
   5  -6  -3  112.50   17.98
   5  -6  -2  278.17   32.90
   5  -6  -2  239.80   26.25
   5  -6  -1  492.99   42.75
   5  -6  -1  576.45   46.95
   5  -6  -1  466.25   39.14
   5  -6   0   33.88   12.10
   5  -6   0   25.86    9.87
   5  -6   0   20.37   10.90
   5  -6   0   27.25   10.18
   5  -6   1   68.73   14.57
   5  -6   1  101.10   19.91
   5  -6   1   70.91   16.39
   5  -6   2  250.08   29.31
   5  -6   2  317.11   33.61
   5  -6   2  370.85   36.14
   5  -6   2  341.26   33.86
   5  -6   3  155.55   19.44
   5  -6   3  129.44   19.61
   5  -6   3  121.28   19.14
   5  -6   4    7.17    4.03
   5  -6   4    7.34    5.13
   5  -6   4    1.86    4.36
   5  -5  -7  162.07   16.89
   5  -5  -7  200.35   16.79
   5  -5  -6  252.23   24.50
   5  -5  -5   -0.86    6.50
   5  -5  -4  282.53   34.67
   5  -5  -4  218.58   22.34
   5  -5  -3  640.94   54.72
   5  -5  -3  520.34   44.81
   5  -5  -2  140.74   25.24
   5  -5  -2   89.17   17.51
   5  -5  -2  113.30   20.58
   5  -5  -1  189.88   27.94
   5  -5  -1  257.70   32.96
   5  -5  -1  220.01   30.92
   5  -5  -1  197.43   27.49
   5  -5  -1  133.30   25.14
   5  -5   0  429.11   41.77
   5  -5   0  489.28   46.80
   5  -5   0  411.34   41.84
   5  -5   1  449.76   43.09
   5  -5   1  446.60   44.07
   5  -5   1  404.53   41.12
   5  -5   2   19.25    9.92
   5  -5   2   23.86   11.53
   5  -5   2   34.24   13.64
   5  -5   2   18.18   10.70
   5  -5   2   15.31    8.93
   5  -5   3  213.80   25.22
   5  -5   3  206.35   28.35
   5  -5   3  171.87   25.73
   5  -5   3  164.41   24.84
   5  -5   3  133.25   23.35
   5  -5   4  489.12   33.58
   5  -5   4  493.67   40.44
   5  -5   4  498.15   41.07
   5  -5   5  110.33   15.55
   5  -4  -7   14.44    7.92
   5  -4  -6  328.56   24.37
   5  -4  -5  276.26   29.52
   5  -4  -5  337.63   34.68
   5  -4  -5  286.97   26.06
   5  -4  -4  381.96   34.85
   5  -4  -4  311.21   36.12
   5  -4  -4  342.28   34.56
   5  -4  -3   60.56   14.68
   5  -4  -3   44.91   14.49
   5  -4  -3   55.49   18.16
   5  -4  -3   49.68   14.34
   5  -4  -3   43.84   14.31
   5  -4  -2 1303.51   72.54
   5  -4  -2 1230.10   79.10
   5  -4  -2 1095.83   70.72
   5  -4  -2 1325.40   84.83
   5  -4  -2 1081.50   75.91
   5  -4  -1  591.83   45.46
   5  -4  -1  644.18   53.72
   5  -4  -1  717.81   58.51
   5  -4  -1  623.04   54.79
   5  -4  -1  565.25   51.44
   5  -4   0  136.07   20.58
   5  -4   0  150.01   25.23
   5  -4   0  142.73   24.43
   5  -4   0  151.02   25.09
   5  -4   0  179.86   28.09
   5  -4   1  142.48   21.26
   5  -4   1  204.72   29.58
   5  -4   1  157.89   26.50
   5  -4   1   91.28   22.12
   5  -4   1  146.63   25.68
   5  -4   1  148.58   24.76
   5  -4   2  344.71   32.69
   5  -4   2  320.96   36.86
   5  -4   2  351.01   42.37
   5  -4   2  350.20   41.35
   5  -4   2  292.29   37.00
   5  -4   3  242.58   26.96
   5  -4   3  332.53   33.68
   5  -4   3  340.49   39.48
   5  -4   4   25.64    8.35
  -5  -4  -4   44.05   12.01
   5  -4   4   38.63    9.26
   5  -4   4   19.24   10.85
   5  -4   5   74.60   14.98
   5  -4   5   78.46   14.79
   5  -4   6  112.85   13.99
   5  -3  -8   85.02   11.53
   5  -3  -7  390.44   38.22
   5  -3  -7  507.95   29.76
  -5  -3   7  320.65   31.55
   5  -3  -7  599.32   39.17
   5  -3  -6  123.61   21.33
   5  -3  -6   97.78   21.07
   5  -3  -6   96.49   15.91
  -5  -3   6  101.92   17.40
   5  -3  -6  118.18   19.79
   5  -3  -5    3.25    8.02
   5  -3  -5    1.55    6.60
   5  -3  -5    7.63    8.80
   5  -3  -4  541.63   45.55
   5  -3  -4  449.49   47.68
   5  -3  -4  452.34   41.55
   5  -3  -3  125.75   21.61
   5  -3  -3  130.64   26.51
   5  -3  -3  107.09   22.85
   5  -3  -3  130.39   26.81
   5  -3  -3  124.54   21.01
   5  -3  -3  128.17   24.23
   5  -3  -2  339.71   35.16
   5  -3  -2  367.64   41.60
   5  -3  -2  406.14   45.74
   5  -3  -2  335.00   34.74
   5  -3  -2  385.45   41.79
   5  -3  -2  333.95   39.37
   5  -3  -1   99.44   18.85
   5  -3  -1  120.77   23.91
   5  -3  -1  135.64   25.24
   5  -3  -1  123.84   23.68
   5  -3  -1  110.60   23.03
   5  -3   0  469.15   41.56
   5  -3   0  563.89   51.47
   5  -3   0  596.73   52.88
   5  -3   0  537.44   47.12
   5  -3   0  476.49   49.11
   5  -3   0  496.54   48.36
   5  -3   0  479.19   47.89
   5  -3   1  593.69   48.16
   5  -3   1  749.48   59.92
   5  -3   1  835.77   64.36
   5  -3   1  622.80   56.75
   5  -3   1  693.25   58.51
   5  -3   1  724.37   60.97
   5  -3   1  584.80   54.65
   5  -3   2   20.59   10.71
   5  -3   2   16.96    9.95
   5  -3   2   11.42   10.54
   5  -3   2    8.10    9.79
  -5  -3  -3  338.05   34.08
   5  -3   3  409.29   39.53
   5  -3   3  498.24   42.82
   5  -3   3  455.79   47.75
   5  -3   3  500.45   44.54
   5  -3   4  295.22   31.54
   5  -3   4  410.69   37.08
   5  -3   5   93.26   15.12
  -5  -3  -5  131.80   19.42
   5  -3   5  112.24   16.58
  -5  -3  -6    0.45    4.73
   5  -3   6    0.45    3.88
   5  -2  -8  143.90   13.75
   5  -2  -8  145.02   16.62
   5  -2  -7   20.36   10.62
   5  -2  -7   26.45   12.09
   5  -2  -7   31.29   11.18
  -5  -2   7   21.13    7.28
  -5  -2   7   28.47    7.30
   5  -2  -7   17.15    8.77
   5  -2  -7   24.26   11.07
   5  -2  -6  250.26   31.36
   5  -2  -6  259.63   36.54
   5  -2  -6  291.03   28.33
  -5  -2   6  233.21   26.49
   5  -2  -6  312.77   31.97
   5  -2  -5  910.18   73.73
   5  -2  -5  761.53   57.76
   5  -2  -4  190.49   27.75
   5  -2  -4  167.09   30.41
   5  -2  -4  171.66   32.92
  -5  -2   4  152.92   24.03
   5  -2  -4  213.97   27.54
   5  -2  -3  141.11   20.51
   5  -2  -3  162.29   25.38
   5  -2  -3  138.95   27.14
   5  -2  -3  154.40   30.99
  -5  -2   3  121.69   21.57
   5  -2  -3  150.22   23.26
   5  -2  -3  145.43   26.64
   5  -2  -2  914.44   62.29
   5  -2  -2  834.97   68.06
   5  -2  -2  869.63   59.10
   5  -2  -2  935.16   67.40
   5  -2  -2  807.34   65.67
   5  -2  -1 1338.56   78.87
   5  -2  -1 1241.63   82.70
   5  -2  -1 1507.36   91.89
   5  -2  -1 1436.10   85.79
   5  -2  -1 1428.64   88.49
   5  -2   0  110.52   20.98
   5  -2   0  120.26   24.56
   5  -2   0  106.64   23.55
   5  -2   0   90.77   16.36
   5  -2   0  126.78   25.35
  -5  -2   0   71.60   18.07
   5  -2   0   86.33   20.10
   5  -2   1  156.45   25.20
   5  -2   1  139.66   25.42
   5  -2   1  178.50   30.23
   5  -2   1  124.13   20.74
   5  -2   1  151.38   28.02
  -5  -2  -1   97.69   23.49
   5  -2   1  138.52   25.96
   5  -2   1  163.17   29.50
   5  -2   2  323.35   37.34
   5  -2   2  339.69   38.23
   5  -2   2  449.79   49.30
   5  -2   2  386.04   46.18
   5  -2   2  304.62   39.63
   5  -2   2  382.55   45.25
   5  -2   2  383.82   41.06
   5  -2   3  191.57   28.82
   5  -2   3  252.33   29.63
  -5  -2  -3  273.93   28.37
   5  -2   3  217.59   33.49
   5  -2   3  270.38   34.31
  -5  -2  -4  215.67   28.17
   5  -2   4  141.03   24.20
   5  -2   4  189.44   29.97
   5  -2   4  217.53   29.42
  -5  -2  -5  253.57   26.58
   5  -2   5  177.31   25.30
  -5  -2  -5  290.72   28.85
   5  -2   5  199.84   28.36
   5  -2   5  237.09   27.73
   5  -2   5  235.91   27.75
   5  -2   6  128.73   16.03
   5  -2   6  136.70   19.13
  -5  -2  -6  119.79   15.33
   5  -2   6  121.90   14.69
   5  -1  -8  177.47   25.03
   5  -1  -8  226.29   19.41
   5  -1  -8  209.99   20.48
   5  -1  -7  513.41   44.44
   5  -1  -7  502.08   50.90
   5  -1  -7  525.96   36.91
  -5  -1   7  355.13   36.22
   5  -1  -7  529.50   39.81
   5  -1  -7  495.66   39.29
   5  -1  -6  335.04   36.73
   5  -1  -6  287.81   40.50
   5  -1  -6  251.54   28.46
  -5  -1   6  215.75   29.07
   5  -1  -6  301.22   32.11
   5  -1  -6  315.88   33.35
   5  -1  -5   27.77   13.54
   5  -1  -5   25.49   13.47
   5  -1  -5   34.46   12.99
   5  -1  -5   56.24   13.13
   5  -1  -4  381.37   39.94
   5  -1  -4  354.64   45.06
   5  -1  -4  324.30   46.73
  -5  -1   4  375.84   40.87
   5  -1  -4  292.70   33.10
   5  -1  -3 1111.24   72.66
   5  -1  -3 1052.53   81.51
   5  -1  -3 1172.43   72.43
   5  -1  -3 1071.45   90.35
  -5  -1   3 1085.96   79.53
   5  -1  -3 1070.56   67.08
   5  -1  -3 1013.32   76.33
   5  -1  -2  252.03   30.37
   5  -1  -2  270.81   32.74
   5  -1  -2  291.73   38.83
   5  -1  -2  246.15   30.05
   5  -1  -2  255.73   41.43
  -5  -1   2  218.46   32.44
   5  -1  -2  287.55   30.36
   5  -1  -2  293.69   34.18
   5  -1  -1  163.45   22.66
   5  -1  -1  159.06   25.50
   5  -1  -1  155.22   28.24
   5  -1  -1  145.85   22.70
  -5  -1   1  128.58   25.57
   5  -1  -1   98.17   25.73
  -5  -1   1  105.29   25.37
   5  -1  -1  150.40   21.40
   5  -1  -1  141.16   24.14
   5  -1  -1  176.17   28.69
   5  -1   0  675.95   54.73
   5  -1   0  843.08   67.12
   5  -1   0  696.23   52.88
  -5  -1   0  627.56   56.61
   5  -1   0  722.38   65.42
  -5  -1   0  509.91   58.51
  -5  -1   0  469.61   54.91
   5  -1   0  726.15   57.67
   5  -1   0  806.93   63.94
   5  -1   1  545.65   49.64
   5  -1   1  673.17   60.81
  -5  -1  -1  521.92   49.73
   5  -1   1  562.06   58.46
  -5  -1  -1  381.64   50.31
   5  -1   1  473.65   48.05
   5  -1   1  524.81   50.52
   5  -1   1  664.77   58.78
   5  -1   2   10.41   10.18
   5  -1   2   13.15   11.74
   5  -1   2   20.81   10.62
   5  -1   2    9.49   11.70
  -5  -1  -2   17.72    9.54
   5  -1   2   14.51   11.05
   5  -1   2    6.83    7.81
   5  -1   3  277.20   36.32
   5  -1   3  299.21   39.06
   5  -1   3  322.62   41.50
   5  -1   3  328.57   39.85
  -5  -1  -4  639.56   57.90
   5  -1   4  838.20   63.78
  -5  -1  -4 1128.39   64.61
   5  -1   4  717.73   62.51
   5  -1   4  931.59   66.68
   5  -1   4  906.03   67.05
  -5  -1  -5  351.86   35.98
   5  -1   5  284.24   34.28
   5  -1   5  254.83   32.86
   5  -1   5  328.84   32.10
   5  -1   5  358.74   36.85
   5  -1   6   16.38    7.36
   5  -1   6    9.94    6.77
   5  -1   6    7.81    6.68
  -5  -1  -6   11.86    5.95
   5   0  -9   60.48   11.13
   5   0  -8  228.69   29.75
   5   0  -8  291.99   23.17
  -5   0   8  195.73   26.56
   5   0  -8  255.86   22.71
   5   0  -7   -1.05   11.00
   5   0  -7    8.11    9.43
   5   0  -7   -5.22    9.24
  -5   0   7    2.04    4.94
  -5   0   7   -2.38    8.58
   5   0  -7    1.74    6.87
   5   0  -6  428.77   51.00
   5   0  -6  363.14   34.76
  -5   0   6  328.66   36.81
   5   0  -6  368.90   36.29
   5   0  -6  433.25   38.27
   5   0  -5  443.61   43.48
   5   0  -5  397.81   49.47
   5   0  -5  331.45   33.35
   5   0  -5  326.00   33.85
   5   0  -5  269.85   33.99
   5   0  -4  245.80   32.78
   5   0  -4  243.21   38.22
   5   0  -4  273.29   43.30
  -5   0   4  236.11   33.13
  -5   0   4  280.99   36.85
   5   0  -4  187.83   25.75
   5   0  -4  223.69   30.75
   5   0  -3  593.50   54.40
   5   0  -3  580.12   50.47
   5   0  -3  638.31   61.20
   5   0  -3  611.41   52.58
   5   0  -3  621.62   67.06
  -5   0   3  629.41   59.93
   5   0  -3  534.68   43.45
   5   0  -3  526.04   49.22
   5   0  -2  839.10   65.62
   5   0  -2  602.77   53.19
   5   0  -2  694.71   54.40
   5   0  -2  636.90   60.16
  -5   0   2  478.22   51.53
   5   0  -2  588.12   50.91
   5   0  -2  607.43   66.51
  -5   0   2  536.66   56.26
   5   0  -2  634.87   45.42
   5   0  -2  650.05   50.07
   5   0  -2  666.79   58.37
   5   0  -2  697.36   56.06
   5   0  -1  821.41   59.83
   5   0  -1  717.62   57.24
   5   0  -1 1165.31   81.60
   5   0  -1  861.20   70.00
  -5   0   1  678.60   59.91
   5   0  -1  728.10   56.87
  -5   0   1  637.96   60.18
   5   0  -1  759.66   68.47
  -5   0   1  687.81   67.29
  -5   0   1  514.65   54.63
   5   0  -1  756.75   55.30
   5   0  -1  907.33   67.24
   5   0  -1  915.87   66.53
   5   0   0   81.79   18.76
   5   0   0  142.25   29.46
   5   0   0   85.55   21.67
   5   0   0   71.61   17.90
  -5   0   0   95.70   23.02
   5   0   0   73.11   21.54
  -5   0   0   84.12   24.13
  -5   0   0   51.85   18.65
   5   0   0   63.16   16.18
   5   0   0   97.14   21.65
   5   0   1   14.68   10.86
   5   0   1    7.92   12.78
   5   0   1   16.59   12.26
  -5   0  -1   10.72   10.19
   5   0   1   35.19   13.77
   5   0   1   12.64   11.11
  -5   0  -1    6.64   11.30
  -5   0  -1    7.93   12.40
   5   0   1    9.81    9.60
   5   0   1    4.85    8.65
   5   0   2 1071.92   72.44
  -5   0  -2  927.53   66.80
   5   0   2 1062.04   76.23
   5   0   2 1508.16   84.33
   5   0   2 1378.08   94.51
  -5   0  -2 1181.30   79.10
   5   0   2 1135.70   89.82
  -5   0  -2  742.72   79.93
  -5   0  -2  694.89   77.42
   5   0   2 1087.98   75.74
   5   0   2 1244.29   82.48
   5   0   2 1192.20   82.37
   5   0   3   70.46   18.13
  -5   0  -3   38.30   15.31
   5   0   3   51.59   18.62
   5   0   3   64.94   19.63
   5   0   3   40.15   15.25
   5   0   3   65.06   18.09
   5   0   4    9.33   11.59
  -5   0  -4    8.19   11.02
  -5   0  -4   28.74    8.62
   5   0   4    5.85   11.07
  -5   0  -4   10.79   10.95
   5   0   4    7.72   10.87
   5   0   4   10.12   10.70
  -5   0  -4   18.73    8.01
   5   0   4   20.05    9.33
   5   0   5   91.74   18.72
  -5   0  -5   98.09   19.82
   5   0   5   86.59   18.94
  -5   0  -5  135.58   20.89
   5   0   5   62.81   16.78
  -5   0  -5   51.32   11.92
   5   0   5  106.73   20.83
   5   0   6   12.51    8.22
  -5   0  -6   38.55   10.56
   5   0   6   34.35   10.42
  -5   0  -6   29.89    6.36
   5   0   6   23.11    8.20
   5   1  -8  169.76   25.25
  -5   1   8  176.74   24.32
  -5   1   8  140.01   22.49
   5   1  -7  555.54   45.90
   5   1  -7  441.46   49.46
   5   1  -7  550.96   38.36
  -5   1   7  350.68   37.73
  -5   1   7  422.06   43.06
  -5   1   7  434.16   43.66
  -5   1   7  482.53   35.78
   5   1  -7  444.45   35.81
   5   1  -7  407.50   36.49
   5   1  -6  258.25   40.28
  -5   1   6  164.82   26.91
  -5   1   6  248.65   34.05
   5   1  -6  189.00   28.51
   5   1  -5   40.14   16.72
  -5   1   5   24.71   12.88
   5   1  -5   26.37   10.72
   5   1  -5   33.29   14.27
   5   1  -4  232.02   32.84
   5   1  -4  266.66   40.91
  -5   1   4  175.00   29.08
   5   1  -4  318.62   47.30
  -5   1   4  364.07   42.94
  -5   1   4  300.36   39.20
   5   1  -4  265.09   27.22
   5   1  -4  257.40   35.86
   5   1  -3 1376.71   85.74
   5   1  -3 1169.15   84.81
   5   1  -3 1299.03   79.30
   5   1  -3 1286.58   91.88
   5   1  -3 1253.45   81.72
  -5   1   3  991.72   81.03
   5   1  -3 1132.64   96.73
  -5   1   3 1249.81   89.24
  -5   1   3  959.89   77.21
   5   1  -3 1128.66   80.41
   5   1  -2  278.94   38.30
   5   1  -2  240.74   35.27
   5   1  -2  296.16   34.50
   5   1  -2  283.39   41.55
   5   1  -2  241.03   36.43
  -5   1   2  266.85   37.37
   5   1  -2  294.11   35.23
   5   1  -2  234.88   41.44
  -5   1   2  228.79   36.00
   5   1  -2  244.67   34.16
   5   1  -2  250.88   34.91
   5   1  -1  192.14   32.79
   5   1  -1  162.02   28.47
   5   1  -1  153.78   25.79
   5   1  -1  249.02   37.54
   5   1  -1  153.74   28.74
  -5   1   1  172.60   28.67
   5   1  -1  152.85   25.44
  -5   1   1  160.37   28.71
   5   1  -1  142.49   29.47
  -5   1   1  171.76   32.34
  -5   1   1  151.63   25.60
  -5   1   1   86.58   19.19
   5   1  -1  165.42   27.40
   5   1  -1  186.76   30.24
   5   1   0  655.86   55.66
  -5   1   0  657.52   58.57
   5   1   0  661.67   56.10
  -5   1   0  638.82   58.27
   5   1   0  649.56   64.42
  -5   1   0  662.57   68.08
  -5   1   0  516.99   58.18
   5   1   0  700.49   58.17
   5   1   1  648.33   58.39
  -5   1  -1  575.01   54.11
   5   1   1  568.06   59.42
  -5   1  -1  495.85   61.33
  -5   1  -1  476.87   57.19
   5   1   1  608.97   62.80
  -5   1  -1  378.56   46.45
   5   1   1  489.77   43.40
   5   1   1  674.32   55.14
   5   1   2    8.72    9.86
  -5   1  -2   13.33   10.17
   5   1   2   14.17   12.94
  -5   1  -2   23.25    9.70
   5   1   2   35.20   14.20
  -5   1  -2    8.52   11.41
   5   1   2   18.74   10.09
  -5   1  -2    6.71    5.43
   5   1   2   24.97    9.25
   5   1   2   13.89   10.03
   5   1   3  277.79   34.20
  -5   1  -3  280.08   31.61
  -5   1  -3  243.79   33.35
   5   1   3  208.13   30.47
   5   1   3  275.84   31.60
   5   1   4  857.30   62.84
  -5   1  -4  761.42   57.71
   5   1   4  663.90   55.98
   5   1   5  325.62   33.94
  -5   1  -5  344.58   36.83
   5   1   5  296.84   34.75
   5   1   5  215.57   27.72
   5   1   6   16.76    7.63
   5   1   6   10.73    7.11
  -5   1  -6   10.72    7.03
   5   1   6    8.20    7.73
   5   2  -8  157.14   23.07
  -5   2   8  137.89   14.26
   5   2  -8   92.27   14.16
   5   2  -7   28.79   11.80
   5   2  -7   13.21    9.49
  -5   2   7   23.44    7.74
  -5   2   7   11.60    9.56
  -5   2   7   15.82    9.63
  -5   2   7   19.86    8.42
  -5   2   7   11.76    9.50
   5   2  -7   11.17    8.85
   5   2  -6  230.04   30.33
   5   2  -6  273.21   39.02
   5   2  -6  298.78   29.86
  -5   2   6  226.60   24.71
  -5   2   6  290.36   36.34
  -5   2   6  236.58   34.53
   5   2  -6  198.47   31.64
   5   2  -5  933.40   63.89
   5   2  -5 1204.45   72.22
   5   2  -5 1040.74   82.75
   5   2  -5  783.10   54.46
  -5   2   5  838.26   66.12
  -5   2   5  741.27   66.49
   5   2  -5  897.63   72.18
   5   2  -4  121.67   24.57
   5   2  -4  155.65   31.93
   5   2  -4  164.12   25.94
   5   2  -4  139.92   29.22
  -5   2   4  120.78   25.70
   5   2  -4  126.95   20.86
  -5   2   4   99.46   22.61
   5   2  -4  162.20   33.26
   5   2  -4  155.50   29.26
   5   2  -3  158.77   29.44
   5   2  -3  171.61   32.40
   5   2  -3  166.30   25.79
   5   2  -3  165.93   30.77
   5   2  -3  168.71   28.57
  -5   2   3  174.08   30.96
  -5   2   3  127.34   25.51
   5   2  -3  195.89   36.37
  -5   2   3  132.13   25.10
   5   2  -3  146.69   28.08
   5   2  -2  883.19   70.26
   5   2  -2  902.47   71.93
   5   2  -2  821.67   60.71
   5   2  -2 1067.70   77.96
   5   2  -2  888.26   72.34
   5   2  -2  928.27   68.33
  -5   2   2  791.32   69.47
  -5   2   2  604.53   56.55
  -5   2   2  881.34   73.11
  -5   2   2  861.83   64.78
  -5   2   2  721.08   62.28
   5   2  -2  939.84   72.32
   5   2  -1 1600.23   96.25
   5   2  -1 1364.68   89.33
   5   2  -1 1234.53   79.35
   5   2  -1 1785.85  101.93
   5   2  -1 1305.89   89.40
  -5   2   1 1224.04   87.81
   5   2  -1 1307.42   84.36
  -5   2   1 1099.67   78.20
  -5   2   1 1179.64   85.89
  -5   2   1 1283.17   95.08
  -5   2   1  956.81   77.70
  -5   2   1  949.07   71.94
   5   2  -1 1419.89   85.16
   5   2  -1 1597.58   96.24
   5   2   0  119.82   22.73
   5   2   0  154.75   30.09
   5   2   0  126.79   26.74
  -5   2   0  115.71   23.75
   5   2   0  116.50   23.78
  -5   2   0   99.93   23.10
   5   2   0  108.21   25.05
  -5   2   0   96.28   26.66
  -5   2   0   95.86   25.49
  -5   2   0   82.05   18.88
  -5   2   0   95.08   21.03
   5   2   0  130.16   30.81
   5   2   0  129.55   22.58
   5   2   1  152.40   25.90
   5   2   1  202.33   33.16
   5   2   1  165.08   30.11
  -5   2  -1  198.19   30.88
  -5   2  -1  181.23   30.03
   5   2   1  149.88   29.19
  -5   2  -1  123.29   30.02
   5   2   1  216.39   36.78
  -5   2  -1  124.76   22.64
  -5   2  -1  150.09   27.11
   5   2   1  204.67   26.87
   5   2   2  274.20   31.07
  -5   2  -2  306.78   36.41
   5   2   2  311.28   38.17
   5   2   2  413.43   43.52
   5   2   2  359.46   44.44
  -5   2  -2  384.09   42.48
   5   2   2  337.91   45.08
  -5   2  -2  191.33   39.88
  -5   2  -2  175.07   38.50
   5   2   2  293.42   42.91
  -5   2  -2  244.14   37.18
   5   2   2  281.49   37.68
   5   2   3  179.70   27.79
  -5   2  -3  227.84   29.47
  -5   2  -3  197.79   30.76
   5   2   3  272.27   35.88
   5   2   3  265.10   32.05
   5   2   3  238.13   35.03
   5   2   4  205.00   28.33
  -5   2  -4  170.26   24.37
  -5   2  -4  193.70   27.12
   5   2   4  175.63   28.76
  -5   2  -4  168.49   25.86
  -5   2  -4  277.70   32.67
   5   2   4  157.78   27.27
   5   2   5  197.33   25.67
  -5   2  -5  221.73   25.89
   5   2   5  156.06   24.78
  -5   2  -5  188.37   24.95
   5   2   5  216.56   28.59
   5   2   6  153.43   18.64
   5   2   6  132.16   17.05
  -5   2  -6   90.04   15.51
   5   2   6  174.59   19.69
  -5   2  -6  115.01   18.75
   5   3  -8  112.00   17.63
  -5   3   8   93.85   12.19
   5   3  -8   66.07   12.58
   5   3  -7  623.64   50.98
   5   3  -7  396.38   41.20
   5   3  -7  604.99   36.50
  -5   3   7  593.37   33.83
  -5   3   7  423.11   42.66
  -5   3   7  434.23   42.09
  -5   3   7  576.81   39.96
  -5   3   7  321.30   39.14
   5   3  -7  512.02   44.62
   5   3  -6  103.84   25.89
   5   3  -6  117.96   22.16
   5   3  -6   78.77   20.56
   5   3  -6  137.13   19.30
  -5   3   6  118.01   17.75
  -5   3   6  106.76   22.52
  -5   3   6  112.83   23.55
   5   3  -6   93.20   23.08
  -5   3   5    2.88    5.15
   5   3  -5    3.85    9.94
   5   3  -5    3.82   14.45
   5   3  -5    8.88    9.30
   5   3  -5    8.90    9.53
   5   3  -5    0.84   10.01
  -5   3   5   11.18   10.58
  -5   3   5    3.23    9.39
  -5   3   5    1.63   10.51
   5   3  -5    5.47   10.61
   5   3  -4  440.56   47.25
   5   3  -4  561.42   45.93
   5   3  -4  461.68   51.15
   5   3  -4  380.44   34.55
  -5   3   4  376.50   42.07
  -5   3   4  370.70   45.64
  -5   3   4  422.86   49.04
   5   3  -4  486.40   53.10
   5   3  -3   87.57   22.97
   5   3  -3   91.44   19.25
   5   3  -3   97.35   24.85
   5   3  -3   86.31   22.10
   5   3  -3   95.74   23.46
  -5   3   3   80.32   20.45
   5   3  -3   91.00   17.12
  -5   3   3   98.07   21.15
  -5   3   3   79.01   20.45
  -5   3   3   72.63   18.47
  -5   3   3  112.56   22.54
  -5   3   3   92.98   20.26
  -5   3   3  102.46   24.27
   5   3  -3   92.30   25.23
   5   3  -2  396.87   47.37
   5   3  -2  385.60   47.72
   5   3  -2  401.09   39.17
   5   3  -2  394.98   44.88
   5   3  -2  447.85   46.13
  -5   3   2  347.27   44.22
  -5   3   2  220.50   35.71
  -5   3   2  305.73   37.50
  -5   3   2  295.27   41.34
  -5   3   2  331.98   40.22
  -5   3   2  410.76   44.19
   5   3  -2  393.53   46.57
   5   3  -1  126.54   29.08
   5   3  -1   88.86   18.96
  -5   3   1  100.94   21.10
   5   3  -1  111.98   25.83
   5   3  -1   87.93   21.32
   5   3  -1  120.72   24.08
  -5   3   1   99.10   22.37
  -5   3   1   93.50   25.07
  -5   3   1  112.86   21.70
  -5   3   1   85.69   19.61
  -5   3   1   83.20   19.33
   5   3  -1  106.78   25.93
   5   3   0  446.58   42.83
   5   3   0  601.52   56.79
   5   3   0  519.58   51.40
  -5   3   0  485.19   51.08
   5   3   0  543.27   51.37
   5   3   0  461.17   50.89
  -5   3   0  436.31   54.19
  -5   3   0  390.98   49.50
  -5   3   0  390.16   45.81
   5   3   0  523.76   61.95
  -5   3   0  396.53   42.81
   5   3   0  667.77   61.71
  -5   3  -1  538.86   52.10
   5   3   1  635.14   51.83
   5   3   1  713.38   61.53
   5   3   1  638.12   58.07
  -5   3  -1  631.57   58.27
   5   3   1  650.90   57.82
  -5   3  -1  662.01   57.15
   5   3   1  565.97   57.83
  -5   3  -1  506.50   59.98
  -5   3  -1  436.98   52.66
   5   3   1  539.76   62.84
  -5   3  -1  480.91   46.00
  -5   3  -2   20.22   12.07
  -5   3  -2   27.36   13.14
   5   3   2   21.69   10.95
   5   3   2    4.47   10.50
   5   3   3  352.09   36.31
  -5   3  -3  496.66   43.96
  -5   3  -3  410.54   43.19
   5   3   3  443.84   43.53
   5   3   3  582.87   47.83
   5   3   3  455.26   45.31
   5   3   4  399.95   36.75
  -5   3  -4  401.15   36.84
  -5   3  -4  334.95   36.55
  -5   3  -4  383.32   37.67
   5   3   4  327.84   35.23
  -5   3  -4  323.40   33.99
   5   3   4  328.86   36.47
   5   3   5  121.33   18.48
  -5   3  -5  109.28   18.84
  -5   3  -5  131.13   19.28
   5   3   5  123.63   18.22
  -5   3  -5   81.30   15.70
  -5   3  -5  164.46   21.60
   5   3   5  128.17   19.25
  -5   3  -5   89.99   18.15
   5   3   6   17.39    4.56
  -5   3  -6    9.63    3.33
  -5   4   8  113.55   12.78
   5   4  -8  146.46   16.09
   5   4  -7   45.87   13.29
  -5   4   7   24.01    7.04
  -5   4   7   24.90    9.12
  -5   4   7   13.22    7.57
   5   4  -7   32.10   11.73
   5   4  -6  447.28   37.21
   5   4  -6  444.65   45.45
   5   4  -6  456.37   30.88
  -5   4   6  344.76   30.81
  -5   4   6  391.58   42.16
   5   4  -6  388.66   43.71
  -5   4   5  342.03   32.51
   5   4  -5  326.73   37.95
   5   4  -5  442.07   48.68
   5   4  -5  355.63   33.25
   5   4  -5  370.82   30.10
  -5   4   5  282.26   38.36
  -5   4   5  289.76   38.94
   5   4  -5  376.29   46.25
   5   4  -4  281.93   38.81
   5   4  -4  346.96   45.62
   5   4  -4  396.22   35.17
   5   4  -4  288.29   36.11
   5   4  -4  307.91   27.89
  -5   4   4  265.57   37.82
  -5   4   4  258.79   26.86
  -5   4   4  260.84   38.81
   5   4  -4  370.24   47.12
   5   4  -3   52.13   19.44
   5   4  -3   68.19   22.51
   5   4  -3   46.84   13.55
   5   4  -3   69.25   20.38
   5   4  -3   63.13   17.96
   5   4  -3   34.45   11.35
  -5   4   3   41.79   15.48
  -5   4   3   74.00   20.10
  -5   4   2 1026.27   66.40
   5   4  -2 1249.78   85.27
   5   4  -2 1251.52   80.95
  -5   4   2 1034.56   74.45
  -5   4   2 1076.34   82.26
  -5   4   2 1161.19   80.34
  -5   4   2 1129.30   79.47
  -5   4   1  603.43   54.97
   5   4  -1  591.61   45.32
   5   4  -1  595.38   53.09
  -5   4   1  558.61   55.62
  -5   4   1  490.98   50.06
  -5   4   1  571.64   58.52
  -5   4   1  503.37   51.27
  -5   4   1  528.80   50.72
  -5   4   1  481.40   47.13
   5   4   0  126.39   29.02
  -5   4   0  105.18   23.44
   5   4   0  124.11   28.44
   5   4   0  144.65   21.48
   5   4   0  174.31   30.95
   5   4   0  156.73   26.17
  -5   4   0  113.00   22.36
  -5   4  -1  154.89   25.22
   5   4   1  134.13   28.52
   5   4   1   99.56   18.57
   5   4   1  119.99   26.42
   5   4   1  161.30   26.97
   5   4   1  129.11   25.16
  -5   4  -1   92.12   19.87
  -5   4  -2  379.72   39.29
  -5   4  -2  265.23   35.15
   5   4   2  318.26   32.65
   5   4   2  323.47   39.86
   5   4   2  333.36   39.64
  -5   4  -2  282.51   33.05
  -5   4  -2  253.43   31.90
  -5   4  -3  315.22   34.12
  -5   4  -3  212.87   29.92
   5   4   3  258.55   28.19
   5   4   3  360.44   36.88
  -5   4  -3  395.32   36.98
  -5   4  -3  193.62   28.65
  -5   4  -4   41.83   12.44
  -5   4  -4   38.59   12.25
  -5   4  -4   27.05   11.62
   5   4   4   49.25   10.15
   5   4   4   52.70   12.76
  -5   4  -4   33.12    9.35
  -5   4  -4   53.19   14.10
  -5   4  -4   43.23   13.25
  -5   4  -5   49.14    9.25
   5   4   5   48.57   12.50
  -5   4  -5   58.60   13.33
  -5   4  -6  125.16   15.11
   5   5  -7  207.57   21.41
  -5   5   7  182.54   16.59
  -5   5   7  163.57   17.42
   5   5  -6  265.03   27.45
   5   5  -6  304.11   32.54
  -5   5   6  242.06   23.76
  -5   5   6  230.56   29.89
  -5   5   6  277.00   26.37
  -5   5   6  206.67   20.41
  -5   5   5   -0.87    4.87
   5   5  -5    4.97   10.02
   5   5  -5   -1.42   12.57
  -5   5   5    2.70    7.54
  -5   5   5    8.20    7.01
  -5   5   5   -1.32    6.73
   5   5  -4  243.00   34.77
   5   5  -4  318.52   40.65
  -5   5   4  236.04   34.14
  -5   5   4  236.14   24.66
  -5   5   4  140.58   25.97
  -5   5   4  211.50   32.52
   5   5  -4  238.87   37.22
   5   5  -3  637.20   60.04
   5   5  -3  572.39   52.84
  -5   5   3  454.59   48.01
  -5   5   3  550.57   42.21
  -5   5   3  519.86   51.62
   5   5  -3  566.40   57.90
   5   5  -2  119.96   28.02
  -5   5   2   80.55   15.48
   5   5  -2   91.38   22.98
   5   5  -2  101.67   22.63
  -5   5   2   92.45   20.93
  -5   5   2   83.88   20.23
   5   5  -2   99.61   25.37
  -5   5   1  132.16   23.85
   5   5  -1  201.80   32.37
   5   5  -1  171.51   31.56
  -5   5   1  155.70   23.55
   5   5  -1  190.23   29.28
  -5   5   1  164.93   27.57
  -5   5   1  135.48   24.18
   5   5  -1  216.84   35.53
   5   5   0  379.01   46.88
   5   5   0  434.44   48.60
  -5   5   0  468.13   43.78
   5   5   0  532.07   52.75
   5   5   0  505.76   47.67
  -5   5   0  424.83   43.09
  -5   5  -1  407.89   41.00
   5   5   1  382.12   44.11
   5   5   1  488.39   45.21
  -5   5  -1  381.16   38.74
  -5   5  -2   17.06   10.24
  -5   5  -2   20.48   11.16
   5   5   2   16.91   11.83
   5   5   2   20.62   10.42
  -5   5  -2   34.36   11.64
  -5   5  -2   15.75    8.99
  -5   5  -3  235.38   27.45
  -5   5  -3  177.35   21.06
   5   5   3  234.42   29.59
   5   5   3  194.19   26.37
  -5   5  -3  172.36   22.43
  -5   5  -3  117.06   20.18
  -5   5  -4  508.73   39.42
  -5   5  -4  515.69   39.32
  -5   5  -4  399.10   35.53
   5   5   4  576.85   38.28
   5   5   4  491.63   38.07
  -5   5  -4  605.32   39.03
  -5   5  -4  379.29   34.84
  -5   5  -5   75.79   11.31
   5   5   5   60.81   10.44
  -5   5  -5   82.41   13.03
   5   6  -6  135.90   18.14
  -5   6   6  150.95   16.44
  -5   6   6  157.92   17.12
   5   6  -6  134.47   20.74
   5   6  -5  416.53   38.93
  -5   6   5  400.87   31.35
  -5   6   5  350.69   36.30
   5   6  -5  381.49   40.88
  -5   6   5  345.26   29.81
  -5   6   4   85.91   16.16
  -5   6   4   89.97   14.11
  -5   6   4   64.82   15.80
  -5   6   4   51.46   16.65
  -5   6   3   48.91   13.48
   5   6  -3  128.48   22.83
  -5   6   3  134.35   18.67
  -5   6   3  125.03   22.15
  -5   6   3  123.42   23.14
   5   6  -3  161.94   29.27
  -5   6   2  203.27   27.32
   5   6  -2  302.95   39.09
  -5   6   2  274.25   27.05
   5   6  -2  276.67   35.35
  -5   6   2  298.69   35.20
   5   6  -2  359.53   43.77
  -5   6   1  358.94   36.80
   5   6  -1  431.79   45.85
   5   6  -1  467.22   47.55
  -5   6   1  441.19   37.54
   5   6  -1  468.03   46.53
   5   6  -1  570.81   46.46
  -5   6   1  449.17   43.22
  -5   6   1  466.07   41.97
   5   6  -1  568.83   53.83
   5   6   0   18.07   15.58
  -5   6   0   23.68   11.29
   5   6   0   47.34   18.10
  -5   6   0   13.13    8.87
  -5   6   0   40.96   13.16
   5   6   0   41.06   14.07
  -5   6   0   35.73   12.91
  -5   6  -1   60.39   15.59
  -5   6  -1   68.79   16.46
   5   6   1  100.55   22.19
   5   6   1   95.31   18.27
  -5   6  -1   97.81   18.51
  -5   6  -2  325.03   32.63
  -5   6  -2  262.14   30.45
  -5   6  -2  203.70   25.66
   5   6   2  335.21   37.29
   5   6   2  275.25   28.71
  -5   6  -2  300.35   25.82
  -5   6  -2  291.31   30.58
  -5   6  -3  167.76   21.72
  -5   6  -3  150.71   20.47
   5   6   3  160.86   18.90
  -5   6  -3   96.04   14.60
  -5   6  -4    9.62    5.46
   5   6   4   10.56    6.98
  -5   6  -4   12.71    4.76
  -5   7   5    7.08    4.40
   5   7  -5    2.28    6.61
  -5   7   5   10.86    5.10
  -5   7   5    4.38    4.36
   5   7  -5    3.29    6.63
  -5   7   4   91.33   13.10
   5   7  -4   88.21   18.91
  -5   7   4   89.56   14.56
   5   7  -3  569.11   48.37
  -5   7   3  539.26   36.83
  -5   7   3  374.70   36.99
  -5   7   3  464.44   42.53
   5   7  -3  679.05   52.49
  -5   7   3  578.23   40.42
  -5   7   2   68.36   12.05
   5   7  -2   59.80   18.17
   5   7  -2   78.90   18.57
  -5   7   2   72.61   13.80
  -5   7   2   80.92   15.84
  -5   7   1   45.64   10.18
   5   7  -1   35.67   15.18
  -5   7   1   42.29   10.59
   5   7  -1   55.24   16.23
  -5   7   1   31.05   10.32
  -5   7   1   44.03   13.38
  -5   7   1   57.87   12.54
  -5   7   0  332.54   32.49
   5   7   0  298.06   36.82
   5   7   0  404.93   39.25
  -5   7   0  433.73   35.22
   5   7   0  410.26   40.89
  -5   7   0  398.31   36.51
  -5   7  -1  289.56   30.56
   5   7   1  438.79   42.44
  -5   7  -1  331.64   31.27
  -5   7  -1  433.54   36.46
  -5   7  -2   47.42   11.16
   5   7   2   66.55   16.04
   5   7   3  187.27   21.73
  -5   8   4   31.68    7.02
   5   8  -4   18.25    7.87
  -5   8   4   22.61    5.67
  -5   8   3    2.85    4.12
   5   8  -3    2.31    6.22
  -5   8   3    1.65    3.52
   5   8  -2  270.75   28.57
  -5   8   2  276.65   21.45
  -5   8   2  298.79   23.84
  -5   8   2  315.02   26.09
  -5   8   1  125.80   15.16
   5   8  -1  140.42   19.21
  -5   8   1  154.06   17.16
  -5   8   1  102.52   15.19
  -5   8   0   13.68    7.02
  -5   8   0   36.76    9.17
   5   8   0   48.05   12.64
  -5   8  -1   79.88   12.85
   5   8   1   99.73   16.77
  -5   8  -1   68.58   11.17
  -5   8  -2   99.98   13.12
   6  -6  -3   94.10   10.75
   6  -6  -2  281.20   20.01
   6  -6  -1   33.72    6.63
   6  -5  -5   76.66    9.75
   6  -5  -4  312.85   23.10
   6  -5  -3   42.36    9.38
   6  -5  -2    4.97    4.97
   6  -5  -1  446.34   29.80
   6  -5  -1  448.36   33.66
   6  -5   0  359.74   25.06
   6  -5   0  435.21   32.37
   6  -5   1    2.00    4.02
   6  -5   2  105.29   13.55
   6  -4  -5   54.36    8.11
   6  -4  -5   76.23   11.34
   6  -4  -4   24.66    7.42
   6  -4  -4   22.71    7.78
   6  -4  -4   21.78    7.49
   6  -4  -3  249.67   21.30
   6  -4  -3  242.61   22.84
   6  -4  -2  224.00   20.64
   6  -4  -2  185.78   20.27
   6  -4  -1    1.77    5.46
   6  -4  -1    0.63    5.78
   6  -4  -1    2.91    6.44
   6  -4   0  185.20   17.97
   6  -4   0  157.36   16.52
   6  -4   0  170.06   22.35
   6  -4   0  187.51   23.50
   6  -4   1  218.65   18.80
   6  -4   1  222.43   25.34
   6  -4   1  262.64   26.99
   6  -4   2  205.77   22.23
   6  -4   3    8.43    4.42
   6  -3  -6   53.39    7.73
   6  -3  -6   64.93    9.59
   6  -3  -5  235.32   21.97
   6  -3  -5  229.88   19.41
   6  -3  -5  269.54   22.95
   6  -3  -4  524.56   36.00
   6  -3  -4  525.61   40.92
   6  -3  -4  431.59   32.60
   6  -3  -3  181.05   21.83
   6  -3  -3  217.78   25.87
   6  -3  -3  191.89   21.00
   6  -3  -2  235.60   24.58
   6  -3  -2  216.44   27.08
   6  -3  -2  208.30   21.88
   6  -3  -2  176.32   25.38
   6  -3  -1  991.49   56.69
   6  -3  -1 1062.05   65.02
   6  -3  -1  888.57   50.97
   6  -3  -1  888.96   61.70
   6  -3   0  233.41   24.84
   6  -3   0  316.75   32.42
   6  -3   0  288.70   30.38
   6  -3   0  327.21   33.67
   6  -3   1   35.90   10.36
   6  -3   1   26.26   10.22
   6  -3   2   78.89   13.21
   6  -3   2   73.58   14.43
   6  -3   2   74.44   15.25
   6  -3   3  253.00   20.17
   6  -3   3  227.32   23.02
   6  -2  -6  236.87   21.86
   6  -2  -6  256.14   19.37
   6  -2  -5   54.25   12.97
   6  -2  -5   84.87   15.68
   6  -2  -5   59.53   11.71
   6  -2  -5   52.49   10.33
   6  -2  -4   13.41    8.00
   6  -2  -4    5.88    6.01
   6  -2  -4    9.42    6.96
   6  -2  -3  446.57   36.28
   6  -2  -3  433.98   41.12
   6  -2  -3  321.36   28.62
   6  -2  -2  122.14   19.35
   6  -2  -2  123.48   22.25
   6  -2  -2  116.24   21.52
   6  -2  -1   44.90   12.37
   6  -2  -1   32.51   12.47
   6  -2   0   39.68   11.74
   6  -2   0   33.20   12.42
   6  -2   0   30.94   11.10
   6  -2   0   45.14   14.35
   6  -2   1  542.26   40.98
   6  -2   1  477.66   40.63
   6  -2   1  563.65   46.68
   6  -2   2  192.64   22.37
   6  -2   2  162.37   21.66
   6  -2   2  190.62   24.66
   6  -2   3    5.83    5.64
   6  -2   3    7.09    6.06
   6  -2   3   11.17    6.36
   6  -2   4   91.87   11.44
   6  -2   4   63.82    9.98
   6  -1  -7  182.33   13.81
   6  -1  -6   10.15    8.06
   6  -1  -6    6.41    6.98
   6  -1  -5  209.47   24.28
   6  -1  -5  206.61   27.92
   6  -1  -5  172.47   19.79
   6  -1  -4  646.74   46.89
   6  -1  -4  639.89   53.45
   6  -1  -3   56.54   13.87
   6  -1  -3   68.81   17.22
   6  -1  -2   81.63   17.10
   6  -1  -2   82.55   19.26
   6  -1  -1  642.70   48.31
   6  -1  -1  619.14   53.55
   6  -1  -1  602.75   43.54
   6  -1  -1  658.86   53.60
   6  -1   0  464.81   40.34
   6  -1   0  567.17   50.09
   6  -1   0  486.10   37.90
   6  -1   0  418.25   37.01
   6  -1   0  559.31   47.63
   6  -1   1   87.83   16.97
   6  -1   1  106.85   21.06
   6  -1   1   77.22   14.71
   6  -1   1   67.00   14.26
   6  -1   1   89.65   18.74
   6  -1   2  218.36   25.57
   6  -1   2  180.51   21.71
  -6  -1  -2  274.34   23.77
   6  -1   2  179.88   22.25
   6  -1   2  208.66   25.81
   6  -1   3   48.99   11.14
   6  -1   3   65.41   12.43
   6  -1   4  106.14   13.62
   6   0  -7  267.09   18.37
   6   0  -6  409.52   32.34
   6   0  -6  384.10   31.57
   6   0  -6  364.26   35.72
   6   0  -5   72.99   15.68
   6   0  -5   80.68   15.88
   6   0  -5   74.63   17.40
  -6   0   5   21.30   10.60
   6   0  -4   76.73   16.32
   6   0  -4   73.83   15.54
   6   0  -4   59.83   16.79
  -6   0   4   16.82    9.47
   6   0  -3  215.68   26.07
   6   0  -3  229.36   27.07
   6   0  -3  252.51   32.74
   6   0  -2  458.84   40.69
   6   0  -2  498.71   48.24
   6   0  -2  485.85   41.42
   6   0  -1   52.18   14.45
   6   0  -1   50.48   15.46
   6   0  -1   65.20   14.82
   6   0  -1   65.63   16.71
   6   0   0  647.49   49.81
   6   0   0  700.90   57.68
   6   0   0  621.20   47.86
   6   0   0  666.20   53.33
  -6   0  -1   34.37   10.43
   6   0   1   94.83   18.14
   6   0   1  107.57   21.83
   6   0   1   65.95   14.48
   6   0   1   86.39   17.65
   6   0   2  437.13   38.05
   6   0   2  391.60   35.41
   6   0   2  431.71   36.40
  -6   0  -3   -1.59    6.55
   6   0   3    4.24    6.12
   6   0   3    5.90    5.71
   6   0   4   64.40   11.49
   6   0   4   32.50    8.27
   6   1  -7  198.94   18.96
   6   1  -6   12.36    9.31
   6   1  -6   10.44    8.43
   6   1  -5  220.06   27.10
   6   1  -5  173.39   22.65
   6   1  -5  193.20   27.34
   6   1  -5  154.19   18.75
  -6   1   5   65.74   16.56
  -6   1   5   73.50   18.20
   6   1  -4  733.66   50.61
   6   1  -4  635.43   44.27
   6   1  -4  674.78   53.19
   6   1  -4  570.60   36.72
   6   1  -3   66.74   17.57
   6   1  -3   39.81   13.59
   6   1  -3   54.10   16.50
  -6   1   3   33.26    9.55
   6   1  -2   55.54   15.46
   6   1  -2   63.66   17.92
   6   1  -2   72.60   16.86
   6   1  -1  551.12   44.31
   6   1  -1  670.03   54.78
   6   1  -1  609.06   46.63
   6   1   0  486.48   42.68
   6   1   0  537.40   50.81
   6   1   0  516.53   44.32
  -6   1  -1   28.10   11.13
   6   1   1   53.43   14.29
   6   1   1   72.52   19.03
   6   1   1   85.38   17.70
   6   1   1   59.94   13.88
   6   1   2  204.08   25.18
   6   1   2  203.02   25.51
  -6   1  -3   74.41   14.96
   6   1   3  122.24   17.92
   6   1   3  106.36   17.71
  -6   1  -3  136.27   17.53
   6   1   4   37.89    9.47
  -6   1  -4   22.27    7.04
   6   2  -6  314.97   30.12
   6   2  -6  262.80   23.58
   6   2  -6  329.93   22.89
   6   2  -5   72.75   17.14
   6   2  -5   52.76   13.03
   6   2  -5   69.77   15.64
   6   2  -5   85.58   13.70
  -6   2   5   40.58   10.22
  -6   2   5   16.96   10.01
   6   2  -5   65.41   13.18
   6   2  -4   13.69   10.63
   6   2  -4    6.23    7.60
   6   2  -4   10.62    9.09
   6   2  -4    3.17    7.93
  -6   2   4   12.15    5.25
  -6   2   4    3.91    6.69
   6   2  -4   21.65   10.26
   6   2  -3  397.55   40.35
   6   2  -3  388.84   35.10
   6   2  -3  396.05   41.36
   6   2  -3  385.46   29.92
   6   2  -3  423.79   39.93
   6   2  -2  186.80   24.73
   6   2  -2  193.29   29.22
   6   2  -2  192.25   26.84
   6   2  -2  152.00   19.12
   6   2  -1   32.69   11.70
   6   2  -1   47.46   15.42
   6   2  -1   32.91   13.08
  -6   2   1   18.86    9.18
  -6   2   0   12.31    9.58
   6   2   0   33.73   12.41
   6   2   0   34.90   13.54
   6   2   0   50.64   14.46
   6   2   1  534.58   39.78
   6   2   1  616.08   45.70
  -6   2  -2   74.71   13.98
  -6   2  -2   56.18   13.23
   6   2   2  144.18   20.35
   6   2   2  175.05   23.56
   6   2   3    8.73    6.01
   6   2   3    9.41    6.78
  -6   2  -3   18.45    7.73
  -6   2  -3   20.33    4.81
   6   2   4  103.72   12.61
   6   2   4   60.52   11.92
   6   3  -6   68.96    8.75
  -6   3   6   46.19    8.42
   6   3  -5  248.84   30.14
   6   3  -5  301.53   24.61
   6   3  -5  236.26   25.72
   6   3  -4  619.03   49.10
   6   3  -4  603.41   38.35
   6   3  -4  572.26   44.25
   6   3  -4  563.55   31.85
  -6   3   4  224.42   31.37
   6   3  -4  537.70   43.55
   6   3  -3  215.80   23.71
   6   3  -3  202.12   26.41
  -6   3   3   98.10   18.37
  -6   3   3   73.65   16.84
   6   3  -3  199.02   28.50
   6   3  -2  265.56   27.07
   6   3  -2  259.21   31.56
   6   3  -2  230.64   30.19
   6   3  -1 1008.47   54.12
   6   3  -1 1140.95   70.14
   6   3  -1  996.25   62.18
   6   3  -1 1000.43   61.78
  -6   3   0  128.51   21.59
   6   3   0  319.76   29.35
   6   3   0  336.69   38.75
   6   3   0  369.59   36.31
   6   3   0  329.77   34.09
  -6   3  -1   25.28    9.51
  -6   3  -1    2.50    7.64
   6   3   1   36.24   10.65
   6   3   1   32.01   13.58
   6   3   1   53.94   14.75
   6   3   2   71.55   13.17
   6   3   2  116.34   18.57
   6   3   3  265.26   22.00
   6   3   3  262.80   26.45
  -6   4   6  104.78   11.18
  -6   4   5   47.41    7.64
   6   4  -5   79.78   14.44
  -6   4   4   11.83    5.89
   6   4  -4   36.90   11.69
  -6   4   4    7.12    5.43
   6   4  -4   36.81   13.04
   6   4  -3  227.69   28.17
  -6   4   3  101.74   18.22
   6   4  -3  294.37   33.58
  -6   4   2   58.25   14.37
  -6   4   2  111.21   18.66
  -6   4   1   -1.10    3.77
   6   4  -1   -6.24   12.24
  -6   4   1   11.97    5.52
  -6   4   0   56.38   13.40
  -6   4   0   82.74   14.58
  -6   4   0   59.11   12.24
  -6   4  -1  127.23   17.78
  -6   4  -1  130.55   18.00
  -6   4  -2  111.21   16.88
   6   4   2  233.99   23.99
  -6   4  -3    0.95    3.51
   6   4   3   14.87    6.07
  -6   5   4  194.68   17.21
  -6   5   3   35.11    9.15
   6   5  -3   53.66   15.49
  -6   5   2    7.11    4.60
  -6   5   1  246.16   19.16
   6   5   0  472.33   39.98
   6   5   0  529.73   38.19
  -6   5  -1    4.32    4.36
   6   5   1    6.79    8.10
   6   5   1    7.70    6.57
  -6   5  -2   67.00   11.86
   6   5   2  148.24   16.19
  -6   6   3   57.41    9.88
  -6   6   2  159.38   16.99
  -6   6   1   19.28    5.80
  -6   6   0   48.48    9.59
  -6   6  -1   17.11    7.95
   7  -1  -3   84.04   10.43
   7  -1  -2  180.02   15.44
   7  -1  -2  109.61   11.37
   7  -1  -1  138.37   13.78
   7  -1   0    7.58    4.17
   7   0  -3  240.73   19.13
   7   0  -2   20.82    6.79
   7   0  -1   22.62    6.58
   7   0   0  118.17   12.96
   7   1  -3   87.33   10.77
   7   1  -2  183.97   16.46
   7   1  -1  140.02   14.38
   7   1   0    7.61    4.12
   0   0   0    0.00    0.00


TITL FASAC09 in P2(1)
REM P2(1) (#4 in standard setting)
CELL 1.54184   5.611858   9.671860   8.981299  90.0000  97.5452  90.0000
ZERR    2.00   0.000123   0.000168   0.000172   0.0000   0.0020   0.0000
LATT -1
SYMM -x, y+1/2,-z
SFAC C H O Br
UNIT 22.00 18.00 4.00 2.00
TREF
HKLF 4
END
_computing_structure_solution     'SHELXT 2018/2 (Sheldrick, 2018)'
;
_shelx_hkl_checksum              36627
_olex2_submission_original_sample_id fasac09
_olex2_submission_special_instructions 'No special instructions were received'
_oxdiff_exptl_absorpt_empirical_details
;
Empirical correction (ABSPACK) includes:
- Absorption correction using spherical harmonics
- Frame scaling
;
_oxdiff_exptl_absorpt_empirical_full_max 1.753
_oxdiff_exptl_absorpt_empirical_full_min 0.541
loop_
_space_group_symop_operation_xyz
'x, y, z'
'-x, y+1/2, -z'
loop_
_atom_site_label
_atom_site_type_symbol
_atom_site_fract_x
_atom_site_fract_y
_atom_site_fract_z
_atom_site_U_iso_or_equiv
_atom_site_adp_type
_atom_site_occupancy
_atom_site_site_symmetry_order
_atom_site_calc_flag
_atom_site_refinement_flags_posn
Br1 Br 0.86030(10) 0.35334(9) -0.13625(6) 0.0280(2) Uani 1 1 d .
O1 O 0.1408(8) 0.6307(6) 0.6533(5) 0.0282(11) Uani 1 1 d .
O2 O 0.0216(9) 0.8004(5) 0.4918(6) 0.0308(10) Uani 1 1 d .
C1 C 0.3711(11) 0.5216(6) 0.4118(8) 0.0229(12) Uani 1 1 d .
H1 H 0.211510 0.475949 0.413423 0.027 Uiso 1 1 calc R
C2 C 0.3837(12) 0.6715(6) 0.4675(7) 0.0234(12) Uani 1 1 d .
H2 H 0.482523 0.741931 0.421758 0.028 Uiso 1 1 calc R
C3 C 0.5003(12) 0.5578(7) 0.5640(7) 0.0238(13) Uani 1 1 d .
H3 H 0.679491 0.551338 0.583924 0.029 Uiso 1 1 calc R
C4 C 0.3505(12) 0.5415(7) 0.6921(8) 0.0266(13) Uani 1 1 d .
H4A H 0.300390 0.444080 0.701302 0.032 Uiso 1 1 calc R
H4B H 0.443006 0.570825 0.788422 0.032 Uiso 1 1 calc R
C5 C 0.1662(12) 0.7124(7) 0.5340(7) 0.0247(13) Uani 1 1 d .
C6 C 0.4976(11) 0.4812(6) 0.2837(7) 0.0207(12) Uani 1 1 d .
C7 C 0.7055(12) 0.5491(7) 0.2500(8) 0.0275(13) Uani 1 1 d .
H7 H 0.771446 0.622914 0.312034 0.033 Uiso 1 1 calc R
C8 C 0.8148(12) 0.5096(7) 0.1275(7) 0.0238(13) Uani 1 1 d .
H8 H 0.955609 0.555375 0.105249 0.029 Uiso 1 1 calc R
C9 C 0.7154(12) 0.4014(7) 0.0370(7) 0.0241(13) Uani 1 1 d .
C10 C 0.5133(12) 0.3340(7) 0.0667(7) 0.0267(14) Uani 1 1 d .
H10 H 0.448819 0.260282 0.004015 0.032 Uiso 1 1 calc R
C11 C 0.4024(11) 0.3742(7) 0.1899(7) 0.0238(14) Uani 1 1 d .
H11 H 0.260473 0.328284 0.210190 0.029 Uiso 1 1 calc R
loop_
_atom_site_aniso_label
_atom_site_aniso_U_11
_atom_site_aniso_U_22
_atom_site_aniso_U_33
_atom_site_aniso_U_23
_atom_site_aniso_U_13
_atom_site_aniso_U_12
Br1 0.0271(3) 0.0300(3) 0.0276(3) -0.0021(3) 0.0062(2) 0.0046(3)
O1 0.024(3) 0.030(3) 0.031(2) 0.0019(19) 0.008(2) 0.0024(18)
O2 0.026(2) 0.027(2) 0.038(3) -0.002(2) 0.0019(19) 0.0074(19)
C1 0.017(3) 0.020(3) 0.032(3) 0.002(3) 0.005(2) 0.000(2)
C2 0.024(3) 0.017(3) 0.030(3) 0.002(2) 0.005(3) 0.002(2)
C3 0.019(3) 0.024(3) 0.027(3) 0.002(3) 0.002(2) 0.001(3)
C4 0.024(3) 0.023(3) 0.033(3) 0.004(3) 0.005(3) 0.001(3)
C5 0.024(3) 0.023(3) 0.026(3) -0.006(2) 0.002(2) -0.001(2)
C6 0.021(3) 0.018(3) 0.024(3) 0.003(2) 0.006(2) 0.002(2)
C7 0.026(3) 0.024(3) 0.033(3) 0.000(3) 0.007(3) -0.006(3)
C8 0.020(3) 0.025(3) 0.027(3) -0.001(3) 0.004(2) -0.002(2)
C9 0.025(3) 0.020(3) 0.028(3) 0.002(2) 0.004(3) 0.005(2)
C10 0.026(3) 0.023(4) 0.030(3) -0.002(3) -0.002(2) -0.004(3)
C11 0.020(3) 0.022(4) 0.029(3) 0.002(3) 0.000(2) -0.002(2)
loop_
_atom_type_symbol
_atom_type_description
_atom_type_scat_dispersion_real
_atom_type_scat_dispersion_imag
_atom_type_scat_source
C C 0.0181 0.0091 'International Tables Vol C Tables 4.2.6.8 and 6.1.1.4'
H H 0.0000 0.0000 'International Tables Vol C Tables 4.2.6.8 and 6.1.1.4'
Br Br -0.6763 1.2805 'International Tables Vol C Tables 4.2.6.8 and 6.1.1.4'
O O 0.0492 0.0322 'International Tables Vol C Tables 4.2.6.8 and 6.1.1.4'
loop_
_geom_angle_atom_site_label_1
_geom_angle_atom_site_label_2
_geom_angle_atom_site_label_3
_geom_angle
C5 O1 C4 111.6(5)
C2 C1 H1 114.6
C3 C1 H1 114.6
C3 C1 C2 59.1(4)
C6 C1 H1 114.6
C6 C1 C2 119.8(5)
C6 C1 C3 123.0(6)
C1 C2 H2 121.0
C3 C2 C1 59.4(4)
C3 C2 H2 121.0
C5 C2 C1 112.3(5)
C5 C2 H2 121.0
C5 C2 C3 106.5(6)
C1 C3 H3 120.1
C1 C3 C4 114.6(6)
C2 C3 C1 61.5(4)
C2 C3 H3 120.1
C2 C3 C4 105.7(6)
C4 C3 H3 120.1
O1 C4 C3 105.4(5)
O1 C4 H4A 110.7
O1 C4 H4B 110.7
C3 C4 H4A 110.7
C3 C4 H4B 110.7
H4A C4 H4B 108.8
O1 C5 C2 109.9(5)
O2 C5 O1 121.7(6)
O2 C5 C2 128.3(6)
C7 C6 C1 122.7(6)
C11 C6 C1 118.7(6)
C11 C6 C7 118.7(6)
C6 C7 H7 119.7
C8 C7 C6 120.6(6)
C8 C7 H7 119.7
C7 C8 H8 120.4
C7 C8 C9 119.1(6)
C9 C8 H8 120.4
C8 C9 Br1 118.6(5)
C10 C9 Br1 119.8(5)
C10 C9 C8 121.5(6)
C9 C10 H10 120.3
C9 C10 C11 119.4(6)
C11 C10 H10 120.3
C6 C11 H11 119.7
C10 C11 C6 120.7(6)
C10 C11 H11 119.7
loop_
_geom_bond_atom_site_label_1
_geom_bond_atom_site_label_2
_geom_bond_distance
Br1 C9 1.905(7)
O1 C4 1.464(8)
O1 C5 1.354(8)
O2 C5 1.202(8)
C1 H1 1.0000
C1 C2 1.533(9)
C1 C3 1.502(9)
C1 C6 1.482(9)
C2 H2 1.0000
C2 C3 1.497(8)
C2 C5 1.481(9)
C3 H3 1.0000
C3 C4 1.519(9)
C4 H4A 0.9900
C4 H4B 0.9900
C6 C7 1.406(9)
C6 C11 1.396(9)
C7 H7 0.9500
C7 C8 1.382(9)
C8 H8 0.9500
C8 C9 1.395(9)
C9 C10 1.365(9)
C10 H10 0.9500
C10 C11 1.394(9)
C11 H11 0.9500
loop_
_geom_torsion_atom_site_label_1
_geom_torsion_atom_site_label_2
_geom_torsion_atom_site_label_3
_geom_torsion_atom_site_label_4
_geom_torsion
Br1 C9 C10 C11 -177.1(5)
C1 C2 C3 C4 -109.8(6)
C1 C2 C5 O1 60.5(7)
C1 C2 C5 O2 -117.1(7)
C1 C3 C4 O1 -57.8(7)
C1 C6 C7 C8 -178.7(6)
C1 C6 C11 C10 179.1(6)
C2 C1 C3 C4 95.2(7)
C2 C1 C6 C7 28.2(9)
C2 C1 C6 C11 -149.8(6)
C2 C3 C4 O1 7.6(7)
C3 C1 C2 C5 -96.5(6)
C3 C1 C6 C7 -42.3(9)
C3 C1 C6 C11 139.8(6)
C3 C2 C5 O1 -2.7(7)
C3 C2 C5 O2 179.7(6)
C4 O1 C5 O2 -174.3(6)
C4 O1 C5 C2 7.9(7)
C5 O1 C4 C3 -9.8(7)
C5 C2 C3 C1 106.5(5)
C5 C2 C3 C4 -3.3(6)
C6 C1 C2 C3 -112.9(7)
C6 C1 C2 C5 150.6(6)
C6 C1 C3 C2 107.5(7)
C6 C1 C3 C4 -157.3(6)
C6 C7 C8 C9 0.3(10)
C7 C6 C11 C10 1.0(9)
C7 C8 C9 Br1 177.4(5)
C7 C8 C9 C10 0.0(10)
C8 C9 C10 C11 0.3(10)
C9 C10 C11 C6 -0.8(9)
C11 C6 C7 C8 -0.8(9)
